MODEL 1
REMARK VINA RESULT:      -8.6      0.000      0.000
REMARK SMILES CC[C@H](Oc1ccccc1/C=C1\SC(N)=[NH+]C1=O)C(=O)OCCOCCOC(=O)c1ccc(-c2c3nc(c(-c4ccc(S(=O)(=O)[O-])cc4)c4ccc([nH]4)c(-c4ccc(S(=O)(=O)[O-])cc4)c4nc(c(-c5ccc(S(=O)(=O)[O-])cc5)c5ccc2[nH]5)C=C4)C=C3)cc1
REMARK SMILES IDX 24 1 23 2 22 3 21 4 19 5 20 6 3 7 2 8 1 9 4 10 5 11 6 12
REMARK SMILES IDX 10 13 7 14 9 15 8 16 11 17 12 18 13 19 17 20 14 21 16 22
REMARK SMILES IDX 18 23 15 24 25 28 26 29 27 30 28 31 29 32 30 33 31 34 89 35
REMARK SMILES IDX 32 36 88 37 33 38 34 39 35 40 82 41 36 42 87 43 81 44 83 45
REMARK SMILES IDX 37 46 86 47 80 48 79 49 38 51 68 52 49 53 67 54 50 55 53 56
REMARK SMILES IDX 66 57 84 58 51 59 52 60 65 62 85 63 54 64 39 65 40 66 48 67
REMARK SMILES IDX 41 68 47 69 42 70 43 71 44 72 45 73 46 74 69 75 70 76 78 77
REMARK SMILES IDX 71 78 77 79 72 80 73 81 74 82 75 83 76 84 55 85 56 86 64 87
REMARK SMILES IDX 57 88 63 89 58 90 59 91 60 92 61 93 62 94
REMARK H PARENT 16 25 15 26 15 27 83 50 53 61
REMARK Flexibility Score: inf
ROOT
ATOM      1  O   UNL A   1      32.302  33.361  28.105  1.00  0.00    -0.374 OA
ENDROOT
BRANCH   1   2
ATOM      2  C   UNL A   1      33.119  34.503  27.898  1.00  0.00     0.202 C 
BRANCH   2   3
ATOM      3  C   UNL A   1      34.538  34.537  28.488  1.00  0.00     0.261 C 
BRANCH   3   4
ATOM      4  O   UNL A   1      34.644  34.604  29.922  1.00  0.00    -0.461 OA
BRANCH   4   5
ATOM      5  C   UNL A   1      35.065  33.453  30.521  1.00  0.00     0.347 C 
ATOM      6  O   UNL A   1      34.350  32.470  30.705  1.00  0.00    -0.248 OA
BRANCH   5   7
ATOM      7  C   UNL A   1      36.493  33.545  31.095  1.00  0.00     0.282 C 
BRANCH   7   8
ATOM      8  C   UNL A   1      37.362  32.929  29.984  1.00  0.00     0.054 C 
ATOM      9  C   UNL A   1      38.162  33.926  29.151  1.00  0.00     0.008 C 
ENDBRANCH   7   8
BRANCH   7  10
ATOM     10  O   UNL A   1      36.598  33.207  32.480  1.00  0.00    -0.478 OA
BRANCH  10  11
ATOM     11  C   UNL A   1      37.600  33.476  33.370  1.00  0.00     0.127 A 
ATOM     12  C   UNL A   1      37.744  34.633  34.128  1.00  0.00     0.047 A 
ATOM     13  C   UNL A   1      38.623  32.503  33.486  1.00  0.00     0.018 A 
ATOM     14  C   UNL A   1      38.946  34.947  34.770  1.00  0.00     0.004 A 
ATOM     15  C   UNL A   1      39.846  32.832  34.099  1.00  0.00     0.012 A 
ATOM     16  C   UNL A   1      40.020  34.075  34.700  1.00  0.00     0.001 A 
BRANCH  13  17
ATOM     17  C   UNL A   1      38.338  31.071  33.263  1.00  0.00     0.036 C 
ATOM     18  C   UNL A   1      39.103  29.992  33.450  1.00  0.00     0.110 C 
ATOM     19  S   UNL A   1      40.754  29.891  33.866  1.00  0.00     0.006 SA
ATOM     20  C   UNL A   1      38.608  28.613  33.150  1.00  0.00     0.346 C 
ATOM     21  C   UNL A   1      40.795  28.285  33.183  1.00  0.00     0.314 C 
ATOM     22  N   UNL A   1      39.655  27.752  32.903  1.00  0.00    -0.200 N 
ATOM     23  O   UNL A   1      37.422  28.318  33.093  1.00  0.00    -0.240 OA
ATOM     24  N   UNL A   1      41.991  27.727  32.918  1.00  0.00    -0.281 N 
ATOM     25  H   UNL A   1      39.545  26.838  32.554  1.00  0.00     0.316 HD
ATOM     26  H   UNL A   1      42.820  28.199  33.163  1.00  0.00     0.302 HD
ATOM     27  H   UNL A   1      42.037  26.848  32.478  1.00  0.00     0.302 HD
ENDBRANCH  13  17
ENDBRANCH  10  11
ENDBRANCH   7  10
ENDBRANCH   5   7
ENDBRANCH   4   5
ENDBRANCH   3   4
ENDBRANCH   2   3
ENDBRANCH   1   2
BRANCH   1  28
ATOM     28  C   UNL A   1      32.093  32.470  27.020  1.00  0.00     0.202 C 
BRANCH  28  29
ATOM     29  C   UNL A   1      32.767  31.092  27.028  1.00  0.00     0.261 C 
BRANCH  29  30
ATOM     30  O   UNL A   1      34.010  31.007  27.749  1.00  0.00    -0.460 OA
BRANCH  30  31
ATOM     31  C   UNL A   1      34.612  29.794  27.705  1.00  0.00     0.338 C 
ATOM     32  O   UNL A   1      34.116  28.737  27.347  1.00  0.00    -0.246 OA
BRANCH  31  33
ATOM     33  C   UNL A   1      36.005  29.845  28.171  1.00  0.00     0.060 A 
ATOM     34  C   UNL A   1      37.027  30.048  27.238  1.00  0.00     0.016 A 
ATOM     35  C   UNL A   1      36.309  29.427  29.467  1.00  0.00     0.016 A 
ATOM     36  C   UNL A   1      38.349  29.779  27.597  1.00  0.00     0.010 A 
ATOM     37  C   UNL A   1      37.629  29.173  29.829  1.00  0.00     0.010 A 
ATOM     38  C   UNL A   1      38.652  29.306  28.884  1.00  0.00    -0.014 A 
BRANCH  38  39
ATOM     39  C   UNL A   1      40.031  28.917  29.253  1.00  0.00     0.031 A 
ATOM     40  C   UNL A   1      40.943  29.904  29.932  1.00  0.00     0.074 A 
ATOM     41  C   UNL A   1      40.467  27.690  28.923  1.00  0.00     0.049 A 
ATOM     42  N   UNL A   1      42.190  29.754  30.299  1.00  0.00    -0.248 NA
ATOM     43  C   UNL A   1      40.387  31.236  30.226  1.00  0.00     0.031 C 
ATOM     44  C   UNL A   1      39.668  26.670  28.239  1.00  0.00     0.029 A 
ATOM     45  N   UNL A   1      41.687  27.095  29.104  1.00  0.00    -0.354 N 
ATOM     46  C   UNL A   1      42.574  30.971  30.855  1.00  0.00     0.074 A 
ATOM     47  C   UNL A   1      41.436  31.859  30.747  1.00  0.00     0.031 C 
ATOM     48  C   UNL A   1      40.416  25.569  28.072  1.00  0.00     0.029 A 
ATOM     49  C   UNL A   1      41.754  25.820  28.599  1.00  0.00     0.049 A 
ATOM     50  H   UNL A   1      42.442  27.539  29.554  1.00  0.00     0.167 HD
ATOM     51  C   UNL A   1      43.764  31.310  31.408  1.00  0.00     0.031 A 
ATOM     52  C   UNL A   1      42.785  24.956  28.552  1.00  0.00     0.031 A 
ATOM     53  C   UNL A   1      44.888  30.413  31.495  1.00  0.00     0.049 A 
ATOM     54  C   UNL A   1      44.101  25.365  29.150  1.00  0.00     0.074 A 
ATOM     55  C   UNL A   1      46.122  30.633  32.082  1.00  0.00     0.029 A 
ATOM     56  N   UNL A   1      44.919  29.129  30.971  1.00  0.00    -0.354 N 
ATOM     57  N   UNL A   1      44.425  26.494  29.735  1.00  0.00    -0.248 NA
ATOM     58  C   UNL A   1      45.188  24.380  29.094  1.00  0.00     0.031 C 
ATOM     59  C   UNL A   1      46.920  29.508  31.856  1.00  0.00     0.029 A 
ATOM     60  C   UNL A   1      46.161  28.557  31.192  1.00  0.00     0.049 A 
ATOM     61  H   UNL A   1      44.169  28.688  30.509  1.00  0.00     0.167 HD
ATOM     62  C   UNL A   1      45.745  26.344  30.144  1.00  0.00     0.074 A 
ATOM     63  C   UNL A   1      46.152  25.009  29.752  1.00  0.00     0.031 C 
ATOM     64  C   UNL A   1      46.547  27.227  30.788  1.00  0.00     0.031 A 
BRANCH  51  65
ATOM     65  C   UNL A   1      43.924  32.711  31.945  1.00  0.00    -0.014 A 
ATOM     66  C   UNL A   1      44.412  33.755  31.138  1.00  0.00     0.010 A 
ATOM     67  C   UNL A   1      43.521  33.003  33.262  1.00  0.00     0.010 A 
ATOM     68  C   UNL A   1      44.527  35.053  31.647  1.00  0.00     0.020 A 
ATOM     69  C   UNL A   1      43.608  34.305  33.767  1.00  0.00     0.020 A 
ATOM     70  C   UNL A   1      44.125  35.320  32.960  1.00  0.00     0.054 A 
BRANCH  70  71
ATOM     71  S   UNL A   1      44.259  37.018  33.582  1.00  0.00     0.124 S 
ATOM     72  O   UNL A   1      45.707  37.206  33.635  1.00  0.00    -0.237 OA
ATOM     73  O   UNL A   1      43.563  37.791  32.556  1.00  0.00    -0.237 OA
ATOM     74  O   UNL A   1      43.591  36.968  34.880  1.00  0.00    -0.744 OA
ENDBRANCH  70  71
ENDBRANCH  51  65
BRANCH  52  75
ATOM     75  C   UNL A   1      42.599  23.619  27.929  1.00  0.00    -0.014 A 
ATOM     76  C   UNL A   1      43.110  23.352  26.647  1.00  0.00     0.010 A 
ATOM     77  C   UNL A   1      41.934  22.594  28.628  1.00  0.00     0.010 A 
ATOM     78  C   UNL A   1      42.944  22.091  26.068  1.00  0.00     0.020 A 
ATOM     79  C   UNL A   1      41.793  21.324  28.065  1.00  0.00     0.020 A 
ATOM     80  C   UNL A   1      42.288  21.085  26.782  1.00  0.00     0.054 A 
BRANCH  80  81
ATOM     81  S   UNL A   1      42.129  19.442  26.028  1.00  0.00     0.124 S 
ATOM     82  O   UNL A   1      42.676  18.578  27.070  1.00  0.00    -0.237 OA
ATOM     83  O   UNL A   1      40.689  19.337  25.806  1.00  0.00    -0.237 OA
ATOM     84  O   UNL A   1      42.934  19.545  24.813  1.00  0.00    -0.744 OA
ENDBRANCH  80  81
ENDBRANCH  52  75
BRANCH  64  85
ATOM     85  C   UNL A   1      47.937  26.764  31.141  1.00  0.00    -0.014 A 
ATOM     86  C   UNL A   1      48.194  26.065  32.333  1.00  0.00     0.010 A 
ATOM     87  C   UNL A   1      48.992  26.996  30.239  1.00  0.00     0.010 A 
ATOM     88  C   UNL A   1      49.490  25.638  32.633  1.00  0.00     0.020 A 
ATOM     89  C   UNL A   1      50.282  26.542  30.521  1.00  0.00     0.020 A 
ATOM     90  C   UNL A   1      50.525  25.879  31.724  1.00  0.00     0.054 A 
BRANCH  90  91
ATOM     91  S   UNL A   1      52.190  25.278  32.121  1.00  0.00     0.124 S 
ATOM     92  O   UNL A   1      51.975  23.837  32.224  1.00  0.00    -0.237 OA
ATOM     93  O   UNL A   1      52.972  25.716  30.968  1.00  0.00    -0.237 OA
ATOM     94  O   UNL A   1      52.512  25.951  33.377  1.00  0.00    -0.744 OA
ENDBRANCH  90  91
ENDBRANCH  64  85
ENDBRANCH  38  39
ENDBRANCH  31  33
ENDBRANCH  30  31
ENDBRANCH  29  30
ENDBRANCH  28  29
ENDBRANCH   1  28
TORSDOF 21
ENDMDL
MODEL 2
REMARK VINA RESULT:      -8.4      5.316     11.886
REMARK SMILES CC[C@H](Oc1ccccc1/C=C1\SC(N)=[NH+]C1=O)C(=O)OCCOCCOC(=O)c1ccc(-c2c3nc(c(-c4ccc(S(=O)(=O)[O-])cc4)c4ccc([nH]4)c(-c4ccc(S(=O)(=O)[O-])cc4)c4nc(c(-c5ccc(S(=O)(=O)[O-])cc5)c5ccc2[nH]5)C=C4)C=C3)cc1
REMARK SMILES IDX 24 1 23 2 22 3 21 4 19 5 20 6 3 7 2 8 1 9 4 10 5 11 6 12
REMARK SMILES IDX 10 13 7 14 9 15 8 16 11 17 12 18 13 19 17 20 14 21 16 22
REMARK SMILES IDX 18 23 15 24 25 28 26 29 27 30 28 31 29 32 30 33 31 34 89 35
REMARK SMILES IDX 32 36 88 37 33 38 34 39 35 40 82 41 36 42 87 43 81 44 83 45
REMARK SMILES IDX 37 46 86 47 80 48 79 49 38 51 68 52 49 53 67 54 50 55 53 56
REMARK SMILES IDX 66 57 84 58 51 59 52 60 65 62 85 63 54 64 39 65 40 66 48 67
REMARK SMILES IDX 41 68 47 69 42 70 43 71 44 72 45 73 46 74 69 75 70 76 78 77
REMARK SMILES IDX 71 78 77 79 72 80 73 81 74 82 75 83 76 84 55 85 56 86 64 87
REMARK SMILES IDX 57 88 63 89 58 90 59 91 60 92 61 93 62 94
REMARK H PARENT 16 25 15 26 15 27 83 50 53 61
REMARK Flexibility Score: inf
ROOT
ATOM      1  O   UNL A   1      41.205  21.461  26.948  1.00  0.00    -0.374 OA
ENDROOT
BRANCH   1   2
ATOM      2  C   UNL A   1      40.182  20.606  26.460  1.00  0.00     0.202 C 
BRANCH   2   3
ATOM      3  C   UNL A   1      38.972  21.210  25.730  1.00  0.00     0.261 C 
BRANCH   3   4
ATOM      4  O   UNL A   1      38.616  22.562  26.072  1.00  0.00    -0.461 OA
BRANCH   4   5
ATOM      5  C   UNL A   1      37.365  22.943  25.685  1.00  0.00     0.347 C 
ATOM      6  O   UNL A   1      36.818  23.983  26.045  1.00  0.00    -0.248 OA
BRANCH   5   7
ATOM      7  C   UNL A   1      36.622  21.869  24.864  1.00  0.00     0.282 C 
BRANCH   7   8
ATOM      8  C   UNL A   1      36.528  22.497  23.461  1.00  0.00     0.054 C 
ATOM      9  C   UNL A   1      35.265  23.311  23.194  1.00  0.00     0.008 C 
ENDBRANCH   7   8
BRANCH   7  10
ATOM     10  O   UNL A   1      35.525  21.255  25.546  1.00  0.00    -0.478 OA
BRANCH  10  11
ATOM     11  C   UNL A   1      34.651  20.301  25.109  1.00  0.00     0.127 A 
ATOM     12  C   UNL A   1      34.954  18.976  24.812  1.00  0.00     0.047 A 
ATOM     13  C   UNL A   1      33.317  20.719  24.881  1.00  0.00     0.018 A 
ATOM     14  C   UNL A   1      34.074  18.165  24.087  1.00  0.00     0.004 A 
ATOM     15  C   UNL A   1      32.445  19.919  24.120  1.00  0.00     0.012 A 
ATOM     16  C   UNL A   1      32.844  18.659  23.684  1.00  0.00     0.001 A 
BRANCH  13  17
ATOM     17  C   UNL A   1      32.719  21.815  25.671  1.00  0.00     0.036 C 
ATOM     18  C   UNL A   1      31.936  22.831  25.297  1.00  0.00     0.110 C 
ATOM     19  S   UNL A   1      31.471  23.323  23.732  1.00  0.00     0.006 SA
ATOM     20  C   UNL A   1      31.442  23.846  26.277  1.00  0.00     0.346 C 
ATOM     21  C   UNL A   1      31.148  24.918  24.365  1.00  0.00     0.314 C 
ATOM     22  N   UNL A   1      31.130  25.032  25.649  1.00  0.00    -0.200 N 
ATOM     23  O   UNL A   1      31.371  23.645  27.482  1.00  0.00    -0.240 OA
ATOM     24  N   UNL A   1      31.012  25.940  23.500  1.00  0.00    -0.281 N 
ATOM     25  H   UNL A   1      30.917  25.868  26.125  1.00  0.00     0.316 HD
ATOM     26  H   UNL A   1      31.038  25.771  22.530  1.00  0.00     0.302 HD
ATOM     27  H   UNL A   1      30.889  26.857  23.836  1.00  0.00     0.302 HD
ENDBRANCH  13  17
ENDBRANCH  10  11
ENDBRANCH   7  10
ENDBRANCH   5   7
ENDBRANCH   4   5
ENDBRANCH   3   4
ENDBRANCH   2   3
ENDBRANCH   1   2
BRANCH   1  28
ATOM     28  C   UNL A   1      42.127  22.015  26.021  1.00  0.00     0.202 C 
BRANCH  28  29
ATOM     29  C   UNL A   1      42.488  23.503  26.108  1.00  0.00     0.261 C 
BRANCH  29  30
ATOM     30  O   UNL A   1      41.489  24.358  26.695  1.00  0.00    -0.460 OA
BRANCH  30  31
ATOM     31  C   UNL A   1      41.405  25.594  26.148  1.00  0.00     0.338 C 
ATOM     32  O   UNL A   1      41.660  25.910  24.997  1.00  0.00    -0.246 OA
BRANCH  31  33
ATOM     33  C   UNL A   1      40.968  26.606  27.121  1.00  0.00     0.060 A 
ATOM     34  C   UNL A   1      41.694  27.795  27.237  1.00  0.00     0.016 A 
ATOM     35  C   UNL A   1      40.020  26.264  28.086  1.00  0.00     0.016 A 
ATOM     36  C   UNL A   1      41.501  28.611  28.352  1.00  0.00     0.010 A 
ATOM     37  C   UNL A   1      39.818  27.085  29.191  1.00  0.00     0.010 A 
ATOM     38  C   UNL A   1      40.588  28.242  29.353  1.00  0.00    -0.014 A 
BRANCH  38  39
ATOM     39  C   UNL A   1      40.444  29.038  30.592  1.00  0.00     0.031 A 
ATOM     40  C   UNL A   1      39.412  30.131  30.677  1.00  0.00     0.074 A 
ATOM     41  C   UNL A   1      41.283  28.802  31.614  1.00  0.00     0.049 A 
ATOM     42  N   UNL A   1      39.163  30.953  31.664  1.00  0.00    -0.248 NA
ATOM     43  C   UNL A   1      38.558  30.338  29.495  1.00  0.00     0.031 C 
ATOM     44  C   UNL A   1      42.335  27.782  31.619  1.00  0.00     0.029 A 
ATOM     45  N   UNL A   1      41.395  29.406  32.837  1.00  0.00    -0.354 N 
ATOM     46  C   UNL A   1      38.135  31.780  31.223  1.00  0.00     0.074 A 
ATOM     47  C   UNL A   1      37.829  31.383  29.865  1.00  0.00     0.031 C 
ATOM     48  C   UNL A   1      42.976  27.822  32.796  1.00  0.00     0.029 A 
ATOM     49  C   UNL A   1      42.409  28.894  33.609  1.00  0.00     0.049 A 
ATOM     50  H   UNL A   1      40.806  30.137  33.134  1.00  0.00     0.167 HD
ATOM     51  C   UNL A   1      37.504  32.775  31.893  1.00  0.00     0.031 A 
ATOM     52  C   UNL A   1      42.842  29.259  34.830  1.00  0.00     0.031 A 
ATOM     53  C   UNL A   1      37.832  33.163  33.241  1.00  0.00     0.049 A 
ATOM     54  C   UNL A   1      42.141  30.381  35.542  1.00  0.00     0.074 A 
ATOM     55  C   UNL A   1      37.223  34.120  34.035  1.00  0.00     0.029 A 
ATOM     56  N   UNL A   1      38.866  32.622  33.992  1.00  0.00    -0.354 N 
ATOM     57  N   UNL A   1      41.125  31.106  35.138  1.00  0.00    -0.248 NA
ATOM     58  C   UNL A   1      42.636  30.727  36.880  1.00  0.00     0.031 C 
ATOM     59  C   UNL A   1      37.929  34.201  35.239  1.00  0.00     0.029 A 
ATOM     60  C   UNL A   1      38.933  33.246  35.226  1.00  0.00     0.049 A 
ATOM     61  H   UNL A   1      39.465  31.900  33.691  1.00  0.00     0.167 HD
ATOM     62  C   UNL A   1      40.839  31.975  36.185  1.00  0.00     0.074 A 
ATOM     63  C   UNL A   1      41.781  31.672  37.245  1.00  0.00     0.031 C 
ATOM     64  C   UNL A   1      39.884  32.933  36.265  1.00  0.00     0.031 A 
BRANCH  51  65
ATOM     65  C   UNL A   1      36.409  33.530  31.179  1.00  0.00    -0.014 A 
ATOM     66  C   UNL A   1      36.575  33.990  29.860  1.00  0.00     0.010 A 
ATOM     67  C   UNL A   1      35.169  33.727  31.815  1.00  0.00     0.010 A 
ATOM     68  C   UNL A   1      35.538  34.663  29.206  1.00  0.00     0.020 A 
ATOM     69  C   UNL A   1      34.119  34.375  31.155  1.00  0.00     0.020 A 
ATOM     70  C   UNL A   1      34.316  34.852  29.859  1.00  0.00     0.054 A 
BRANCH  70  71
ATOM     71  S   UNL A   1      32.980  35.703  28.974  1.00  0.00     0.124 S 
ATOM     72  O   UNL A   1      32.432  34.629  28.151  1.00  0.00    -0.237 OA
ATOM     73  O   UNL A   1      32.119  36.163  30.060  1.00  0.00    -0.237 OA
ATOM     74  O   UNL A   1      33.669  36.761  28.238  1.00  0.00    -0.744 OA
ENDBRANCH  70  71
ENDBRANCH  51  65
BRANCH  52  75
ATOM     75  C   UNL A   1      43.985  28.541  35.452  1.00  0.00    -0.014 A 
ATOM     76  C   UNL A   1      45.298  29.021  35.299  1.00  0.00     0.010 A 
ATOM     77  C   UNL A   1      43.765  27.387  36.227  1.00  0.00     0.010 A 
ATOM     78  C   UNL A   1      46.370  28.350  35.894  1.00  0.00     0.020 A 
ATOM     79  C   UNL A   1      44.830  26.732  36.849  1.00  0.00     0.020 A 
ATOM     80  C   UNL A   1      46.129  27.211  36.668  1.00  0.00     0.054 A 
BRANCH  80  81
ATOM     81  S   UNL A   1      47.531  26.388  37.471  1.00  0.00     0.124 S 
ATOM     82  O   UNL A   1      46.860  25.472  38.387  1.00  0.00    -0.237 OA
ATOM     83  O   UNL A   1      48.219  25.766  36.342  1.00  0.00    -0.237 OA
ATOM     84  O   UNL A   1      48.256  27.488  38.103  1.00  0.00    -0.744 OA
ENDBRANCH  80  81
ENDBRANCH  52  75
BRANCH  64  85
ATOM     85  C   UNL A   1      39.786  33.702  37.557  1.00  0.00    -0.014 A 
ATOM     86  C   UNL A   1      40.471  34.915  37.740  1.00  0.00     0.010 A 
ATOM     87  C   UNL A   1      38.955  33.219  38.587  1.00  0.00     0.010 A 
ATOM     88  C   UNL A   1      40.356  35.614  38.945  1.00  0.00     0.020 A 
ATOM     89  C   UNL A   1      38.813  33.932  39.778  1.00  0.00     0.020 A 
ATOM     90  C   UNL A   1      39.527  35.117  39.956  1.00  0.00     0.054 A 
BRANCH  90  91
ATOM     91  S   UNL A   1      39.365  36.066  41.493  1.00  0.00     0.124 S 
ATOM     92  O   UNL A   1      39.227  37.431  40.994  1.00  0.00    -0.237 OA
ATOM     93  O   UNL A   1      38.164  35.493  42.098  1.00  0.00    -0.237 OA
ATOM     94  O   UNL A   1      40.609  35.786  42.207  1.00  0.00    -0.744 OA
ENDBRANCH  90  91
ENDBRANCH  64  85
ENDBRANCH  38  39
ENDBRANCH  31  33
ENDBRANCH  30  31
ENDBRANCH  29  30
ENDBRANCH  28  29
ENDBRANCH   1  28
TORSDOF 21
ENDMDL
MODEL 3
REMARK VINA RESULT:      -8.4      4.997     11.742
REMARK SMILES CC[C@H](Oc1ccccc1/C=C1\SC(N)=[NH+]C1=O)C(=O)OCCOCCOC(=O)c1ccc(-c2c3nc(c(-c4ccc(S(=O)(=O)[O-])cc4)c4ccc([nH]4)c(-c4ccc(S(=O)(=O)[O-])cc4)c4nc(c(-c5ccc(S(=O)(=O)[O-])cc5)c5ccc2[nH]5)C=C4)C=C3)cc1
REMARK SMILES IDX 24 1 23 2 22 3 21 4 19 5 20 6 3 7 2 8 1 9 4 10 5 11 6 12
REMARK SMILES IDX 10 13 7 14 9 15 8 16 11 17 12 18 13 19 17 20 14 21 16 22
REMARK SMILES IDX 18 23 15 24 25 28 26 29 27 30 28 31 29 32 30 33 31 34 89 35
REMARK SMILES IDX 32 36 88 37 33 38 34 39 35 40 82 41 36 42 87 43 81 44 83 45
REMARK SMILES IDX 37 46 86 47 80 48 79 49 38 51 68 52 49 53 67 54 50 55 53 56
REMARK SMILES IDX 66 57 84 58 51 59 52 60 65 62 85 63 54 64 39 65 40 66 48 67
REMARK SMILES IDX 41 68 47 69 42 70 43 71 44 72 45 73 46 74 69 75 70 76 78 77
REMARK SMILES IDX 71 78 77 79 72 80 73 81 74 82 75 83 76 84 55 85 56 86 64 87
REMARK SMILES IDX 57 88 63 89 58 90 59 91 60 92 61 93 62 94
REMARK H PARENT 16 25 15 26 15 27 83 50 53 61
REMARK Flexibility Score: inf
ROOT
ATOM      1  O   UNL A   1      38.090  22.456  24.666  1.00  0.00    -0.374 OA
ENDROOT
BRANCH   1   2
ATOM      2  C   UNL A   1      36.951  23.301  24.606  1.00  0.00     0.202 C 
BRANCH   2   3
ATOM      3  C   UNL A   1      35.668  22.899  25.351  1.00  0.00     0.261 C 
BRANCH   3   4
ATOM      4  O   UNL A   1      34.984  23.939  26.073  1.00  0.00    -0.461 OA
BRANCH   4   5
ATOM      5  C   UNL A   1      33.731  23.613  26.503  1.00  0.00     0.347 C 
ATOM      6  O   UNL A   1      33.475  22.635  27.203  1.00  0.00    -0.248 OA
BRANCH   5   7
ATOM      7  C   UNL A   1      32.624  24.504  25.904  1.00  0.00     0.282 C 
BRANCH   7   8
ATOM      8  C   UNL A   1      31.743  23.505  25.133  1.00  0.00     0.054 C 
ATOM      9  C   UNL A   1      31.211  24.004  23.793  1.00  0.00     0.008 C 
ENDBRANCH   7   8
BRANCH   7  10
ATOM     10  O   UNL A   1      33.089  25.747  25.370  1.00  0.00    -0.478 OA
BRANCH  10  11
ATOM     11  C   UNL A   1      33.172  26.974  25.965  1.00  0.00     0.127 A 
ATOM     12  C   UNL A   1      34.333  27.604  26.401  1.00  0.00     0.047 A 
ATOM     13  C   UNL A   1      31.948  27.642  26.215  1.00  0.00     0.018 A 
ATOM     14  C   UNL A   1      34.293  28.704  27.264  1.00  0.00     0.004 A 
ATOM     15  C   UNL A   1      31.904  28.725  27.112  1.00  0.00     0.012 A 
ATOM     16  C   UNL A   1      33.076  29.224  27.672  1.00  0.00     0.001 A 
BRANCH  13  17
ATOM     17  C   UNL A   1      30.781  27.441  25.333  1.00  0.00     0.036 C 
ATOM     18  C   UNL A   1      30.529  27.899  24.103  1.00  0.00     0.110 C 
ATOM     19  S   UNL A   1      31.404  29.020  23.163  1.00  0.00     0.006 SA
ATOM     20  C   UNL A   1      29.259  27.572  23.385  1.00  0.00     0.346 C 
ATOM     21  C   UNL A   1      29.953  29.336  22.247  1.00  0.00     0.314 C 
ATOM     22  N   UNL A   1      28.972  28.520  22.428  1.00  0.00    -0.200 N 
ATOM     23  O   UNL A   1      28.558  26.607  23.657  1.00  0.00    -0.240 OA
ATOM     24  N   UNL A   1      29.905  30.437  21.472  1.00  0.00    -0.281 N 
ATOM     25  H   UNL A   1      28.119  28.567  21.938  1.00  0.00     0.316 HD
ATOM     26  H   UNL A   1      30.699  31.013  21.385  1.00  0.00     0.302 HD
ATOM     27  H   UNL A   1      29.076  30.666  20.994  1.00  0.00     0.302 HD
ENDBRANCH  13  17
ENDBRANCH  10  11
ENDBRANCH   7  10
ENDBRANCH   5   7
ENDBRANCH   4   5
ENDBRANCH   3   4
ENDBRANCH   2   3
ENDBRANCH   1   2
BRANCH   1  28
ATOM     28  C   UNL A   1      38.444  21.880  25.914  1.00  0.00     0.202 C 
BRANCH  28  29
ATOM     29  C   UNL A   1      39.724  22.335  26.624  1.00  0.00     0.261 C 
BRANCH  29  30
ATOM     30  O   UNL A   1      39.622  23.556  27.381  1.00  0.00    -0.460 OA
BRANCH  30  31
ATOM     31  C   UNL A   1      40.637  24.432  27.189  1.00  0.00     0.338 C 
ATOM     32  O   UNL A   1      41.640  24.262  26.513  1.00  0.00    -0.246 OA
BRANCH  31  33
ATOM     33  C   UNL A   1      40.436  25.689  27.924  1.00  0.00     0.060 A 
ATOM     34  C   UNL A   1      41.489  26.605  28.004  1.00  0.00     0.016 A 
ATOM     35  C   UNL A   1      39.318  25.831  28.745  1.00  0.00     0.016 A 
ATOM     36  C   UNL A   1      41.437  27.632  28.948  1.00  0.00     0.010 A 
ATOM     37  C   UNL A   1      39.259  26.863  29.677  1.00  0.00     0.010 A 
ATOM     38  C   UNL A   1      40.337  27.744  29.814  1.00  0.00    -0.014 A 
BRANCH  38  39
ATOM     39  C   UNL A   1      40.308  28.760  30.889  1.00  0.00     0.031 A 
ATOM     40  C   UNL A   1      41.208  28.622  32.089  1.00  0.00     0.074 A 
ATOM     41  C   UNL A   1      39.430  29.773  30.799  1.00  0.00     0.049 A 
ATOM     42  N   UNL A   1      41.297  29.392  33.143  1.00  0.00    -0.248 NA
ATOM     43  C   UNL A   1      42.114  27.461  32.115  1.00  0.00     0.031 C 
ATOM     44  C   UNL A   1      38.497  29.979  29.689  1.00  0.00     0.029 A 
ATOM     45  N   UNL A   1      39.169  30.809  31.656  1.00  0.00    -0.354 N 
ATOM     46  C   UNL A   1      42.258  28.807  33.962  1.00  0.00     0.074 A 
ATOM     47  C   UNL A   1      42.699  27.599  33.298  1.00  0.00     0.031 C 
ATOM     48  C   UNL A   1      37.775  31.085  29.926  1.00  0.00     0.029 A 
ATOM     49  C   UNL A   1      38.165  31.638  31.220  1.00  0.00     0.049 A 
ATOM     50  H   UNL A   1      39.654  30.945  32.501  1.00  0.00     0.167 HD
ATOM     51  C   UNL A   1      42.730  29.244  35.156  1.00  0.00     0.031 A 
ATOM     52  C   UNL A   1      37.612  32.716  31.805  1.00  0.00     0.031 A 
ATOM     53  C   UNL A   1      42.269  30.444  35.806  1.00  0.00     0.049 A 
ATOM     54  C   UNL A   1      38.136  33.165  33.140  1.00  0.00     0.074 A 
ATOM     55  C   UNL A   1      42.715  31.009  36.988  1.00  0.00     0.029 A 
ATOM     56  N   UNL A   1      41.250  31.259  35.334  1.00  0.00    -0.354 N 
ATOM     57  N   UNL A   1      39.094  32.641  33.867  1.00  0.00    -0.248 NA
ATOM     58  C   UNL A   1      37.515  34.359  33.727  1.00  0.00     0.031 C 
ATOM     59  C   UNL A   1      41.923  32.127  37.264  1.00  0.00     0.029 A 
ATOM     60  C   UNL A   1      41.031  32.302  36.218  1.00  0.00     0.049 A 
ATOM     61  H   UNL A   1      40.755  31.116  34.495  1.00  0.00     0.167 HD
ATOM     62  C   UNL A   1      39.211  33.459  34.985  1.00  0.00     0.074 A 
ATOM     63  C   UNL A   1      38.236  34.520  34.827  1.00  0.00     0.031 C 
ATOM     64  C   UNL A   1      40.050  33.346  36.044  1.00  0.00     0.031 A 
BRANCH  51  65
ATOM     65  C   UNL A   1      43.784  28.415  35.849  1.00  0.00    -0.014 A 
ATOM     66  C   UNL A   1      45.156  28.660  35.651  1.00  0.00     0.010 A 
ATOM     67  C   UNL A   1      43.398  27.416  36.762  1.00  0.00     0.010 A 
ATOM     68  C   UNL A   1      46.117  27.899  36.324  1.00  0.00     0.020 A 
ATOM     69  C   UNL A   1      44.356  26.671  37.458  1.00  0.00     0.020 A 
ATOM     70  C   UNL A   1      45.711  26.908  37.224  1.00  0.00     0.054 A 
BRANCH  70  71
ATOM     71  S   UNL A   1      46.982  25.958  38.103  1.00  0.00     0.124 S 
ATOM     72  O   UNL A   1      46.414  24.612  38.092  1.00  0.00    -0.237 OA
ATOM     73  O   UNL A   1      48.162  26.148  37.263  1.00  0.00    -0.237 OA
ATOM     74  O   UNL A   1      47.046  26.595  39.416  1.00  0.00    -0.744 OA
ENDBRANCH  70  71
ENDBRANCH  51  65
BRANCH  52  75
ATOM     75  C   UNL A   1      36.512  33.445  31.120  1.00  0.00    -0.014 A 
ATOM     76  C   UNL A   1      36.697  33.964  29.826  1.00  0.00     0.010 A 
ATOM     77  C   UNL A   1      35.261  33.598  31.746  1.00  0.00     0.010 A 
ATOM     78  C   UNL A   1      35.658  34.639  29.180  1.00  0.00     0.020 A 
ATOM     79  C   UNL A   1      34.211  34.245  31.091  1.00  0.00     0.020 A 
ATOM     80  C   UNL A   1      34.420  34.773  29.816  1.00  0.00     0.054 A 
BRANCH  80  81
ATOM     81  S   UNL A   1      33.072  35.609  28.936  1.00  0.00     0.124 S 
ATOM     82  O   UNL A   1      32.267  36.126  30.037  1.00  0.00    -0.237 OA
ATOM     83  O   UNL A   1      33.786  36.609  28.146  1.00  0.00    -0.237 OA
ATOM     84  O   UNL A   1      32.456  34.536  28.158  1.00  0.00    -0.744 OA
ENDBRANCH  80  81
ENDBRANCH  52  75
BRANCH  64  85
ATOM     85  C   UNL A   1      39.974  34.418  37.100  1.00  0.00    -0.014 A 
ATOM     86  C   UNL A   1      40.637  35.647  36.943  1.00  0.00     0.010 A 
ATOM     87  C   UNL A   1      39.188  34.203  38.248  1.00  0.00     0.010 A 
ATOM     88  C   UNL A   1      40.543  36.630  37.932  1.00  0.00     0.020 A 
ATOM     89  C   UNL A   1      39.066  35.195  39.222  1.00  0.00     0.020 A 
ATOM     90  C   UNL A   1      39.758  36.396  39.066  1.00  0.00     0.054 A 
BRANCH  90  91
ATOM     91  S   UNL A   1      39.621  37.705  40.315  1.00  0.00     0.124 S 
ATOM     92  O   UNL A   1      39.004  36.994  41.431  1.00  0.00    -0.237 OA
ATOM     93  O   UNL A   1      41.012  38.103  40.514  1.00  0.00    -0.237 OA
ATOM     94  O   UNL A   1      38.777  38.710  39.673  1.00  0.00    -0.744 OA
ENDBRANCH  90  91
ENDBRANCH  64  85
ENDBRANCH  38  39
ENDBRANCH  31  33
ENDBRANCH  30  31
ENDBRANCH  29  30
ENDBRANCH  28  29
ENDBRANCH   1  28
TORSDOF 21
ENDMDL
