MODEL 1
REMARK VINA RESULT:     -10.9      0.000      0.000
REMARK SMILES Cc1ccc(NC(=O)C[N@H+]2CCC[C@@H](C(=O)OCCOCCOC(=O)c3ccc(-c4c5nc(c(-c6ccc(S(=O)(=O)[O-])cc6)c6ccc([nH]6)c(-c6ccc(S(=O)(=O)[O-])cc6)c6nc(c(-c7ccc(S(=O)(=O)[O-])cc7)c7ccc4[nH]7)C=C6)C=C5)cc3)C2)cc1Cl
REMARK SMILES IDX 20 1 19 2 18 3 17 4 15 5 16 6 14 7 10 8 11 9 86 10 12 12
REMARK SMILES IDX 13 13 9 14 7 15 6 16 8 18 5 19 1 20 2 21 3 22 88 23 4 24
REMARK SMILES IDX 87 25 89 26 21 27 22 28 23 29 24 30 25 31 26 32 27 33 85 34
REMARK SMILES IDX 28 35 84 36 29 37 30 38 31 39 78 40 32 41 83 42 77 43 79 44
REMARK SMILES IDX 33 45 82 46 76 47 75 48 34 50 64 51 45 52 63 53 46 54 49 55
REMARK SMILES IDX 62 56 80 57 47 58 48 59 61 61 81 62 50 63 35 64 36 65 44 66
REMARK SMILES IDX 37 67 43 68 38 69 39 70 40 71 41 72 42 73 65 74 66 75 74 76
REMARK SMILES IDX 67 77 73 78 68 79 69 80 70 81 71 82 72 83 51 84 52 85 60 86
REMARK SMILES IDX 53 87 59 88 54 89 55 90 56 91 57 92 58 93
REMARK H PARENT 10 11 6 17 79 49 49 60
REMARK Flexibility Score: inf
ROOT
ATOM      1  O   UNL A   1      39.209  21.851  26.488  1.00  0.00    -0.374 OA
ENDROOT
BRANCH   1   2
ATOM      2  C   UNL A   1      38.140  22.260  25.648  1.00  0.00     0.202 C 
BRANCH   2   3
ATOM      3  C   UNL A   1      37.098  21.240  25.163  1.00  0.00     0.261 C 
BRANCH   3   4
ATOM      4  O   UNL A   1      35.862  21.177  25.890  1.00  0.00    -0.463 OA
BRANCH   4   5
ATOM      5  C   UNL A   1      34.797  21.582  25.150  1.00  0.00     0.314 C 
ATOM      6  O   UNL A   1      34.140  20.829  24.434  1.00  0.00    -0.252 OA
BRANCH   5   7
ATOM      7  C   UNL A   1      34.468  23.058  25.329  1.00  0.00     0.154 C 
ATOM      8  N   UNL A   1      32.973  24.581  23.846  1.00  0.00    -0.326 N 
ATOM      9  C   UNL A   1      31.946  24.520  24.886  1.00  0.00     0.262 C 
ATOM     10  C   UNL A   1      33.934  23.486  23.958  1.00  0.00     0.278 C 
ATOM     11  H   UNL A   1      33.474  25.456  24.002  1.00  0.00     0.348 HD
ATOM     12  C   UNL A   1      32.608  24.496  26.267  1.00  0.00     0.062 C 
ATOM     13  C   UNL A   1      33.441  23.232  26.446  1.00  0.00     0.027 C 
BRANCH   8  14
ATOM     14  C   UNL A   1      32.395  24.641  22.466  1.00  0.00     0.363 C 
BRANCH  14  15
ATOM     15  C   UNL A   1      32.823  25.845  21.593  1.00  0.00     0.279 C 
ATOM     16  N   UNL A   1      32.826  27.155  22.010  1.00  0.00    -0.321 N 
ATOM     17  H   UNL A   1      33.086  27.790  21.303  1.00  0.00     0.170 HD
ATOM     18  O   UNL A   1      33.256  25.639  20.449  1.00  0.00    -0.268 OA
BRANCH  16  19
ATOM     19  C   UNL A   1      32.533  27.779  23.241  1.00  0.00     0.042 A 
ATOM     20  C   UNL A   1      31.795  30.684  26.355  1.00  0.00     0.046 C 
ATOM     21  C   UNL A   1      32.003  29.573  25.363  1.00  0.00    -0.032 A 
ATOM     22  C   UNL A   1      31.041  29.335  24.374  1.00  0.00     0.007 A 
ATOM     23  C   UNL A   1      33.173  28.805  25.341  1.00  0.00     0.046 A 
ATOM     24  C   UNL A   1      31.299  28.437  23.331  1.00  0.00     0.026 A 
ATOM     25  C   UNL A   1      33.422  27.893  24.303  1.00  0.00     0.047 A 
ATOM     26  Cl  UNL A   1      34.410  29.013  26.529  1.00  0.00    -0.084 Cl
ENDBRANCH  16  19
ENDBRANCH  14  15
ENDBRANCH   8  14
ENDBRANCH   5   7
ENDBRANCH   4   5
ENDBRANCH   3   4
ENDBRANCH   2   3
ENDBRANCH   1   2
BRANCH   1  27
ATOM     27  C   UNL A   1      40.521  22.342  26.244  1.00  0.00     0.202 C 
BRANCH  27  28
ATOM     28  C   UNL A   1      40.970  23.668  26.864  1.00  0.00     0.261 C 
BRANCH  28  29
ATOM     29  O   UNL A   1      39.955  24.685  26.842  1.00  0.00    -0.460 OA
BRANCH  29  30
ATOM     30  C   UNL A   1      40.434  25.934  26.631  1.00  0.00     0.338 C 
ATOM     31  O   UNL A   1      41.013  26.340  25.629  1.00  0.00    -0.246 OA
BRANCH  30  32
ATOM     32  C   UNL A   1      40.013  26.850  27.702  1.00  0.00     0.060 A 
ATOM     33  C   UNL A   1      40.490  28.166  27.650  1.00  0.00     0.016 A 
ATOM     34  C   UNL A   1      39.292  26.395  28.807  1.00  0.00     0.016 A 
ATOM     35  C   UNL A   1      40.315  29.014  28.738  1.00  0.00     0.010 A 
ATOM     36  C   UNL A   1      39.128  27.245  29.906  1.00  0.00     0.010 A 
ATOM     37  C   UNL A   1      39.683  28.537  29.893  1.00  0.00    -0.014 A 
BRANCH  37  38
ATOM     38  C   UNL A   1      39.781  29.326  31.143  1.00  0.00     0.031 A 
ATOM     39  C   UNL A   1      40.931  29.060  32.077  1.00  0.00     0.074 A 
ATOM     40  C   UNL A   1      38.889  30.294  31.419  1.00  0.00     0.049 A 
ATOM     41  N   UNL A   1      41.208  29.616  33.228  1.00  0.00    -0.248 NA
ATOM     42  C   UNL A   1      41.898  28.031  31.657  1.00  0.00     0.031 C 
ATOM     43  C   UNL A   1      37.768  30.679  30.563  1.00  0.00     0.029 A 
ATOM     44  N   UNL A   1      38.792  31.129  32.501  1.00  0.00    -0.354 N 
ATOM     45  C   UNL A   1      42.373  29.002  33.674  1.00  0.00     0.074 A 
ATOM     46  C   UNL A   1      42.739  28.015  32.681  1.00  0.00     0.031 C 
ATOM     47  C   UNL A   1      37.087  31.672  31.161  1.00  0.00     0.029 A 
ATOM     48  C   UNL A   1      37.708  31.970  32.451  1.00  0.00     0.049 A 
ATOM     49  H   UNL A   1      39.438  31.127  33.244  1.00  0.00     0.167 HD
ATOM     50  C   UNL A   1      43.077  29.240  34.805  1.00  0.00     0.031 A 
ATOM     51  C   UNL A   1      37.255  32.863  33.353  1.00  0.00     0.031 A 
ATOM     52  C   UNL A   1      42.703  30.214  35.795  1.00  0.00     0.049 A 
ATOM     53  C   UNL A   1      38.016  33.062  34.637  1.00  0.00     0.074 A 
ATOM     54  C   UNL A   1      43.352  30.536  36.975  1.00  0.00     0.029 A 
ATOM     55  N   UNL A   1      41.577  31.019  35.724  1.00  0.00    -0.354 N 
ATOM     56  N   UNL A   1      39.122  32.482  35.038  1.00  0.00    -0.248 NA
ATOM     57  C   UNL A   1      37.469  34.041  35.588  1.00  0.00     0.031 C 
ATOM     58  C   UNL A   1      42.591  31.502  37.640  1.00  0.00     0.029 A 
ATOM     59  C   UNL A   1      41.499  31.821  36.849  1.00  0.00     0.049 A 
ATOM     60  H   UNL A   1      40.929  31.021  34.983  1.00  0.00     0.167 HD
ATOM     61  C   UNL A   1      39.418  33.046  36.275  1.00  0.00     0.074 A 
ATOM     62  C   UNL A   1      38.381  34.018  36.551  1.00  0.00     0.031 C 
ATOM     63  C   UNL A   1      40.459  32.785  37.106  1.00  0.00     0.031 A 
BRANCH  50  64
ATOM     64  C   UNL A   1      44.305  28.404  35.048  1.00  0.00    -0.014 A 
ATOM     65  C   UNL A   1      45.573  28.829  34.615  1.00  0.00     0.010 A 
ATOM     66  C   UNL A   1      44.191  27.190  35.749  1.00  0.00     0.010 A 
ATOM     67  C   UNL A   1      46.702  28.037  34.847  1.00  0.00     0.020 A 
ATOM     68  C   UNL A   1      45.320  26.407  36.005  1.00  0.00     0.020 A 
ATOM     69  C   UNL A   1      46.566  26.827  35.536  1.00  0.00     0.054 A 
BRANCH  69  70
ATOM     70  S   UNL A   1      48.048  25.826  35.841  1.00  0.00     0.124 S 
ATOM     71  O   UNL A   1      48.119  25.829  37.299  1.00  0.00    -0.237 OA
ATOM     72  O   UNL A   1      47.701  24.545  35.232  1.00  0.00    -0.237 OA
ATOM     73  O   UNL A   1      49.111  26.566  35.164  1.00  0.00    -0.744 OA
ENDBRANCH  69  70
ENDBRANCH  50  64
BRANCH  51  74
ATOM     74  C   UNL A   1      36.007  33.625  33.078  1.00  0.00    -0.014 A 
ATOM     75  C   UNL A   1      34.748  33.069  33.358  1.00  0.00     0.010 A 
ATOM     76  C   UNL A   1      36.079  34.923  32.539  1.00  0.00     0.010 A 
ATOM     77  C   UNL A   1      33.581  33.791  33.091  1.00  0.00     0.020 A 
ATOM     78  C   UNL A   1      34.916  35.659  32.295  1.00  0.00     0.020 A 
ATOM     79  C   UNL A   1      33.673  35.083  32.563  1.00  0.00     0.054 A 
BRANCH  79  80
ATOM     80  S   UNL A   1      32.148  36.024  32.279  1.00  0.00     0.124 S 
ATOM     81  O   UNL A   1      32.264  36.371  30.866  1.00  0.00    -0.237 OA
ATOM     82  O   UNL A   1      31.109  35.052  32.611  1.00  0.00    -0.237 OA
ATOM     83  O   UNL A   1      32.261  37.145  33.210  1.00  0.00    -0.744 OA
ENDBRANCH  79  80
ENDBRANCH  51  74
BRANCH  63  84
ATOM     84  C   UNL A   1      40.549  33.586  38.377  1.00  0.00    -0.014 A 
ATOM     85  C   UNL A   1      41.216  34.822  38.415  1.00  0.00     0.010 A 
ATOM     86  C   UNL A   1      39.900  33.119  39.535  1.00  0.00     0.010 A 
ATOM     87  C   UNL A   1      41.257  35.565  39.598  1.00  0.00     0.020 A 
ATOM     88  C   UNL A   1      39.918  33.871  40.713  1.00  0.00     0.020 A 
ATOM     89  C   UNL A   1      40.608  35.083  40.740  1.00  0.00     0.054 A 
BRANCH  89  90
ATOM     90  S   UNL A   1      40.636  36.087  42.251  1.00  0.00     0.124 S 
ATOM     91  O   UNL A   1      40.321  35.098  43.278  1.00  0.00    -0.237 OA
ATOM     92  O   UNL A   1      42.003  36.602  42.271  1.00  0.00    -0.237 OA
ATOM     93  O   UNL A   1      39.602  37.093  42.017  1.00  0.00    -0.744 OA
ENDBRANCH  89  90
ENDBRANCH  63  84
ENDBRANCH  37  38
ENDBRANCH  30  32
ENDBRANCH  29  30
ENDBRANCH  28  29
ENDBRANCH  27  28
ENDBRANCH   1  27
TORSDOF 20
ENDMDL
MODEL 2
REMARK VINA RESULT:     -10.5      1.932      2.661
REMARK SMILES Cc1ccc(NC(=O)C[N@H+]2CCC[C@@H](C(=O)OCCOCCOC(=O)c3ccc(-c4c5nc(c(-c6ccc(S(=O)(=O)[O-])cc6)c6ccc([nH]6)c(-c6ccc(S(=O)(=O)[O-])cc6)c6nc(c(-c7ccc(S(=O)(=O)[O-])cc7)c7ccc4[nH]7)C=C6)C=C5)cc3)C2)cc1Cl
REMARK SMILES IDX 20 1 19 2 18 3 17 4 15 5 16 6 14 7 10 8 11 9 86 10 12 12
REMARK SMILES IDX 13 13 9 14 7 15 6 16 8 18 5 19 1 20 2 21 3 22 88 23 4 24
REMARK SMILES IDX 87 25 89 26 21 27 22 28 23 29 24 30 25 31 26 32 27 33 85 34
REMARK SMILES IDX 28 35 84 36 29 37 30 38 31 39 78 40 32 41 83 42 77 43 79 44
REMARK SMILES IDX 33 45 82 46 76 47 75 48 34 50 64 51 45 52 63 53 46 54 49 55
REMARK SMILES IDX 62 56 80 57 47 58 48 59 61 61 81 62 50 63 35 64 36 65 44 66
REMARK SMILES IDX 37 67 43 68 38 69 39 70 40 71 41 72 42 73 65 74 66 75 74 76
REMARK SMILES IDX 67 77 73 78 68 79 69 80 70 81 71 82 72 83 51 84 52 85 60 86
REMARK SMILES IDX 53 87 59 88 54 89 55 90 56 91 57 92 58 93
REMARK H PARENT 10 11 6 17 79 49 49 60
REMARK Flexibility Score: inf
ROOT
ATOM      1  O   UNL A   1      38.914  21.655  25.643  1.00  0.00    -0.374 OA
ENDROOT
BRANCH   1   2
ATOM      2  C   UNL A   1      37.558  22.061  25.759  1.00  0.00     0.202 C 
BRANCH   2   3
ATOM      3  C   UNL A   1      37.146  23.502  25.421  1.00  0.00     0.261 C 
BRANCH   3   4
ATOM      4  O   UNL A   1      35.782  23.713  25.026  1.00  0.00    -0.463 OA
BRANCH   4   5
ATOM      5  C   UNL A   1      35.465  23.073  23.871  1.00  0.00     0.314 C 
ATOM      6  O   UNL A   1      36.133  23.156  22.843  1.00  0.00    -0.252 OA
BRANCH   5   7
ATOM      7  C   UNL A   1      34.221  22.203  23.988  1.00  0.00     0.154 C 
ATOM      8  N   UNL A   1      32.155  22.523  25.532  1.00  0.00    -0.326 N 
ATOM      9  C   UNL A   1      31.393  22.954  24.359  1.00  0.00     0.262 C 
ATOM     10  C   UNL A   1      33.596  22.629  25.321  1.00  0.00     0.278 C 
ATOM     11  H   UNL A   1      31.928  21.537  25.662  1.00  0.00     0.348 HD
ATOM     12  C   UNL A   1      31.840  22.157  23.130  1.00  0.00     0.062 C 
ATOM     13  C   UNL A   1      33.298  22.448  22.796  1.00  0.00     0.027 C 
BRANCH   8  14
ATOM     14  C   UNL A   1      31.746  23.240  26.781  1.00  0.00     0.363 C 
BRANCH  14  15
ATOM     15  C   UNL A   1      30.251  23.621  26.898  1.00  0.00     0.279 C 
ATOM     16  N   UNL A   1      29.720  24.835  26.529  1.00  0.00    -0.321 N 
ATOM     17  H   UNL A   1      28.756  24.912  26.718  1.00  0.00     0.170 HD
ATOM     18  O   UNL A   1      29.439  22.770  27.293  1.00  0.00    -0.268 OA
BRANCH  16  19
ATOM     19  C   UNL A   1      30.268  25.991  25.938  1.00  0.00     0.042 A 
ATOM     20  C   UNL A   1      32.663  28.725  23.597  1.00  0.00     0.046 C 
ATOM     21  C   UNL A   1      31.743  27.885  24.440  1.00  0.00    -0.032 A 
ATOM     22  C   UNL A   1      30.759  27.102  23.826  1.00  0.00     0.007 A 
ATOM     23  C   UNL A   1      31.882  27.796  25.831  1.00  0.00     0.046 A 
ATOM     24  C   UNL A   1      30.020  26.173  24.571  1.00  0.00     0.026 A 
ATOM     25  C   UNL A   1      31.129  26.877  26.577  1.00  0.00     0.047 A 
ATOM     26  Cl  UNL A   1      33.056  28.736  26.680  1.00  0.00    -0.084 Cl
ENDBRANCH  16  19
ENDBRANCH  14  15
ENDBRANCH   8  14
ENDBRANCH   5   7
ENDBRANCH   4   5
ENDBRANCH   3   4
ENDBRANCH   2   3
ENDBRANCH   1   2
BRANCH   1  27
ATOM     27  C   UNL A   1      39.837  21.989  26.672  1.00  0.00     0.202 C 
BRANCH  27  28
ATOM     28  C   UNL A   1      40.861  23.106  26.448  1.00  0.00     0.261 C 
BRANCH  28  29
ATOM     29  O   UNL A   1      40.265  24.397  26.237  1.00  0.00    -0.460 OA
BRANCH  29  30
ATOM     30  C   UNL A   1      41.159  25.413  26.194  1.00  0.00     0.338 C 
ATOM     31  O   UNL A   1      41.706  25.871  25.197  1.00  0.00    -0.246 OA
BRANCH  30  32
ATOM     32  C   UNL A   1      41.282  26.063  27.508  1.00  0.00     0.060 A 
ATOM     33  C   UNL A   1      40.193  25.959  28.384  1.00  0.00     0.016 A 
ATOM     34  C   UNL A   1      42.372  26.877  27.818  1.00  0.00     0.016 A 
ATOM     35  C   UNL A   1      40.154  26.729  29.541  1.00  0.00     0.010 A 
ATOM     36  C   UNL A   1      42.325  27.661  28.976  1.00  0.00     0.010 A 
ATOM     37  C   UNL A   1      41.194  27.626  29.811  1.00  0.00    -0.014 A 
BRANCH  37  38
ATOM     38  C   UNL A   1      41.000  28.657  30.858  1.00  0.00     0.031 A 
ATOM     39  C   UNL A   1      41.916  28.654  32.053  1.00  0.00     0.074 A 
ATOM     40  C   UNL A   1      40.057  29.605  30.725  1.00  0.00     0.049 A 
ATOM     41  N   UNL A   1      41.922  29.448  33.092  1.00  0.00    -0.248 NA
ATOM     42  C   UNL A   1      42.966  27.621  32.077  1.00  0.00     0.031 C 
ATOM     43  C   UNL A   1      39.150  29.742  29.586  1.00  0.00     0.029 A 
ATOM     44  N   UNL A   1      39.710  30.635  31.560  1.00  0.00    -0.354 N 
ATOM     45  C   UNL A   1      42.965  29.006  33.898  1.00  0.00     0.074 A 
ATOM     46  C   UNL A   1      43.557  27.863  33.238  1.00  0.00     0.031 C 
ATOM     47  C   UNL A   1      38.340  30.793  29.800  1.00  0.00     0.029 A 
ATOM     48  C   UNL A   1      38.653  31.383  31.101  1.00  0.00     0.049 A 
ATOM     49  H   UNL A   1      40.173  30.822  32.408  1.00  0.00     0.167 HD
ATOM     50  C   UNL A   1      43.396  29.511  35.078  1.00  0.00     0.031 A 
ATOM     51  C   UNL A   1      37.999  32.411  31.675  1.00  0.00     0.031 A 
ATOM     52  C   UNL A   1      42.798  30.641  35.737  1.00  0.00     0.049 A 
ATOM     53  C   UNL A   1      38.450  32.911  33.022  1.00  0.00     0.074 A 
ATOM     54  C   UNL A   1      43.163  31.233  36.933  1.00  0.00     0.029 A 
ATOM     55  N   UNL A   1      41.706  31.346  35.256  1.00  0.00    -0.354 N 
ATOM     56  N   UNL A   1      39.447  32.491  33.765  1.00  0.00    -0.248 NA
ATOM     57  C   UNL A   1      37.693  34.028  33.604  1.00  0.00     0.031 C 
ATOM     58  C   UNL A   1      42.260  32.267  37.200  1.00  0.00     0.029 A 
ATOM     59  C   UNL A   1      41.368  32.353  36.143  1.00  0.00     0.049 A 
ATOM     60  H   UNL A   1      41.239  31.159  34.409  1.00  0.00     0.167 HD
ATOM     61  C   UNL A   1      39.452  33.311  34.889  1.00  0.00     0.074 A 
ATOM     62  C   UNL A   1      38.366  34.255  34.724  1.00  0.00     0.031 C 
ATOM     63  C   UNL A   1      40.284  33.286  35.961  1.00  0.00     0.031 A 
BRANCH  50  64
ATOM     64  C   UNL A   1      44.550  28.816  35.751  1.00  0.00    -0.014 A 
ATOM     65  C   UNL A   1      45.880  29.170  35.466  1.00  0.00     0.010 A 
ATOM     66  C   UNL A   1      44.296  27.815  36.707  1.00  0.00     0.010 A 
ATOM     67  C   UNL A   1      46.939  28.510  36.098  1.00  0.00     0.020 A 
ATOM     68  C   UNL A   1      45.351  27.170  37.359  1.00  0.00     0.020 A 
ATOM     69  C   UNL A   1      46.666  27.510  37.038  1.00  0.00     0.054 A 
BRANCH  69  70
ATOM     70  S   UNL A   1      48.056  26.682  37.858  1.00  0.00     0.124 S 
ATOM     71  O   UNL A   1      48.531  25.783  36.810  1.00  0.00    -0.237 OA
ATOM     72  O   UNL A   1      48.946  27.794  38.182  1.00  0.00    -0.237 OA
ATOM     73  O   UNL A   1      47.439  26.027  39.008  1.00  0.00    -0.744 OA
ENDBRANCH  69  70
ENDBRANCH  50  64
BRANCH  51  74
ATOM     74  C   UNL A   1      36.834  33.026  30.984  1.00  0.00    -0.014 A 
ATOM     75  C   UNL A   1      35.521  32.638  31.301  1.00  0.00     0.010 A 
ATOM     76  C   UNL A   1      37.038  34.015  30.004  1.00  0.00     0.010 A 
ATOM     77  C   UNL A   1      34.433  33.219  30.642  1.00  0.00     0.020 A 
ATOM     78  C   UNL A   1      35.952  34.616  29.361  1.00  0.00     0.020 A 
ATOM     79  C   UNL A   1      34.656  34.205  29.677  1.00  0.00     0.054 A 
BRANCH  79  80
ATOM     80  S   UNL A   1      33.228  34.986  28.875  1.00  0.00     0.124 S 
ATOM     81  O   UNL A   1      32.351  35.252  30.010  1.00  0.00    -0.237 OA
ATOM     82  O   UNL A   1      33.823  36.162  28.244  1.00  0.00    -0.237 OA
ATOM     83  O   UNL A   1      32.758  33.962  27.945  1.00  0.00    -0.744 OA
ENDBRANCH  79  80
ENDBRANCH  51  74
BRANCH  63  84
ATOM     84  C   UNL A   1      40.078  34.331  37.023  1.00  0.00    -0.014 A 
ATOM     85  C   UNL A   1      40.679  35.598  36.927  1.00  0.00     0.010 A 
ATOM     86  C   UNL A   1      39.217  34.058  38.103  1.00  0.00     0.010 A 
ATOM     87  C   UNL A   1      40.444  36.565  37.909  1.00  0.00     0.020 A 
ATOM     88  C   UNL A   1      38.961  35.031  39.073  1.00  0.00     0.020 A 
ATOM     89  C   UNL A   1      39.588  36.275  38.976  1.00  0.00     0.054 A 
BRANCH  89  90
ATOM     90  S   UNL A   1      39.263  37.562  40.212  1.00  0.00     0.124 S 
ATOM     91  O   UNL A   1      38.829  36.775  41.363  1.00  0.00    -0.237 OA
ATOM     92  O   UNL A   1      40.564  38.213  40.350  1.00  0.00    -0.237 OA
ATOM     93  O   UNL A   1      38.226  38.383  39.592  1.00  0.00    -0.744 OA
ENDBRANCH  89  90
ENDBRANCH  63  84
ENDBRANCH  37  38
ENDBRANCH  30  32
ENDBRANCH  29  30
ENDBRANCH  28  29
ENDBRANCH  27  28
ENDBRANCH   1  27
TORSDOF 20
ENDMDL
MODEL 3
REMARK VINA RESULT:     -10.3      2.376      8.422
REMARK SMILES Cc1ccc(NC(=O)C[N@H+]2CCC[C@@H](C(=O)OCCOCCOC(=O)c3ccc(-c4c5nc(c(-c6ccc(S(=O)(=O)[O-])cc6)c6ccc([nH]6)c(-c6ccc(S(=O)(=O)[O-])cc6)c6nc(c(-c7ccc(S(=O)(=O)[O-])cc7)c7ccc4[nH]7)C=C6)C=C5)cc3)C2)cc1Cl
REMARK SMILES IDX 20 1 19 2 18 3 17 4 15 5 16 6 14 7 10 8 11 9 86 10 12 12
REMARK SMILES IDX 13 13 9 14 7 15 6 16 8 18 5 19 1 20 2 21 3 22 88 23 4 24
REMARK SMILES IDX 87 25 89 26 21 27 22 28 23 29 24 30 25 31 26 32 27 33 85 34
REMARK SMILES IDX 28 35 84 36 29 37 30 38 31 39 78 40 32 41 83 42 77 43 79 44
REMARK SMILES IDX 33 45 82 46 76 47 75 48 34 50 64 51 45 52 63 53 46 54 49 55
REMARK SMILES IDX 62 56 80 57 47 58 48 59 61 61 81 62 50 63 35 64 36 65 44 66
REMARK SMILES IDX 37 67 43 68 38 69 39 70 40 71 41 72 42 73 65 74 66 75 74 76
REMARK SMILES IDX 67 77 73 78 68 79 69 80 70 81 71 82 72 83 51 84 52 85 60 86
REMARK SMILES IDX 53 87 59 88 54 89 55 90 56 91 57 92 58 93
REMARK H PARENT 10 11 6 17 79 49 49 60
REMARK Flexibility Score: inf
ROOT
ATOM      1  O   UNL A   1      42.888  21.187  26.191  1.00  0.00    -0.374 OA
ENDROOT
BRANCH   1   2
ATOM      2  C   UNL A   1      41.940  20.146  26.000  1.00  0.00     0.202 C 
BRANCH   2   3
ATOM      3  C   UNL A   1      40.538  20.247  26.619  1.00  0.00     0.261 C 
BRANCH   3   4
ATOM      4  O   UNL A   1      39.470  20.650  25.748  1.00  0.00    -0.463 OA
BRANCH   4   5
ATOM      5  C   UNL A   1      38.920  21.839  26.107  1.00  0.00     0.314 C 
ATOM      6  O   UNL A   1      39.299  22.499  27.071  1.00  0.00    -0.252 OA
BRANCH   5   7
ATOM      7  C   UNL A   1      37.813  22.297  25.167  1.00  0.00     0.154 C 
ATOM      8  N   UNL A   1      35.298  21.644  25.179  1.00  0.00    -0.326 N 
ATOM      9  C   UNL A   1      34.996  22.970  25.719  1.00  0.00     0.262 C 
ATOM     10  C   UNL A   1      36.695  21.272  25.385  1.00  0.00     0.278 C 
ATOM     11  H   UNL A   1      35.136  21.710  24.174  1.00  0.00     0.348 HD
ATOM     12  C   UNL A   1      35.946  24.005  25.110  1.00  0.00     0.062 C 
ATOM     13  C   UNL A   1      37.388  23.722  25.516  1.00  0.00     0.027 C 
BRANCH   8  14
ATOM     14  C   UNL A   1      34.382  20.584  25.707  1.00  0.00     0.363 C 
BRANCH  14  15
ATOM     15  C   UNL A   1      33.448  19.906  24.676  1.00  0.00     0.279 C 
ATOM     16  N   UNL A   1      32.556  20.571  23.869  1.00  0.00    -0.321 N 
ATOM     17  H   UNL A   1      32.014  19.970  23.308  1.00  0.00     0.170 HD
ATOM     18  O   UNL A   1      33.530  18.680  24.501  1.00  0.00    -0.268 OA
BRANCH  16  19
ATOM     19  C   UNL A   1      32.256  21.936  23.678  1.00  0.00     0.042 A 
ATOM     20  C   UNL A   1      32.459  26.250  23.502  1.00  0.00     0.046 C 
ATOM     21  C   UNL A   1      32.265  24.759  23.490  1.00  0.00    -0.032 A 
ATOM     22  C   UNL A   1      32.934  23.979  22.539  1.00  0.00     0.007 A 
ATOM     23  C   UNL A   1      31.490  24.100  24.453  1.00  0.00     0.046 A 
ATOM     24  C   UNL A   1      32.919  22.581  22.625  1.00  0.00     0.026 A 
ATOM     25  C   UNL A   1      31.463  22.699  24.527  1.00  0.00     0.047 A 
ATOM     26  Cl  UNL A   1      30.614  24.977  25.656  1.00  0.00    -0.084 Cl
ENDBRANCH  16  19
ENDBRANCH  14  15
ENDBRANCH   8  14
ENDBRANCH   5   7
ENDBRANCH   4   5
ENDBRANCH   3   4
ENDBRANCH   2   3
ENDBRANCH   1   2
BRANCH   1  27
ATOM     27  C   UNL A   1      42.800  22.369  25.405  1.00  0.00     0.202 C 
BRANCH  27  28
ATOM     28  C   UNL A   1      42.803  23.741  26.084  1.00  0.00     0.261 C 
BRANCH  28  29
ATOM     29  O   UNL A   1      41.546  24.431  25.991  1.00  0.00    -0.460 OA
BRANCH  29  30
ATOM     30  C   UNL A   1      41.658  25.780  25.999  1.00  0.00     0.338 C 
ATOM     31  O   UNL A   1      41.527  26.536  25.042  1.00  0.00    -0.246 OA
BRANCH  30  32
ATOM     32  C   UNL A   1      41.785  26.292  27.372  1.00  0.00     0.060 A 
ATOM     33  C   UNL A   1      40.767  25.967  28.278  1.00  0.00     0.016 A 
ATOM     34  C   UNL A   1      42.796  27.188  27.724  1.00  0.00     0.016 A 
ATOM     35  C   UNL A   1      40.711  26.595  29.518  1.00  0.00     0.010 A 
ATOM     36  C   UNL A   1      42.730  27.829  28.966  1.00  0.00     0.010 A 
ATOM     37  C   UNL A   1      41.661  27.572  29.842  1.00  0.00    -0.014 A 
BRANCH  37  38
ATOM     38  C   UNL A   1      41.416  28.452  31.009  1.00  0.00     0.031 A 
ATOM     39  C   UNL A   1      40.288  29.446  30.939  1.00  0.00     0.074 A 
ATOM     40  C   UNL A   1      42.153  28.335  32.127  1.00  0.00     0.049 A 
ATOM     41  N   UNL A   1      39.901  30.323  31.829  1.00  0.00    -0.248 NA
ATOM     42  C   UNL A   1      39.488  29.452  29.701  1.00  0.00     0.031 C 
ATOM     43  C   UNL A   1      43.233  27.371  32.331  1.00  0.00     0.029 A 
ATOM     44  N   UNL A   1      42.099  29.037  33.303  1.00  0.00    -0.354 N 
ATOM     45  C   UNL A   1      38.822  30.989  31.259  1.00  0.00     0.074 A 
ATOM     46  C   UNL A   1      38.629  30.432  29.938  1.00  0.00     0.031 C 
ATOM     47  C   UNL A   1      43.748  27.551  33.559  1.00  0.00     0.029 A 
ATOM     48  C   UNL A   1      43.054  28.659  34.214  1.00  0.00     0.049 A 
ATOM     49  H   UNL A   1      41.439  29.746  33.478  1.00  0.00     0.167 HD
ATOM     50  C   UNL A   1      38.058  31.973  31.789  1.00  0.00     0.031 A 
ATOM     51  C   UNL A   1      43.349  29.164  35.428  1.00  0.00     0.031 A 
ATOM     52  C   UNL A   1      38.261  32.533  33.099  1.00  0.00     0.049 A 
ATOM     53  C   UNL A   1      42.531  30.306  35.968  1.00  0.00     0.074 A 
ATOM     54  C   UNL A   1      37.539  33.530  33.731  1.00  0.00     0.029 A 
ATOM     55  N   UNL A   1      39.264  32.147  33.975  1.00  0.00    -0.354 N 
ATOM     56  N   UNL A   1      41.506  30.917  35.423  1.00  0.00    -0.248 NA
ATOM     57  C   UNL A   1      42.905  30.823  37.293  1.00  0.00     0.031 C 
ATOM     58  C   UNL A   1      38.136  33.781  34.970  1.00  0.00     0.029 A 
ATOM     59  C   UNL A   1      39.194  32.901  35.133  1.00  0.00     0.049 A 
ATOM     60  H   UNL A   1      39.927  31.440  33.799  1.00  0.00     0.167 HD
ATOM     61  C   UNL A   1      41.097  31.871  36.348  1.00  0.00     0.074 A 
ATOM     62  C   UNL A   1      41.978  31.750  37.491  1.00  0.00     0.031 C 
ATOM     63  C   UNL A   1      40.080  32.765  36.262  1.00  0.00     0.031 A 
BRANCH  50  64
ATOM     64  C   UNL A   1      36.954  32.533  30.933  1.00  0.00    -0.014 A 
ATOM     65  C   UNL A   1      37.226  33.445  29.898  1.00  0.00     0.010 A 
ATOM     66  C   UNL A   1      35.628  32.116  31.147  1.00  0.00     0.010 A 
ATOM     67  C   UNL A   1      36.187  33.958  29.116  1.00  0.00     0.020 A 
ATOM     68  C   UNL A   1      34.590  32.606  30.352  1.00  0.00     0.020 A 
ATOM     69  C   UNL A   1      34.874  33.538  29.352  1.00  0.00     0.054 A 
BRANCH  69  70
ATOM     70  S   UNL A   1      33.545  34.204  28.311  1.00  0.00     0.124 S 
ATOM     71  O   UNL A   1      33.073  33.005  27.622  1.00  0.00    -0.237 OA
ATOM     72  O   UNL A   1      32.622  34.769  29.291  1.00  0.00    -0.237 OA
ATOM     73  O   UNL A   1      34.225  35.181  27.465  1.00  0.00    -0.744 OA
ENDBRANCH  69  70
ENDBRANCH  50  64
BRANCH  51  74
ATOM     74  C   UNL A   1      44.484  28.601  36.208  1.00  0.00    -0.014 A 
ATOM     75  C   UNL A   1      44.288  27.527  37.092  1.00  0.00     0.010 A 
ATOM     76  C   UNL A   1      45.776  29.139  36.059  1.00  0.00     0.010 A 
ATOM     77  C   UNL A   1      45.361  27.009  37.825  1.00  0.00     0.020 A 
ATOM     78  C   UNL A   1      46.855  28.607  36.770  1.00  0.00     0.020 A 
ATOM     79  C   UNL A   1      46.638  27.552  37.657  1.00  0.00     0.054 A 
BRANCH  79  80
ATOM     80  S   UNL A   1      48.025  26.827  38.574  1.00  0.00     0.124 S 
ATOM     81  O   UNL A   1      49.082  27.810  38.354  1.00  0.00    -0.237 OA
ATOM     82  O   UNL A   1      47.501  26.753  39.936  1.00  0.00    -0.237 OA
ATOM     83  O   UNL A   1      48.226  25.535  37.922  1.00  0.00    -0.744 OA
ENDBRANCH  79  80
ENDBRANCH  51  74
BRANCH  63  84
ATOM     84  C   UNL A   1      39.840  33.660  37.448  1.00  0.00    -0.014 A 
ATOM     85  C   UNL A   1      40.365  34.962  37.497  1.00  0.00     0.010 A 
ATOM     86  C   UNL A   1      39.022  33.207  38.500  1.00  0.00     0.010 A 
ATOM     87  C   UNL A   1      40.100  35.788  38.593  1.00  0.00     0.020 A 
ATOM     88  C   UNL A   1      38.735  34.039  39.586  1.00  0.00     0.020 A 
ATOM     89  C   UNL A   1      39.287  35.320  39.631  1.00  0.00     0.054 A 
BRANCH  89  90
ATOM     90  S   UNL A   1      38.919  36.426  41.021  1.00  0.00     0.124 S 
ATOM     91  O   UNL A   1      37.859  35.700  41.714  1.00  0.00    -0.237 OA
ATOM     92  O   UNL A   1      40.198  36.496  41.725  1.00  0.00    -0.237 OA
ATOM     93  O   UNL A   1      38.504  37.668  40.374  1.00  0.00    -0.744 OA
ENDBRANCH  89  90
ENDBRANCH  63  84
ENDBRANCH  37  38
ENDBRANCH  30  32
ENDBRANCH  29  30
ENDBRANCH  28  29
ENDBRANCH  27  28
ENDBRANCH   1  27
TORSDOF 20
ENDMDL
