MODEL 1
REMARK VINA RESULT:      -9.6      0.000      0.000
REMARK SMILES C[C@@H]1[C@@H](C(=O)OCCOCCOC(=O)c2ccc(-c3c4nc(c(-c5ccc(S(=O)(=O)[O-])cc5)c5ccc([nH]5)c(-c5ccc(S(=O)(=O)[O-])cc5)c5nc(c(-c6ccc(S(=O)(=O)[O-])cc6)c6ccc3[nH]6)C=C5)C=C4)cc2)CC[N@@H+]1CC(=O)N(C)C1CC1
REMARK SMILES IDX 8 1 7 2 6 3 4 4 5 5 3 6 1 7 2 8 77 9 75 10 76 11 78 13 79 14
REMARK SMILES IDX 80 15 81 16 82 17 83 18 84 19 85 20 9 21 10 22 11 23 12 24
REMARK SMILES IDX 13 25 14 26 15 27 16 28 74 29 17 30 73 31 18 32 19 33 20 34
REMARK SMILES IDX 67 35 21 36 72 37 66 38 68 39 22 40 71 41 65 42 64 43 23 45
REMARK SMILES IDX 53 46 34 47 52 48 35 49 38 50 51 51 69 52 36 53 37 54 50 56
REMARK SMILES IDX 70 57 39 58 24 59 25 60 33 61 26 62 32 63 27 64 28 65 29 66
REMARK SMILES IDX 30 67 31 68 54 69 55 70 63 71 56 72 62 73 57 74 58 75 59 76
REMARK SMILES IDX 60 77 61 78 40 79 41 80 49 81 42 82 48 83 43 84 44 85 45 86
REMARK SMILES IDX 46 87 47 88
REMARK H PARENT 77 12 68 44 38 55
REMARK Flexibility Score: inf
ROOT
ATOM      1  C   UNL A   1      32.245  30.507  26.826  1.00  0.00     0.202 C 
ENDROOT
BRANCH   1   2
ATOM      2  C   UNL A   1      32.146  29.341  25.835  1.00  0.00     0.261 C 
BRANCH   2   3
ATOM      3  O   UNL A   1      31.257  28.324  26.318  1.00  0.00    -0.463 OA
BRANCH   3   4
ATOM      4  C   UNL A   1      31.421  27.096  25.751  1.00  0.00     0.315 C 
ATOM      5  O   UNL A   1      30.559  26.230  25.690  1.00  0.00    -0.252 OA
BRANCH   4   6
ATOM      6  C   UNL A   1      32.801  26.991  25.127  1.00  0.00     0.162 C 
ATOM      7  C   UNL A   1      33.343  26.712  22.673  1.00  0.00     0.076 C 
ATOM      8  C   UNL A   1      32.755  26.045  23.914  1.00  0.00     0.195 C 
ATOM      9  N   UNL A   1      33.388  24.811  24.374  1.00  0.00    -0.324 N 
ATOM     10  C   UNL A   1      33.802  26.369  26.081  1.00  0.00     0.083 C 
ATOM     11  C   UNL A   1      33.685  24.883  25.799  1.00  0.00     0.264 C 
ATOM     12  H   UNL A   1      32.649  24.130  24.203  1.00  0.00     0.348 HD
BRANCH   9  13
ATOM     13  C   UNL A   1      34.248  23.992  23.529  1.00  0.00     0.364 C 
BRANCH  13  14
ATOM     14  C   UNL A   1      33.474  23.119  22.526  1.00  0.00     0.277 C 
ATOM     15  O   UNL A   1      33.382  23.476  21.344  1.00  0.00    -0.268 OA
BRANCH  14  16
ATOM     16  N   UNL A   1      32.866  21.939  22.950  1.00  0.00    -0.338 N 
ATOM     17  C   UNL A   1      32.000  21.080  22.155  1.00  0.00     0.147 C 
BRANCH  16  18
ATOM     18  C   UNL A   1      33.026  21.577  24.343  1.00  0.00     0.085 C 
ATOM     19  C   UNL A   1      32.504  20.299  24.945  1.00  0.00     0.027 C 
ATOM     20  C   UNL A   1      33.975  20.464  24.716  1.00  0.00     0.027 C 
ENDBRANCH  16  18
ENDBRANCH  14  16
ENDBRANCH  13  14
ENDBRANCH   9  13
ENDBRANCH   4   6
ENDBRANCH   3   4
ENDBRANCH   2   3
ENDBRANCH   1   2
BRANCH   1  21
ATOM     21  O   UNL A   1      33.442  30.615  27.594  1.00  0.00    -0.374 OA
BRANCH  21  22
ATOM     22  C   UNL A   1      33.900  31.921  27.944  1.00  0.00     0.202 C 
BRANCH  22  23
ATOM     23  C   UNL A   1      35.087  32.046  28.909  1.00  0.00     0.261 C 
BRANCH  23  24
ATOM     24  O   UNL A   1      35.702  30.779  29.206  1.00  0.00    -0.460 OA
BRANCH  24  25
ATOM     25  C   UNL A   1      36.623  30.816  30.203  1.00  0.00     0.338 C 
ATOM     26  O   UNL A   1      36.470  31.241  31.333  1.00  0.00    -0.246 OA
BRANCH  25  27
ATOM     27  C   UNL A   1      37.830  30.080  29.792  1.00  0.00     0.060 A 
ATOM     28  C   UNL A   1      38.715  29.660  30.795  1.00  0.00     0.016 A 
ATOM     29  C   UNL A   1      38.145  29.903  28.444  1.00  0.00     0.016 A 
ATOM     30  C   UNL A   1      39.934  29.082  30.451  1.00  0.00     0.010 A 
ATOM     31  C   UNL A   1      39.376  29.337  28.101  1.00  0.00     0.010 A 
ATOM     32  C   UNL A   1      40.287  28.953  29.102  1.00  0.00    -0.014 A 
BRANCH  32  33
ATOM     33  C   UNL A   1      41.670  28.554  28.751  1.00  0.00     0.031 A 
ATOM     34  C   UNL A   1      42.760  29.589  28.800  1.00  0.00     0.074 A 
ATOM     35  C   UNL A   1      41.955  27.280  28.430  1.00  0.00     0.049 A 
ATOM     36  N   UNL A   1      44.030  29.467  28.515  1.00  0.00    -0.248 NA
ATOM     37  C   UNL A   1      42.366  30.942  29.227  1.00  0.00     0.031 C 
ATOM     38  C   UNL A   1      40.992  26.180  28.400  1.00  0.00     0.029 A 
ATOM     39  N   UNL A   1      43.143  26.698  28.067  1.00  0.00    -0.354 N 
ATOM     40  C   UNL A   1      44.587  30.724  28.722  1.00  0.00     0.074 A 
ATOM     41  C   UNL A   1      43.512  31.602  29.129  1.00  0.00     0.031 C 
ATOM     42  C   UNL A   1      41.627  25.055  28.030  1.00  0.00     0.029 A 
ATOM     43  C   UNL A   1      43.032  25.361  27.765  1.00  0.00     0.049 A 
ATOM     44  H   UNL A   1      43.994  27.190  28.026  1.00  0.00     0.167 HD
ATOM     45  C   UNL A   1      45.877  31.112  28.586  1.00  0.00     0.031 A 
ATOM     46  C   UNL A   1      43.952  24.492  27.307  1.00  0.00     0.031 A 
ATOM     47  C   UNL A   1      46.940  30.238  28.165  1.00  0.00     0.049 A 
ATOM     48  C   UNL A   1      45.366  24.965  27.090  1.00  0.00     0.074 A 
ATOM     49  C   UNL A   1      48.282  30.531  28.005  1.00  0.00     0.029 A 
ATOM     50  N   UNL A   1      46.779  28.902  27.829  1.00  0.00    -0.354 N 
ATOM     51  N   UNL A   1      45.881  26.153  27.307  1.00  0.00    -0.248 NA
ATOM     52  C   UNL A   1      46.325  23.978  26.575  1.00  0.00     0.031 C 
ATOM     53  C   UNL A   1      48.924  29.386  27.518  1.00  0.00     0.029 A 
ATOM     54  C   UNL A   1      47.992  28.363  27.436  1.00  0.00     0.049 A 
ATOM     55  H   UNL A   1      45.927  28.409  27.865  1.00  0.00     0.167 HD
ATOM     56  C   UNL A   1      47.229  26.047  26.980  1.00  0.00     0.074 A 
ATOM     57  C   UNL A   1      47.453  24.677  26.564  1.00  0.00     0.031 C 
ATOM     58  C   UNL A   1      48.197  26.997  27.024  1.00  0.00     0.031 A 
BRANCH  45  59
ATOM     59  C   UNL A   1      46.202  32.555  28.861  1.00  0.00    -0.014 A 
ATOM     60  C   UNL A   1      46.459  33.011  30.167  1.00  0.00     0.010 A 
ATOM     61  C   UNL A   1      46.284  33.466  27.791  1.00  0.00     0.010 A 
ATOM     62  C   UNL A   1      46.755  34.357  30.400  1.00  0.00     0.020 A 
ATOM     63  C   UNL A   1      46.605  34.806  28.018  1.00  0.00     0.020 A 
ATOM     64  C   UNL A   1      46.823  35.247  29.325  1.00  0.00     0.054 A 
BRANCH  64  65
ATOM     65  S   UNL A   1      47.229  36.984  29.654  1.00  0.00     0.124 S 
ATOM     66  O   UNL A   1      45.903  37.595  29.723  1.00  0.00    -0.237 OA
ATOM     67  O   UNL A   1      47.951  36.910  30.921  1.00  0.00    -0.237 OA
ATOM     68  O   UNL A   1      48.036  37.378  28.502  1.00  0.00    -0.744 OA
ENDBRANCH  64  65
ENDBRANCH  45  59
BRANCH  46  69
ATOM     69  C   UNL A   1      43.563  23.088  27.003  1.00  0.00    -0.014 A 
ATOM     70  C   UNL A   1      43.848  22.518  25.750  1.00  0.00     0.010 A 
ATOM     71  C   UNL A   1      42.901  22.311  27.972  1.00  0.00     0.010 A 
ATOM     72  C   UNL A   1      43.465  21.203  25.466  1.00  0.00     0.020 A 
ATOM     73  C   UNL A   1      42.541  20.988  27.702  1.00  0.00     0.020 A 
ATOM     74  C   UNL A   1      42.814  20.446  26.446  1.00  0.00     0.054 A 
BRANCH  74  75
ATOM     75  S   UNL A   1      42.370  18.728  26.072  1.00  0.00     0.124 S 
ATOM     76  O   UNL A   1      43.274  18.414  24.969  1.00  0.00    -0.237 OA
ATOM     77  O   UNL A   1      42.650  18.047  27.334  1.00  0.00    -0.237 OA
ATOM     78  O   UNL A   1      40.954  18.810  25.718  1.00  0.00    -0.744 OA
ENDBRANCH  74  75
ENDBRANCH  46  69
BRANCH  58  79
ATOM     79  C   UNL A   1      49.595  26.582  26.648  1.00  0.00    -0.014 A 
ATOM     80  C   UNL A   1      50.493  26.085  27.607  1.00  0.00     0.010 A 
ATOM     81  C   UNL A   1      49.994  26.639  25.299  1.00  0.00     0.010 A 
ATOM     82  C   UNL A   1      51.777  25.681  27.230  1.00  0.00     0.020 A 
ATOM     83  C   UNL A   1      51.267  26.209  24.914  1.00  0.00     0.020 A 
ATOM     84  C   UNL A   1      52.156  25.746  25.886  1.00  0.00     0.054 A 
BRANCH  84  85
ATOM     85  S   UNL A   1      53.812  25.176  25.414  1.00  0.00     0.124 S 
ATOM     86  O   UNL A   1      53.663  23.725  25.478  1.00  0.00    -0.237 OA
ATOM     87  O   UNL A   1      53.973  25.733  24.073  1.00  0.00    -0.237 OA
ATOM     88  O   UNL A   1      54.683  25.758  26.433  1.00  0.00    -0.744 OA
ENDBRANCH  84  85
ENDBRANCH  58  79
ENDBRANCH  32  33
ENDBRANCH  25  27
ENDBRANCH  24  25
ENDBRANCH  23  24
ENDBRANCH  22  23
ENDBRANCH  21  22
ENDBRANCH   1  21
TORSDOF 21
ENDMDL
MODEL 2
REMARK VINA RESULT:      -9.3      5.105      6.500
REMARK SMILES C[C@@H]1[C@@H](C(=O)OCCOCCOC(=O)c2ccc(-c3c4nc(c(-c5ccc(S(=O)(=O)[O-])cc5)c5ccc([nH]5)c(-c5ccc(S(=O)(=O)[O-])cc5)c5nc(c(-c6ccc(S(=O)(=O)[O-])cc6)c6ccc3[nH]6)C=C5)C=C4)cc2)CC[N@@H+]1CC(=O)N(C)C1CC1
REMARK SMILES IDX 8 1 7 2 6 3 4 4 5 5 3 6 1 7 2 8 77 9 75 10 76 11 78 13 79 14
REMARK SMILES IDX 80 15 81 16 82 17 83 18 84 19 85 20 9 21 10 22 11 23 12 24
REMARK SMILES IDX 13 25 14 26 15 27 16 28 74 29 17 30 73 31 18 32 19 33 20 34
REMARK SMILES IDX 67 35 21 36 72 37 66 38 68 39 22 40 71 41 65 42 64 43 23 45
REMARK SMILES IDX 53 46 34 47 52 48 35 49 38 50 51 51 69 52 36 53 37 54 50 56
REMARK SMILES IDX 70 57 39 58 24 59 25 60 33 61 26 62 32 63 27 64 28 65 29 66
REMARK SMILES IDX 30 67 31 68 54 69 55 70 63 71 56 72 62 73 57 74 58 75 59 76
REMARK SMILES IDX 60 77 61 78 40 79 41 80 49 81 42 82 48 83 43 84 44 85 45 86
REMARK SMILES IDX 46 87 47 88
REMARK H PARENT 77 12 68 44 38 55
REMARK Flexibility Score: inf
ROOT
ATOM      1  C   UNL A   1      33.320  27.285  26.239  1.00  0.00     0.202 C 
ENDROOT
BRANCH   1   2
ATOM      2  C   UNL A   1      32.783  27.025  24.826  1.00  0.00     0.261 C 
BRANCH   2   3
ATOM      3  O   UNL A   1      33.825  26.575  23.950  1.00  0.00    -0.463 OA
BRANCH   3   4
ATOM      4  C   UNL A   1      33.562  25.414  23.286  1.00  0.00     0.315 C 
ATOM      5  O   UNL A   1      33.871  25.184  22.125  1.00  0.00    -0.252 OA
BRANCH   4   6
ATOM      6  C   UNL A   1      32.910  24.415  24.225  1.00  0.00     0.162 C 
ATOM      7  C   UNL A   1      33.782  23.645  26.469  1.00  0.00     0.076 C 
ATOM      8  C   UNL A   1      33.993  23.604  24.958  1.00  0.00     0.195 C 
ATOM      9  N   UNL A   1      33.981  22.291  24.316  1.00  0.00    -0.324 N 
ATOM     10  C   UNL A   1      32.087  23.390  23.469  1.00  0.00     0.083 C 
ATOM     11  C   UNL A   1      33.083  22.286  23.168  1.00  0.00     0.264 C 
ATOM     12  H   UNL A   1      34.949  22.211  24.005  1.00  0.00     0.348 HD
BRANCH   9  13
ATOM     13  C   UNL A   1      34.180  21.044  25.044  1.00  0.00     0.364 C 
BRANCH  13  14
ATOM     14  C   UNL A   1      32.902  20.198  25.176  1.00  0.00     0.277 C 
ATOM     15  O   UNL A   1      31.842  20.734  25.525  1.00  0.00    -0.268 OA
BRANCH  14  16
ATOM     16  N   UNL A   1      32.941  18.829  24.918  1.00  0.00    -0.338 N 
ATOM     17  C   UNL A   1      32.598  17.764  25.850  1.00  0.00     0.147 C 
BRANCH  16  18
ATOM     18  C   UNL A   1      33.466  18.413  23.633  1.00  0.00     0.085 C 
ATOM     19  C   UNL A   1      33.444  16.992  23.136  1.00  0.00     0.027 C 
ATOM     20  C   UNL A   1      32.510  17.999  22.540  1.00  0.00     0.027 C 
ENDBRANCH  16  18
ENDBRANCH  14  16
ENDBRANCH  13  14
ENDBRANCH   9  13
ENDBRANCH   4   6
ENDBRANCH   3   4
ENDBRANCH   2   3
ENDBRANCH   1   2
BRANCH   1  21
ATOM     21  O   UNL A   1      33.590  28.639  26.599  1.00  0.00    -0.374 OA
BRANCH  21  22
ATOM     22  C   UNL A   1      32.549  29.600  26.429  1.00  0.00     0.202 C 
BRANCH  22  23
ATOM     23  C   UNL A   1      32.688  30.960  27.127  1.00  0.00     0.261 C 
BRANCH  23  24
ATOM     24  O   UNL A   1      34.017  31.504  27.032  1.00  0.00    -0.460 OA
BRANCH  24  25
ATOM     25  C   UNL A   1      34.476  32.081  28.172  1.00  0.00     0.338 C 
ATOM     26  O   UNL A   1      33.877  32.849  28.902  1.00  0.00    -0.246 OA
BRANCH  25  27
ATOM     27  C   UNL A   1      35.777  31.496  28.537  1.00  0.00     0.060 A 
ATOM     28  C   UNL A   1      35.786  30.203  29.078  1.00  0.00     0.016 A 
ATOM     29  C   UNL A   1      36.953  32.242  28.454  1.00  0.00     0.016 A 
ATOM     30  C   UNL A   1      36.971  29.659  29.563  1.00  0.00     0.010 A 
ATOM     31  C   UNL A   1      38.139  31.700  28.958  1.00  0.00     0.010 A 
ATOM     32  C   UNL A   1      38.147  30.420  29.541  1.00  0.00    -0.014 A 
BRANCH  32  33
ATOM     33  C   UNL A   1      39.342  29.928  30.264  1.00  0.00     0.031 A 
ATOM     34  C   UNL A   1      39.714  30.567  31.575  1.00  0.00     0.074 A 
ATOM     35  C   UNL A   1      40.062  28.902  29.778  1.00  0.00     0.049 A 
ATOM     36  N   UNL A   1      40.724  30.309  32.363  1.00  0.00    -0.248 NA
ATOM     37  C   UNL A   1      38.827  31.637  32.061  1.00  0.00     0.031 C 
ATOM     38  C   UNL A   1      39.769  28.171  28.546  1.00  0.00     0.029 A 
ATOM     39  N   UNL A   1      41.194  28.298  30.267  1.00  0.00    -0.354 N 
ATOM     40  C   UNL A   1      40.602  31.187  33.434  1.00  0.00     0.074 A 
ATOM     41  C   UNL A   1      39.434  32.003  33.181  1.00  0.00     0.031 C 
ATOM     42  C   UNL A   1      40.702  27.220  28.372  1.00  0.00     0.029 A 
ATOM     43  C   UNL A   1      41.676  27.297  29.459  1.00  0.00     0.049 A 
ATOM     44  H   UNL A   1      41.620  28.558  31.116  1.00  0.00     0.167 HD
ATOM     45  C   UNL A   1      41.389  31.302  34.530  1.00  0.00     0.031 A 
ATOM     46  C   UNL A   1      42.787  26.544  29.572  1.00  0.00     0.031 A 
ATOM     47  C   UNL A   1      42.559  30.499  34.768  1.00  0.00     0.049 A 
ATOM     48  C   UNL A   1      43.691  26.742  30.761  1.00  0.00     0.074 A 
ATOM     49  C   UNL A   1      43.419  30.530  35.851  1.00  0.00     0.029 A 
ATOM     50  N   UNL A   1      43.037  29.523  33.905  1.00  0.00    -0.354 N 
ATOM     51  N   UNL A   1      43.552  27.565  31.775  1.00  0.00    -0.248 NA
ATOM     52  C   UNL A   1      44.896  25.906  30.826  1.00  0.00     0.031 C 
ATOM     53  C   UNL A   1      44.450  29.613  35.617  1.00  0.00     0.029 A 
ATOM     54  C   UNL A   1      44.196  28.965  34.418  1.00  0.00     0.049 A 
ATOM     55  H   UNL A   1      42.615  29.265  33.054  1.00  0.00     0.167 HD
ATOM     56  C   UNL A   1      44.637  27.324  32.611  1.00  0.00     0.074 A 
ATOM     57  C   UNL A   1      45.416  26.271  31.991  1.00  0.00     0.031 C 
ATOM     58  C   UNL A   1      44.960  27.918  33.787  1.00  0.00     0.031 A 
BRANCH  45  59
ATOM     59  C   UNL A   1      41.030  32.362  35.536  1.00  0.00    -0.014 A 
ATOM     60  C   UNL A   1      40.170  32.086  36.613  1.00  0.00     0.010 A 
ATOM     61  C   UNL A   1      41.590  33.648  35.420  1.00  0.00     0.010 A 
ATOM     62  C   UNL A   1      39.846  33.086  37.535  1.00  0.00     0.020 A 
ATOM     63  C   UNL A   1      41.290  34.643  36.355  1.00  0.00     0.020 A 
ATOM     64  C   UNL A   1      40.405  34.360  37.397  1.00  0.00     0.054 A 
BRANCH  64  65
ATOM     65  S   UNL A   1      39.985  35.633  38.619  1.00  0.00     0.124 S 
ATOM     66  O   UNL A   1      38.814  35.049  39.271  1.00  0.00    -0.237 OA
ATOM     67  O   UNL A   1      41.190  35.702  39.439  1.00  0.00    -0.237 OA
ATOM     68  O   UNL A   1      39.717  36.819  37.807  1.00  0.00    -0.744 OA
ENDBRANCH  64  65
ENDBRANCH  45  59
BRANCH  46  69
ATOM     69  C   UNL A   1      43.120  25.546  28.520  1.00  0.00    -0.014 A 
ATOM     70  C   UNL A   1      42.726  24.204  28.651  1.00  0.00     0.010 A 
ATOM     71  C   UNL A   1      43.838  25.939  27.374  1.00  0.00     0.010 A 
ATOM     72  C   UNL A   1      43.057  23.269  27.664  1.00  0.00     0.020 A 
ATOM     73  C   UNL A   1      44.146  25.013  26.374  1.00  0.00     0.020 A 
ATOM     74  C   UNL A   1      43.764  23.681  26.531  1.00  0.00     0.054 A 
BRANCH  74  75
ATOM     75  S   UNL A   1      44.139  22.461  25.242  1.00  0.00     0.124 S 
ATOM     76  O   UNL A   1      44.526  23.313  24.121  1.00  0.00    -0.237 OA
ATOM     77  O   UNL A   1      45.217  21.683  25.847  1.00  0.00    -0.237 OA
ATOM     78  O   UNL A   1      42.878  21.741  25.076  1.00  0.00    -0.744 OA
ENDBRANCH  74  75
ENDBRANCH  46  69
BRANCH  58  79
ATOM     79  C   UNL A   1      46.187  27.419  34.504  1.00  0.00    -0.014 A 
ATOM     80  C   UNL A   1      46.113  26.374  35.441  1.00  0.00     0.010 A 
ATOM     81  C   UNL A   1      47.444  27.970  34.188  1.00  0.00     0.010 A 
ATOM     82  C   UNL A   1      47.269  25.910  36.073  1.00  0.00     0.020 A 
ATOM     83  C   UNL A   1      48.606  27.489  34.797  1.00  0.00     0.020 A 
ATOM     84  C   UNL A   1      48.509  26.471  35.748  1.00  0.00     0.054 A 
BRANCH  84  85
ATOM     85  S   UNL A   1      50.001  25.822  36.551  1.00  0.00     0.124 S 
ATOM     86  O   UNL A   1      49.690  26.011  37.965  1.00  0.00    -0.237 OA
ATOM     87  O   UNL A   1      50.033  24.435  36.095  1.00  0.00    -0.237 OA
ATOM     88  O   UNL A   1      51.071  26.669  36.029  1.00  0.00    -0.744 OA
ENDBRANCH  84  85
ENDBRANCH  58  79
ENDBRANCH  32  33
ENDBRANCH  25  27
ENDBRANCH  24  25
ENDBRANCH  23  24
ENDBRANCH  22  23
ENDBRANCH  21  22
ENDBRANCH   1  21
TORSDOF 21
ENDMDL
MODEL 3
REMARK VINA RESULT:      -9.3      6.120      8.287
REMARK SMILES C[C@@H]1[C@@H](C(=O)OCCOCCOC(=O)c2ccc(-c3c4nc(c(-c5ccc(S(=O)(=O)[O-])cc5)c5ccc([nH]5)c(-c5ccc(S(=O)(=O)[O-])cc5)c5nc(c(-c6ccc(S(=O)(=O)[O-])cc6)c6ccc3[nH]6)C=C5)C=C4)cc2)CC[N@@H+]1CC(=O)N(C)C1CC1
REMARK SMILES IDX 8 1 7 2 6 3 4 4 5 5 3 6 1 7 2 8 77 9 75 10 76 11 78 13 79 14
REMARK SMILES IDX 80 15 81 16 82 17 83 18 84 19 85 20 9 21 10 22 11 23 12 24
REMARK SMILES IDX 13 25 14 26 15 27 16 28 74 29 17 30 73 31 18 32 19 33 20 34
REMARK SMILES IDX 67 35 21 36 72 37 66 38 68 39 22 40 71 41 65 42 64 43 23 45
REMARK SMILES IDX 53 46 34 47 52 48 35 49 38 50 51 51 69 52 36 53 37 54 50 56
REMARK SMILES IDX 70 57 39 58 24 59 25 60 33 61 26 62 32 63 27 64 28 65 29 66
REMARK SMILES IDX 30 67 31 68 54 69 55 70 63 71 56 72 62 73 57 74 58 75 59 76
REMARK SMILES IDX 60 77 61 78 40 79 41 80 49 81 42 82 48 83 43 84 44 85 45 86
REMARK SMILES IDX 46 87 47 88
REMARK H PARENT 77 12 68 44 38 55
REMARK Flexibility Score: inf
ROOT
ATOM      1  C   UNL A   1      32.447  30.177  26.437  1.00  0.00     0.202 C 
ENDROOT
BRANCH   1   2
ATOM      2  C   UNL A   1      32.959  28.783  26.054  1.00  0.00     0.261 C 
BRANCH   2   3
ATOM      3  O   UNL A   1      31.993  27.771  26.370  1.00  0.00    -0.463 OA
BRANCH   3   4
ATOM      4  C   UNL A   1      31.116  27.476  25.369  1.00  0.00     0.315 C 
ATOM      5  O   UNL A   1      30.798  28.238  24.467  1.00  0.00    -0.252 OA
BRANCH   4   6
ATOM      6  C   UNL A   1      30.660  26.033  25.486  1.00  0.00     0.162 C 
ATOM      7  C   UNL A   1      32.003  24.083  26.374  1.00  0.00     0.076 C 
ATOM      8  C   UNL A   1      31.849  25.088  25.236  1.00  0.00     0.195 C 
ATOM      9  N   UNL A   1      31.628  24.552  23.894  1.00  0.00    -0.324 N 
ATOM     10  C   UNL A   1      29.638  25.678  24.424  1.00  0.00     0.083 C 
ATOM     11  C   UNL A   1      30.486  25.198  23.262  1.00  0.00     0.264 C 
ATOM     12  H   UNL A   1      32.491  24.825  23.425  1.00  0.00     0.348 HD
BRANCH   9  13
ATOM     13  C   UNL A   1      31.938  23.177  23.523  1.00  0.00     0.364 C 
BRANCH  13  14
ATOM     14  C   UNL A   1      33.378  22.987  23.015  1.00  0.00     0.277 C 
ATOM     15  O   UNL A   1      33.687  23.379  21.882  1.00  0.00    -0.268 OA
BRANCH  14  16
ATOM     16  N   UNL A   1      34.326  22.359  23.821  1.00  0.00    -0.338 N 
ATOM     17  C   UNL A   1      34.156  21.103  24.537  1.00  0.00     0.147 C 
BRANCH  16  18
ATOM     18  C   UNL A   1      35.569  23.067  24.052  1.00  0.00     0.085 C 
ATOM     19  C   UNL A   1      36.739  22.488  24.802  1.00  0.00     0.027 C 
ATOM     20  C   UNL A   1      36.815  22.640  23.314  1.00  0.00     0.027 C 
ENDBRANCH  16  18
ENDBRANCH  14  16
ENDBRANCH  13  14
ENDBRANCH   9  13
ENDBRANCH   4   6
ENDBRANCH   3   4
ENDBRANCH   2   3
ENDBRANCH   1   2
BRANCH   1  21
ATOM     21  O   UNL A   1      32.964  30.761  27.631  1.00  0.00    -0.374 OA
BRANCH  21  22
ATOM     22  C   UNL A   1      33.676  31.993  27.523  1.00  0.00     0.202 C 
BRANCH  22  23
ATOM     23  C   UNL A   1      32.873  33.295  27.399  1.00  0.00     0.261 C 
BRANCH  23  24
ATOM     24  O   UNL A   1      32.539  33.869  28.676  1.00  0.00    -0.460 OA
BRANCH  24  25
ATOM     25  C   UNL A   1      33.296  34.939  29.031  1.00  0.00     0.338 C 
ATOM     26  O   UNL A   1      33.060  36.113  28.816  1.00  0.00    -0.246 OA
BRANCH  25  27
ATOM     27  C   UNL A   1      34.395  34.501  29.909  1.00  0.00     0.060 A 
ATOM     28  C   UNL A   1      35.708  34.687  29.457  1.00  0.00     0.016 A 
ATOM     29  C   UNL A   1      34.140  33.821  31.100  1.00  0.00     0.016 A 
ATOM     30  C   UNL A   1      36.775  34.169  30.185  1.00  0.00     0.010 A 
ATOM     31  C   UNL A   1      35.212  33.288  31.821  1.00  0.00     0.010 A 
ATOM     32  C   UNL A   1      36.530  33.433  31.352  1.00  0.00    -0.014 A 
BRANCH  32  33
ATOM     33  C   UNL A   1      37.644  32.695  31.990  1.00  0.00     0.031 A 
ATOM     34  C   UNL A   1      38.157  33.162  33.325  1.00  0.00     0.074 A 
ATOM     35  C   UNL A   1      38.166  31.602  31.405  1.00  0.00     0.049 A 
ATOM     36  N   UNL A   1      39.131  32.681  34.052  1.00  0.00    -0.248 NA
ATOM     37  C   UNL A   1      37.479  34.327  33.920  1.00  0.00     0.031 C 
ATOM     38  C   UNL A   1      37.717  31.026  30.138  1.00  0.00     0.029 A 
ATOM     39  N   UNL A   1      39.191  30.783  31.804  1.00  0.00    -0.354 N 
ATOM     40  C   UNL A   1      39.189  33.484  35.185  1.00  0.00     0.074 A 
ATOM     41  C   UNL A   1      38.171  34.500  35.037  1.00  0.00     0.031 C 
ATOM     42  C   UNL A   1      38.470  29.948  29.860  1.00  0.00     0.029 A 
ATOM     43  C   UNL A   1      39.473  29.779  30.909  1.00  0.00     0.049 A 
ATOM     44  H   UNL A   1      39.680  30.903  32.650  1.00  0.00     0.167 HD
ATOM     45  C   UNL A   1      40.016  33.382  36.253  1.00  0.00     0.031 A 
ATOM     46  C   UNL A   1      40.443  28.844  30.925  1.00  0.00     0.031 A 
ATOM     47  C   UNL A   1      41.039  32.379  36.387  1.00  0.00     0.049 A 
ATOM     48  C   UNL A   1      41.401  28.798  32.087  1.00  0.00     0.074 A 
ATOM     49  C   UNL A   1      41.922  32.185  37.433  1.00  0.00     0.029 A 
ATOM     50  N   UNL A   1      41.319  31.405  35.440  1.00  0.00    -0.354 N 
ATOM     51  N   UNL A   1      41.433  29.554  33.160  1.00  0.00    -0.248 NA
ATOM     52  C   UNL A   1      42.448  27.769  32.045  1.00  0.00     0.031 C 
ATOM     53  C   UNL A   1      42.775  31.128  37.094  1.00  0.00     0.029 A 
ATOM     54  C   UNL A   1      42.380  30.624  35.866  1.00  0.00     0.049 A 
ATOM     55  H   UNL A   1      40.835  31.286  34.591  1.00  0.00     0.167 HD
ATOM     56  C   UNL A   1      42.485  29.073  33.932  1.00  0.00     0.074 A 
ATOM     57  C   UNL A   1      43.056  27.953  33.210  1.00  0.00     0.031 C 
ATOM     58  C   UNL A   1      42.937  29.514  35.133  1.00  0.00     0.031 A 
BRANCH  45  59
ATOM     59  C   UNL A   1      39.871  34.409  37.344  1.00  0.00    -0.014 A 
ATOM     60  C   UNL A   1      39.055  34.174  38.465  1.00  0.00     0.010 A 
ATOM     61  C   UNL A   1      40.590  35.616  37.262  1.00  0.00     0.010 A 
ATOM     62  C   UNL A   1      38.932  35.143  39.466  1.00  0.00     0.020 A 
ATOM     63  C   UNL A   1      40.490  36.576  38.273  1.00  0.00     0.020 A 
ATOM     64  C   UNL A   1      39.647  36.339  39.361  1.00  0.00     0.054 A 
BRANCH  64  65
ATOM     65  S   UNL A   1      39.484  37.571  40.684  1.00  0.00     0.124 S 
ATOM     66  O   UNL A   1      38.382  38.395  40.192  1.00  0.00    -0.237 OA
ATOM     67  O   UNL A   1      39.180  36.749  41.851  1.00  0.00    -0.237 OA
ATOM     68  O   UNL A   1      40.789  38.228  40.709  1.00  0.00    -0.744 OA
ENDBRANCH  64  65
ENDBRANCH  45  59
BRANCH  46  69
ATOM     69  C   UNL A   1      40.572  27.886  29.793  1.00  0.00    -0.014 A 
ATOM     70  C   UNL A   1      41.561  28.063  28.810  1.00  0.00     0.010 A 
ATOM     71  C   UNL A   1      39.699  26.786  29.695  1.00  0.00     0.010 A 
ATOM     72  C   UNL A   1      41.664  27.167  27.741  1.00  0.00     0.020 A 
ATOM     73  C   UNL A   1      39.817  25.874  28.643  1.00  0.00     0.020 A 
ATOM     74  C   UNL A   1      40.792  26.077  27.666  1.00  0.00     0.054 A 
BRANCH  74  75
ATOM     75  S   UNL A   1      40.977  24.901  26.297  1.00  0.00     0.124 S 
ATOM     76  O   UNL A   1      39.680  24.231  26.295  1.00  0.00    -0.237 OA
ATOM     77  O   UNL A   1      41.238  25.779  25.159  1.00  0.00    -0.237 OA
ATOM     78  O   UNL A   1      42.109  24.074  26.708  1.00  0.00    -0.744 OA
ENDBRANCH  74  75
ENDBRANCH  46  69
BRANCH  58  79
ATOM     79  C   UNL A   1      44.082  28.764  35.762  1.00  0.00    -0.014 A 
ATOM     80  C   UNL A   1      45.416  29.150  35.546  1.00  0.00     0.010 A 
ATOM     81  C   UNL A   1      43.811  27.690  36.631  1.00  0.00     0.010 A 
ATOM     82  C   UNL A   1      46.460  28.455  36.162  1.00  0.00     0.020 A 
ATOM     83  C   UNL A   1      44.851  27.011  37.271  1.00  0.00     0.020 A 
ATOM     84  C   UNL A   1      46.171  27.390  37.020  1.00  0.00     0.054 A 
BRANCH  84  85
ATOM     85  S   UNL A   1      47.542  26.530  37.841  1.00  0.00     0.124 S 
ATOM     86  O   UNL A   1      47.358  25.157  37.381  1.00  0.00    -0.237 OA
ATOM     87  O   UNL A   1      48.716  27.219  37.310  1.00  0.00    -0.237 OA
ATOM     88  O   UNL A   1      47.287  26.751  39.263  1.00  0.00    -0.744 OA
ENDBRANCH  84  85
ENDBRANCH  58  79
ENDBRANCH  32  33
ENDBRANCH  25  27
ENDBRANCH  24  25
ENDBRANCH  23  24
ENDBRANCH  22  23
ENDBRANCH  21  22
ENDBRANCH   1  21
TORSDOF 21
ENDMDL
