MODEL 1
REMARK VINA RESULT:     -10.0      0.000      0.000
REMARK SMILES Cc1noc(C)c1CNc1ccc(Cl)c(C(=O)OCCOCCOC(=O)c2ccc(-c3c4nc(c(-c5ccc(S(=O)(=O)[O-])cc5)c5ccc([nH]5)c(-c5ccc(S(=O)(=O)[O-])cc5)c5nc(c(-c6ccc(S(=O)(=O)[O-])cc6)c6ccc3[nH]6)C=C5)C=C4)cc2)n1
REMARK SMILES IDX 21 1 20 2 19 3 18 4 16 5 17 6 15 7 10 8 11 9 87 10 12 11
REMARK SMILES IDX 13 12 14 13 9 14 8 16 7 17 1 18 2 19 3 20 4 21 5 22 6 23
REMARK SMILES IDX 22 24 23 25 24 26 25 27 26 28 27 29 28 30 86 31 29 32 85 33
REMARK SMILES IDX 30 34 31 35 32 36 79 37 33 38 84 39 78 40 80 41 34 42 83 43
REMARK SMILES IDX 77 44 76 45 35 47 65 48 46 49 64 50 47 51 50 52 63 53 81 54
REMARK SMILES IDX 48 55 49 56 62 58 82 59 51 60 36 61 37 62 45 63 38 64 44 65
REMARK SMILES IDX 39 66 40 67 41 68 42 69 43 70 66 71 67 72 75 73 68 74 74 75
REMARK SMILES IDX 69 76 70 77 71 78 72 79 73 80 52 81 53 82 61 83 54 84 60 85
REMARK SMILES IDX 55 86 56 87 57 88 58 89 59 90
REMARK H PARENT 9 15 80 46 50 57
REMARK Flexibility Score: inf
ROOT
ATOM      1  O   UNL A   1      43.463  21.720  24.592  1.00  0.00    -0.374 OA
ENDROOT
BRANCH   1   2
ATOM      2  C   UNL A   1      44.207  20.660  25.196  1.00  0.00     0.202 C 
BRANCH   2   3
ATOM      3  C   UNL A   1      43.420  19.374  25.459  1.00  0.00     0.261 C 
BRANCH   3   4
ATOM      4  O   UNL A   1      42.018  19.676  25.556  1.00  0.00    -0.458 OA
BRANCH   4   5
ATOM      5  C   UNL A   1      41.549  19.879  26.810  1.00  0.00     0.358 C 
ATOM      6  O   UNL A   1      41.833  19.236  27.808  1.00  0.00    -0.244 OA
BRANCH   5   7
ATOM      7  C   UNL A   1      40.767  21.142  26.857  1.00  0.00     0.169 A 
ATOM      8  C   UNL A   1      38.931  22.225  25.927  1.00  0.00     0.127 A 
ATOM      9  C   UNL A   1      39.263  23.396  26.591  1.00  0.00     0.048 A 
ATOM     10  N   UNL A   1      39.648  21.105  26.072  1.00  0.00    -0.222 NA
ATOM     11  C   UNL A   1      40.375  23.410  27.438  1.00  0.00     0.027 A 
ATOM     12  C   UNL A   1      41.159  22.265  27.573  1.00  0.00     0.074 A 
ATOM     13  Cl  UNL A   1      42.563  22.347  28.560  1.00  0.00    -0.082 Cl
BRANCH   8  14
ATOM     14  N   UNL A   1      37.877  22.131  25.043  1.00  0.00    -0.366 N 
ATOM     15  H   UNL A   1      37.724  22.821  24.359  1.00  0.00     0.162 HD
BRANCH  14  16
ATOM     16  C   UNL A   1      36.997  20.977  25.158  1.00  0.00     0.156 C 
BRANCH  16  17
ATOM     17  C   UNL A   1      35.535  21.282  25.103  1.00  0.00     0.037 A 
ATOM     18  C   UNL A   1      35.476  23.853  25.640  1.00  0.00     0.071 C 
ATOM     19  C   UNL A   1      34.881  22.531  25.323  1.00  0.00     0.086 A 
ATOM     20  N   UNL A   1      33.554  22.414  25.196  1.00  0.00    -0.085 NA
ATOM     21  O   UNL A   1      33.316  21.092  24.891  1.00  0.00    -0.361 OA
ATOM     22  C   UNL A   1      34.493  20.419  24.834  1.00  0.00     0.138 A 
ATOM     23  C   UNL A   1      34.402  18.982  24.515  1.00  0.00     0.091 C 
ENDBRANCH  16  17
ENDBRANCH  14  16
ENDBRANCH   8  14
ENDBRANCH   5   7
ENDBRANCH   4   5
ENDBRANCH   3   4
ENDBRANCH   2   3
ENDBRANCH   1   2
BRANCH   1  24
ATOM     24  C   UNL A   1      44.064  23.015  24.578  1.00  0.00     0.202 C 
BRANCH  24  25
ATOM     25  C   UNL A   1      43.196  24.169  25.094  1.00  0.00     0.261 C 
BRANCH  25  26
ATOM     26  O   UNL A   1      43.718  24.762  26.297  1.00  0.00    -0.460 OA
BRANCH  26  27
ATOM     27  C   UNL A   1      44.005  26.082  26.200  1.00  0.00     0.338 C 
ATOM     28  O   UNL A   1      44.611  26.639  25.292  1.00  0.00    -0.246 OA
BRANCH  27  29
ATOM     29  C   UNL A   1      43.340  26.835  27.278  1.00  0.00     0.060 A 
ATOM     30  C   UNL A   1      43.662  28.192  27.417  1.00  0.00     0.016 A 
ATOM     31  C   UNL A   1      42.476  26.218  28.187  1.00  0.00     0.016 A 
ATOM     32  C   UNL A   1      43.155  28.925  28.488  1.00  0.00     0.010 A 
ATOM     33  C   UNL A   1      41.976  26.955  29.267  1.00  0.00     0.010 A 
ATOM     34  C   UNL A   1      42.336  28.304  29.440  1.00  0.00    -0.014 A 
BRANCH  34  35
ATOM     35  C   UNL A   1      41.954  29.040  30.671  1.00  0.00     0.031 A 
ATOM     36  C   UNL A   1      40.715  29.897  30.663  1.00  0.00     0.074 A 
ATOM     37  C   UNL A   1      42.687  28.924  31.794  1.00  0.00     0.049 A 
ATOM     38  N   UNL A   1      40.208  30.624  31.626  1.00  0.00    -0.248 NA
ATOM     39  C   UNL A   1      39.946  29.940  29.408  1.00  0.00     0.031 C 
ATOM     40  C   UNL A   1      43.887  28.101  31.941  1.00  0.00     0.029 A 
ATOM     41  N   UNL A   1      42.527  29.505  33.028  1.00  0.00    -0.354 N 
ATOM     42  C   UNL A   1      39.071  31.220  31.092  1.00  0.00     0.074 A 
ATOM     43  C   UNL A   1      38.971  30.785  29.716  1.00  0.00     0.031 C 
ATOM     44  C   UNL A   1      44.358  28.233  33.193  1.00  0.00     0.029 A 
ATOM     45  C   UNL A   1      43.513  29.172  33.927  1.00  0.00     0.049 A 
ATOM     46  H   UNL A   1      41.778  30.105  33.247  1.00  0.00     0.167 HD
ATOM     47  C   UNL A   1      38.188  32.052  31.694  1.00  0.00     0.031 A 
ATOM     48  C   UNL A   1      43.719  29.592  35.192  1.00  0.00     0.031 A 
ATOM     49  C   UNL A   1      38.283  32.480  33.065  1.00  0.00     0.049 A 
ATOM     50  C   UNL A   1      42.752  30.565  35.817  1.00  0.00     0.074 A 
ATOM     51  C   UNL A   1      37.411  33.289  33.773  1.00  0.00     0.029 A 
ATOM     52  N   UNL A   1      39.311  32.146  33.932  1.00  0.00    -0.354 N 
ATOM     53  N   UNL A   1      41.657  31.079  35.311  1.00  0.00    -0.248 NA
ATOM     54  C   UNL A   1      43.049  31.009  37.186  1.00  0.00     0.031 C 
ATOM     55  C   UNL A   1      37.941  33.490  35.052  1.00  0.00     0.029 A 
ATOM     56  C   UNL A   1      39.114  32.759  35.157  1.00  0.00     0.049 A 
ATOM     57  H   UNL A   1      40.070  31.559  33.708  1.00  0.00     0.167 HD
ATOM     58  C   UNL A   1      41.119  31.882  36.313  1.00  0.00     0.074 A 
ATOM     59  C   UNL A   1      42.000  31.774  37.456  1.00  0.00     0.031 C 
ATOM     60  C   UNL A   1      39.994  32.639  36.289  1.00  0.00     0.031 A 
BRANCH  47  61
ATOM     61  C   UNL A   1      37.046  32.585  30.871  1.00  0.00    -0.014 A 
ATOM     62  C   UNL A   1      35.748  32.060  30.997  1.00  0.00     0.010 A 
ATOM     63  C   UNL A   1      37.262  33.687  30.023  1.00  0.00     0.010 A 
ATOM     64  C   UNL A   1      34.689  32.619  30.276  1.00  0.00     0.020 A 
ATOM     65  C   UNL A   1      36.201  34.262  29.317  1.00  0.00     0.020 A 
ATOM     66  C   UNL A   1      34.922  33.718  29.443  1.00  0.00     0.054 A 
BRANCH  66  67
ATOM     67  S   UNL A   1      33.517  34.458  28.565  1.00  0.00     0.124 S 
ATOM     68  O   UNL A   1      34.168  35.507  27.784  1.00  0.00    -0.237 OA
ATOM     69  O   UNL A   1      32.993  33.335  27.793  1.00  0.00    -0.237 OA
ATOM     70  O   UNL A   1      32.648  34.932  29.639  1.00  0.00    -0.744 OA
ENDBRANCH  66  67
ENDBRANCH  47  61
BRANCH  48  71
ATOM     71  C   UNL A   1      44.909  29.122  35.956  1.00  0.00    -0.014 A 
ATOM     72  C   UNL A   1      44.832  27.987  36.782  1.00  0.00     0.010 A 
ATOM     73  C   UNL A   1      46.116  29.841  35.893  1.00  0.00     0.010 A 
ATOM     74  C   UNL A   1      45.928  27.602  37.560  1.00  0.00     0.020 A 
ATOM     75  C   UNL A   1      47.224  29.442  36.646  1.00  0.00     0.020 A 
ATOM     76  C   UNL A   1      47.116  28.336  37.491  1.00  0.00     0.054 A 
BRANCH  76  77
ATOM     77  S   UNL A   1      48.532  27.814  38.499  1.00  0.00     0.124 S 
ATOM     78  O   UNL A   1      47.901  26.926  39.469  1.00  0.00    -0.237 OA
ATOM     79  O   UNL A   1      49.399  27.169  37.517  1.00  0.00    -0.237 OA
ATOM     80  O   UNL A   1      49.045  29.071  39.039  1.00  0.00    -0.744 OA
ENDBRANCH  76  77
ENDBRANCH  48  71
BRANCH  60  81
ATOM     81  C   UNL A   1      39.628  33.381  37.547  1.00  0.00    -0.014 A 
ATOM     82  C   UNL A   1      38.710  32.847  38.469  1.00  0.00     0.010 A 
ATOM     83  C   UNL A   1      40.250  34.610  37.834  1.00  0.00     0.010 A 
ATOM     84  C   UNL A   1      38.396  33.546  39.638  1.00  0.00     0.020 A 
ATOM     85  C   UNL A   1      39.959  35.298  39.015  1.00  0.00     0.020 A 
ATOM     86  C   UNL A   1      39.021  34.768  39.902  1.00  0.00     0.054 A 
BRANCH  86  87
ATOM     87  S   UNL A   1      38.624  35.639  41.444  1.00  0.00     0.124 S 
ATOM     88  O   UNL A   1      38.528  37.025  40.993  1.00  0.00    -0.237 OA
ATOM     89  O   UNL A   1      37.364  35.022  41.848  1.00  0.00    -0.237 OA
ATOM     90  O   UNL A   1      39.763  35.343  42.311  1.00  0.00    -0.744 OA
ENDBRANCH  86  87
ENDBRANCH  60  81
ENDBRANCH  34  35
ENDBRANCH  27  29
ENDBRANCH  26  27
ENDBRANCH  25  26
ENDBRANCH  24  25
ENDBRANCH   1  24
TORSDOF 20
ENDMDL
MODEL 2
REMARK VINA RESULT:      -9.9      2.656      9.146
REMARK SMILES Cc1noc(C)c1CNc1ccc(Cl)c(C(=O)OCCOCCOC(=O)c2ccc(-c3c4nc(c(-c5ccc(S(=O)(=O)[O-])cc5)c5ccc([nH]5)c(-c5ccc(S(=O)(=O)[O-])cc5)c5nc(c(-c6ccc(S(=O)(=O)[O-])cc6)c6ccc3[nH]6)C=C5)C=C4)cc2)n1
REMARK SMILES IDX 21 1 20 2 19 3 18 4 16 5 17 6 15 7 10 8 11 9 87 10 12 11
REMARK SMILES IDX 13 12 14 13 9 14 8 16 7 17 1 18 2 19 3 20 4 21 5 22 6 23
REMARK SMILES IDX 22 24 23 25 24 26 25 27 26 28 27 29 28 30 86 31 29 32 85 33
REMARK SMILES IDX 30 34 31 35 32 36 79 37 33 38 84 39 78 40 80 41 34 42 83 43
REMARK SMILES IDX 77 44 76 45 35 47 65 48 46 49 64 50 47 51 50 52 63 53 81 54
REMARK SMILES IDX 48 55 49 56 62 58 82 59 51 60 36 61 37 62 45 63 38 64 44 65
REMARK SMILES IDX 39 66 40 67 41 68 42 69 43 70 66 71 67 72 75 73 68 74 74 75
REMARK SMILES IDX 69 76 70 77 71 78 72 79 73 80 52 81 53 82 61 83 54 84 60 85
REMARK SMILES IDX 55 86 56 87 57 88 58 89 59 90
REMARK H PARENT 9 15 80 46 50 57
REMARK Flexibility Score: inf
ROOT
ATOM      1  O   UNL A   1      38.795  21.830  26.381  1.00  0.00    -0.374 OA
ENDROOT
BRANCH   1   2
ATOM      2  C   UNL A   1      37.973  21.818  25.211  1.00  0.00     0.202 C 
BRANCH   2   3
ATOM      3  C   UNL A   1      36.498  21.488  25.451  1.00  0.00     0.261 C 
BRANCH   3   4
ATOM      4  O   UNL A   1      35.737  22.705  25.528  1.00  0.00    -0.458 OA
BRANCH   4   5
ATOM      5  C   UNL A   1      34.915  22.949  24.480  1.00  0.00     0.358 C 
ATOM      6  O   UNL A   1      35.239  23.052  23.307  1.00  0.00    -0.244 OA
BRANCH   5   7
ATOM      7  C   UNL A   1      33.498  22.883  24.924  1.00  0.00     0.169 A 
ATOM      8  C   UNL A   1      31.824  24.105  25.981  1.00  0.00     0.127 A 
ATOM      9  C   UNL A   1      31.002  22.989  26.006  1.00  0.00     0.048 A 
ATOM     10  N   UNL A   1      33.042  24.069  25.428  1.00  0.00    -0.222 NA
ATOM     11  C   UNL A   1      31.453  21.794  25.437  1.00  0.00     0.027 A 
ATOM     12  C   UNL A   1      32.733  21.726  24.890  1.00  0.00     0.074 A 
ATOM     13  Cl  UNL A   1      33.279  20.217  24.274  1.00  0.00    -0.082 Cl
BRANCH   8  14
ATOM     14  N   UNL A   1      31.479  25.311  26.552  1.00  0.00    -0.366 N 
ATOM     15  H   UNL A   1      31.851  25.587  27.420  1.00  0.00     0.162 HD
BRANCH  14  16
ATOM     16  C   UNL A   1      30.545  26.161  25.828  1.00  0.00     0.156 C 
BRANCH  16  17
ATOM     17  C   UNL A   1      31.127  27.421  25.276  1.00  0.00     0.037 A 
ATOM     18  C   UNL A   1      31.891  28.686  27.449  1.00  0.00     0.071 C 
ATOM     19  C   UNL A   1      31.701  28.518  25.987  1.00  0.00     0.086 A 
ATOM     20  N   UNL A   1      32.110  29.480  25.150  1.00  0.00    -0.085 NA
ATOM     21  O   UNL A   1      31.814  29.031  23.882  1.00  0.00    -0.361 OA
ATOM     22  C   UNL A   1      31.231  27.807  23.956  1.00  0.00     0.138 A 
ATOM     23  C   UNL A   1      30.854  27.192  22.670  1.00  0.00     0.091 C 
ENDBRANCH  16  17
ENDBRANCH  14  16
ENDBRANCH   8  14
ENDBRANCH   5   7
ENDBRANCH   4   5
ENDBRANCH   3   4
ENDBRANCH   2   3
ENDBRANCH   1   2
BRANCH   1  24
ATOM     24  C   UNL A   1      40.193  21.602  26.200  1.00  0.00     0.202 C 
BRANCH  24  25
ATOM     25  C   UNL A   1      41.095  22.840  26.267  1.00  0.00     0.261 C 
BRANCH  25  26
ATOM     26  O   UNL A   1      40.362  24.044  26.557  1.00  0.00    -0.460 OA
BRANCH  26  27
ATOM     27  C   UNL A   1      41.034  25.192  26.299  1.00  0.00     0.338 C 
ATOM     28  O   UNL A   1      41.435  25.582  25.208  1.00  0.00    -0.246 OA
BRANCH  27  29
ATOM     29  C   UNL A   1      41.094  26.036  27.505  1.00  0.00     0.060 A 
ATOM     30  C   UNL A   1      40.054  25.912  28.436  1.00  0.00     0.016 A 
ATOM     31  C   UNL A   1      42.102  26.985  27.695  1.00  0.00     0.016 A 
ATOM     32  C   UNL A   1      39.995  26.765  29.536  1.00  0.00     0.010 A 
ATOM     33  C   UNL A   1      42.035  27.846  28.797  1.00  0.00     0.010 A 
ATOM     34  C   UNL A   1      40.966  27.760  29.708  1.00  0.00    -0.014 A 
BRANCH  34  35
ATOM     35  C   UNL A   1      40.794  28.778  30.774  1.00  0.00     0.031 A 
ATOM     36  C   UNL A   1      41.689  28.734  31.986  1.00  0.00     0.074 A 
ATOM     37  C   UNL A   1      39.870  29.749  30.653  1.00  0.00     0.049 A 
ATOM     38  N   UNL A   1      41.702  29.521  33.031  1.00  0.00    -0.248 NA
ATOM     39  C   UNL A   1      42.701  27.665  32.025  1.00  0.00     0.031 C 
ATOM     40  C   UNL A   1      38.966  29.921  29.516  1.00  0.00     0.029 A 
ATOM     41  N   UNL A   1      39.537  30.776  31.502  1.00  0.00    -0.354 N 
ATOM     42  C   UNL A   1      42.711  29.038  33.857  1.00  0.00     0.074 A 
ATOM     43  C   UNL A   1      43.276  27.879  33.202  1.00  0.00     0.031 C 
ATOM     44  C   UNL A   1      38.179  30.987  29.740  1.00  0.00     0.029 A 
ATOM     45  C   UNL A   1      38.500  31.555  31.047  1.00  0.00     0.049 A 
ATOM     46  H   UNL A   1      39.999  30.938  32.357  1.00  0.00     0.167 HD
ATOM     47  C   UNL A   1      43.131  29.518  35.051  1.00  0.00     0.031 A 
ATOM     48  C   UNL A   1      37.869  32.595  31.628  1.00  0.00     0.031 A 
ATOM     49  C   UNL A   1      42.574  30.675  35.702  1.00  0.00     0.049 A 
ATOM     50  C   UNL A   1      38.320  33.071  32.985  1.00  0.00     0.074 A 
ATOM     51  C   UNL A   1      42.964  31.259  36.894  1.00  0.00     0.029 A 
ATOM     52  N   UNL A   1      41.506  31.417  35.224  1.00  0.00    -0.354 N 
ATOM     53  N   UNL A   1      39.307  32.630  33.728  1.00  0.00    -0.248 NA
ATOM     54  C   UNL A   1      37.572  34.188  33.580  1.00  0.00     0.031 C 
ATOM     55  C   UNL A   1      42.095  32.321  37.166  1.00  0.00     0.029 A 
ATOM     56  C   UNL A   1      41.201  32.432  36.113  1.00  0.00     0.049 A 
ATOM     57  H   UNL A   1      41.034  31.246  34.376  1.00  0.00     0.167 HD
ATOM     58  C   UNL A   1      39.317  33.439  34.862  1.00  0.00     0.074 A 
ATOM     59  C   UNL A   1      38.248  34.401  34.700  1.00  0.00     0.031 C 
ATOM     60  C   UNL A   1      40.139  33.389  35.939  1.00  0.00     0.031 A 
BRANCH  47  61
ATOM     61  C   UNL A   1      44.235  28.780  35.760  1.00  0.00    -0.014 A 
ATOM     62  C   UNL A   1      45.586  29.099  35.538  1.00  0.00     0.010 A 
ATOM     63  C   UNL A   1      43.908  27.812  36.727  1.00  0.00     0.010 A 
ATOM     64  C   UNL A   1      46.592  28.451  36.260  1.00  0.00     0.020 A 
ATOM     65  C   UNL A   1      44.910  27.177  37.467  1.00  0.00     0.020 A 
ATOM     66  C   UNL A   1      46.247  27.496  37.222  1.00  0.00     0.054 A 
BRANCH  66  67
ATOM     67  S   UNL A   1      47.570  26.713  38.185  1.00  0.00     0.124 S 
ATOM     68  O   UNL A   1      46.883  26.384  39.431  1.00  0.00    -0.237 OA
ATOM     69  O   UNL A   1      47.941  25.571  37.353  1.00  0.00    -0.237 OA
ATOM     70  O   UNL A   1      48.586  27.758  38.292  1.00  0.00    -0.744 OA
ENDBRANCH  66  67
ENDBRANCH  47  61
BRANCH  48  71
ATOM     71  C   UNL A   1      36.717  33.251  30.948  1.00  0.00    -0.014 A 
ATOM     72  C   UNL A   1      36.910  34.030  29.794  1.00  0.00     0.010 A 
ATOM     73  C   UNL A   1      35.422  33.134  31.485  1.00  0.00     0.010 A 
ATOM     74  C   UNL A   1      35.837  34.711  29.211  1.00  0.00     0.020 A 
ATOM     75  C   UNL A   1      34.341  33.788  30.887  1.00  0.00     0.020 A 
ATOM     76  C   UNL A   1      34.559  34.590  29.766  1.00  0.00     0.054 A 
BRANCH  76  77
ATOM     77  S   UNL A   1      33.176  35.470  28.988  1.00  0.00     0.124 S 
ATOM     78  O   UNL A   1      32.552  34.413  28.198  1.00  0.00    -0.237 OA
ATOM     79  O   UNL A   1      32.409  35.937  30.141  1.00  0.00    -0.237 OA
ATOM     80  O   UNL A   1      33.833  36.524  28.219  1.00  0.00    -0.744 OA
ENDBRANCH  76  77
ENDBRANCH  48  71
BRANCH  60  81
ATOM     81  C   UNL A   1      39.944  34.427  37.011  1.00  0.00    -0.014 A 
ATOM     82  C   UNL A   1      40.518  35.707  36.902  1.00  0.00     0.010 A 
ATOM     83  C   UNL A   1      39.134  34.133  38.123  1.00  0.00     0.010 A 
ATOM     84  C   UNL A   1      40.311  36.660  37.903  1.00  0.00     0.020 A 
ATOM     85  C   UNL A   1      38.903  35.093  39.112  1.00  0.00     0.020 A 
ATOM     86  C   UNL A   1      39.507  36.346  39.003  1.00  0.00     0.054 A 
BRANCH  86  87
ATOM     87  S   UNL A   1      39.224  37.613  40.270  1.00  0.00     0.124 S 
ATOM     88  O   UNL A   1      40.548  38.216  40.398  1.00  0.00    -0.237 OA
ATOM     89  O   UNL A   1      38.205  38.461  39.657  1.00  0.00    -0.237 OA
ATOM     90  O   UNL A   1      38.773  36.848  41.430  1.00  0.00    -0.744 OA
ENDBRANCH  86  87
ENDBRANCH  60  81
ENDBRANCH  34  35
ENDBRANCH  27  29
ENDBRANCH  26  27
ENDBRANCH  25  26
ENDBRANCH  24  25
ENDBRANCH   1  24
TORSDOF 20
ENDMDL
MODEL 3
REMARK VINA RESULT:      -9.5      6.568     12.326
REMARK SMILES Cc1noc(C)c1CNc1ccc(Cl)c(C(=O)OCCOCCOC(=O)c2ccc(-c3c4nc(c(-c5ccc(S(=O)(=O)[O-])cc5)c5ccc([nH]5)c(-c5ccc(S(=O)(=O)[O-])cc5)c5nc(c(-c6ccc(S(=O)(=O)[O-])cc6)c6ccc3[nH]6)C=C5)C=C4)cc2)n1
REMARK SMILES IDX 21 1 20 2 19 3 18 4 16 5 17 6 15 7 10 8 11 9 87 10 12 11
REMARK SMILES IDX 13 12 14 13 9 14 8 16 7 17 1 18 2 19 3 20 4 21 5 22 6 23
REMARK SMILES IDX 22 24 23 25 24 26 25 27 26 28 27 29 28 30 86 31 29 32 85 33
REMARK SMILES IDX 30 34 31 35 32 36 79 37 33 38 84 39 78 40 80 41 34 42 83 43
REMARK SMILES IDX 77 44 76 45 35 47 65 48 46 49 64 50 47 51 50 52 63 53 81 54
REMARK SMILES IDX 48 55 49 56 62 58 82 59 51 60 36 61 37 62 45 63 38 64 44 65
REMARK SMILES IDX 39 66 40 67 41 68 42 69 43 70 66 71 67 72 75 73 68 74 74 75
REMARK SMILES IDX 69 76 70 77 71 78 72 79 73 80 52 81 53 82 61 83 54 84 60 85
REMARK SMILES IDX 55 86 56 87 57 88 58 89 59 90
REMARK H PARENT 9 15 80 46 50 57
REMARK Flexibility Score: inf
ROOT
ATOM      1  O   UNL A   1      32.663  30.565  27.034  1.00  0.00    -0.374 OA
ENDROOT
BRANCH   1   2
ATOM      2  C   UNL A   1      32.879  29.586  26.014  1.00  0.00     0.202 C 
BRANCH   2   3
ATOM      3  C   UNL A   1      31.620  28.872  25.516  1.00  0.00     0.261 C 
BRANCH   3   4
ATOM      4  O   UNL A   1      31.950  27.529  25.122  1.00  0.00    -0.458 OA
BRANCH   4   5
ATOM      5  C   UNL A   1      31.522  26.552  25.957  1.00  0.00     0.358 C 
ATOM      6  O   UNL A   1      30.817  26.694  26.945  1.00  0.00    -0.244 OA
BRANCH   5   7
ATOM      7  C   UNL A   1      31.870  25.221  25.396  1.00  0.00     0.169 A 
ATOM      8  C   UNL A   1      33.509  23.570  25.411  1.00  0.00     0.127 A 
ATOM      9  C   UNL A   1      32.856  22.888  24.396  1.00  0.00     0.048 A 
ATOM     10  N   UNL A   1      33.019  24.703  25.927  1.00  0.00    -0.222 NA
ATOM     11  C   UNL A   1      31.651  23.394  23.897  1.00  0.00     0.027 A 
ATOM     12  C   UNL A   1      31.143  24.593  24.395  1.00  0.00     0.074 A 
ATOM     13  Cl  UNL A   1      29.703  25.221  23.699  1.00  0.00    -0.082 Cl
BRANCH   8  14
ATOM     14  N   UNL A   1      34.719  23.168  25.934  1.00  0.00    -0.366 N 
ATOM     15  H   UNL A   1      34.764  22.649  26.770  1.00  0.00     0.162 HD
BRANCH  14  16
ATOM     16  C   UNL A   1      35.926  23.536  25.210  1.00  0.00     0.156 C 
BRANCH  16  17
ATOM     17  C   UNL A   1      37.141  22.733  25.545  1.00  0.00     0.037 A 
ATOM     18  C   UNL A   1      38.762  24.550  26.530  1.00  0.00     0.071 C 
ATOM     19  C   UNL A   1      38.373  23.182  26.109  1.00  0.00     0.086 A 
ATOM     20  N   UNL A   1      39.237  22.171  26.259  1.00  0.00    -0.085 NA
ATOM     21  O   UNL A   1      38.588  21.045  25.799  1.00  0.00    -0.361 OA
ATOM     22  C   UNL A   1      37.342  21.379  25.376  1.00  0.00     0.138 A 
ATOM     23  C   UNL A   1      36.520  20.272  24.852  1.00  0.00     0.091 C 
ENDBRANCH  16  17
ENDBRANCH  14  16
ENDBRANCH   8  14
ENDBRANCH   5   7
ENDBRANCH   4   5
ENDBRANCH   3   4
ENDBRANCH   2   3
ENDBRANCH   1   2
BRANCH   1  24
ATOM     24  C   UNL A   1      33.817  31.215  27.569  1.00  0.00     0.202 C 
BRANCH  24  25
ATOM     25  C   UNL A   1      35.006  30.309  27.911  1.00  0.00     0.261 C 
BRANCH  25  26
ATOM     26  O   UNL A   1      35.939  30.934  28.810  1.00  0.00    -0.460 OA
BRANCH  26  27
ATOM     27  C   UNL A   1      36.506  30.096  29.711  1.00  0.00     0.338 C 
ATOM     28  O   UNL A   1      35.930  29.437  30.569  1.00  0.00    -0.246 OA
BRANCH  27  29
ATOM     29  C   UNL A   1      37.944  29.936  29.431  1.00  0.00     0.060 A 
ATOM     30  C   UNL A   1      38.327  29.740  28.097  1.00  0.00     0.016 A 
ATOM     31  C   UNL A   1      38.898  29.901  30.452  1.00  0.00     0.016 A 
ATOM     32  C   UNL A   1      39.657  29.467  27.784  1.00  0.00     0.010 A 
ATOM     33  C   UNL A   1      40.232  29.618  30.135  1.00  0.00     0.010 A 
ATOM     34  C   UNL A   1      40.613  29.370  28.803  1.00  0.00    -0.014 A 
BRANCH  34  35
ATOM     35  C   UNL A   1      41.983  28.898  28.482  1.00  0.00     0.031 A 
ATOM     36  C   UNL A   1      43.127  29.879  28.512  1.00  0.00     0.074 A 
ATOM     37  C   UNL A   1      42.213  27.603  28.194  1.00  0.00     0.049 A 
ATOM     38  N   UNL A   1      44.395  29.676  28.259  1.00  0.00    -0.248 NA
ATOM     39  C   UNL A   1      42.800  31.268  28.875  1.00  0.00     0.031 C 
ATOM     40  C   UNL A   1      41.198  26.550  28.164  1.00  0.00     0.029 A 
ATOM     41  N   UNL A   1      43.378  26.954  27.867  1.00  0.00    -0.354 N 
ATOM     42  C   UNL A   1      45.015  30.910  28.420  1.00  0.00     0.074 A 
ATOM     43  C   UNL A   1      43.983  31.861  28.773  1.00  0.00     0.031 C 
ATOM     44  C   UNL A   1      41.785  25.386  27.834  1.00  0.00     0.029 A 
ATOM     45  C   UNL A   1      43.208  25.616  27.598  1.00  0.00     0.049 A 
ATOM     46  H   UNL A   1      44.252  27.405  27.829  1.00  0.00     0.167 HD
ATOM     47  C   UNL A   1      46.326  31.223  28.287  1.00  0.00     0.031 A 
ATOM     48  C   UNL A   1      44.097  24.688  27.190  1.00  0.00     0.031 A 
ATOM     49  C   UNL A   1      47.354  30.278  27.941  1.00  0.00     0.049 A 
ATOM     50  C   UNL A   1      45.539  25.079  26.993  1.00  0.00     0.074 A 
ATOM     51  C   UNL A   1      48.716  30.497  27.825  1.00  0.00     0.029 A 
ATOM     52  N   UNL A   1      47.138  28.942  27.646  1.00  0.00    -0.354 N 
ATOM     53  N   UNL A   1      46.114  26.241  27.196  1.00  0.00    -0.248 NA
ATOM     54  C   UNL A   1      46.453  24.031  26.516  1.00  0.00     0.031 C 
ATOM     55  C   UNL A   1      49.316  29.305  27.405  1.00  0.00     0.029 A 
ATOM     56  C   UNL A   1      48.335  28.331  27.316  1.00  0.00     0.049 A 
ATOM     57  H   UNL A   1      46.261  28.493  27.670  1.00  0.00     0.167 HD
ATOM     58  C   UNL A   1      47.462  26.052  26.902  1.00  0.00     0.074 A 
ATOM     59  C   UNL A   1      47.618  24.664  26.522  1.00  0.00     0.031 C 
ATOM     60  C   UNL A   1      48.479  26.947  26.945  1.00  0.00     0.031 A 
BRANCH  47  61
ATOM     61  C   UNL A   1      46.733  32.659  28.488  1.00  0.00    -0.014 A 
ATOM     62  C   UNL A   1      46.726  33.575  27.422  1.00  0.00     0.010 A 
ATOM     63  C   UNL A   1      47.044  33.113  29.783  1.00  0.00     0.010 A 
ATOM     64  C   UNL A   1      47.038  34.919  27.646  1.00  0.00     0.020 A 
ATOM     65  C   UNL A   1      47.335  34.460  30.015  1.00  0.00     0.020 A 
ATOM     66  C   UNL A   1      47.338  35.354  28.942  1.00  0.00     0.054 A 
BRANCH  66  67
ATOM     67  S   UNL A   1      47.681  37.114  29.212  1.00  0.00     0.124 S 
ATOM     68  O   UNL A   1      47.746  37.623  27.845  1.00  0.00    -0.237 OA
ATOM     69  O   UNL A   1      46.526  37.552  29.990  1.00  0.00    -0.237 OA
ATOM     70  O   UNL A   1      48.951  37.113  29.935  1.00  0.00    -0.744 OA
ENDBRANCH  66  67
ENDBRANCH  47  61
BRANCH  48  71
ATOM     71  C   UNL A   1      43.653  23.295  26.906  1.00  0.00    -0.014 A 
ATOM     72  C   UNL A   1      42.959  22.549  27.875  1.00  0.00     0.010 A 
ATOM     73  C   UNL A   1      43.966  22.692  25.675  1.00  0.00     0.010 A 
ATOM     74  C   UNL A   1      42.619  21.214  27.632  1.00  0.00     0.020 A 
ATOM     75  C   UNL A   1      43.602  21.368  25.416  1.00  0.00     0.020 A 
ATOM     76  C   UNL A   1      42.949  20.630  26.405  1.00  0.00     0.054 A 
BRANCH  76  77
ATOM     77  S   UNL A   1      42.490  18.901  26.102  1.00  0.00     0.124 S 
ATOM     78  O   UNL A   1      41.087  19.025  25.718  1.00  0.00    -0.237 OA
ATOM     79  O   UNL A   1      43.408  18.511  25.036  1.00  0.00    -0.237 OA
ATOM     80  O   UNL A   1      42.733  18.255  27.390  1.00  0.00    -0.744 OA
ENDBRANCH  76  77
ENDBRANCH  48  71
BRANCH  60  81
ATOM     81  C   UNL A   1      49.859  26.449  26.611  1.00  0.00    -0.014 A 
ATOM     82  C   UNL A   1      50.304  26.365  25.279  1.00  0.00     0.010 A 
ATOM     83  C   UNL A   1      50.743  26.104  27.650  1.00  0.00     0.010 A 
ATOM     84  C   UNL A   1      51.595  25.914  24.993  1.00  0.00     0.020 A 
ATOM     85  C   UNL A   1      52.044  25.678  27.369  1.00  0.00     0.020 A 
ATOM     86  C   UNL A   1      52.456  25.571  26.040  1.00  0.00     0.054 A 
BRANCH  86  87
ATOM     87  S   UNL A   1      54.140  25.022  25.644  1.00  0.00     0.124 S 
ATOM     88  O   UNL A   1      54.733  24.882  26.972  1.00  0.00    -0.237 OA
ATOM     89  O   UNL A   1      53.911  23.773  24.924  1.00  0.00    -0.237 OA
ATOM     90  O   UNL A   1      54.678  26.113  24.834  1.00  0.00    -0.744 OA
ENDBRANCH  86  87
ENDBRANCH  60  81
ENDBRANCH  34  35
ENDBRANCH  27  29
ENDBRANCH  26  27
ENDBRANCH  25  26
ENDBRANCH  24  25
ENDBRANCH   1  24
TORSDOF 20
ENDMDL
