MODEL 1
REMARK VINA RESULT:     -11.0      0.000      0.000
REMARK SMILES Cc1oc2c(C)c3oc(=O)c(CCC(=O)N[C@H](Cc4ccc(Cl)cc4)C(=O)OCCOCCOC(=O)c4ccc(-c5c6nc(c(-c7ccc(S(=O)(=O)[O-])cc7)c7ccc([nH]7)c(-c7ccc(S(=O)(=O)[O-])cc7)c7nc(c(-c8ccc(S(=O)(=O)[O-])cc8)c8ccc5[nH]8)C=C7)C=C6)cc4)c(C)c3cc2c1C
REMARK SMILES IDX 30 1 29 2 28 3 26 4 27 5 17 6 16 7 14 8 15 9 13 11 12 12
REMARK SMILES IDX 11 13 1 14 2 15 3 16 102 17 4 18 101 19 103 20 5 21 100 22
REMARK SMILES IDX 6 23 7 24 99 25 8 26 97 27 9 28 98 29 10 30 18 31 19 32
REMARK SMILES IDX 20 33 25 34 21 35 24 36 22 37 23 38 31 39 32 40 33 41 34 42
REMARK SMILES IDX 35 43 36 44 37 45 38 46 96 47 39 48 95 49 40 50 41 51 42 52
REMARK SMILES IDX 89 53 43 54 94 55 88 56 90 57 44 58 93 59 87 60 86 61 45 63
REMARK SMILES IDX 75 64 56 65 74 66 57 67 60 68 73 69 91 70 58 71 59 72 72 74
REMARK SMILES IDX 92 75 61 76 46 77 47 78 55 79 48 80 54 81 49 82 50 83 51 84
REMARK SMILES IDX 52 85 53 86 76 87 77 88 85 89 78 90 84 91 79 92 80 93 81 94
REMARK SMILES IDX 82 95 83 96 62 97 63 98 71 99 64 100 70 101 65 102 66 103
REMARK SMILES IDX 67 104 68 105 69 106
REMARK H PARENT 16 10 90 62 60 73
REMARK Flexibility Score: inf
ROOT
ATOM      1  C   UNL A   1      34.877  33.663  27.847  1.00  0.00     0.202 C 
ENDROOT
BRANCH   1   2
ATOM      2  C   UNL A   1      34.526  32.350  28.622  1.00  0.00     0.261 C 
BRANCH   2   3
ATOM      3  O   UNL A   1      33.527  31.471  27.987  1.00  0.00    -0.462 OA
BRANCH   3   4
ATOM      4  C   UNL A   1      32.495  31.902  27.194  1.00  0.00     0.329 C 
ATOM      5  O   UNL A   1      31.960  32.996  27.350  1.00  0.00    -0.250 OA
BRANCH   4   6
ATOM      6  C   UNL A   1      31.918  30.764  26.117  1.00  0.00     0.196 C 
BRANCH   6   7
ATOM      7  N   UNL A   1      33.106  30.072  25.581  1.00  0.00    -0.342 N 
ATOM      8  C   UNL A   1      33.338  28.914  24.928  1.00  0.00     0.221 C 
ATOM      9  O   UNL A   1      34.508  28.523  25.068  1.00  0.00    -0.275 OA
ATOM     10  H   UNL A   1      33.934  30.581  25.739  1.00  0.00     0.164 HD
BRANCH   8  11
ATOM     11  C   UNL A   1      32.455  28.205  23.878  1.00  0.00     0.105 C 
BRANCH  11  12
ATOM     12  C   UNL A   1      31.536  26.939  23.929  1.00  0.00     0.053 C 
BRANCH  12  13
ATOM     13  C   UNL A   1      31.964  25.617  24.578  1.00  0.00     0.042 A 
ATOM     14  C   UNL A   1      32.203  17.388  24.956  1.00  0.00     0.088 C 
ATOM     15  C   UNL A   1      32.707  18.768  24.761  1.00  0.00     0.105 A 
ATOM     16  O   UNL A   1      33.056  19.472  25.882  1.00  0.00    -0.461 OA
ATOM     17  C   UNL A   1      32.745  19.578  23.640  1.00  0.00    -0.002 A 
ATOM     18  C   UNL A   1      33.083  20.796  25.535  1.00  0.00     0.141 A 
ATOM     19  C   UNL A   1      32.910  20.900  24.173  1.00  0.00     0.025 A 
ATOM     20  C   UNL A   1      32.366  19.169  22.256  1.00  0.00     0.049 C 
ATOM     21  C   UNL A   1      33.194  21.912  26.384  1.00  0.00     0.036 A 
ATOM     22  C   UNL A   1      32.742  22.195  23.659  1.00  0.00     0.024 A 
ATOM     23  C   UNL A   1      33.774  21.753  27.741  1.00  0.00     0.052 C 
ATOM     24  C   UNL A   1      32.663  23.119  25.842  1.00  0.00     0.145 A 
ATOM     25  C   UNL A   1      32.307  23.242  24.512  1.00  0.00     0.022 A 
ATOM     26  O   UNL A   1      32.448  24.279  26.638  1.00  0.00    -0.422 OA
ATOM     27  C   UNL A   1      31.504  24.453  24.116  1.00  0.00    -0.030 A 
ATOM     28  C   UNL A   1      32.020  25.508  26.072  1.00  0.00     0.339 A 
ATOM     29  C   UNL A   1      29.994  24.578  23.890  1.00  0.00     0.046 C 
ATOM     30  O   UNL A   1      31.614  26.439  26.759  1.00  0.00    -0.246 OA
ENDBRANCH  12  13
ENDBRANCH  11  12
ENDBRANCH   8  11
ENDBRANCH   6   7
BRANCH   6  31
ATOM     31  C   UNL A   1      30.619  30.406  25.008  1.00  0.00     0.072 C 
BRANCH  31  32
ATOM     32  C   UNL A   1      29.702  30.894  23.787  1.00  0.00    -0.045 A 
ATOM     33  C   UNL A   1      29.592  30.052  22.659  1.00  0.00     0.005 A 
ATOM     34  C   UNL A   1      29.165  32.178  23.516  1.00  0.00     0.005 A 
ATOM     35  C   UNL A   1      28.951  30.447  21.447  1.00  0.00     0.021 A 
ATOM     36  C   UNL A   1      28.467  32.575  22.358  1.00  0.00     0.021 A 
ATOM     37  C   UNL A   1      28.363  31.698  21.313  1.00  0.00     0.041 A 
ATOM     38  Cl  UNL A   1      27.565  32.177  19.870  1.00  0.00    -0.084 Cl
ENDBRANCH  31  32
ENDBRANCH   6  31
ENDBRANCH   4   6
ENDBRANCH   3   4
ENDBRANCH   2   3
ENDBRANCH   1   2
BRANCH   1  39
ATOM     39  O   UNL A   1      34.955  34.815  28.694  1.00  0.00    -0.374 OA
BRANCH  39  40
ATOM     40  C   UNL A   1      33.700  35.438  28.955  1.00  0.00     0.202 C 
BRANCH  40  41
ATOM     41  C   UNL A   1      33.434  35.781  30.434  1.00  0.00     0.261 C 
BRANCH  41  42
ATOM     42  O   UNL A   1      33.887  34.807  31.391  1.00  0.00    -0.460 OA
BRANCH  42  43
ATOM     43  C   UNL A   1      34.774  35.270  32.301  1.00  0.00     0.338 C 
ATOM     44  O   UNL A   1      34.708  36.357  32.846  1.00  0.00    -0.246 OA
BRANCH  43  45
ATOM     45  C   UNL A   1      35.898  34.331  32.575  1.00  0.00     0.060 A 
ATOM     46  C   UNL A   1      36.625  34.593  33.741  1.00  0.00     0.016 A 
ATOM     47  C   UNL A   1      36.341  33.330  31.695  1.00  0.00     0.016 A 
ATOM     48  C   UNL A   1      37.834  33.953  33.974  1.00  0.00     0.010 A 
ATOM     49  C   UNL A   1      37.558  32.674  31.936  1.00  0.00     0.010 A 
ATOM     50  C   UNL A   1      38.334  33.031  33.047  1.00  0.00    -0.014 A 
BRANCH  50  51
ATOM     51  C   UNL A   1      39.728  32.594  33.258  1.00  0.00     0.031 A 
ATOM     52  C   UNL A   1      40.785  33.647  33.244  1.00  0.00     0.074 A 
ATOM     53  C   UNL A   1      39.930  31.436  33.933  1.00  0.00     0.049 A 
ATOM     54  N   UNL A   1      40.994  34.438  34.255  1.00  0.00    -0.248 NA
ATOM     55  C   UNL A   1      41.526  34.029  32.042  1.00  0.00     0.031 C 
ATOM     56  C   UNL A   1      39.010  30.950  34.979  1.00  0.00     0.029 A 
ATOM     57  N   UNL A   1      41.002  30.581  34.018  1.00  0.00    -0.354 N 
ATOM     58  C   UNL A   1      41.889  35.413  33.849  1.00  0.00     0.074 A 
ATOM     59  C   UNL A   1      42.186  35.122  32.464  1.00  0.00     0.031 C 
ATOM     60  C   UNL A   1      39.634  30.007  35.711  1.00  0.00     0.029 A 
ATOM     61  C   UNL A   1      40.930  29.714  35.113  1.00  0.00     0.049 A 
ATOM     62  H   UNL A   1      41.747  30.578  33.372  1.00  0.00     0.167 HD
ATOM     63  C   UNL A   1      42.341  36.383  34.690  1.00  0.00     0.031 A 
ATOM     64  C   UNL A   1      42.008  29.265  35.817  1.00  0.00     0.031 A 
ATOM     65  C   UNL A   1      41.815  36.310  36.023  1.00  0.00     0.049 A 
ATOM     66  C   UNL A   1      42.441  30.544  36.497  1.00  0.00     0.074 A 
ATOM     67  C   UNL A   1      40.763  36.855  36.726  1.00  0.00     0.029 A 
ATOM     68  N   UNL A   1      42.377  35.402  36.888  1.00  0.00    -0.354 N 
ATOM     69  N   UNL A   1      41.861  31.105  37.527  1.00  0.00    -0.248 NA
ATOM     70  C   UNL A   1      43.328  31.432  35.740  1.00  0.00     0.031 C 
ATOM     71  C   UNL A   1      40.474  35.915  37.765  1.00  0.00     0.029 A 
ATOM     72  C   UNL A   1      41.350  34.841  37.608  1.00  0.00     0.049 A 
ATOM     73  H   UNL A   1      43.335  35.192  36.977  1.00  0.00     0.167 HD
ATOM     74  C   UNL A   1      42.060  32.477  37.365  1.00  0.00     0.074 A 
ATOM     75  C   UNL A   1      42.975  32.606  36.247  1.00  0.00     0.031 C 
ATOM     76  C   UNL A   1      41.342  33.447  38.008  1.00  0.00     0.031 A 
BRANCH  63  77
ATOM     77  C   UNL A   1      43.424  37.349  34.388  1.00  0.00    -0.014 A 
ATOM     78  C   UNL A   1      44.591  37.285  35.173  1.00  0.00     0.010 A 
ATOM     79  C   UNL A   1      43.236  38.445  33.532  1.00  0.00     0.010 A 
ATOM     80  C   UNL A   1      45.525  38.320  35.152  1.00  0.00     0.020 A 
ATOM     81  C   UNL A   1      44.182  39.483  33.498  1.00  0.00     0.020 A 
ATOM     82  C   UNL A   1      45.307  39.423  34.326  1.00  0.00     0.054 A 
BRANCH  82  83
ATOM     83  S   UNL A   1      46.495  40.793  34.407  1.00  0.00     0.124 S 
ATOM     84  O   UNL A   1      45.621  41.954  34.547  1.00  0.00    -0.237 OA
ATOM     85  O   UNL A   1      47.280  40.452  35.591  1.00  0.00    -0.237 OA
ATOM     86  O   UNL A   1      47.215  40.705  33.139  1.00  0.00    -0.744 OA
ENDBRANCH  82  83
ENDBRANCH  63  77
BRANCH  64  87
ATOM     87  C   UNL A   1      42.941  28.380  35.044  1.00  0.00    -0.014 A 
ATOM     88  C   UNL A   1      44.145  27.989  35.672  1.00  0.00     0.010 A 
ATOM     89  C   UNL A   1      42.698  27.884  33.752  1.00  0.00     0.010 A 
ATOM     90  C   UNL A   1      44.977  27.013  35.117  1.00  0.00     0.020 A 
ATOM     91  C   UNL A   1      43.511  26.884  33.197  1.00  0.00     0.020 A 
ATOM     92  C   UNL A   1      44.623  26.427  33.904  1.00  0.00     0.054 A 
BRANCH  92  93
ATOM     93  S   UNL A   1      45.589  25.007  33.322  1.00  0.00     0.124 S 
ATOM     94  O   UNL A   1      46.959  25.417  33.621  1.00  0.00    -0.237 OA
ATOM     95  O   UNL A   1      45.062  23.922  34.145  1.00  0.00    -0.237 OA
ATOM     96  O   UNL A   1      45.257  24.923  31.902  1.00  0.00    -0.744 OA
ENDBRANCH  92  93
ENDBRANCH  64  87
BRANCH  76  97
ATOM     97  C   UNL A   1      40.355  33.003  39.043  1.00  0.00    -0.014 A 
ATOM     98  C   UNL A   1      40.733  32.937  40.393  1.00  0.00     0.010 A 
ATOM     99  C   UNL A   1      39.006  32.776  38.702  1.00  0.00     0.010 A 
ATOM    100  C   UNL A   1      39.774  32.723  41.386  1.00  0.00     0.020 A 
ATOM    101  C   UNL A   1      38.040  32.577  39.693  1.00  0.00     0.020 A 
ATOM    102  C   UNL A   1      38.429  32.575  41.033  1.00  0.00     0.054 A 
BRANCH 102 103
ATOM    103  S   UNL A   1      37.196  32.460  42.356  1.00  0.00     0.124 S 
ATOM    104  O   UNL A   1      38.023  32.304  43.549  1.00  0.00    -0.237 OA
ATOM    105  O   UNL A   1      36.492  33.735  42.243  1.00  0.00    -0.237 OA
ATOM    106  O   UNL A   1      36.401  31.286  41.996  1.00  0.00    -0.744 OA
ENDBRANCH 102 103
ENDBRANCH  76  97
ENDBRANCH  50  51
ENDBRANCH  43  45
ENDBRANCH  42  43
ENDBRANCH  41  42
ENDBRANCH  40  41
ENDBRANCH  39  40
ENDBRANCH   1  39
TORSDOF 23
ENDMDL
MODEL 2
REMARK VINA RESULT:     -10.6      7.094     14.722
REMARK SMILES Cc1oc2c(C)c3oc(=O)c(CCC(=O)N[C@H](Cc4ccc(Cl)cc4)C(=O)OCCOCCOC(=O)c4ccc(-c5c6nc(c(-c7ccc(S(=O)(=O)[O-])cc7)c7ccc([nH]7)c(-c7ccc(S(=O)(=O)[O-])cc7)c7nc(c(-c8ccc(S(=O)(=O)[O-])cc8)c8ccc5[nH]8)C=C7)C=C6)cc4)c(C)c3cc2c1C
REMARK SMILES IDX 30 1 29 2 28 3 26 4 27 5 17 6 16 7 14 8 15 9 13 11 12 12
REMARK SMILES IDX 11 13 1 14 2 15 3 16 102 17 4 18 101 19 103 20 5 21 100 22
REMARK SMILES IDX 6 23 7 24 99 25 8 26 97 27 9 28 98 29 10 30 18 31 19 32
REMARK SMILES IDX 20 33 25 34 21 35 24 36 22 37 23 38 31 39 32 40 33 41 34 42
REMARK SMILES IDX 35 43 36 44 37 45 38 46 96 47 39 48 95 49 40 50 41 51 42 52
REMARK SMILES IDX 89 53 43 54 94 55 88 56 90 57 44 58 93 59 87 60 86 61 45 63
REMARK SMILES IDX 75 64 56 65 74 66 57 67 60 68 73 69 91 70 58 71 59 72 72 74
REMARK SMILES IDX 92 75 61 76 46 77 47 78 55 79 48 80 54 81 49 82 50 83 51 84
REMARK SMILES IDX 52 85 53 86 76 87 77 88 85 89 78 90 84 91 79 92 80 93 81 94
REMARK SMILES IDX 82 95 83 96 62 97 63 98 71 99 64 100 70 101 65 102 66 103
REMARK SMILES IDX 67 104 68 105 69 106
REMARK H PARENT 16 10 90 62 60 73
REMARK Flexibility Score: inf
ROOT
ATOM      1  C   UNL A   1      39.818  25.462  27.291  1.00  0.00     0.202 C 
ENDROOT
BRANCH   1   2
ATOM      2  C   UNL A   1      40.133  26.345  28.543  1.00  0.00     0.261 C 
BRANCH   2   3
ATOM      3  O   UNL A   1      41.450  27.010  28.552  1.00  0.00    -0.462 OA
BRANCH   3   4
ATOM      4  C   UNL A   1      41.697  28.251  29.080  1.00  0.00     0.329 C 
ATOM      5  O   UNL A   1      41.837  29.248  28.376  1.00  0.00    -0.250 OA
BRANCH   4   6
ATOM      6  C   UNL A   1      41.958  28.270  30.729  1.00  0.00     0.196 C 
BRANCH   6   7
ATOM      7  N   UNL A   1      42.091  29.691  31.103  1.00  0.00    -0.342 N 
ATOM      8  C   UNL A   1      41.311  30.790  31.020  1.00  0.00     0.221 C 
ATOM      9  O   UNL A   1      41.976  31.838  31.040  1.00  0.00    -0.275 OA
ATOM     10  H   UNL A   1      42.962  29.885  31.516  1.00  0.00     0.164 HD
BRANCH   8  11
ATOM     11  C   UNL A   1      39.778  30.898  31.163  1.00  0.00     0.105 C 
BRANCH  11  12
ATOM     12  C   UNL A   1      38.583  30.477  30.243  1.00  0.00     0.053 C 
BRANCH  12  13
ATOM     13  C   UNL A   1      37.354  31.362  30.005  1.00  0.00     0.042 A 
ATOM     14  C   UNL A   1      31.173  36.156  32.598  1.00  0.00     0.088 C 
ATOM     15  C   UNL A   1      32.458  35.806  31.948  1.00  0.00     0.105 A 
ATOM     16  O   UNL A   1      32.401  35.323  30.668  1.00  0.00    -0.461 OA
ATOM     17  C   UNL A   1      33.743  35.713  32.453  1.00  0.00    -0.002 A 
ATOM     18  C   UNL A   1      33.590  34.689  30.424  1.00  0.00     0.141 A 
ATOM     19  C   UNL A   1      34.438  34.915  31.484  1.00  0.00     0.025 A 
ATOM     20  C   UNL A   1      34.165  36.083  33.835  1.00  0.00     0.049 C 
ATOM     21  C   UNL A   1      33.926  33.872  29.330  1.00  0.00     0.036 A 
ATOM     22  C   UNL A   1      35.646  34.201  31.484  1.00  0.00     0.024 A 
ATOM     23  C   UNL A   1      33.166  33.988  28.059  1.00  0.00     0.052 C 
ATOM     24  C   UNL A   1      34.974  32.941  29.590  1.00  0.00     0.145 A 
ATOM     25  C   UNL A   1      35.761  33.008  30.725  1.00  0.00     0.022 A 
ATOM     26  O   UNL A   1      35.275  31.868  28.705  1.00  0.00    -0.422 OA
ATOM     27  C   UNL A   1      36.639  31.823  31.033  1.00  0.00    -0.030 A 
ATOM     28  C   UNL A   1      36.385  31.010  28.916  1.00  0.00     0.339 A 
ATOM     29  C   UNL A   1      36.400  30.675  32.018  1.00  0.00     0.046 C 
ATOM     30  O   UNL A   1      36.524  29.957  28.305  1.00  0.00    -0.246 OA
ENDBRANCH  12  13
ENDBRANCH  11  12
ENDBRANCH   8  11
ENDBRANCH   6   7
BRANCH   6  31
ATOM     31  C   UNL A   1      42.634  27.363  32.059  1.00  0.00     0.072 C 
BRANCH  31  32
ATOM     32  C   UNL A   1      42.800  27.197  33.645  1.00  0.00    -0.045 A 
ATOM     33  C   UNL A   1      44.037  26.728  34.138  1.00  0.00     0.005 A 
ATOM     34  C   UNL A   1      41.813  27.195  34.661  1.00  0.00     0.005 A 
ATOM     35  C   UNL A   1      44.251  26.377  35.504  1.00  0.00     0.021 A 
ATOM     36  C   UNL A   1      42.010  26.921  36.030  1.00  0.00     0.021 A 
ATOM     37  C   UNL A   1      43.244  26.505  36.452  1.00  0.00     0.041 A 
ATOM     38  Cl  UNL A   1      43.495  26.112  38.104  1.00  0.00    -0.084 Cl
ENDBRANCH  31  32
ENDBRANCH   6  31
ENDBRANCH   4   6
ENDBRANCH   3   4
ENDBRANCH   2   3
ENDBRANCH   1   2
BRANCH   1  39
ATOM     39  O   UNL A   1      39.308  24.166  27.628  1.00  0.00    -0.374 OA
BRANCH  39  40
ATOM     40  C   UNL A   1      39.141  23.294  26.514  1.00  0.00     0.202 C 
BRANCH  40  41
ATOM     41  C   UNL A   1      39.732  21.881  26.695  1.00  0.00     0.261 C 
BRANCH  41  42
ATOM     42  O   UNL A   1      40.931  21.805  27.487  1.00  0.00    -0.460 OA
BRANCH  42  43
ATOM     43  C   UNL A   1      42.085  21.831  26.781  1.00  0.00     0.338 C 
ATOM     44  O   UNL A   1      42.340  21.108  25.836  1.00  0.00    -0.246 OA
BRANCH  43  45
ATOM     45  C   UNL A   1      43.073  22.828  27.285  1.00  0.00     0.060 A 
ATOM     46  C   UNL A   1      42.743  23.431  28.503  1.00  0.00     0.016 A 
ATOM     47  C   UNL A   1      44.192  23.281  26.570  1.00  0.00     0.016 A 
ATOM     48  C   UNL A   1      43.444  24.542  28.949  1.00  0.00     0.010 A 
ATOM     49  C   UNL A   1      44.909  24.399  27.026  1.00  0.00     0.010 A 
ATOM     50  C   UNL A   1      44.495  25.066  28.187  1.00  0.00    -0.014 A 
BRANCH  50  51
ATOM     51  C   UNL A   1      45.011  26.380  28.615  1.00  0.00     0.031 A 
ATOM     52  C   UNL A   1      46.051  26.392  29.684  1.00  0.00     0.074 A 
ATOM     53  C   UNL A   1      44.931  27.406  27.732  1.00  0.00     0.049 A 
ATOM     54  N   UNL A   1      47.296  26.100  29.449  1.00  0.00    -0.248 NA
ATOM     55  C   UNL A   1      45.741  26.517  31.108  1.00  0.00     0.031 C 
ATOM     56  C   UNL A   1      44.995  27.211  26.271  1.00  0.00     0.029 A 
ATOM     57  N   UNL A   1      44.985  28.772  27.881  1.00  0.00    -0.354 N 
ATOM     58  C   UNL A   1      47.945  26.008  30.667  1.00  0.00     0.074 A 
ATOM     59  C   UNL A   1      46.937  26.267  31.671  1.00  0.00     0.031 C 
ATOM     60  C   UNL A   1      45.260  28.391  25.680  1.00  0.00     0.029 A 
ATOM     61  C   UNL A   1      45.243  29.447  26.685  1.00  0.00     0.049 A 
ATOM     62  H   UNL A   1      44.855  29.228  28.744  1.00  0.00     0.167 HD
ATOM     63  C   UNL A   1      49.277  25.744  30.767  1.00  0.00     0.031 A 
ATOM     64  C   UNL A   1      45.962  30.601  26.586  1.00  0.00     0.031 A 
ATOM     65  C   UNL A   1      49.946  25.571  29.509  1.00  0.00     0.049 A 
ATOM     66  C   UNL A   1      47.344  30.090  26.926  1.00  0.00     0.074 A 
ATOM     67  C   UNL A   1      50.284  24.524  28.680  1.00  0.00     0.029 A 
ATOM     68  N   UNL A   1      50.297  26.698  28.805  1.00  0.00    -0.354 N 
ATOM     69  N   UNL A   1      48.129  29.402  26.136  1.00  0.00    -0.248 NA
ATOM     70  C   UNL A   1      47.694  30.014  28.348  1.00  0.00     0.031 C 
ATOM     71  C   UNL A   1      50.367  25.091  27.368  1.00  0.00     0.029 A 
ATOM     72  C   UNL A   1      50.042  26.443  27.480  1.00  0.00     0.049 A 
ATOM     73  H   UNL A   1      50.663  27.532  29.179  1.00  0.00     0.167 HD
ATOM     74  C   UNL A   1      48.866  28.568  26.978  1.00  0.00     0.074 A 
ATOM     75  C   UNL A   1      48.551  29.001  28.326  1.00  0.00     0.031 C 
ATOM     76  C   UNL A   1      49.544  27.454  26.567  1.00  0.00     0.031 A 
BRANCH  63  77
ATOM     77  C   UNL A   1      50.077  25.803  32.013  1.00  0.00    -0.014 A 
ATOM     78  C   UNL A   1      50.441  27.075  32.493  1.00  0.00     0.010 A 
ATOM     79  C   UNL A   1      50.667  24.664  32.582  1.00  0.00     0.010 A 
ATOM     80  C   UNL A   1      51.418  27.215  33.479  1.00  0.00     0.020 A 
ATOM     81  C   UNL A   1      51.641  24.800  33.584  1.00  0.00     0.020 A 
ATOM     82  C   UNL A   1      52.025  26.076  34.008  1.00  0.00     0.054 A 
BRANCH  82  83
ATOM     83  S   UNL A   1      53.363  26.309  35.213  1.00  0.00     0.124 S 
ATOM     84  O   UNL A   1      53.787  27.680  34.946  1.00  0.00    -0.237 OA
ATOM     85  O   UNL A   1      52.674  26.099  36.484  1.00  0.00    -0.237 OA
ATOM     86  O   UNL A   1      54.334  25.277  34.856  1.00  0.00    -0.744 OA
ENDBRANCH  82  83
ENDBRANCH  63  77
BRANCH  64  87
ATOM     87  C   UNL A   1      45.333  31.793  27.246  1.00  0.00    -0.014 A 
ATOM     88  C   UNL A   1      45.584  33.063  26.680  1.00  0.00     0.010 A 
ATOM     89  C   UNL A   1      44.489  31.742  28.368  1.00  0.00     0.010 A 
ATOM     90  C   UNL A   1      44.887  34.201  27.097  1.00  0.00     0.020 A 
ATOM     91  C   UNL A   1      43.764  32.872  28.777  1.00  0.00     0.020 A 
ATOM     92  C   UNL A   1      43.939  34.085  28.110  1.00  0.00     0.054 A 
BRANCH  92  93
ATOM     93  S   UNL A   1      42.889  35.517  28.473  1.00  0.00     0.124 S 
ATOM     94  O   UNL A   1      42.279  35.145  29.746  1.00  0.00    -0.237 OA
ATOM     95  O   UNL A   1      43.865  36.603  28.535  1.00  0.00    -0.237 OA
ATOM     96  O   UNL A   1      41.976  35.573  27.334  1.00  0.00    -0.744 OA
ENDBRANCH  92  93
ENDBRANCH  64  87
BRANCH  76  97
ATOM     97  C   UNL A   1      49.594  27.181  25.095  1.00  0.00    -0.014 A 
ATOM     98  C   UNL A   1      48.591  26.411  24.489  1.00  0.00     0.010 A 
ATOM     99  C   UNL A   1      50.566  27.798  24.281  1.00  0.00     0.010 A 
ATOM    100  C   UNL A   1      48.514  26.319  23.097  1.00  0.00     0.020 A 
ATOM    101  C   UNL A   1      50.484  27.722  22.887  1.00  0.00     0.020 A 
ATOM    102  C   UNL A   1      49.443  27.000  22.304  1.00  0.00     0.054 A 
BRANCH 102 103
ATOM    103  S   UNL A   1      49.216  26.989  20.505  1.00  0.00     0.124 S 
ATOM    104  O   UNL A   1      50.275  27.883  20.045  1.00  0.00    -0.237 OA
ATOM    105  O   UNL A   1      49.400  25.577  20.174  1.00  0.00    -0.237 OA
ATOM    106  O   UNL A   1      47.856  27.491  20.317  1.00  0.00    -0.744 OA
ENDBRANCH 102 103
ENDBRANCH  76  97
ENDBRANCH  50  51
ENDBRANCH  43  45
ENDBRANCH  42  43
ENDBRANCH  41  42
ENDBRANCH  40  41
ENDBRANCH  39  40
ENDBRANCH   1  39
TORSDOF 23
ENDMDL
MODEL 3
REMARK VINA RESULT:     -10.4      7.788     14.615
REMARK SMILES Cc1oc2c(C)c3oc(=O)c(CCC(=O)N[C@H](Cc4ccc(Cl)cc4)C(=O)OCCOCCOC(=O)c4ccc(-c5c6nc(c(-c7ccc(S(=O)(=O)[O-])cc7)c7ccc([nH]7)c(-c7ccc(S(=O)(=O)[O-])cc7)c7nc(c(-c8ccc(S(=O)(=O)[O-])cc8)c8ccc5[nH]8)C=C7)C=C6)cc4)c(C)c3cc2c1C
REMARK SMILES IDX 30 1 29 2 28 3 26 4 27 5 17 6 16 7 14 8 15 9 13 11 12 12
REMARK SMILES IDX 11 13 1 14 2 15 3 16 102 17 4 18 101 19 103 20 5 21 100 22
REMARK SMILES IDX 6 23 7 24 99 25 8 26 97 27 9 28 98 29 10 30 18 31 19 32
REMARK SMILES IDX 20 33 25 34 21 35 24 36 22 37 23 38 31 39 32 40 33 41 34 42
REMARK SMILES IDX 35 43 36 44 37 45 38 46 96 47 39 48 95 49 40 50 41 51 42 52
REMARK SMILES IDX 89 53 43 54 94 55 88 56 90 57 44 58 93 59 87 60 86 61 45 63
REMARK SMILES IDX 75 64 56 65 74 66 57 67 60 68 73 69 91 70 58 71 59 72 72 74
REMARK SMILES IDX 92 75 61 76 46 77 47 78 55 79 48 80 54 81 49 82 50 83 51 84
REMARK SMILES IDX 52 85 53 86 76 87 77 88 85 89 78 90 84 91 79 92 80 93 81 94
REMARK SMILES IDX 82 95 83 96 62 97 63 98 71 99 64 100 70 101 65 102 66 103
REMARK SMILES IDX 67 104 68 105 69 106
REMARK H PARENT 16 10 90 62 60 73
REMARK Flexibility Score: inf
ROOT
ATOM      1  C   UNL A   1      50.743  27.804  28.723  1.00  0.00     0.202 C 
ENDROOT
BRANCH   1   2
ATOM      2  C   UNL A   1      50.695  26.432  27.973  1.00  0.00     0.261 C 
BRANCH   2   3
ATOM      3  O   UNL A   1      49.372  25.785  27.891  1.00  0.00    -0.462 OA
BRANCH   3   4
ATOM      4  C   UNL A   1      48.587  25.747  26.768  1.00  0.00     0.329 C 
ATOM      5  O   UNL A   1      49.060  25.746  25.635  1.00  0.00    -0.250 OA
BRANCH   4   6
ATOM      6  C   UNL A   1      46.947  25.872  27.057  1.00  0.00     0.196 C 
BRANCH   6   7
ATOM      7  N   UNL A   1      46.373  26.533  25.869  1.00  0.00    -0.342 N 
ATOM      8  C   UNL A   1      46.034  27.796  25.534  1.00  0.00     0.221 C 
ATOM      9  O   UNL A   1      45.188  27.828  24.627  1.00  0.00    -0.275 OA
ATOM     10  H   UNL A   1      46.194  25.895  25.141  1.00  0.00     0.164 HD
BRANCH   8  11
ATOM     11  C   UNL A   1      46.724  29.118  25.933  1.00  0.00     0.105 C 
BRANCH  11  12
ATOM     12  C   UNL A   1      46.359  30.255  26.945  1.00  0.00     0.053 C 
BRANCH  12  13
ATOM     13  C   UNL A   1      45.435  30.042  28.150  1.00  0.00     0.042 A 
ATOM     14  C   UNL A   1      38.105  28.459  31.567  1.00  0.00     0.088 C 
ATOM     15  C   UNL A   1      39.510  28.220  31.162  1.00  0.00     0.105 A 
ATOM     16  O   UNL A   1      40.491  28.744  31.961  1.00  0.00    -0.461 OA
ATOM     17  C   UNL A   1      40.051  27.690  30.004  1.00  0.00    -0.002 A 
ATOM     18  C   UNL A   1      41.640  28.779  31.218  1.00  0.00     0.141 A 
ATOM     19  C   UNL A   1      41.415  28.134  30.024  1.00  0.00     0.025 A 
ATOM     20  C   UNL A   1      39.279  27.093  28.875  1.00  0.00     0.049 C 
ATOM     21  C   UNL A   1      42.856  29.411  31.535  1.00  0.00     0.036 A 
ATOM     22  C   UNL A   1      42.435  28.218  29.064  1.00  0.00     0.024 A 
ATOM     23  C   UNL A   1      43.181  29.724  32.949  1.00  0.00     0.052 C 
ATOM     24  C   UNL A   1      43.657  29.747  30.404  1.00  0.00     0.145 A 
ATOM     25  C   UNL A   1      43.388  29.267  29.136  1.00  0.00     0.022 A 
ATOM     26  O   UNL A   1      44.783  30.611  30.500  1.00  0.00    -0.422 OA
ATOM     27  C   UNL A   1      44.119  29.902  27.982  1.00  0.00    -0.030 A 
ATOM     28  C   UNL A   1      45.638  30.855  29.393  1.00  0.00     0.339 A 
ATOM     29  C   UNL A   1      43.633  30.978  27.005  1.00  0.00     0.046 C 
ATOM     30  O   UNL A   1      46.464  31.761  29.392  1.00  0.00    -0.246 OA
ENDBRANCH  12  13
ENDBRANCH  11  12
ENDBRANCH   8  11
ENDBRANCH   6   7
BRANCH   6  31
ATOM     31  C   UNL A   1      45.746  26.029  28.315  1.00  0.00     0.072 C 
BRANCH  31  32
ATOM     32  C   UNL A   1      45.426  26.325  29.857  1.00  0.00    -0.045 A 
ATOM     33  C   UNL A   1      46.282  27.202  30.558  1.00  0.00     0.005 A 
ATOM     34  C   UNL A   1      44.557  25.644  30.747  1.00  0.00     0.005 A 
ATOM     35  C   UNL A   1      46.206  27.409  31.967  1.00  0.00     0.021 A 
ATOM     36  C   UNL A   1      44.411  25.877  32.129  1.00  0.00     0.021 A 
ATOM     37  C   UNL A   1      45.248  26.769  32.743  1.00  0.00     0.041 A 
ATOM     38  Cl  UNL A   1      45.127  27.029  34.436  1.00  0.00    -0.084 Cl
ENDBRANCH  31  32
ENDBRANCH   6  31
ENDBRANCH   4   6
ENDBRANCH   3   4
ENDBRANCH   2   3
ENDBRANCH   1   2
BRANCH   1  39
ATOM     39  O   UNL A   1      49.463  28.440  28.820  1.00  0.00    -0.374 OA
BRANCH  39  40
ATOM     40  C   UNL A   1      49.488  29.847  28.599  1.00  0.00     0.202 C 
BRANCH  40  41
ATOM     41  C   UNL A   1      50.306  30.304  27.374  1.00  0.00     0.261 C 
BRANCH  41  42
ATOM     42  O   UNL A   1      49.695  31.324  26.563  1.00  0.00    -0.460 OA
BRANCH  42  43
ATOM     43  C   UNL A   1      50.424  32.456  26.426  1.00  0.00     0.338 C 
ATOM     44  O   UNL A   1      51.638  32.496  26.346  1.00  0.00    -0.246 OA
BRANCH  43  45
ATOM     45  C   UNL A   1      49.603  33.699  26.412  1.00  0.00     0.060 A 
ATOM     46  C   UNL A   1      48.686  33.820  27.462  1.00  0.00     0.016 A 
ATOM     47  C   UNL A   1      49.595  34.646  25.375  1.00  0.00     0.016 A 
ATOM     48  C   UNL A   1      47.701  34.797  27.425  1.00  0.00     0.010 A 
ATOM     49  C   UNL A   1      48.606  35.641  25.343  1.00  0.00     0.010 A 
ATOM     50  C   UNL A   1      47.621  35.677  26.340  1.00  0.00    -0.014 A 
BRANCH  50  51
ATOM     51  C   UNL A   1      46.404  36.509  26.271  1.00  0.00     0.031 A 
ATOM     52  C   UNL A   1      45.133  35.905  26.765  1.00  0.00     0.074 A 
ATOM     53  C   UNL A   1      46.561  37.856  26.266  1.00  0.00     0.049 A 
ATOM     54  N   UNL A   1      44.858  35.799  28.031  1.00  0.00    -0.248 NA
ATOM     55  C   UNL A   1      44.191  35.192  25.902  1.00  0.00     0.031 C 
ATOM     56  C   UNL A   1      47.682  38.532  26.946  1.00  0.00     0.029 A 
ATOM     57  N   UNL A   1      45.739  38.889  25.885  1.00  0.00    -0.354 N 
ATOM     58  C   UNL A   1      43.717  35.024  28.152  1.00  0.00     0.074 A 
ATOM     59  C   UNL A   1      43.343  34.663  26.802  1.00  0.00     0.031 C 
ATOM     60  C   UNL A   1      47.387  39.838  27.090  1.00  0.00     0.029 A 
ATOM     61  C   UNL A   1      46.138  40.128  26.396  1.00  0.00     0.049 A 
ATOM     62  H   UNL A   1      44.948  38.770  25.310  1.00  0.00     0.167 HD
ATOM     63  C   UNL A   1      43.145  34.749  29.356  1.00  0.00     0.031 A 
ATOM     64  C   UNL A   1      45.285  41.130  26.755  1.00  0.00     0.031 A 
ATOM     65  C   UNL A   1      43.821  35.327  30.482  1.00  0.00     0.049 A 
ATOM     66  C   UNL A   1      44.641  40.513  27.976  1.00  0.00     0.074 A 
ATOM     67  C   UNL A   1      44.786  34.943  31.387  1.00  0.00     0.029 A 
ATOM     68  N   UNL A   1      43.593  36.653  30.760  1.00  0.00    -0.354 N 
ATOM     69  N   UNL A   1      45.184  40.401  29.162  1.00  0.00    -0.248 NA
ATOM     70  C   UNL A   1      43.488  39.637  27.750  1.00  0.00     0.031 C 
ATOM     71  C   UNL A   1      45.406  36.158  31.819  1.00  0.00     0.029 A 
ATOM     72  C   UNL A   1      44.799  37.203  31.123  1.00  0.00     0.049 A 
ATOM     73  H   UNL A   1      42.729  37.122  30.710  1.00  0.00     0.167 HD
ATOM     74  C   UNL A   1      44.648  39.233  29.707  1.00  0.00     0.074 A 
ATOM     75  C   UNL A   1      43.607  38.818  28.786  1.00  0.00     0.031 C 
ATOM     76  C   UNL A   1      45.183  38.556  30.767  1.00  0.00     0.031 A 
BRANCH  63  77
ATOM     77  C   UNL A   1      41.837  34.082  29.557  1.00  0.00    -0.014 A 
ATOM     78  C   UNL A   1      40.678  34.871  29.430  1.00  0.00     0.010 A 
ATOM     79  C   UNL A   1      41.727  32.788  30.087  1.00  0.00     0.010 A 
ATOM     80  C   UNL A   1      39.443  34.404  29.877  1.00  0.00     0.020 A 
ATOM     81  C   UNL A   1      40.482  32.309  30.526  1.00  0.00     0.020 A 
ATOM     82  C   UNL A   1      39.354  33.131  30.438  1.00  0.00     0.054 A 
BRANCH  82  83
ATOM     83  S   UNL A   1      37.748  32.604  31.102  1.00  0.00     0.124 S 
ATOM     84  O   UNL A   1      37.364  31.540  30.179  1.00  0.00    -0.237 OA
ATOM     85  O   UNL A   1      38.099  32.169  32.451  1.00  0.00    -0.237 OA
ATOM     86  O   UNL A   1      36.931  33.813  31.032  1.00  0.00    -0.744 OA
ENDBRANCH  82  83
ENDBRANCH  63  77
BRANCH  64  87
ATOM     87  C   UNL A   1      44.507  41.730  25.620  1.00  0.00    -0.014 A 
ATOM     88  C   UNL A   1      45.232  42.416  24.620  1.00  0.00     0.010 A 
ATOM     89  C   UNL A   1      43.115  41.637  25.459  1.00  0.00     0.010 A 
ATOM     90  C   UNL A   1      44.626  42.831  23.432  1.00  0.00     0.020 A 
ATOM     91  C   UNL A   1      42.500  42.026  24.258  1.00  0.00     0.020 A 
ATOM     92  C   UNL A   1      43.270  42.583  23.237  1.00  0.00     0.054 A 
BRANCH  92  93
ATOM     93  S   UNL A   1      42.560  42.921  21.603  1.00  0.00     0.124 S 
ATOM     94  O   UNL A   1      42.847  41.687  20.876  1.00  0.00    -0.237 OA
ATOM     95  O   UNL A   1      41.154  43.152  21.923  1.00  0.00    -0.237 OA
ATOM     96  O   UNL A   1      43.292  44.100  21.146  1.00  0.00    -0.744 OA
ENDBRANCH  92  93
ENDBRANCH  64  87
BRANCH  76  97
ATOM     97  C   UNL A   1      46.358  39.174  31.460  1.00  0.00    -0.014 A 
ATOM     98  C   UNL A   1      47.655  38.960  30.970  1.00  0.00     0.010 A 
ATOM     99  C   UNL A   1      46.171  40.081  32.523  1.00  0.00     0.010 A 
ATOM    100  C   UNL A   1      48.732  39.690  31.480  1.00  0.00     0.020 A 
ATOM    101  C   UNL A   1      47.243  40.825  33.026  1.00  0.00     0.020 A 
ATOM    102  C   UNL A   1      48.515  40.640  32.483  1.00  0.00     0.054 A 
BRANCH 102 103
ATOM    103  S   UNL A   1      49.906  41.678  33.006  1.00  0.00     0.124 S 
ATOM    104  O   UNL A   1      51.000  40.717  33.107  1.00  0.00    -0.237 OA
ATOM    105  O   UNL A   1      50.013  42.637  31.909  1.00  0.00    -0.237 OA
ATOM    106  O   UNL A   1      49.463  42.247  34.278  1.00  0.00    -0.744 OA
ENDBRANCH 102 103
ENDBRANCH  76  97
ENDBRANCH  50  51
ENDBRANCH  43  45
ENDBRANCH  42  43
ENDBRANCH  41  42
ENDBRANCH  40  41
ENDBRANCH  39  40
ENDBRANCH   1  39
TORSDOF 23
ENDMDL
