MODEL 1
REMARK VINA RESULT:     -11.6      0.000      0.000
REMARK SMILES O=C(OCCOCCOC(=O)c1ccc(-c2c3nc(c(-c4ccc(S(=O)(=O)[O-])cc4)c4ccc([nH]4)c(-c4ccc(S(=O)(=O)[O-])cc4)c4nc(c(-c5ccc(S(=O)(=O)[O-])cc5)c5ccc2[nH]5)C=C4)C=C3)cc1)C1=Cc2cc(Cl)cc(-c3ccc(Cl)cc3)c2O[C@@H]1C(F)(F)F
REMARK SMILES IDX 7 1 6 2 5 3 4 4 3 5 2 6 1 7 72 8 73 9 89 10 74 11 88 12
REMARK SMILES IDX 75 13 87 14 76 15 79 16 77 17 78 18 90 19 91 20 92 21 93 22
REMARK SMILES IDX 80 23 81 24 86 25 82 26 85 27 83 28 84 29 8 30 9 31 10 32
REMARK SMILES IDX 11 33 12 34 13 35 71 36 14 37 70 38 15 39 16 40 17 41 64 42
REMARK SMILES IDX 18 43 69 44 63 45 65 46 19 47 68 48 62 49 61 50 20 52 50 53
REMARK SMILES IDX 31 54 49 55 32 56 35 57 48 58 66 59 33 60 34 61 47 63 67 64
REMARK SMILES IDX 36 65 21 66 22 67 30 68 23 69 29 70 24 71 25 72 26 73 27 74
REMARK SMILES IDX 28 75 51 76 52 77 60 78 53 79 59 80 54 81 55 82 56 83 57 84
REMARK SMILES IDX 58 85 37 86 38 87 46 88 39 89 45 90 40 91 41 92 42 93 43 94
REMARK SMILES IDX 44 95
REMARK H PARENT 65 51 35 62
REMARK Flexibility Score: inf
ROOT
ATOM      1  C   UNL A   1      35.355  20.844  25.642  1.00  0.00     0.202 C 
ENDROOT
BRANCH   1   2
ATOM      2  O   UNL A   1      34.231  20.143  25.065  1.00  0.00    -0.374 OA
BRANCH   2   3
ATOM      3  C   UNL A   1      32.758  20.566  24.561  1.00  0.00     0.202 C 
BRANCH   3   4
ATOM      4  C   UNL A   1      31.282  21.922  25.407  1.00  0.00     0.261 C 
BRANCH   4   5
ATOM      5  O   UNL A   1      30.790  23.272  24.743  1.00  0.00    -0.460 OA
BRANCH   5   6
ATOM      6  C   UNL A   1      30.846  24.329  25.562  1.00  0.00     0.338 C 
ATOM      7  O   UNL A   1      30.201  24.630  26.532  1.00  0.00    -0.246 OA
BRANCH   6   8
ATOM      8  C   UNL A   1      31.757  25.061  24.729  1.00  0.00     0.087 C 
ATOM      9  C   UNL A   1      30.986  26.001  23.896  1.00  0.00     0.027 C 
ATOM     10  C   UNL A   1      33.044  25.579  26.083  1.00  0.00     0.316 C 
ATOM     11  C   UNL A   1      31.042  27.794  24.120  1.00  0.00     0.019 A 
ATOM     12  O   UNL A   1      33.100  27.510  26.331  1.00  0.00    -0.475 OA
ATOM     13  C   UNL A   1      30.088  28.475  23.411  1.00  0.00     0.032 A 
ATOM     14  C   UNL A   1      31.984  28.596  25.370  1.00  0.00     0.135 A 
ATOM     15  C   UNL A   1      29.909  29.793  23.802  1.00  0.00     0.042 A 
ATOM     16  C   UNL A   1      31.795  29.977  25.614  1.00  0.00     0.026 A 
ATOM     17  Cl  UNL A   1      28.677  30.704  22.995  1.00  0.00    -0.084 Cl
ATOM     18  C   UNL A   1      30.675  30.458  24.829  1.00  0.00     0.033 A 
BRANCH  10  19
ATOM     19  C   UNL A   1      34.136  24.464  25.756  1.00  0.00     0.430 C 
ATOM     20  F   UNL A   1      35.411  24.870  25.910  1.00  0.00    -0.167 F 
ATOM     21  F   UNL A   1      33.988  23.463  26.681  1.00  0.00    -0.167 F 
ATOM     22  F   UNL A   1      34.002  23.824  24.572  1.00  0.00    -0.167 F 
ENDBRANCH  10  19
BRANCH  16  23
ATOM     23  C   UNL A   1      32.472  31.147  26.493  1.00  0.00    -0.015 A 
ATOM     24  C   UNL A   1      33.996  30.452  27.192  1.00  0.00     0.010 A 
ATOM     25  C   UNL A   1      32.028  33.047  27.074  1.00  0.00     0.010 A 
ATOM     26  C   UNL A   1      34.974  31.434  28.299  1.00  0.00     0.021 A 
ATOM     27  C   UNL A   1      33.144  33.936  28.165  1.00  0.00     0.021 A 
ATOM     28  C   UNL A   1      34.561  33.099  28.752  1.00  0.00     0.041 A 
ATOM     29  Cl  UNL A   1      35.632  33.968  29.786  1.00  0.00    -0.084 Cl
ENDBRANCH  16  23
ENDBRANCH   6   8
ENDBRANCH   5   6
ENDBRANCH   4   5
ENDBRANCH   3   4
ENDBRANCH   2   3
ENDBRANCH   1   2
BRANCH   1  30
ATOM     30  C   UNL A   1      36.698  20.787  24.918  1.00  0.00     0.261 C 
BRANCH  30  31
ATOM     31  O   UNL A   1      37.587  21.727  25.465  1.00  0.00    -0.460 OA
BRANCH  31  32
ATOM     32  C   UNL A   1      38.754  21.190  25.857  1.00  0.00     0.338 C 
ATOM     33  O   UNL A   1      39.219  20.097  25.606  1.00  0.00    -0.246 OA
BRANCH  32  34
ATOM     34  C   UNL A   1      39.375  22.242  26.645  1.00  0.00     0.060 A 
ATOM     35  C   UNL A   1      38.922  23.912  26.247  1.00  0.00     0.016 A 
ATOM     36  C   UNL A   1      40.708  21.801  27.721  1.00  0.00     0.016 A 
ATOM     37  C   UNL A   1      39.797  25.308  26.864  1.00  0.00     0.010 A 
ATOM     38  C   UNL A   1      41.697  23.132  28.402  1.00  0.00     0.010 A 
ATOM     39  C   UNL A   1      41.222  25.057  27.944  1.00  0.00    -0.014 A 
BRANCH  39  40
ATOM     40  C   UNL A   1      41.842  26.570  28.096  1.00  0.00     0.031 A 
ATOM     41  C   UNL A   1      42.995  27.045  27.196  1.00  0.00     0.074 A 
ATOM     42  C   UNL A   1      41.387  27.506  28.963  1.00  0.00     0.049 A 
ATOM     43  N   UNL A   1      43.915  27.957  27.423  1.00  0.00    -0.248 NA
ATOM     44  C   UNL A   1      43.145  26.386  25.893  1.00  0.00     0.031 C 
ATOM     45  C   UNL A   1      40.167  27.442  29.756  1.00  0.00     0.029 A 
ATOM     46  N   UNL A   1      41.980  28.683  29.390  1.00  0.00    -0.354 N 
ATOM     47  C   UNL A   1      44.822  27.868  26.364  1.00  0.00     0.074 A 
ATOM     48  C   UNL A   1      44.344  26.804  25.509  1.00  0.00     0.031 C 
ATOM     49  C   UNL A   1      40.177  28.415  30.679  1.00  0.00     0.029 A 
ATOM     50  C   UNL A   1      41.391  29.206  30.523  1.00  0.00     0.049 A 
ATOM     51  H   UNL A   1      42.744  29.102  28.932  1.00  0.00     0.167 HD
ATOM     52  C   UNL A   1      45.934  28.607  26.102  1.00  0.00     0.031 A 
ATOM     53  C   UNL A   1      41.776  30.183  31.372  1.00  0.00     0.031 A 
ATOM     54  C   UNL A   1      46.321  29.789  26.836  1.00  0.00     0.049 A 
ATOM     55  C   UNL A   1      43.006  31.000  31.090  1.00  0.00     0.074 A 
ATOM     56  C   UNL A   1      47.352  30.674  26.558  1.00  0.00     0.029 A 
ATOM     57  N   UNL A   1      45.668  30.283  27.952  1.00  0.00    -0.354 N 
ATOM     58  N   UNL A   1      43.885  30.860  30.128  1.00  0.00    -0.248 NA
ATOM     59  C   UNL A   1      43.265  32.142  31.980  1.00  0.00     0.031 C 
ATOM     60  C   UNL A   1      47.343  31.683  27.526  1.00  0.00     0.029 A 
ATOM     61  C   UNL A   1      46.271  31.459  28.372  1.00  0.00     0.049 A 
ATOM     62  H   UNL A   1      44.889  29.862  28.384  1.00  0.00     0.167 HD
ATOM     63  C   UNL A   1      44.759  31.936  30.259  1.00  0.00     0.074 A 
ATOM     64  C   UNL A   1      44.310  32.711  31.395  1.00  0.00     0.031 C 
ATOM     65  C   UNL A   1      45.826  32.256  29.486  1.00  0.00     0.031 A 
BRANCH  52  66
ATOM     66  C   UNL A   1      46.832  28.184  24.954  1.00  0.00    -0.014 A 
ATOM     67  C   UNL A   1      46.621  28.627  23.636  1.00  0.00     0.010 A 
ATOM     68  C   UNL A   1      47.961  27.380  25.218  1.00  0.00     0.010 A 
ATOM     69  C   UNL A   1      47.467  28.217  22.600  1.00  0.00     0.020 A 
ATOM     70  C   UNL A   1      48.840  27.007  24.193  1.00  0.00     0.020 A 
ATOM     71  C   UNL A   1      48.570  27.407  22.885  1.00  0.00     0.054 A 
BRANCH  71  72
ATOM     72  S   UNL A   1      49.659  26.911  21.521  1.00  0.00     0.124 S 
ATOM     73  O   UNL A   1      50.932  26.711  22.210  1.00  0.00    -0.237 OA
ATOM     74  O   UNL A   1      49.019  25.695  21.025  1.00  0.00    -0.237 OA
ATOM     75  O   UNL A   1      49.617  28.051  20.609  1.00  0.00    -0.744 OA
ENDBRANCH  71  72
ENDBRANCH  52  66
BRANCH  53  76
ATOM     76  C   UNL A   1      40.951  30.477  32.579  1.00  0.00    -0.014 A 
ATOM     77  C   UNL A   1      41.426  30.143  33.859  1.00  0.00     0.010 A 
ATOM     78  C   UNL A   1      39.690  31.091  32.455  1.00  0.00     0.010 A 
ATOM     79  C   UNL A   1      40.649  30.397  34.991  1.00  0.00     0.020 A 
ATOM     80  C   UNL A   1      38.920  31.370  33.589  1.00  0.00     0.020 A 
ATOM     81  C   UNL A   1      39.403  31.015  34.850  1.00  0.00     0.054 A 
BRANCH  81  82
ATOM     82  S   UNL A   1      38.446  31.385  36.347  1.00  0.00     0.124 S 
ATOM     83  O   UNL A   1      39.450  32.005  37.206  1.00  0.00    -0.237 OA
ATOM     84  O   UNL A   1      37.407  32.277  35.839  1.00  0.00    -0.237 OA
ATOM     85  O   UNL A   1      37.972  30.073  36.783  1.00  0.00    -0.744 OA
ENDBRANCH  81  82
ENDBRANCH  53  76
BRANCH  65  86
ATOM     86  C   UNL A   1      46.554  33.544  29.780  1.00  0.00    -0.014 A 
ATOM     87  C   UNL A   1      47.602  33.605  30.715  1.00  0.00     0.010 A 
ATOM     88  C   UNL A   1      46.212  34.708  29.064  1.00  0.00     0.010 A 
ATOM     89  C   UNL A   1      48.273  34.810  30.949  1.00  0.00     0.020 A 
ATOM     90  C   UNL A   1      46.901  35.907  29.274  1.00  0.00     0.020 A 
ATOM     91  C   UNL A   1      47.920  35.953  30.226  1.00  0.00     0.054 A 
BRANCH  91  92
ATOM     92  S   UNL A   1      48.841  37.491  30.515  1.00  0.00     0.124 S 
ATOM     93  O   UNL A   1      49.565  37.185  31.746  1.00  0.00    -0.237 OA
ATOM     94  O   UNL A   1      49.662  37.601  29.313  1.00  0.00    -0.237 OA
ATOM     95  O   UNL A   1      47.795  38.503  30.643  1.00  0.00    -0.744 OA
ENDBRANCH  91  92
ENDBRANCH  65  86
ENDBRANCH  39  40
ENDBRANCH  32  34
ENDBRANCH  31  32
ENDBRANCH  30  31
ENDBRANCH   1  30
TORSDOF 19
ENDMDL
MODEL 2
REMARK VINA RESULT:     -11.5      1.895      7.800
REMARK SMILES O=C(OCCOCCOC(=O)c1ccc(-c2c3nc(c(-c4ccc(S(=O)(=O)[O-])cc4)c4ccc([nH]4)c(-c4ccc(S(=O)(=O)[O-])cc4)c4nc(c(-c5ccc(S(=O)(=O)[O-])cc5)c5ccc2[nH]5)C=C4)C=C3)cc1)C1=Cc2cc(Cl)cc(-c3ccc(Cl)cc3)c2O[C@@H]1C(F)(F)F
REMARK SMILES IDX 7 1 6 2 5 3 4 4 3 5 2 6 1 7 72 8 73 9 89 10 74 11 88 12
REMARK SMILES IDX 75 13 87 14 76 15 79 16 77 17 78 18 90 19 91 20 92 21 93 22
REMARK SMILES IDX 80 23 81 24 86 25 82 26 85 27 83 28 84 29 8 30 9 31 10 32
REMARK SMILES IDX 11 33 12 34 13 35 71 36 14 37 70 38 15 39 16 40 17 41 64 42
REMARK SMILES IDX 18 43 69 44 63 45 65 46 19 47 68 48 62 49 61 50 20 52 50 53
REMARK SMILES IDX 31 54 49 55 32 56 35 57 48 58 66 59 33 60 34 61 47 63 67 64
REMARK SMILES IDX 36 65 21 66 22 67 30 68 23 69 29 70 24 71 25 72 26 73 27 74
REMARK SMILES IDX 28 75 51 76 52 77 60 78 53 79 59 80 54 81 55 82 56 83 57 84
REMARK SMILES IDX 58 85 37 86 38 87 46 88 39 89 45 90 40 91 41 92 42 93 43 94
REMARK SMILES IDX 44 95
REMARK H PARENT 65 51 35 62
REMARK Flexibility Score: inf
ROOT
ATOM      1  C   UNL A   1      37.239  20.761  24.841  1.00  0.00     0.202 C 
ENDROOT
BRANCH   1   2
ATOM      2  O   UNL A   1      36.036  20.068  25.241  1.00  0.00    -0.374 OA
BRANCH   2   3
ATOM      3  C   UNL A   1      34.530  19.974  24.673  1.00  0.00     0.202 C 
BRANCH   3   4
ATOM      4  C   UNL A   1      32.655  20.784  25.424  1.00  0.00     0.261 C 
BRANCH   4   5
ATOM      5  O   UNL A   1      31.889  22.032  24.821  1.00  0.00    -0.460 OA
BRANCH   5   6
ATOM      6  C   UNL A   1      31.876  23.099  25.628  1.00  0.00     0.338 C 
ATOM      7  O   UNL A   1      31.249  23.348  26.624  1.00  0.00    -0.246 OA
BRANCH   6   8
ATOM      8  C   UNL A   1      32.671  23.908  24.747  1.00  0.00     0.087 C 
ATOM      9  C   UNL A   1      31.772  24.631  23.829  1.00  0.00     0.027 C 
ATOM     10  C   UNL A   1      33.815  24.745  26.068  1.00  0.00     0.316 C 
ATOM     11  C   UNL A   1      31.518  26.420  23.904  1.00  0.00     0.019 A 
ATOM     12  O   UNL A   1      33.537  26.672  26.154  1.00  0.00    -0.475 OA
ATOM     13  C   UNL A   1      30.480  26.868  23.129  1.00  0.00     0.032 A 
ATOM     14  C   UNL A   1      32.278  27.469  25.093  1.00  0.00     0.135 A 
ATOM     15  C   UNL A   1      30.070  28.163  23.407  1.00  0.00     0.042 A 
ATOM     16  C   UNL A   1      31.851  28.812  25.219  1.00  0.00     0.026 A 
ATOM     17  Cl  UNL A   1      28.722  28.782  22.513  1.00  0.00    -0.084 Cl
ATOM     18  C   UNL A   1      30.685  29.029  24.384  1.00  0.00     0.033 A 
BRANCH  10  19
ATOM     19  C   UNL A   1      35.089  23.811  25.847  1.00  0.00     0.430 C 
ATOM     20  F   UNL A   1      35.052  22.648  26.526  1.00  0.00    -0.167 F 
ATOM     21  F   UNL A   1      35.093  23.431  24.530  1.00  0.00    -0.167 F 
ATOM     22  F   UNL A   1      36.296  24.397  26.012  1.00  0.00    -0.167 F 
ENDBRANCH  10  19
BRANCH  16  23
ATOM     23  C   UNL A   1      32.296  30.147  26.005  1.00  0.00    -0.015 A 
ATOM     24  C   UNL A   1      33.979  29.850  26.616  1.00  0.00     0.010 A 
ATOM     25  C   UNL A   1      31.467  31.926  26.548  1.00  0.00     0.010 A 
ATOM     26  C   UNL A   1      34.774  31.081  27.614  1.00  0.00     0.021 A 
ATOM     27  C   UNL A   1      32.417  33.097  27.524  1.00  0.00     0.021 A 
ATOM     28  C   UNL A   1      34.021  32.632  28.036  1.00  0.00     0.041 A 
ATOM     29  Cl  UNL A   1      34.928  33.771  28.959  1.00  0.00    -0.084 Cl
ENDBRANCH  16  23
ENDBRANCH   6   8
ENDBRANCH   5   6
ENDBRANCH   4   5
ENDBRANCH   3   4
ENDBRANCH   2   3
ENDBRANCH   1   2
BRANCH   1  30
ATOM     30  C   UNL A   1      38.578  20.267  25.384  1.00  0.00     0.261 C 
BRANCH  30  31
ATOM     31  O   UNL A   1      39.226  21.292  26.093  1.00  0.00    -0.460 OA
BRANCH  31  32
ATOM     32  C   UNL A   1      40.560  21.140  26.149  1.00  0.00     0.338 C 
ATOM     33  O   UNL A   1      41.259  20.303  25.617  1.00  0.00    -0.246 OA
BRANCH  32  34
ATOM     34  C   UNL A   1      41.002  22.245  26.984  1.00  0.00     0.060 A 
ATOM     35  C   UNL A   1      40.974  23.861  26.251  1.00  0.00     0.016 A 
ATOM     36  C   UNL A   1      41.775  21.864  28.528  1.00  0.00     0.016 A 
ATOM     37  C   UNL A   1      41.761  25.252  26.985  1.00  0.00     0.010 A 
ATOM     38  C   UNL A   1      42.636  23.192  29.372  1.00  0.00     0.010 A 
ATOM     39  C   UNL A   1      42.647  25.051  28.546  1.00  0.00    -0.014 A 
BRANCH  39  40
ATOM     40  C   UNL A   1      43.386  26.504  28.742  1.00  0.00     0.031 A 
ATOM     41  C   UNL A   1      42.638  27.692  29.370  1.00  0.00     0.074 A 
ATOM     42  C   UNL A   1      44.675  26.763  28.419  1.00  0.00     0.049 A 
ATOM     43  N   UNL A   1      42.827  28.983  29.207  1.00  0.00    -0.248 NA
ATOM     44  C   UNL A   1      41.518  27.383  30.267  1.00  0.00     0.031 C 
ATOM     45  C   UNL A   1      45.694  25.792  28.045  1.00  0.00     0.029 A 
ATOM     46  N   UNL A   1      45.324  27.978  28.262  1.00  0.00    -0.354 N 
ATOM     47  C   UNL A   1      41.767  29.619  29.858  1.00  0.00     0.074 A 
ATOM     48  C   UNL A   1      40.936  28.566  30.400  1.00  0.00     0.031 C 
ATOM     49  C   UNL A   1      46.764  26.428  27.548  1.00  0.00     0.029 A 
ATOM     50  C   UNL A   1      46.529  27.866  27.599  1.00  0.00     0.049 A 
ATOM     51  H   UNL A   1      44.962  28.832  28.590  1.00  0.00     0.167 HD
ATOM     52  C   UNL A   1      41.508  30.946  30.017  1.00  0.00     0.031 A 
ATOM     53  C   UNL A   1      47.353  28.790  27.060  1.00  0.00     0.031 A 
ATOM     54  C   UNL A   1      42.417  32.004  29.648  1.00  0.00     0.049 A 
ATOM     55  C   UNL A   1      47.069  30.257  27.229  1.00  0.00     0.074 A 
ATOM     56  C   UNL A   1      42.298  33.364  29.896  1.00  0.00     0.029 A 
ATOM     57  N   UNL A   1      43.632  31.826  29.011  1.00  0.00    -0.354 N 
ATOM     58  N   UNL A   1      46.034  30.838  27.783  1.00  0.00    -0.248 NA
ATOM     59  C   UNL A   1      48.096  31.193  26.745  1.00  0.00     0.031 C 
ATOM     60  C   UNL A   1      43.424  34.010  29.375  1.00  0.00     0.029 A 
ATOM     61  C   UNL A   1      44.272  33.046  28.857  1.00  0.00     0.049 A 
ATOM     62  H   UNL A   1      43.990  30.958  28.709  1.00  0.00     0.167 HD
ATOM     63  C   UNL A   1      46.319  32.201  27.775  1.00  0.00     0.074 A 
ATOM     64  C   UNL A   1      47.616  32.359  27.155  1.00  0.00     0.031 C 
ATOM     65  C   UNL A   1      45.572  33.222  28.262  1.00  0.00     0.031 A 
BRANCH  52  66
ATOM     66  C   UNL A   1      40.185  31.357  30.637  1.00  0.00    -0.014 A 
ATOM     67  C   UNL A   1      40.052  31.621  32.011  1.00  0.00     0.010 A 
ATOM     68  C   UNL A   1      39.063  31.555  29.805  1.00  0.00     0.010 A 
ATOM     69  C   UNL A   1      38.818  31.998  32.551  1.00  0.00     0.020 A 
ATOM     70  C   UNL A   1      37.837  31.979  30.331  1.00  0.00     0.020 A 
ATOM     71  C   UNL A   1      37.716  32.172  31.707  1.00  0.00     0.054 A 
BRANCH  71  72
ATOM     72  S   UNL A   1      36.135  32.682  32.437  1.00  0.00     0.124 S 
ATOM     73  O   UNL A   1      36.105  34.109  32.123  1.00  0.00    -0.237 OA
ATOM     74  O   UNL A   1      35.168  31.862  31.711  1.00  0.00    -0.237 OA
ATOM     75  O   UNL A   1      36.284  32.358  33.853  1.00  0.00    -0.744 OA
ENDBRANCH  71  72
ENDBRANCH  52  66
BRANCH  53  76
ATOM     76  C   UNL A   1      48.571  28.350  26.323  1.00  0.00    -0.014 A 
ATOM     77  C   UNL A   1      49.838  28.456  26.922  1.00  0.00     0.010 A 
ATOM     78  C   UNL A   1      48.472  27.824  25.020  1.00  0.00     0.010 A 
ATOM     79  C   UNL A   1      50.985  28.065  26.229  1.00  0.00     0.020 A 
ATOM     80  C   UNL A   1      49.617  27.407  24.332  1.00  0.00     0.020 A 
ATOM     81  C   UNL A   1      50.868  27.537  24.940  1.00  0.00     0.054 A 
BRANCH  81  82
ATOM     82  S   UNL A   1      52.372  26.983  24.091  1.00  0.00     0.124 S 
ATOM     83  O   UNL A   1      51.943  26.951  22.697  1.00  0.00    -0.237 OA
ATOM     84  O   UNL A   1      53.328  28.032  24.437  1.00  0.00    -0.237 OA
ATOM     85  O   UNL A   1      52.645  25.680  24.693  1.00  0.00    -0.744 OA
ENDBRANCH  81  82
ENDBRANCH  53  76
BRANCH  65  86
ATOM     86  C   UNL A   1      46.159  34.611  28.223  1.00  0.00    -0.014 A 
ATOM     87  C   UNL A   1      46.999  35.089  29.244  1.00  0.00     0.010 A 
ATOM     88  C   UNL A   1      45.902  35.437  27.111  1.00  0.00     0.010 A 
ATOM     89  C   UNL A   1      47.546  36.375  29.168  1.00  0.00     0.020 A 
ATOM     90  C   UNL A   1      46.472  36.711  27.017  1.00  0.00     0.020 A 
ATOM     91  C   UNL A   1      47.281  37.176  28.053  1.00  0.00     0.054 A 
BRANCH  91  92
ATOM     92  S   UNL A   1      48.044  38.821  27.958  1.00  0.00     0.124 S 
ATOM     93  O   UNL A   1      48.543  39.005  29.318  1.00  0.00    -0.237 OA
ATOM     94  O   UNL A   1      49.066  38.638  26.932  1.00  0.00    -0.237 OA
ATOM     95  O   UNL A   1      46.937  39.696  27.578  1.00  0.00    -0.744 OA
ENDBRANCH  91  92
ENDBRANCH  65  86
ENDBRANCH  39  40
ENDBRANCH  32  34
ENDBRANCH  31  32
ENDBRANCH  30  31
ENDBRANCH   1  30
TORSDOF 19
ENDMDL
MODEL 3
REMARK VINA RESULT:     -10.8      6.434     15.778
REMARK SMILES O=C(OCCOCCOC(=O)c1ccc(-c2c3nc(c(-c4ccc(S(=O)(=O)[O-])cc4)c4ccc([nH]4)c(-c4ccc(S(=O)(=O)[O-])cc4)c4nc(c(-c5ccc(S(=O)(=O)[O-])cc5)c5ccc2[nH]5)C=C4)C=C3)cc1)C1=Cc2cc(Cl)cc(-c3ccc(Cl)cc3)c2O[C@@H]1C(F)(F)F
REMARK SMILES IDX 7 1 6 2 5 3 4 4 3 5 2 6 1 7 72 8 73 9 89 10 74 11 88 12
REMARK SMILES IDX 75 13 87 14 76 15 79 16 77 17 78 18 90 19 91 20 92 21 93 22
REMARK SMILES IDX 80 23 81 24 86 25 82 26 85 27 83 28 84 29 8 30 9 31 10 32
REMARK SMILES IDX 11 33 12 34 13 35 71 36 14 37 70 38 15 39 16 40 17 41 64 42
REMARK SMILES IDX 18 43 69 44 63 45 65 46 19 47 68 48 62 49 61 50 20 52 50 53
REMARK SMILES IDX 31 54 49 55 32 56 35 57 48 58 66 59 33 60 34 61 47 63 67 64
REMARK SMILES IDX 36 65 21 66 22 67 30 68 23 69 29 70 24 71 25 72 26 73 27 74
REMARK SMILES IDX 28 75 51 76 52 77 60 78 53 79 59 80 54 81 55 82 56 83 57 84
REMARK SMILES IDX 58 85 37 86 38 87 46 88 39 89 45 90 40 91 41 92 42 93 43 94
REMARK SMILES IDX 44 95
REMARK H PARENT 65 51 35 62
REMARK Flexibility Score: inf
ROOT
ATOM      1  C   UNL A   1      48.680  39.058  33.266  1.00  0.00     0.202 C 
ENDROOT
BRANCH   1   2
ATOM      2  O   UNL A   1      48.376  39.276  31.870  1.00  0.00    -0.374 OA
BRANCH   2   3
ATOM      3  C   UNL A   1      47.129  38.936  30.907  1.00  0.00     0.202 C 
BRANCH   3   4
ATOM      4  C   UNL A   1      46.892  39.092  28.749  1.00  0.00     0.261 C 
BRANCH   4   5
ATOM      5  O   UNL A   1      45.852  40.025  28.005  1.00  0.00    -0.460 OA
BRANCH   5   6
ATOM      6  C   UNL A   1      44.767  39.379  27.562  1.00  0.00     0.338 C 
ATOM      7  O   UNL A   1      44.619  38.278  27.101  1.00  0.00    -0.246 OA
BRANCH   6   8
ATOM      8  C   UNL A   1      43.927  40.542  27.602  1.00  0.00     0.087 C 
ATOM      9  C   UNL A   1      44.777  41.735  27.766  1.00  0.00     0.027 C 
ATOM     10  C   UNL A   1      42.830  40.167  26.049  1.00  0.00     0.316 C 
ATOM     11  C   UNL A   1      45.014  42.965  26.461  1.00  0.00     0.019 A 
ATOM     12  O   UNL A   1      43.089  41.487  24.640  1.00  0.00    -0.475 OA
ATOM     13  C   UNL A   1      46.012  43.866  26.720  1.00  0.00     0.032 A 
ATOM     14  C   UNL A   1      44.293  42.847  24.862  1.00  0.00     0.135 A 
ATOM     15  C   UNL A   1      46.419  44.608  25.621  1.00  0.00     0.042 A 
ATOM     16  C   UNL A   1      44.709  43.730  23.837  1.00  0.00     0.026 A 
ATOM     17  Cl  UNL A   1      47.720  45.727  25.852  1.00  0.00    -0.084 Cl
ATOM     18  C   UNL A   1      45.835  44.515  24.304  1.00  0.00     0.033 A 
BRANCH  10  19
ATOM     19  C   UNL A   1      41.559  39.609  26.834  1.00  0.00     0.430 C 
ATOM     20  F   UNL A   1      41.215  40.327  27.921  1.00  0.00    -0.167 F 
ATOM     21  F   UNL A   1      40.478  39.727  25.999  1.00  0.00    -0.167 F 
ATOM     22  F   UNL A   1      41.577  38.293  27.145  1.00  0.00    -0.167 F 
ENDBRANCH  10  19
BRANCH  16  23
ATOM     23  C   UNL A   1      44.282  44.111  22.330  1.00  0.00    -0.015 A 
ATOM     24  C   UNL A   1      42.631  43.404  22.066  1.00  0.00     0.010 A 
ATOM     25  C   UNL A   1      45.112  45.027  20.713  1.00  0.00     0.010 A 
ATOM     26  C   UNL A   1      41.865  43.548  20.474  1.00  0.00     0.021 A 
ATOM     27  C   UNL A   1      44.191  45.138  19.174  1.00  0.00     0.021 A 
ATOM     28  C   UNL A   1      42.617  44.385  19.101  1.00  0.00     0.041 A 
ATOM     29  Cl  UNL A   1      41.737  44.512  17.624  1.00  0.00    -0.084 Cl
ENDBRANCH  16  23
ENDBRANCH   6   8
ENDBRANCH   5   6
ENDBRANCH   4   5
ENDBRANCH   3   4
ENDBRANCH   2   3
ENDBRANCH   1   2
BRANCH   1  30
ATOM     30  C   UNL A   1      49.379  37.761  33.665  1.00  0.00     0.261 C 
BRANCH  30  31
ATOM     31  O   UNL A   1      48.759  36.662  33.048  1.00  0.00    -0.460 OA
BRANCH  31  32
ATOM     32  C   UNL A   1      49.580  35.971  32.241  1.00  0.00     0.338 C 
ATOM     33  O   UNL A   1      50.793  35.931  32.233  1.00  0.00    -0.246 OA
BRANCH  32  34
ATOM     34  C   UNL A   1      48.677  35.233  31.373  1.00  0.00     0.060 A 
ATOM     35  C   UNL A   1      48.142  33.640  31.944  1.00  0.00     0.016 A 
ATOM     36  C   UNL A   1      48.412  35.845  29.734  1.00  0.00     0.016 A 
ATOM     37  C   UNL A   1      47.318  32.484  30.905  1.00  0.00     0.010 A 
ATOM     38  C   UNL A   1      47.602  34.754  28.565  1.00  0.00     0.010 A 
ATOM     39  C   UNL A   1      47.000  32.910  29.179  1.00  0.00    -0.014 A 
BRANCH  39  40
ATOM     40  C   UNL A   1      46.432  31.504  28.550  1.00  0.00     0.031 A 
ATOM     41  C   UNL A   1      44.943  31.133  28.661  1.00  0.00     0.074 A 
ATOM     42  C   UNL A   1      47.183  30.604  27.872  1.00  0.00     0.049 A 
ATOM     43  N   UNL A   1      44.373  29.948  28.670  1.00  0.00    -0.248 NA
ATOM     44  C   UNL A   1      43.986  32.235  28.812  1.00  0.00     0.031 C 
ATOM     45  C   UNL A   1      48.547  30.788  27.394  1.00  0.00     0.029 A 
ATOM     46  N   UNL A   1      46.911  29.284  27.550  1.00  0.00    -0.354 N 
ATOM     47  C   UNL A   1      43.026  30.165  28.974  1.00  0.00     0.074 A 
ATOM     48  C   UNL A   1      42.878  31.593  29.155  1.00  0.00     0.031 C 
ATOM     49  C   UNL A   1      49.051  29.609  27.002  1.00  0.00     0.029 A 
ATOM     50  C   UNL A   1      48.032  28.578  27.164  1.00  0.00     0.049 A 
ATOM     51  H   UNL A   1      46.010  28.890  27.593  1.00  0.00     0.167 HD
ATOM     52  C   UNL A   1      41.998  29.279  29.074  1.00  0.00     0.031 A 
ATOM     53  C   UNL A   1      48.251  27.258  26.983  1.00  0.00     0.031 A 
ATOM     54  C   UNL A   1      42.087  27.884  28.714  1.00  0.00     0.049 A 
ATOM     55  C   UNL A   1      47.120  26.274  27.096  1.00  0.00     0.074 A 
ATOM     56  C   UNL A   1      41.067  26.946  28.653  1.00  0.00     0.029 A 
ATOM     57  N   UNL A   1      43.239  27.238  28.302  1.00  0.00    -0.354 N 
ATOM     58  N   UNL A   1      45.877  26.485  27.449  1.00  0.00    -0.248 NA
ATOM     59  C   UNL A   1      47.414  24.879  26.732  1.00  0.00     0.031 C 
ATOM     60  C   UNL A   1      41.610  25.726  28.239  1.00  0.00     0.029 A 
ATOM     61  C   UNL A   1      42.956  25.918  27.984  1.00  0.00     0.049 A 
ATOM     62  H   UNL A   1      44.130  27.655  28.243  1.00  0.00     0.167 HD
ATOM     63  C   UNL A   1      45.227  25.264  27.283  1.00  0.00     0.074 A 
ATOM     64  C   UNL A   1      46.214  24.320  26.807  1.00  0.00     0.031 C 
ATOM     65  C   UNL A   1      43.920  24.970  27.489  1.00  0.00     0.031 A 
BRANCH  52  66
ATOM     66  C   UNL A   1      40.657  29.777  29.581  1.00  0.00    -0.014 A 
ATOM     67  C   UNL A   1      40.468  30.195  30.909  1.00  0.00     0.010 A 
ATOM     68  C   UNL A   1      39.579  29.898  28.680  1.00  0.00     0.010 A 
ATOM     69  C   UNL A   1      39.218  30.649  31.345  1.00  0.00     0.020 A 
ATOM     70  C   UNL A   1      38.339  30.397  29.097  1.00  0.00     0.020 A 
ATOM     71  C   UNL A   1      38.160  30.744  30.436  1.00  0.00     0.054 A 
BRANCH  71  72
ATOM     72  S   UNL A   1      36.558  31.356  31.029  1.00  0.00     0.124 S 
ATOM     73  O   UNL A   1      35.724  31.220  29.837  1.00  0.00    -0.237 OA
ATOM     74  O   UNL A   1      36.246  30.433  32.119  1.00  0.00    -0.237 OA
ATOM     75  O   UNL A   1      36.839  32.729  31.439  1.00  0.00    -0.744 OA
ENDBRANCH  71  72
ENDBRANCH  52  66
BRANCH  53  76
ATOM     76  C   UNL A   1      49.619  26.780  26.632  1.00  0.00    -0.014 A 
ATOM     77  C   UNL A   1      49.993  26.632  25.286  1.00  0.00     0.010 A 
ATOM     78  C   UNL A   1      50.552  26.471  27.640  1.00  0.00     0.010 A 
ATOM     79  C   UNL A   1      51.266  26.164  24.952  1.00  0.00     0.020 A 
ATOM     80  C   UNL A   1      51.837  26.027  27.309  1.00  0.00     0.020 A 
ATOM     81  C   UNL A   1      52.183  25.871  25.965  1.00  0.00     0.054 A 
BRANCH  81  82
ATOM     82  S   UNL A   1      53.847  25.323  25.494  1.00  0.00     0.124 S 
ATOM     83  O   UNL A   1      54.454  26.561  25.018  1.00  0.00    -0.237 OA
ATOM     84  O   UNL A   1      54.371  24.803  26.755  1.00  0.00    -0.237 OA
ATOM     85  O   UNL A   1      53.598  24.312  24.469  1.00  0.00    -0.744 OA
ENDBRANCH  81  82
ENDBRANCH  53  76
BRANCH  65  86
ATOM     86  C   UNL A   1      43.441  23.584  27.132  1.00  0.00    -0.014 A 
ATOM     87  C   UNL A   1      43.379  23.143  25.798  1.00  0.00     0.010 A 
ATOM     88  C   UNL A   1      43.095  22.688  28.162  1.00  0.00     0.010 A 
ATOM     89  C   UNL A   1      42.951  21.844  25.501  1.00  0.00     0.020 A 
ATOM     90  C   UNL A   1      42.696  21.379  27.870  1.00  0.00     0.020 A 
ATOM     91  C   UNL A   1      42.615  20.970  26.539  1.00  0.00     0.054 A 
BRANCH  91  92
ATOM     92  S   UNL A   1      42.111  19.275  26.126  1.00  0.00     0.124 S 
ATOM     93  O   UNL A   1      40.668  19.419  25.955  1.00  0.00    -0.237 OA
ATOM     94  O   UNL A   1      42.866  19.008  24.905  1.00  0.00    -0.237 OA
ATOM     95  O   UNL A   1      42.525  18.496  27.291  1.00  0.00    -0.744 OA
ENDBRANCH  91  92
ENDBRANCH  65  86
ENDBRANCH  39  40
ENDBRANCH  32  34
ENDBRANCH  31  32
ENDBRANCH  30  31
ENDBRANCH   1  30
TORSDOF 19
ENDMDL
