MODEL 1
REMARK VINA RESULT:     -10.2      0.000      0.000
REMARK SMILES O=C(OCCOCCOC(=O)c1cccc(Nc2ccc([N+](=O)[O-])cc2)c1)c1ccc(-c2c3nc(c(-c4ccc(S(=O)(=O)[O-])cc4)c4ccc([nH]4)c(-c4ccc(S(=O)(=O)[O-])cc4)c4nc(c(-c5ccc(S(=O)(=O)[O-])cc5)c5ccc2[nH]5)C=C4)C=C3)cc1
REMARK SMILES IDX 6 1 5 2 4 3 3 4 2 5 1 6 28 7 29 8 87 9 30 10 86 11 31 12
REMARK SMILES IDX 32 13 33 14 80 15 34 16 85 17 79 18 81 19 35 20 84 21 78 22
REMARK SMILES IDX 77 23 36 25 66 26 47 27 65 28 48 29 51 30 64 31 82 32 49 33
REMARK SMILES IDX 50 34 63 36 83 37 52 38 37 39 38 40 46 41 39 42 45 43 40 44
REMARK SMILES IDX 41 45 42 46 43 47 44 48 67 49 68 50 76 51 69 52 75 53 70 54
REMARK SMILES IDX 71 55 72 56 73 57 74 58 53 59 54 60 62 61 55 62 61 63 56 64
REMARK SMILES IDX 57 65 58 66 59 67 60 68 7 69 8 70 9 71 10 72 11 73 12 74
REMARK SMILES IDX 13 75 27 76 14 77 16 78 15 79 17 80 18 82 19 83 26 84 20 85
REMARK SMILES IDX 25 86 21 87 22 88 23 89 24 90
REMARK H PARENT 81 24 51 35 17 81
REMARK Flexibility Score: inf
ROOT
ATOM      1  O   UNL A   1      39.502  21.643  26.808  1.00  0.00    -0.374 OA
ENDROOT
BRANCH   1   2
ATOM      2  C   UNL A   1      40.256  22.820  27.083  1.00  0.00     0.202 C 
BRANCH   2   3
ATOM      3  C   UNL A   1      41.470  23.026  26.177  1.00  0.00     0.261 C 
BRANCH   3   4
ATOM      4  O   UNL A   1      42.126  24.262  26.494  1.00  0.00    -0.460 OA
BRANCH   4   5
ATOM      5  C   UNL A   1      41.632  25.514  26.345  1.00  0.00     0.338 C 
ATOM      6  O   UNL A   1      41.437  25.939  25.207  1.00  0.00    -0.246 OA
BRANCH   5   7
ATOM      7  C   UNL A   1      41.320  26.417  27.493  1.00  0.00     0.060 A 
ATOM      8  C   UNL A   1      40.326  26.174  28.444  1.00  0.00     0.016 A 
ATOM      9  C   UNL A   1      42.169  27.515  27.694  1.00  0.00     0.016 A 
ATOM     10  C   UNL A   1      40.157  26.982  29.551  1.00  0.00     0.010 A 
ATOM     11  C   UNL A   1      42.031  28.322  28.826  1.00  0.00     0.010 A 
ATOM     12  C   UNL A   1      41.028  28.040  29.761  1.00  0.00    -0.014 A 
BRANCH  12  13
ATOM     13  C   UNL A   1      40.816  28.856  30.960  1.00  0.00     0.031 A 
ATOM     14  C   UNL A   1      39.688  29.831  30.957  1.00  0.00     0.074 A 
ATOM     15  C   UNL A   1      41.567  28.617  32.051  1.00  0.00     0.049 A 
ATOM     16  N   UNL A   1      39.369  30.715  31.858  1.00  0.00    -0.248 NA
ATOM     17  C   UNL A   1      38.790  29.801  29.788  1.00  0.00     0.031 C 
ATOM     18  C   UNL A   1      42.589  27.568  32.160  1.00  0.00     0.029 A 
ATOM     19  N   UNL A   1      41.582  29.220  33.278  1.00  0.00    -0.354 N 
ATOM     20  C   UNL A   1      38.269  31.384  31.344  1.00  0.00     0.074 A 
ATOM     21  C   UNL A   1      37.955  30.791  30.065  1.00  0.00     0.031 C 
ATOM     22  C   UNL A   1      43.129  27.605  33.389  1.00  0.00     0.029 A 
ATOM     23  C   UNL A   1      42.556  28.729  34.117  1.00  0.00     0.049 A 
ATOM     24  H   UNL A   1      40.956  29.935  33.536  1.00  0.00     0.167 HD
ATOM     25  C   UNL A   1      37.611  32.426  31.896  1.00  0.00     0.031 A 
ATOM     26  C   UNL A   1      42.972  29.190  35.311  1.00  0.00     0.031 A 
ATOM     27  C   UNL A   1      37.969  32.981  33.171  1.00  0.00     0.049 A 
ATOM     28  C   UNL A   1      42.287  30.417  35.851  1.00  0.00     0.074 A 
ATOM     29  C   UNL A   1      37.403  34.052  33.834  1.00  0.00     0.029 A 
ATOM     30  N   UNL A   1      39.002  32.506  33.970  1.00  0.00    -0.354 N 
ATOM     31  N   UNL A   1      41.262  31.070  35.351  1.00  0.00    -0.248 NA
ATOM     32  C   UNL A   1      42.821  30.986  37.093  1.00  0.00     0.031 C 
ATOM     33  C   UNL A   1      38.141  34.269  35.000  1.00  0.00     0.029 A 
ATOM     34  C   UNL A   1      39.121  33.291  35.100  1.00  0.00     0.049 A 
ATOM     35  H   UNL A   1      39.565  31.726  33.762  1.00  0.00     0.167 HD
ATOM     36  C   UNL A   1      41.023  32.123  36.223  1.00  0.00     0.074 A 
ATOM     37  C   UNL A   1      41.991  32.000  37.296  1.00  0.00     0.031 C 
ATOM     38  C   UNL A   1      40.100  33.114  36.144  1.00  0.00     0.031 A 
BRANCH  25  39
ATOM     39  C   UNL A   1      36.533  33.082  31.083  1.00  0.00    -0.014 A 
ATOM     40  C   UNL A   1      35.168  32.881  31.352  1.00  0.00     0.010 A 
ATOM     41  C   UNL A   1      36.906  33.941  30.033  1.00  0.00     0.010 A 
ATOM     42  C   UNL A   1      34.196  33.518  30.574  1.00  0.00     0.020 A 
ATOM     43  C   UNL A   1      35.940  34.598  29.271  1.00  0.00     0.020 A 
ATOM     44  C   UNL A   1      34.589  34.376  29.541  1.00  0.00     0.054 A 
BRANCH  44  45
ATOM     45  S   UNL A   1      33.308  35.233  28.585  1.00  0.00     0.124 S 
ATOM     46  O   UNL A   1      34.106  36.025  27.653  1.00  0.00    -0.237 OA
ATOM     47  O   UNL A   1      32.562  34.127  27.991  1.00  0.00    -0.237 OA
ATOM     48  O   UNL A   1      32.580  36.004  29.590  1.00  0.00    -0.744 OA
ENDBRANCH  44  45
ENDBRANCH  25  39
BRANCH  26  49
ATOM     49  C   UNL A   1      44.146  28.580  35.998  1.00  0.00    -0.014 A 
ATOM     50  C   UNL A   1      43.986  27.570  36.963  1.00  0.00     0.010 A 
ATOM     51  C   UNL A   1      45.448  29.039  35.712  1.00  0.00     0.010 A 
ATOM     52  C   UNL A   1      45.095  27.062  37.651  1.00  0.00     0.020 A 
ATOM     53  C   UNL A   1      46.561  28.510  36.370  1.00  0.00     0.020 A 
ATOM     54  C   UNL A   1      46.375  27.539  37.353  1.00  0.00     0.054 A 
BRANCH  54  55
ATOM     55  S   UNL A   1      47.797  26.872  38.261  1.00  0.00     0.124 S 
ATOM     56  O   UNL A   1      48.394  28.081  38.820  1.00  0.00    -0.237 OA
ATOM     57  O   UNL A   1      47.165  25.975  39.225  1.00  0.00    -0.237 OA
ATOM     58  O   UNL A   1      48.585  26.208  37.225  1.00  0.00    -0.744 OA
ENDBRANCH  54  55
ENDBRANCH  26  49
BRANCH  38  59
ATOM     59  C   UNL A   1      40.084  34.120  37.257  1.00  0.00    -0.014 A 
ATOM     60  C   UNL A   1      40.871  35.282  37.188  1.00  0.00     0.010 A 
ATOM     61  C   UNL A   1      39.190  33.948  38.329  1.00  0.00     0.010 A 
ATOM     62  C   UNL A   1      40.768  36.256  38.181  1.00  0.00     0.020 A 
ATOM     63  C   UNL A   1      39.062  34.935  39.305  1.00  0.00     0.020 A 
ATOM     64  C   UNL A   1      39.856  36.081  39.226  1.00  0.00     0.054 A 
BRANCH  64  65
ATOM     65  S   UNL A   1      39.676  37.406  40.449  1.00  0.00     0.124 S 
ATOM     66  O   UNL A   1      38.293  37.828  40.239  1.00  0.00    -0.237 OA
ATOM     67  O   UNL A   1      39.939  36.714  41.709  1.00  0.00    -0.237 OA
ATOM     68  O   UNL A   1      40.691  38.381  40.056  1.00  0.00    -0.744 OA
ENDBRANCH  64  65
ENDBRANCH  38  59
ENDBRANCH  12  13
ENDBRANCH   5   7
ENDBRANCH   4   5
ENDBRANCH   3   4
ENDBRANCH   2   3
ENDBRANCH   1   2
BRANCH   1  69
ATOM     69  C   UNL A   1      38.598  21.688  25.700  1.00  0.00     0.202 C 
BRANCH  69  70
ATOM     70  C   UNL A   1      37.676  22.900  25.873  1.00  0.00     0.261 C 
BRANCH  70  71
ATOM     71  O   UNL A   1      36.576  22.751  24.965  1.00  0.00    -0.460 OA
BRANCH  71  72
ATOM     72  C   UNL A   1      35.354  22.993  25.517  1.00  0.00     0.338 C 
ATOM     73  O   UNL A   1      35.017  22.851  26.672  1.00  0.00    -0.246 OA
BRANCH  72  74
ATOM     74  C   UNL A   1      34.538  23.675  24.488  1.00  0.00     0.062 A 
ATOM     75  C   UNL A   1      34.331  23.056  23.253  1.00  0.00     0.016 A 
ATOM     76  C   UNL A   1      33.943  24.905  24.769  1.00  0.00     0.041 A 
ATOM     77  C   UNL A   1      33.511  23.669  22.309  1.00  0.00     0.003 A 
ATOM     78  C   UNL A   1      33.175  25.562  23.805  1.00  0.00     0.039 A 
ATOM     79  C   UNL A   1      32.946  24.919  22.582  1.00  0.00     0.026 A 
BRANCH  78  80
ATOM     80  N   UNL A   1      32.699  26.849  24.119  1.00  0.00    -0.355 N 
ATOM     81  H   UNL A   1      33.222  27.360  24.779  1.00  0.00     0.167 HD
BRANCH  80  82
ATOM     82  C   UNL A   1      31.564  27.484  23.598  1.00  0.00     0.039 A 
ATOM     83  C   UNL A   1      30.297  27.033  23.992  1.00  0.00     0.033 A 
ATOM     84  C   UNL A   1      31.671  28.595  22.760  1.00  0.00     0.033 A 
ATOM     85  C   UNL A   1      29.143  27.677  23.549  1.00  0.00     0.088 A 
ATOM     86  C   UNL A   1      30.524  29.247  22.301  1.00  0.00     0.088 A 
ATOM     87  C   UNL A   1      29.264  28.784  22.701  1.00  0.00     0.269 A 
BRANCH  87  88
ATOM     88  N   UNL A   1      28.056  29.467  22.230  1.00  0.00     0.062 N 
ATOM     89  O   UNL A   1      28.115  30.060  21.142  1.00  0.00    -0.258 OA
ATOM     90  O   UNL A   1      27.047  29.418  22.948  1.00  0.00    -0.258 OA
ENDBRANCH  87  88
ENDBRANCH  80  82
ENDBRANCH  78  80
ENDBRANCH  72  74
ENDBRANCH  71  72
ENDBRANCH  70  71
ENDBRANCH  69  70
ENDBRANCH   1  69
TORSDOF 20
ENDMDL
MODEL 2
REMARK VINA RESULT:     -10.1      6.374     11.401
REMARK SMILES O=C(OCCOCCOC(=O)c1cccc(Nc2ccc([N+](=O)[O-])cc2)c1)c1ccc(-c2c3nc(c(-c4ccc(S(=O)(=O)[O-])cc4)c4ccc([nH]4)c(-c4ccc(S(=O)(=O)[O-])cc4)c4nc(c(-c5ccc(S(=O)(=O)[O-])cc5)c5ccc2[nH]5)C=C4)C=C3)cc1
REMARK SMILES IDX 6 1 5 2 4 3 3 4 2 5 1 6 28 7 29 8 87 9 30 10 86 11 31 12
REMARK SMILES IDX 32 13 33 14 80 15 34 16 85 17 79 18 81 19 35 20 84 21 78 22
REMARK SMILES IDX 77 23 36 25 66 26 47 27 65 28 48 29 51 30 64 31 82 32 49 33
REMARK SMILES IDX 50 34 63 36 83 37 52 38 37 39 38 40 46 41 39 42 45 43 40 44
REMARK SMILES IDX 41 45 42 46 43 47 44 48 67 49 68 50 76 51 69 52 75 53 70 54
REMARK SMILES IDX 71 55 72 56 73 57 74 58 53 59 54 60 62 61 55 62 61 63 56 64
REMARK SMILES IDX 57 65 58 66 59 67 60 68 7 69 8 70 9 71 10 72 11 73 12 74
REMARK SMILES IDX 13 75 27 76 14 77 16 78 15 79 17 80 18 82 19 83 26 84 20 85
REMARK SMILES IDX 25 86 21 87 22 88 23 89 24 90
REMARK H PARENT 81 24 51 35 17 81
REMARK Flexibility Score: inf
ROOT
ATOM      1  O   UNL A   1      38.629  22.047  26.013  1.00  0.00    -0.374 OA
ENDROOT
BRANCH   1   2
ATOM      2  C   UNL A   1      39.911  21.489  26.287  1.00  0.00     0.202 C 
BRANCH   2   3
ATOM      3  C   UNL A   1      39.988  19.969  26.139  1.00  0.00     0.261 C 
BRANCH   3   4
ATOM      4  O   UNL A   1      41.204  19.594  25.474  1.00  0.00    -0.460 OA
BRANCH   4   5
ATOM      5  C   UNL A   1      42.471  19.839  25.882  1.00  0.00     0.338 C 
ATOM      6  O   UNL A   1      43.217  18.883  26.090  1.00  0.00    -0.246 OA
BRANCH   5   7
ATOM      7  C   UNL A   1      43.013  21.212  26.105  1.00  0.00     0.060 A 
ATOM      8  C   UNL A   1      43.200  22.163  25.100  1.00  0.00     0.016 A 
ATOM      9  C   UNL A   1      43.226  21.608  27.434  1.00  0.00     0.016 A 
ATOM     10  C   UNL A   1      43.593  23.457  25.378  1.00  0.00     0.010 A 
ATOM     11  C   UNL A   1      43.593  22.923  27.733  1.00  0.00     0.010 A 
ATOM     12  C   UNL A   1      43.762  23.849  26.698  1.00  0.00    -0.014 A 
BRANCH  12  13
ATOM     13  C   UNL A   1      44.163  25.238  26.939  1.00  0.00     0.031 A 
ATOM     14  C   UNL A   1      45.572  25.625  26.643  1.00  0.00     0.074 A 
ATOM     15  C   UNL A   1      43.226  26.131  27.307  1.00  0.00     0.049 A 
ATOM     16  N   UNL A   1      46.172  26.759  26.864  1.00  0.00    -0.248 NA
ATOM     17  C   UNL A   1      46.418  24.602  26.001  1.00  0.00     0.031 C 
ATOM     18  C   UNL A   1      41.796  25.839  27.466  1.00  0.00     0.029 A 
ATOM     19  N   UNL A   1      43.324  27.464  27.595  1.00  0.00    -0.354 N 
ATOM     20  C   UNL A   1      47.479  26.571  26.440  1.00  0.00     0.074 A 
ATOM     21  C   UNL A   1      47.584  25.227  25.925  1.00  0.00     0.031 C 
ATOM     22  C   UNL A   1      41.153  26.962  27.825  1.00  0.00     0.029 A 
ATOM     23  C   UNL A   1      42.135  28.024  28.003  1.00  0.00     0.049 A 
ATOM     24  H   UNL A   1      44.162  27.974  27.518  1.00  0.00     0.167 HD
ATOM     25  C   UNL A   1      48.499  27.453  26.515  1.00  0.00     0.031 A 
ATOM     26  C   UNL A   1      41.893  29.240  28.526  1.00  0.00     0.031 A 
ATOM     27  C   UNL A   1      48.341  28.779  27.042  1.00  0.00     0.049 A 
ATOM     28  C   UNL A   1      43.072  30.163  28.692  1.00  0.00     0.074 A 
ATOM     29  C   UNL A   1      49.296  29.764  27.199  1.00  0.00     0.029 A 
ATOM     30  N   UNL A   1      47.140  29.298  27.510  1.00  0.00    -0.354 N 
ATOM     31  N   UNL A   1      44.318  29.977  28.318  1.00  0.00    -0.248 NA
ATOM     32  C   UNL A   1      42.827  31.441  29.369  1.00  0.00     0.031 C 
ATOM     33  C   UNL A   1      48.687  30.852  27.829  1.00  0.00     0.029 A 
ATOM     34  C   UNL A   1      47.337  30.574  27.999  1.00  0.00     0.049 A 
ATOM     35  H   UNL A   1      46.276  28.826  27.494  1.00  0.00     0.167 HD
ATOM     36  C   UNL A   1      45.004  31.119  28.707  1.00  0.00     0.074 A 
ATOM     37  C   UNL A   1      44.028  32.001  29.317  1.00  0.00     0.031 C 
ATOM     38  C   UNL A   1      46.323  31.413  28.587  1.00  0.00     0.031 A 
BRANCH  25  39
ATOM     39  C   UNL A   1      49.867  26.974  26.123  1.00  0.00    -0.014 A 
ATOM     40  C   UNL A   1      50.708  26.297  27.023  1.00  0.00     0.010 A 
ATOM     41  C   UNL A   1      50.308  27.194  24.805  1.00  0.00     0.010 A 
ATOM     42  C   UNL A   1      51.972  25.862  26.614  1.00  0.00     0.020 A 
ATOM     43  C   UNL A   1      51.559  26.740  24.386  1.00  0.00     0.020 A 
ATOM     44  C   UNL A   1      52.387  26.082  25.296  1.00  0.00     0.054 A 
BRANCH  44  45
ATOM     45  S   UNL A   1      54.009  25.457  24.777  1.00  0.00     0.124 S 
ATOM     46  O   UNL A   1      54.876  25.942  25.848  1.00  0.00    -0.237 OA
ATOM     47  O   UNL A   1      53.797  24.012  24.746  1.00  0.00    -0.237 OA
ATOM     48  O   UNL A   1      54.222  26.081  23.474  1.00  0.00    -0.744 OA
ENDBRANCH  44  45
ENDBRANCH  25  39
BRANCH  26  49
ATOM     49  C   UNL A   1      40.537  29.601  29.030  1.00  0.00    -0.014 A 
ATOM     50  C   UNL A   1      39.476  29.866  28.149  1.00  0.00     0.010 A 
ATOM     51  C   UNL A   1      40.309  29.715  30.416  1.00  0.00     0.010 A 
ATOM     52  C   UNL A   1      38.229  30.276  28.640  1.00  0.00     0.020 A 
ATOM     53  C   UNL A   1      39.057  30.088  30.914  1.00  0.00     0.020 A 
ATOM     54  C   UNL A   1      38.030  30.388  30.020  1.00  0.00     0.054 A 
BRANCH  54  55
ATOM     55  S   UNL A   1      36.410  30.926  30.635  1.00  0.00     0.124 S 
ATOM     56  O   UNL A   1      36.070  29.855  31.566  1.00  0.00    -0.237 OA
ATOM     57  O   UNL A   1      36.715  32.219  31.242  1.00  0.00    -0.237 OA
ATOM     58  O   UNL A   1      35.589  30.990  29.428  1.00  0.00    -0.744 OA
ENDBRANCH  54  55
ENDBRANCH  26  49
BRANCH  38  59
ATOM     59  C   UNL A   1      46.772  32.748  29.106  1.00  0.00    -0.014 A 
ATOM     60  C   UNL A   1      47.273  32.880  30.413  1.00  0.00     0.010 A 
ATOM     61  C   UNL A   1      46.792  33.853  28.238  1.00  0.00     0.010 A 
ATOM     62  C   UNL A   1      47.781  34.105  30.845  1.00  0.00     0.020 A 
ATOM     63  C   UNL A   1      47.330  35.069  28.657  1.00  0.00     0.020 A 
ATOM     64  C   UNL A   1      47.817  35.187  29.960  1.00  0.00     0.054 A 
BRANCH  64  65
ATOM     65  S   UNL A   1      48.570  36.738  30.519  1.00  0.00     0.124 S 
ATOM     66  O   UNL A   1      49.875  36.696  29.864  1.00  0.00    -0.237 OA
ATOM     67  O   UNL A   1      47.642  37.744  30.011  1.00  0.00    -0.237 OA
ATOM     68  O   UNL A   1      48.600  36.603  31.974  1.00  0.00    -0.744 OA
ENDBRANCH  64  65
ENDBRANCH  38  59
ENDBRANCH  12  13
ENDBRANCH   5   7
ENDBRANCH   4   5
ENDBRANCH   3   4
ENDBRANCH   2   3
ENDBRANCH   1   2
BRANCH   1  69
ATOM     69  C   UNL A   1      37.661  21.194  25.393  1.00  0.00     0.202 C 
BRANCH  69  70
ATOM     70  C   UNL A   1      37.179  21.863  24.102  1.00  0.00     0.261 C 
BRANCH  70  71
ATOM     71  O   UNL A   1      36.759  23.196  24.425  1.00  0.00    -0.460 OA
BRANCH  71  72
ATOM     72  C   UNL A   1      35.590  23.264  25.121  1.00  0.00     0.338 C 
ATOM     73  O   UNL A   1      35.415  23.684  26.245  1.00  0.00    -0.246 OA
BRANCH  72  74
ATOM     74  C   UNL A   1      34.501  22.926  24.179  1.00  0.00     0.062 A 
ATOM     75  C   UNL A   1      34.194  23.808  23.139  1.00  0.00     0.016 A 
ATOM     76  C   UNL A   1      33.820  21.715  24.300  1.00  0.00     0.041 A 
ATOM     77  C   UNL A   1      33.213  23.460  22.214  1.00  0.00     0.003 A 
ATOM     78  C   UNL A   1      32.787  21.386  23.420  1.00  0.00     0.039 A 
ATOM     79  C   UNL A   1      32.508  22.261  22.362  1.00  0.00     0.026 A 
BRANCH  78  80
ATOM     80  N   UNL A   1      32.071  20.200  23.672  1.00  0.00    -0.355 N 
ATOM     81  H   UNL A   1      31.093  20.253  23.583  1.00  0.00     0.167 HD
BRANCH  80  82
ATOM     82  C   UNL A   1      32.598  18.953  24.034  1.00  0.00     0.039 A 
ATOM     83  C   UNL A   1      32.457  18.520  25.360  1.00  0.00     0.033 A 
ATOM     84  C   UNL A   1      33.188  18.109  23.092  1.00  0.00     0.033 A 
ATOM     85  C   UNL A   1      32.908  17.260  25.747  1.00  0.00     0.088 A 
ATOM     86  C   UNL A   1      33.652  16.847  23.466  1.00  0.00     0.088 A 
ATOM     87  C   UNL A   1      33.506  16.428  24.795  1.00  0.00     0.269 A 
BRANCH  87  88
ATOM     88  N   UNL A   1      33.984  15.100  25.194  1.00  0.00     0.062 N 
ATOM     89  O   UNL A   1      35.207  14.898  25.180  1.00  0.00    -0.258 OA
ATOM     90  O   UNL A   1      33.137  14.255  25.517  1.00  0.00    -0.258 OA
ENDBRANCH  87  88
ENDBRANCH  80  82
ENDBRANCH  78  80
ENDBRANCH  72  74
ENDBRANCH  71  72
ENDBRANCH  70  71
ENDBRANCH  69  70
ENDBRANCH   1  69
TORSDOF 20
ENDMDL
MODEL 3
REMARK VINA RESULT:     -10.1      6.316     12.310
REMARK SMILES O=C(OCCOCCOC(=O)c1cccc(Nc2ccc([N+](=O)[O-])cc2)c1)c1ccc(-c2c3nc(c(-c4ccc(S(=O)(=O)[O-])cc4)c4ccc([nH]4)c(-c4ccc(S(=O)(=O)[O-])cc4)c4nc(c(-c5ccc(S(=O)(=O)[O-])cc5)c5ccc2[nH]5)C=C4)C=C3)cc1
REMARK SMILES IDX 6 1 5 2 4 3 3 4 2 5 1 6 28 7 29 8 87 9 30 10 86 11 31 12
REMARK SMILES IDX 32 13 33 14 80 15 34 16 85 17 79 18 81 19 35 20 84 21 78 22
REMARK SMILES IDX 77 23 36 25 66 26 47 27 65 28 48 29 51 30 64 31 82 32 49 33
REMARK SMILES IDX 50 34 63 36 83 37 52 38 37 39 38 40 46 41 39 42 45 43 40 44
REMARK SMILES IDX 41 45 42 46 43 47 44 48 67 49 68 50 76 51 69 52 75 53 70 54
REMARK SMILES IDX 71 55 72 56 73 57 74 58 53 59 54 60 62 61 55 62 61 63 56 64
REMARK SMILES IDX 57 65 58 66 59 67 60 68 7 69 8 70 9 71 10 72 11 73 12 74
REMARK SMILES IDX 13 75 27 76 14 77 16 78 15 79 17 80 18 82 19 83 26 84 20 85
REMARK SMILES IDX 25 86 21 87 22 88 23 89 24 90
REMARK H PARENT 81 24 51 35 17 81
REMARK Flexibility Score: inf
ROOT
ATOM      1  O   UNL A   1      34.620  34.423  31.819  1.00  0.00    -0.374 OA
ENDROOT
BRANCH   1   2
ATOM      2  C   UNL A   1      34.865  33.199  32.506  1.00  0.00     0.202 C 
BRANCH   2   3
ATOM      3  C   UNL A   1      35.512  32.108  31.653  1.00  0.00     0.261 C 
BRANCH   3   4
ATOM      4  O   UNL A   1      36.694  31.608  32.296  1.00  0.00    -0.460 OA
BRANCH   4   5
ATOM      5  C   UNL A   1      37.297  30.413  32.089  1.00  0.00     0.338 C 
ATOM      6  O   UNL A   1      36.729  29.393  32.475  1.00  0.00    -0.246 OA
BRANCH   5   7
ATOM      7  C   UNL A   1      38.627  30.268  31.425  1.00  0.00     0.060 A 
ATOM      8  C   UNL A   1      39.791  29.841  32.068  1.00  0.00     0.016 A 
ATOM      9  C   UNL A   1      38.672  30.453  30.035  1.00  0.00     0.016 A 
ATOM     10  C   UNL A   1      40.966  29.612  31.380  1.00  0.00     0.010 A 
ATOM     11  C   UNL A   1      39.845  30.194  29.322  1.00  0.00     0.010 A 
ATOM     12  C   UNL A   1      40.988  29.759  30.001  1.00  0.00    -0.014 A 
BRANCH  12  13
ATOM     13  C   UNL A   1      42.256  29.486  29.318  1.00  0.00     0.031 A 
ATOM     14  C   UNL A   1      42.451  28.140  28.707  1.00  0.00     0.074 A 
ATOM     15  C   UNL A   1      43.143  30.487  29.169  1.00  0.00     0.049 A 
ATOM     16  N   UNL A   1      43.513  27.645  28.141  1.00  0.00    -0.248 NA
ATOM     17  C   UNL A   1      41.290  27.230  28.726  1.00  0.00     0.031 C 
ATOM     18  C   UNL A   1      42.939  31.870  29.616  1.00  0.00     0.029 A 
ATOM     19  N   UNL A   1      44.381  30.507  28.588  1.00  0.00    -0.354 N 
ATOM     20  C   UNL A   1      43.170  26.349  27.784  1.00  0.00     0.074 A 
ATOM     21  C   UNL A   1      41.795  26.138  28.172  1.00  0.00     0.031 C 
ATOM     22  C   UNL A   1      44.018  32.602  29.292  1.00  0.00     0.029 A 
ATOM     23  C   UNL A   1      45.016  31.723  28.697  1.00  0.00     0.049 A 
ATOM     24  H   UNL A   1      44.778  29.729  28.136  1.00  0.00     0.167 HD
ATOM     25  C   UNL A   1      43.964  25.419  27.211  1.00  0.00     0.031 A 
ATOM     26  C   UNL A   1      46.286  32.057  28.406  1.00  0.00     0.031 A 
ATOM     27  C   UNL A   1      45.329  25.682  26.850  1.00  0.00     0.049 A 
ATOM     28  C   UNL A   1      47.176  30.969  27.865  1.00  0.00     0.074 A 
ATOM     29  C   UNL A   1      46.251  24.822  26.286  1.00  0.00     0.029 A 
ATOM     30  N   UNL A   1      45.967  26.903  27.031  1.00  0.00    -0.354 N 
ATOM     31  N   UNL A   1      46.861  29.732  27.552  1.00  0.00    -0.248 NA
ATOM     32  C   UNL A   1      48.590  31.305  27.660  1.00  0.00     0.031 C 
ATOM     33  C   UNL A   1      47.468  25.503  26.195  1.00  0.00     0.029 A 
ATOM     34  C   UNL A   1      47.286  26.808  26.634  1.00  0.00     0.049 A 
ATOM     35  H   UNL A   1      45.542  27.715  27.390  1.00  0.00     0.167 HD
ATOM     36  C   UNL A   1      48.036  29.143  27.106  1.00  0.00     0.074 A 
ATOM     37  C   UNL A   1      49.059  30.170  27.160  1.00  0.00     0.031 C 
ATOM     38  C   UNL A   1      48.260  27.869  26.700  1.00  0.00     0.031 A 
BRANCH  25  39
ATOM     39  C   UNL A   1      43.412  24.033  27.048  1.00  0.00    -0.014 A 
ATOM     40  C   UNL A   1      43.319  23.135  28.125  1.00  0.00     0.010 A 
ATOM     41  C   UNL A   1      42.955  23.632  25.779  1.00  0.00     0.010 A 
ATOM     42  C   UNL A   1      42.791  21.855  27.931  1.00  0.00     0.020 A 
ATOM     43  C   UNL A   1      42.405  22.364  25.586  1.00  0.00     0.020 A 
ATOM     44  C   UNL A   1      42.333  21.480  26.663  1.00  0.00     0.054 A 
BRANCH  44  45
ATOM     45  S   UNL A   1      41.601  19.834  26.452  1.00  0.00     0.124 S 
ATOM     46  O   UNL A   1      42.291  19.347  25.261  1.00  0.00    -0.237 OA
ATOM     47  O   UNL A   1      41.956  19.166  27.701  1.00  0.00    -0.237 OA
ATOM     48  O   UNL A   1      40.177  20.106  26.277  1.00  0.00    -0.744 OA
ENDBRANCH  44  45
ENDBRANCH  25  39
BRANCH  26  49
ATOM     49  C   UNL A   1      46.814  33.414  28.728  1.00  0.00    -0.014 A 
ATOM     50  C   UNL A   1      46.748  34.464  27.797  1.00  0.00     0.010 A 
ATOM     51  C   UNL A   1      47.425  33.655  29.975  1.00  0.00     0.010 A 
ATOM     52  C   UNL A   1      47.315  35.711  28.090  1.00  0.00     0.020 A 
ATOM     53  C   UNL A   1      47.960  34.907  30.287  1.00  0.00     0.020 A 
ATOM     54  C   UNL A   1      47.922  35.922  29.332  1.00  0.00     0.054 A 
BRANCH  54  55
ATOM     55  S   UNL A   1      48.656  37.543  29.690  1.00  0.00     0.124 S 
ATOM     56  O   UNL A   1      50.025  37.183  30.044  1.00  0.00    -0.237 OA
ATOM     57  O   UNL A   1      48.495  38.250  28.422  1.00  0.00    -0.237 OA
ATOM     58  O   UNL A   1      47.841  38.054  30.789  1.00  0.00    -0.744 OA
ENDBRANCH  54  55
ENDBRANCH  26  49
BRANCH  38  59
ATOM     59  C   UNL A   1      49.655  27.528  26.266  1.00  0.00    -0.014 A 
ATOM     60  C   UNL A   1      50.642  27.197  27.209  1.00  0.00     0.010 A 
ATOM     61  C   UNL A   1      49.946  27.435  24.893  1.00  0.00     0.010 A 
ATOM     62  C   UNL A   1      51.905  26.783  26.784  1.00  0.00     0.020 A 
ATOM     63  C   UNL A   1      51.197  26.991  24.466  1.00  0.00     0.020 A 
ATOM     64  C   UNL A   1      52.169  26.672  25.415  1.00  0.00     0.054 A 
BRANCH  64  65
ATOM     65  S   UNL A   1      53.786  26.042  24.894  1.00  0.00     0.124 S 
ATOM     66  O   UNL A   1      54.148  26.976  23.831  1.00  0.00    -0.237 OA
ATOM     67  O   UNL A   1      54.576  26.143  26.118  1.00  0.00    -0.237 OA
ATOM     68  O   UNL A   1      53.501  24.678  24.453  1.00  0.00    -0.744 OA
ENDBRANCH  64  65
ENDBRANCH  38  59
ENDBRANCH  12  13
ENDBRANCH   5   7
ENDBRANCH   4   5
ENDBRANCH   3   4
ENDBRANCH   2   3
ENDBRANCH   1   2
BRANCH   1  69
ATOM     69  C   UNL A   1      33.282  34.929  31.841  1.00  0.00     0.202 C 
BRANCH  69  70
ATOM     70  C   UNL A   1      32.990  35.592  30.490  1.00  0.00     0.261 C 
BRANCH  70  71
ATOM     71  O   UNL A   1      32.984  34.567  29.487  1.00  0.00    -0.460 OA
BRANCH  71  72
ATOM     72  C   UNL A   1      33.897  34.747  28.493  1.00  0.00     0.338 C 
ATOM     73  O   UNL A   1      34.278  35.792  28.012  1.00  0.00    -0.246 OA
BRANCH  72  74
ATOM     74  C   UNL A   1      34.521  33.431  28.230  1.00  0.00     0.062 A 
ATOM     75  C   UNL A   1      35.913  33.326  28.191  1.00  0.00     0.016 A 
ATOM     76  C   UNL A   1      33.724  32.297  28.072  1.00  0.00     0.041 A 
ATOM     77  C   UNL A   1      36.500  32.077  28.008  1.00  0.00     0.003 A 
ATOM     78  C   UNL A   1      34.299  31.050  27.819  1.00  0.00     0.039 A 
ATOM     79  C   UNL A   1      35.696  30.949  27.813  1.00  0.00     0.026 A 
BRANCH  78  80
ATOM     80  N   UNL A   1      33.430  29.974  27.559  1.00  0.00    -0.355 N 
ATOM     81  H   UNL A   1      32.785  29.751  28.268  1.00  0.00     0.167 HD
BRANCH  80  82
ATOM     82  C   UNL A   1      33.382  29.184  26.403  1.00  0.00     0.039 A 
ATOM     83  C   UNL A   1      33.617  27.807  26.515  1.00  0.00     0.033 A 
ATOM     84  C   UNL A   1      33.034  29.726  25.164  1.00  0.00     0.033 A 
ATOM     85  C   UNL A   1      33.515  26.975  25.401  1.00  0.00     0.088 A 
ATOM     86  C   UNL A   1      32.935  28.907  24.038  1.00  0.00     0.088 A 
ATOM     87  C   UNL A   1      33.175  27.532  24.164  1.00  0.00     0.269 A 
BRANCH  87  88
ATOM     88  N   UNL A   1      33.065  26.665  22.987  1.00  0.00     0.062 N 
ATOM     89  O   UNL A   1      32.217  25.762  23.012  1.00  0.00    -0.258 OA
ATOM     90  O   UNL A   1      33.831  26.882  22.036  1.00  0.00    -0.258 OA
ENDBRANCH  87  88
ENDBRANCH  80  82
ENDBRANCH  78  80
ENDBRANCH  72  74
ENDBRANCH  71  72
ENDBRANCH  70  71
ENDBRANCH  69  70
ENDBRANCH   1  69
TORSDOF 20
ENDMDL
