MODEL 1
REMARK VINA RESULT:     -13.0      0.000      0.000
REMARK SMILES Cc1ccc(-c2nc(NC(=O)[C@H]3[C@@H](C(=O)OCCOCCOC(=O)c4ccc(-c5c6nc(c(-c7ccc(S(=O)(=O)[O-])cc7)c7ccc([nH]7)c(-c7ccc(S(=O)(=O)[O-])cc7)c7nc(c(-c8ccc(S(=O)(=O)[O-])cc8)c8ccc5[nH]8)C=C7)C=C6)cc4)[C@@H]4CC[C@H]3O4)sc2C)cc1
REMARK SMILES IDX 19 1 18 2 17 3 16 4 14 5 15 6 13 7 12 8 88 9 85 10 87 11
REMARK SMILES IDX 89 12 86 13 10 14 9 15 11 17 8 18 6 19 7 20 91 21 90 22
REMARK SMILES IDX 92 23 5 24 1 25 2 26 3 27 94 28 4 29 93 30 20 31 21 32 22 33
REMARK SMILES IDX 23 34 24 35 25 36 26 37 84 38 27 39 83 40 28 41 29 42 30 43
REMARK SMILES IDX 77 44 31 45 82 46 76 47 78 48 32 49 81 50 75 51 74 52 33 54
REMARK SMILES IDX 63 55 44 56 62 57 45 58 48 59 61 60 79 61 46 62 47 63 60 65
REMARK SMILES IDX 80 66 49 67 34 68 35 69 43 70 36 71 42 72 37 73 38 74 39 75
REMARK SMILES IDX 40 76 41 77 64 78 65 79 73 80 66 81 72 82 67 83 68 84 69 85
REMARK SMILES IDX 70 86 71 87 50 88 51 89 59 90 52 91 58 92 53 93 54 94 55 95
REMARK SMILES IDX 56 96 57 97
REMARK H PARENT 9 16 78 53 48 64
REMARK Flexibility Score: inf
ROOT
ATOM      1  O   UNL A   1      30.775  27.415  23.170  1.00  0.00    -0.374 OA
ENDROOT
BRANCH   1   2
ATOM      2  C   UNL A   1      31.231  26.431  22.232  1.00  0.00     0.202 C 
BRANCH   2   3
ATOM      3  C   UNL A   1      32.022  25.273  22.906  1.00  0.00     0.261 C 
BRANCH   3   4
ATOM      4  O   UNL A   1      32.520  25.187  24.322  1.00  0.00    -0.463 OA
BRANCH   4   5
ATOM      5  C   UNL A   1      32.509  24.572  25.520  1.00  0.00     0.312 C 
ATOM      6  O   UNL A   1      32.072  25.108  26.540  1.00  0.00    -0.252 OA
BRANCH   5   7
ATOM      7  C   UNL A   1      33.023  23.203  25.667  1.00  0.00     0.143 C 
ATOM      8  C   UNL A   1      34.352  23.159  26.308  1.00  0.00     0.124 C 
ATOM      9  C   UNL A   1      34.745  21.721  25.959  1.00  0.00     0.132 C 
ATOM     10  C   UNL A   1      33.309  22.291  24.429  1.00  0.00     0.133 C 
ATOM     11  C   UNL A   1      33.638  20.632  26.044  1.00  0.00     0.035 C 
ATOM     12  O   UNL A   1      34.739  21.949  24.525  1.00  0.00    -0.373 OA
ATOM     13  C   UNL A   1      32.855  20.872  24.734  1.00  0.00     0.036 C 
BRANCH   8  14
ATOM     14  C   UNL A   1      35.481  24.059  25.710  1.00  0.00     0.232 C 
ATOM     15  N   UNL A   1      36.806  23.846  25.474  1.00  0.00    -0.302 N 
ATOM     16  H   UNL A   1      37.065  24.490  24.777  1.00  0.00     0.172 HD
ATOM     17  O   UNL A   1      35.031  25.099  25.176  1.00  0.00    -0.274 OA
BRANCH  15  18
ATOM     18  C   UNL A   1      37.945  23.127  25.777  1.00  0.00     0.190 A 
ATOM     19  C   UNL A   1      39.955  22.824  26.752  1.00  0.00     0.086 A 
ATOM     20  N   UNL A   1      38.847  23.654  26.584  1.00  0.00    -0.220 NA
ATOM     21  C   UNL A   1      39.721  21.532  26.327  1.00  0.00     0.031 A 
ATOM     22  S   UNL A   1      38.179  21.468  25.493  1.00  0.00    -0.101 S 
ATOM     23  C   UNL A   1      40.608  20.347  26.421  1.00  0.00     0.059 C 
BRANCH  19  24
ATOM     24  C   UNL A   1      41.286  23.411  27.084  1.00  0.00     0.001 A 
ATOM     25  C   UNL A   1      46.165  24.276  28.018  1.00  0.00     0.044 C 
ATOM     26  C   UNL A   1      44.910  23.492  27.671  1.00  0.00    -0.051 A 
ATOM     27  C   UNL A   1      44.243  23.790  26.024  1.00  0.00     0.004 A 
ATOM     28  C   UNL A   1      43.801  23.095  29.041  1.00  0.00     0.004 A 
ATOM     29  C   UNL A   1      42.440  23.690  25.725  1.00  0.00     0.010 A 
ATOM     30  C   UNL A   1      41.976  23.215  28.768  1.00  0.00     0.010 A 
ENDBRANCH  19  24
ENDBRANCH  15  18
ENDBRANCH   8  14
ENDBRANCH   5   7
ENDBRANCH   4   5
ENDBRANCH   3   4
ENDBRANCH   2   3
ENDBRANCH   1   2
BRANCH   1  31
ATOM     31  C   UNL A   1      31.713  28.356  23.702  1.00  0.00     0.202 C 
BRANCH  31  32
ATOM     32  C   UNL A   1      31.433  28.983  25.072  1.00  0.00     0.261 C 
BRANCH  32  33
ATOM     33  O   UNL A   1      32.607  29.393  25.816  1.00  0.00    -0.460 OA
BRANCH  33  34
ATOM     34  C   UNL A   1      32.574  30.582  26.501  1.00  0.00     0.338 C 
ATOM     35  O   UNL A   1      31.577  31.282  26.563  1.00  0.00    -0.246 OA
BRANCH  34  36
ATOM     36  C   UNL A   1      33.776  30.739  27.373  1.00  0.00     0.060 A 
ATOM     37  C   UNL A   1      34.282  31.944  27.883  1.00  0.00     0.016 A 
ATOM     38  C   UNL A   1      34.505  29.601  27.580  1.00  0.00     0.016 A 
ATOM     39  C   UNL A   1      35.566  31.982  28.516  1.00  0.00     0.010 A 
ATOM     40  C   UNL A   1      35.846  29.754  27.814  1.00  0.00     0.010 A 
ATOM     41  C   UNL A   1      36.421  30.862  28.449  1.00  0.00    -0.014 A 
BRANCH  41  42
ATOM     42  C   UNL A   1      38.072  30.730  28.851  1.00  0.00     0.031 A 
ATOM     43  C   UNL A   1      39.622  29.474  28.022  1.00  0.00     0.074 A 
ATOM     44  C   UNL A   1      38.064  31.888  29.767  1.00  0.00     0.049 A 
ATOM     45  N   UNL A   1      40.695  28.860  28.657  1.00  0.00    -0.248 NA
ATOM     46  C   UNL A   1      40.055  28.927  26.498  1.00  0.00     0.031 C 
ATOM     47  C   UNL A   1      39.121  32.926  30.043  1.00  0.00     0.029 A 
ATOM     48  N   UNL A   1      37.222  32.159  30.871  1.00  0.00    -0.354 N 
ATOM     49  C   UNL A   1      41.808  28.730  27.905  1.00  0.00     0.074 A 
ATOM     50  C   UNL A   1      41.349  28.617  26.560  1.00  0.00     0.031 C 
ATOM     51  C   UNL A   1      39.080  33.394  31.276  1.00  0.00     0.029 A 
ATOM     52  C   UNL A   1      37.914  32.845  31.867  1.00  0.00     0.049 A 
ATOM     53  H   UNL A   1      36.275  31.898  30.928  1.00  0.00     0.167 HD
ATOM     54  C   UNL A   1      43.045  28.863  28.467  1.00  0.00     0.031 A 
ATOM     55  C   UNL A   1      37.816  32.824  33.204  1.00  0.00     0.031 A 
ATOM     56  C   UNL A   1      43.091  29.641  29.738  1.00  0.00     0.049 A 
ATOM     57  C   UNL A   1      39.086  32.212  33.739  1.00  0.00     0.074 A 
ATOM     58  C   UNL A   1      43.575  30.916  30.009  1.00  0.00     0.029 A 
ATOM     59  N   UNL A   1      42.409  29.261  30.906  1.00  0.00    -0.354 N 
ATOM     60  N   UNL A   1      39.931  31.552  32.966  1.00  0.00    -0.248 NA
ATOM     61  C   UNL A   1      39.540  32.290  35.120  1.00  0.00     0.031 C 
ATOM     62  C   UNL A   1      43.108  31.331  31.291  1.00  0.00     0.029 A 
ATOM     63  C   UNL A   1      42.387  30.293  31.864  1.00  0.00     0.049 A 
ATOM     64  H   UNL A   1      41.995  28.378  31.039  1.00  0.00     0.167 HD
ATOM     65  C   UNL A   1      40.947  31.044  33.721  1.00  0.00     0.074 A 
ATOM     66  C   UNL A   1      40.668  31.559  35.059  1.00  0.00     0.031 C 
ATOM     67  C   UNL A   1      41.864  30.141  33.243  1.00  0.00     0.031 A 
BRANCH  54  68
ATOM     68  C   UNL A   1      44.243  28.484  27.633  1.00  0.00    -0.014 A 
ATOM     69  C   UNL A   1      45.523  29.011  27.846  1.00  0.00     0.010 A 
ATOM     70  C   UNL A   1      44.125  27.488  26.634  1.00  0.00     0.010 A 
ATOM     71  C   UNL A   1      46.611  28.618  27.043  1.00  0.00     0.020 A 
ATOM     72  C   UNL A   1      45.173  27.144  25.783  1.00  0.00     0.020 A 
ATOM     73  C   UNL A   1      46.420  27.702  26.004  1.00  0.00     0.054 A 
BRANCH  73  74
ATOM     74  S   UNL A   1      47.806  27.216  24.947  1.00  0.00     0.124 S 
ATOM     75  O   UNL A   1      48.176  25.908  25.481  1.00  0.00    -0.237 OA
ATOM     76  O   UNL A   1      47.193  27.211  23.623  1.00  0.00    -0.237 OA
ATOM     77  O   UNL A   1      48.795  28.270  25.172  1.00  0.00    -0.744 OA
ENDBRANCH  73  74
ENDBRANCH  54  68
BRANCH  55  78
ATOM     78  C   UNL A   1      36.473  33.211  33.682  1.00  0.00    -0.014 A 
ATOM     79  C   UNL A   1      36.312  34.594  33.975  1.00  0.00     0.010 A 
ATOM     80  C   UNL A   1      35.371  32.512  33.167  1.00  0.00     0.010 A 
ATOM     81  C   UNL A   1      35.174  35.295  33.547  1.00  0.00     0.020 A 
ATOM     82  C   UNL A   1      34.251  33.218  32.700  1.00  0.00     0.020 A 
ATOM     83  C   UNL A   1      34.190  34.610  32.835  1.00  0.00     0.054 A 
BRANCH  83  84
ATOM     84  S   UNL A   1      33.039  35.559  31.778  1.00  0.00     0.124 S 
ATOM     85  O   UNL A   1      33.602  36.903  31.833  1.00  0.00    -0.237 OA
ATOM     86  O   UNL A   1      33.143  34.881  30.483  1.00  0.00    -0.237 OA
ATOM     87  O   UNL A   1      31.758  35.368  32.450  1.00  0.00    -0.744 OA
ENDBRANCH  83  84
ENDBRANCH  55  78
BRANCH  67  88
ATOM     88  C   UNL A   1      42.439  29.087  34.158  1.00  0.00    -0.014 A 
ATOM     89  C   UNL A   1      43.263  29.398  35.258  1.00  0.00     0.010 A 
ATOM     90  C   UNL A   1      42.028  27.745  34.030  1.00  0.00     0.010 A 
ATOM     91  C   UNL A   1      43.726  28.413  36.132  1.00  0.00     0.020 A 
ATOM     92  C   UNL A   1      42.427  26.763  34.938  1.00  0.00     0.020 A 
ATOM     93  C   UNL A   1      43.304  27.099  35.965  1.00  0.00     0.054 A 
BRANCH  93  94
ATOM     94  S   UNL A   1      43.875  25.848  37.135  1.00  0.00     0.124 S 
ATOM     95  O   UNL A   1      43.523  26.458  38.416  1.00  0.00    -0.237 OA
ATOM     96  O   UNL A   1      43.087  24.675  36.763  1.00  0.00    -0.237 OA
ATOM     97  O   UNL A   1      45.304  25.745  36.857  1.00  0.00    -0.744 OA
ENDBRANCH  93  94
ENDBRANCH  67  88
ENDBRANCH  41  42
ENDBRANCH  34  36
ENDBRANCH  33  34
ENDBRANCH  32  33
ENDBRANCH  31  32
ENDBRANCH   1  31
TORSDOF 20
ENDMDL
MODEL 2
REMARK VINA RESULT:     -11.8      3.759     10.907
REMARK SMILES Cc1ccc(-c2nc(NC(=O)[C@H]3[C@@H](C(=O)OCCOCCOC(=O)c4ccc(-c5c6nc(c(-c7ccc(S(=O)(=O)[O-])cc7)c7ccc([nH]7)c(-c7ccc(S(=O)(=O)[O-])cc7)c7nc(c(-c8ccc(S(=O)(=O)[O-])cc8)c8ccc5[nH]8)C=C7)C=C6)cc4)[C@@H]4CC[C@H]3O4)sc2C)cc1
REMARK SMILES IDX 19 1 18 2 17 3 16 4 14 5 15 6 13 7 12 8 88 9 85 10 87 11
REMARK SMILES IDX 89 12 86 13 10 14 9 15 11 17 8 18 6 19 7 20 91 21 90 22
REMARK SMILES IDX 92 23 5 24 1 25 2 26 3 27 94 28 4 29 93 30 20 31 21 32 22 33
REMARK SMILES IDX 23 34 24 35 25 36 26 37 84 38 27 39 83 40 28 41 29 42 30 43
REMARK SMILES IDX 77 44 31 45 82 46 76 47 78 48 32 49 81 50 75 51 74 52 33 54
REMARK SMILES IDX 63 55 44 56 62 57 45 58 48 59 61 60 79 61 46 62 47 63 60 65
REMARK SMILES IDX 80 66 49 67 34 68 35 69 43 70 36 71 42 72 37 73 38 74 39 75
REMARK SMILES IDX 40 76 41 77 64 78 65 79 73 80 66 81 72 82 67 83 68 84 69 85
REMARK SMILES IDX 70 86 71 87 50 88 51 89 59 90 52 91 58 92 53 93 54 94 55 95
REMARK SMILES IDX 56 96 57 97
REMARK H PARENT 9 16 78 53 48 64
REMARK Flexibility Score: inf
ROOT
ATOM      1  O   UNL A   1      39.670  21.757  26.521  1.00  0.00    -0.374 OA
ENDROOT
BRANCH   1   2
ATOM      2  C   UNL A   1      38.388  21.972  25.914  1.00  0.00     0.202 C 
BRANCH   2   3
ATOM      3  C   UNL A   1      37.912  20.762  25.060  1.00  0.00     0.261 C 
BRANCH   3   4
ATOM      4  O   UNL A   1      36.531  20.174  24.968  1.00  0.00    -0.463 OA
BRANCH   4   5
ATOM      5  C   UNL A   1      35.196  20.334  25.040  1.00  0.00     0.312 C 
ATOM      6  O   UNL A   1      34.669  21.247  25.680  1.00  0.00    -0.252 OA
BRANCH   5   7
ATOM      7  C   UNL A   1      34.289  19.413  24.343  1.00  0.00     0.143 C 
ATOM      8  C   UNL A   1      33.097  20.090  23.795  1.00  0.00     0.124 C 
ATOM      9  C   UNL A   1      32.227  18.864  23.511  1.00  0.00     0.132 C 
ATOM     10  C   UNL A   1      33.589  18.226  25.082  1.00  0.00     0.133 C 
ATOM     11  C   UNL A   1      32.927  17.604  22.927  1.00  0.00     0.035 C 
ATOM     12  O   UNL A   1      32.145  18.461  24.904  1.00  0.00    -0.373 OA
ATOM     13  C   UNL A   1      33.594  16.999  24.184  1.00  0.00     0.036 C 
BRANCH   8  14
ATOM     14  C   UNL A   1      32.258  20.985  24.763  1.00  0.00     0.232 C 
ATOM     15  N   UNL A   1      31.967  22.316  24.772  1.00  0.00    -0.302 N 
ATOM     16  H   UNL A   1      31.144  22.412  25.303  1.00  0.00     0.172 HD
ATOM     17  O   UNL A   1      31.575  20.311  25.566  1.00  0.00    -0.274 OA
BRANCH  15  18
ATOM     18  C   UNL A   1      32.313  23.590  24.367  1.00  0.00     0.190 A 
ATOM     19  C   UNL A   1      32.697  25.789  24.686  1.00  0.00     0.086 A 
ATOM     20  N   UNL A   1      32.382  24.558  25.262  1.00  0.00    -0.220 NA
ATOM     21  C   UNL A   1      33.189  25.665  23.402  1.00  0.00     0.031 A 
ATOM     22  S   UNL A   1      33.000  24.005  22.869  1.00  0.00    -0.101 S 
ATOM     23  C   UNL A   1      33.714  26.721  22.502  1.00  0.00     0.059 C 
BRANCH  19  24
ATOM     24  C   UNL A   1      32.252  27.055  25.337  1.00  0.00     0.001 A 
ATOM     25  C   UNL A   1      31.454  31.840  26.716  1.00  0.00     0.044 C 
ATOM     26  C   UNL A   1      32.035  30.671  25.935  1.00  0.00    -0.051 A 
ATOM     27  C   UNL A   1      30.897  29.863  24.796  1.00  0.00     0.004 A 
ATOM     28  C   UNL A   1      33.332  29.716  26.753  1.00  0.00     0.004 A 
ATOM     29  C   UNL A   1      31.048  28.070  24.457  1.00  0.00     0.010 A 
ATOM     30  C   UNL A   1      33.330  27.877  26.569  1.00  0.00     0.010 A 
ENDBRANCH  19  24
ENDBRANCH  15  18
ENDBRANCH   8  14
ENDBRANCH   5   7
ENDBRANCH   4   5
ENDBRANCH   3   4
ENDBRANCH   2   3
ENDBRANCH   1   2
BRANCH   1  31
ATOM     31  C   UNL A   1      40.283  20.469  26.412  1.00  0.00     0.202 C 
BRANCH  31  32
ATOM     32  C   UNL A   1      41.803  20.388  26.237  1.00  0.00     0.261 C 
BRANCH  32  33
ATOM     33  O   UNL A   1      42.400  21.484  25.499  1.00  0.00    -0.460 OA
BRANCH  33  34
ATOM     34  C   UNL A   1      43.265  22.327  26.151  1.00  0.00     0.338 C 
ATOM     35  O   UNL A   1      44.465  22.119  26.220  1.00  0.00    -0.246 OA
BRANCH  34  36
ATOM     36  C   UNL A   1      42.610  23.627  26.480  1.00  0.00     0.060 A 
ATOM     37  C   UNL A   1      42.547  24.760  25.653  1.00  0.00     0.016 A 
ATOM     38  C   UNL A   1      42.141  23.743  27.759  1.00  0.00     0.016 A 
ATOM     39  C   UNL A   1      42.091  26.013  26.173  1.00  0.00     0.010 A 
ATOM     40  C   UNL A   1      42.103  25.002  28.297  1.00  0.00     0.010 A 
ATOM     41  C   UNL A   1      41.900  26.176  27.560  1.00  0.00    -0.014 A 
BRANCH  41  42
ATOM     42  C   UNL A   1      41.648  27.600  28.463  1.00  0.00     0.031 A 
ATOM     43  C   UNL A   1      39.886  28.832  28.679  1.00  0.00     0.074 A 
ATOM     44  C   UNL A   1      42.948  27.531  29.159  1.00  0.00     0.049 A 
ATOM     45  N   UNL A   1      39.784  30.212  28.809  1.00  0.00    -0.248 NA
ATOM     46  C   UNL A   1      38.236  28.575  28.816  1.00  0.00     0.031 C 
ATOM     47  C   UNL A   1      43.327  27.913  30.566  1.00  0.00     0.029 A 
ATOM     48  N   UNL A   1      44.252  27.411  28.624  1.00  0.00    -0.354 N 
ATOM     49  C   UNL A   1      38.751  30.641  29.564  1.00  0.00     0.074 A 
ATOM     50  C   UNL A   1      37.733  29.654  29.414  1.00  0.00     0.031 C 
ATOM     51  C   UNL A   1      44.577  28.323  30.674  1.00  0.00     0.029 A 
ATOM     52  C   UNL A   1      45.177  28.096  29.409  1.00  0.00     0.049 A 
ATOM     53  H   UNL A   1      44.476  26.910  27.806  1.00  0.00     0.167 HD
ATOM     54  C   UNL A   1      38.886  31.737  30.367  1.00  0.00     0.031 A 
ATOM     55  C   UNL A   1      46.301  28.757  29.100  1.00  0.00     0.031 A 
ATOM     56  C   UNL A   1      40.285  32.078  30.755  1.00  0.00     0.049 A 
ATOM     57  C   UNL A   1      46.055  30.219  29.376  1.00  0.00     0.074 A 
ATOM     58  C   UNL A   1      40.952  31.947  31.968  1.00  0.00     0.029 A 
ATOM     59  N   UNL A   1      41.287  32.416  29.829  1.00  0.00    -0.354 N 
ATOM     60  N   UNL A   1      44.841  30.706  29.567  1.00  0.00    -0.248 NA
ATOM     61  C   UNL A   1      47.088  31.238  29.490  1.00  0.00     0.031 C 
ATOM     62  C   UNL A   1      42.352  32.113  31.751  1.00  0.00     0.029 A 
ATOM     63  C   UNL A   1      42.567  32.420  30.415  1.00  0.00     0.049 A 
ATOM     64  H   UNL A   1      41.114  32.625  28.883  1.00  0.00     0.167 HD
ATOM     65  C   UNL A   1      44.906  32.060  29.718  1.00  0.00     0.074 A 
ATOM     66  C   UNL A   1      46.340  32.338  29.689  1.00  0.00     0.031 C 
ATOM     67  C   UNL A   1      43.799  32.872  29.725  1.00  0.00     0.031 A 
BRANCH  54  68
ATOM     68  C   UNL A   1      37.642  32.301  31.005  1.00  0.00    -0.014 A 
ATOM     69  C   UNL A   1      36.994  31.694  32.090  1.00  0.00     0.010 A 
ATOM     70  C   UNL A   1      37.123  33.544  30.572  1.00  0.00     0.010 A 
ATOM     71  C   UNL A   1      35.839  32.266  32.656  1.00  0.00     0.020 A 
ATOM     72  C   UNL A   1      35.940  34.084  31.070  1.00  0.00     0.020 A 
ATOM     73  C   UNL A   1      35.310  33.447  32.125  1.00  0.00     0.054 A 
BRANCH  73  74
ATOM     74  S   UNL A   1      33.807  34.171  32.825  1.00  0.00     0.124 S 
ATOM     75  O   UNL A   1      34.329  35.083  33.839  1.00  0.00    -0.237 OA
ATOM     76  O   UNL A   1      33.198  34.800  31.658  1.00  0.00    -0.237 OA
ATOM     77  O   UNL A   1      33.085  33.015  33.357  1.00  0.00    -0.744 OA
ENDBRANCH  73  74
ENDBRANCH  54  68
BRANCH  55  78
ATOM     78  C   UNL A   1      47.301  27.897  28.434  1.00  0.00    -0.014 A 
ATOM     79  C   UNL A   1      47.184  26.507  28.714  1.00  0.00     0.010 A 
ATOM     80  C   UNL A   1      47.744  28.280  27.158  1.00  0.00     0.010 A 
ATOM     81  C   UNL A   1      47.277  25.554  27.688  1.00  0.00     0.020 A 
ATOM     82  C   UNL A   1      47.796  27.333  26.123  1.00  0.00     0.020 A 
ATOM     83  C   UNL A   1      47.498  25.989  26.382  1.00  0.00     0.054 A 
BRANCH  83  84
ATOM     84  S   UNL A   1      47.039  24.894  24.993  1.00  0.00     0.124 S 
ATOM     85  O   UNL A   1      47.147  23.569  25.592  1.00  0.00    -0.237 OA
ATOM     86  O   UNL A   1      45.680  25.331  24.661  1.00  0.00    -0.237 OA
ATOM     87  O   UNL A   1      48.036  25.227  23.981  1.00  0.00    -0.744 OA
ENDBRANCH  83  84
ENDBRANCH  55  78
BRANCH  67  88
ATOM     88  C   UNL A   1      43.880  34.269  29.158  1.00  0.00    -0.014 A 
ATOM     89  C   UNL A   1      44.030  35.413  29.966  1.00  0.00     0.010 A 
ATOM     90  C   UNL A   1      43.970  34.457  27.765  1.00  0.00     0.010 A 
ATOM     91  C   UNL A   1      44.173  36.689  29.416  1.00  0.00     0.020 A 
ATOM     92  C   UNL A   1      44.183  35.718  27.204  1.00  0.00     0.020 A 
ATOM     93  C   UNL A   1      44.249  36.832  28.035  1.00  0.00     0.054 A 
BRANCH  93  94
ATOM     94  S   UNL A   1      44.483  38.484  27.345  1.00  0.00     0.124 S 
ATOM     95  O   UNL A   1      43.227  38.684  26.625  1.00  0.00    -0.237 OA
ATOM     96  O   UNL A   1      44.659  39.309  28.538  1.00  0.00    -0.237 OA
ATOM     97  O   UNL A   1      45.672  38.342  26.511  1.00  0.00    -0.744 OA
ENDBRANCH  93  94
ENDBRANCH  67  88
ENDBRANCH  41  42
ENDBRANCH  34  36
ENDBRANCH  33  34
ENDBRANCH  32  33
ENDBRANCH  31  32
ENDBRANCH   1  31
TORSDOF 20
ENDMDL
MODEL 3
REMARK VINA RESULT:     -11.5      1.635      2.235
REMARK SMILES Cc1ccc(-c2nc(NC(=O)[C@H]3[C@@H](C(=O)OCCOCCOC(=O)c4ccc(-c5c6nc(c(-c7ccc(S(=O)(=O)[O-])cc7)c7ccc([nH]7)c(-c7ccc(S(=O)(=O)[O-])cc7)c7nc(c(-c8ccc(S(=O)(=O)[O-])cc8)c8ccc5[nH]8)C=C7)C=C6)cc4)[C@@H]4CC[C@H]3O4)sc2C)cc1
REMARK SMILES IDX 19 1 18 2 17 3 16 4 14 5 15 6 13 7 12 8 88 9 85 10 87 11
REMARK SMILES IDX 89 12 86 13 10 14 9 15 11 17 8 18 6 19 7 20 91 21 90 22
REMARK SMILES IDX 92 23 5 24 1 25 2 26 3 27 94 28 4 29 93 30 20 31 21 32 22 33
REMARK SMILES IDX 23 34 24 35 25 36 26 37 84 38 27 39 83 40 28 41 29 42 30 43
REMARK SMILES IDX 77 44 31 45 82 46 76 47 78 48 32 49 81 50 75 51 74 52 33 54
REMARK SMILES IDX 63 55 44 56 62 57 45 58 48 59 61 60 79 61 46 62 47 63 60 65
REMARK SMILES IDX 80 66 49 67 34 68 35 69 43 70 36 71 42 72 37 73 38 74 39 75
REMARK SMILES IDX 40 76 41 77 64 78 65 79 73 80 66 81 72 82 67 83 68 84 69 85
REMARK SMILES IDX 70 86 71 87 50 88 51 89 59 90 52 91 58 92 53 93 54 94 55 95
REMARK SMILES IDX 56 96 57 97
REMARK H PARENT 9 16 78 53 48 64
REMARK Flexibility Score: inf
ROOT
ATOM      1  O   UNL A   1      32.838  27.337  24.651  1.00  0.00    -0.374 OA
ENDROOT
BRANCH   1   2
ATOM      2  C   UNL A   1      31.950  26.258  24.331  1.00  0.00     0.202 C 
BRANCH   2   3
ATOM      3  C   UNL A   1      32.504  25.329  23.211  1.00  0.00     0.261 C 
BRANCH   3   4
ATOM      4  O   UNL A   1      33.035  23.929  23.343  1.00  0.00    -0.463 OA
BRANCH   4   5
ATOM      5  C   UNL A   1      33.096  22.773  24.030  1.00  0.00     0.312 C 
ATOM      6  O   UNL A   1      32.856  21.679  23.514  1.00  0.00    -0.252 OA
BRANCH   5   7
ATOM      7  C   UNL A   1      33.463  22.761  25.452  1.00  0.00     0.143 C 
ATOM      8  C   UNL A   1      34.862  23.172  25.684  1.00  0.00     0.124 C 
ATOM      9  C   UNL A   1      35.024  22.688  27.128  1.00  0.00     0.132 C 
ATOM     10  C   UNL A   1      33.442  21.447  26.299  1.00  0.00     0.133 C 
ATOM     11  C   UNL A   1      33.824  22.896  28.095  1.00  0.00     0.035 C 
ATOM     12  O   UNL A   1      34.819  21.288  26.799  1.00  0.00    -0.373 OA
ATOM     13  C   UNL A   1      32.878  21.747  27.680  1.00  0.00     0.036 C 
BRANCH   8  14
ATOM     14  C   UNL A   1      35.980  22.445  24.870  1.00  0.00     0.232 C 
ATOM     15  N   UNL A   1      37.289  22.174  25.136  1.00  0.00    -0.302 N 
ATOM     16  H   UNL A   1      37.530  21.410  24.566  1.00  0.00     0.172 HD
ATOM     17  O   UNL A   1      35.528  21.835  23.875  1.00  0.00    -0.274 OA
BRANCH  15  18
ATOM     18  C   UNL A   1      38.427  22.496  25.849  1.00  0.00     0.190 A 
ATOM     19  C   UNL A   1      40.636  22.419  26.291  1.00  0.00     0.086 A 
ATOM     20  N   UNL A   1      39.598  22.046  25.438  1.00  0.00    -0.220 NA
ATOM     21  C   UNL A   1      40.275  23.430  27.159  1.00  0.00     0.031 A 
ATOM     22  S   UNL A   1      38.547  23.705  27.037  1.00  0.00    -0.101 S 
ATOM     23  C   UNL A   1      41.114  24.154  28.145  1.00  0.00     0.059 C 
BRANCH  19  24
ATOM     24  C   UNL A   1      41.865  21.578  26.387  1.00  0.00     0.001 A 
ATOM     25  C   UNL A   1      45.744  18.459  25.580  1.00  0.00     0.044 C 
ATOM     26  C   UNL A   1      44.467  19.231  25.290  1.00  0.00    -0.051 A 
ATOM     27  C   UNL A   1      44.675  21.005  25.051  1.00  0.00     0.004 A 
ATOM     28  C   UNL A   1      42.947  18.587  26.023  1.00  0.00     0.004 A 
ATOM     29  C   UNL A   1      43.349  22.165  25.546  1.00  0.00     0.010 A 
ATOM     30  C   UNL A   1      41.719  19.783  26.716  1.00  0.00     0.010 A 
ENDBRANCH  19  24
ENDBRANCH  15  18
ENDBRANCH   8  14
ENDBRANCH   5   7
ENDBRANCH   4   5
ENDBRANCH   3   4
ENDBRANCH   2   3
ENDBRANCH   1   2
BRANCH   1  31
ATOM     31  C   UNL A   1      32.606  28.625  24.072  1.00  0.00     0.202 C 
BRANCH  31  32
ATOM     32  C   UNL A   1      32.411  29.827  25.001  1.00  0.00     0.261 C 
BRANCH  32  33
ATOM     33  O   UNL A   1      33.195  29.802  26.220  1.00  0.00    -0.460 OA
BRANCH  33  34
ATOM     34  C   UNL A   1      33.265  30.939  26.986  1.00  0.00     0.338 C 
ATOM     35  O   UNL A   1      32.297  31.645  27.210  1.00  0.00    -0.246 OA
BRANCH  34  36
ATOM     36  C   UNL A   1      34.560  31.016  27.724  1.00  0.00     0.060 A 
ATOM     37  C   UNL A   1      35.297  32.180  27.993  1.00  0.00     0.016 A 
ATOM     38  C   UNL A   1      35.122  29.814  28.053  1.00  0.00     0.016 A 
ATOM     39  C   UNL A   1      36.630  32.092  28.508  1.00  0.00     0.010 A 
ATOM     40  C   UNL A   1      36.488  29.771  28.153  1.00  0.00     0.010 A 
ATOM     41  C   UNL A   1      37.290  30.847  28.555  1.00  0.00    -0.014 A 
BRANCH  41  42
ATOM     42  C   UNL A   1      38.933  30.498  28.841  1.00  0.00     0.031 A 
ATOM     43  C   UNL A   1      40.315  29.250  27.746  1.00  0.00     0.074 A 
ATOM     44  C   UNL A   1      39.078  31.491  29.924  1.00  0.00     0.049 A 
ATOM     45  N   UNL A   1      41.344  28.445  28.220  1.00  0.00    -0.248 NA
ATOM     46  C   UNL A   1      40.631  28.914  26.134  1.00  0.00     0.031 C 
ATOM     47  C   UNL A   1      40.245  32.368  30.299  1.00  0.00     0.029 A 
ATOM     48  N   UNL A   1      38.311  31.660  31.101  1.00  0.00    -0.354 N 
ATOM     49  C   UNL A   1      42.409  28.333  27.397  1.00  0.00     0.074 A 
ATOM     50  C   UNL A   1      41.888  28.478  26.078  1.00  0.00     0.031 C 
ATOM     51  C   UNL A   1      40.299  32.636  31.591  1.00  0.00     0.029 A 
ATOM     52  C   UNL A   1      39.107  32.112  32.152  1.00  0.00     0.049 A 
ATOM     53  H   UNL A   1      37.346  31.484  31.168  1.00  0.00     0.167 HD
ATOM     54  C   UNL A   1      43.673  28.257  27.905  1.00  0.00     0.031 A 
ATOM     55  C   UNL A   1      39.059  31.888  33.473  1.00  0.00     0.031 A 
ATOM     56  C   UNL A   1      43.848  28.816  29.277  1.00  0.00     0.049 A 
ATOM     57  C   UNL A   1      40.281  31.081  33.838  1.00  0.00     0.074 A 
ATOM     58  C   UNL A   1      44.468  29.980  29.715  1.00  0.00     0.029 A 
ATOM     59  N   UNL A   1      43.176  28.320  30.408  1.00  0.00    -0.354 N 
ATOM     60  N   UNL A   1      41.024  30.476  32.927  1.00  0.00    -0.248 NA
ATOM     61  C   UNL A   1      40.793  30.897  35.187  1.00  0.00     0.031 C 
ATOM     62  C   UNL A   1      44.095  30.228  31.069  1.00  0.00     0.029 A 
ATOM     63  C   UNL A   1      43.295  29.184  31.513  1.00  0.00     0.049 A 
ATOM     64  H   UNL A   1      42.680  27.470  30.425  1.00  0.00     0.167 HD
ATOM     65  C   UNL A   1      42.012  29.762  33.539  1.00  0.00     0.074 A 
ATOM     66  C   UNL A   1      41.838  30.082  34.953  1.00  0.00     0.031 C 
ATOM     67  C   UNL A   1      42.813  28.865  32.878  1.00  0.00     0.031 A 
BRANCH  54  68
ATOM     68  C   UNL A   1      44.793  27.905  26.959  1.00  0.00    -0.014 A 
ATOM     69  C   UNL A   1      44.805  26.737  26.185  1.00  0.00     0.010 A 
ATOM     70  C   UNL A   1      45.860  28.812  26.753  1.00  0.00     0.010 A 
ATOM     71  C   UNL A   1      45.872  26.458  25.310  1.00  0.00     0.020 A 
ATOM     72  C   UNL A   1      46.959  28.517  25.950  1.00  0.00     0.020 A 
ATOM     73  C   UNL A   1      46.951  27.342  25.217  1.00  0.00     0.054 A 
BRANCH  73  74
ATOM     74  S   UNL A   1      48.342  26.975  24.120  1.00  0.00     0.124 S 
ATOM     75  O   UNL A   1      48.698  25.610  24.496  1.00  0.00    -0.237 OA
ATOM     76  O   UNL A   1      47.741  27.134  22.800  1.00  0.00    -0.237 OA
ATOM     77  O   UNL A   1      49.337  27.986  24.477  1.00  0.00    -0.744 OA
ENDBRANCH  73  74
ENDBRANCH  54  68
BRANCH  55  78
ATOM     78  C   UNL A   1      37.782  32.318  34.077  1.00  0.00    -0.014 A 
ATOM     79  C   UNL A   1      37.730  33.685  34.470  1.00  0.00     0.010 A 
ATOM     80  C   UNL A   1      36.603  31.721  33.604  1.00  0.00     0.010 A 
ATOM     81  C   UNL A   1      36.610  34.478  34.177  1.00  0.00     0.020 A 
ATOM     82  C   UNL A   1      35.499  32.521  33.272  1.00  0.00     0.020 A 
ATOM     83  C   UNL A   1      35.536  33.903  33.501  1.00  0.00     0.054 A 
BRANCH  83  84
ATOM     84  S   UNL A   1      34.373  34.988  32.599  1.00  0.00     0.124 S 
ATOM     85  O   UNL A   1      33.078  34.428  32.966  1.00  0.00    -0.237 OA
ATOM     86  O   UNL A   1      34.668  36.315  33.144  1.00  0.00    -0.237 OA
ATOM     87  O   UNL A   1      34.782  34.809  31.210  1.00  0.00    -0.744 OA
ENDBRANCH  83  84
ENDBRANCH  55  78
BRANCH  67  88
ATOM     88  C   UNL A   1      43.314  27.629  33.587  1.00  0.00    -0.014 A 
ATOM     89  C   UNL A   1      42.501  26.854  34.437  1.00  0.00     0.010 A 
ATOM     90  C   UNL A   1      44.591  27.116  33.285  1.00  0.00     0.010 A 
ATOM     91  C   UNL A   1      42.964  25.676  35.026  1.00  0.00     0.020 A 
ATOM     92  C   UNL A   1      45.041  25.904  33.813  1.00  0.00     0.020 A 
ATOM     93  C   UNL A   1      44.235  25.209  34.709  1.00  0.00     0.054 A 
BRANCH  93  94
ATOM     94  S   UNL A   1      44.798  23.658  35.444  1.00  0.00     0.124 S 
ATOM     95  O   UNL A   1      44.801  23.990  36.867  1.00  0.00    -0.237 OA
ATOM     96  O   UNL A   1      43.768  22.710  35.024  1.00  0.00    -0.237 OA
ATOM     97  O   UNL A   1      46.111  23.450  34.842  1.00  0.00    -0.744 OA
ENDBRANCH  93  94
ENDBRANCH  67  88
ENDBRANCH  41  42
ENDBRANCH  34  36
ENDBRANCH  33  34
ENDBRANCH  32  33
ENDBRANCH  31  32
ENDBRANCH   1  31
TORSDOF 20
ENDMDL
