MODEL 1
REMARK VINA RESULT:      -9.9      0.000      0.000
REMARK SMILES CCC1(C(=O)OCCOCCOC(=O)c2ccc(-c3c4nc(c(-c5ccc(S(=O)(=O)[O-])cc5)c5ccc([nH]5)c(-c5ccc(S(=O)(=O)[O-])cc5)c5nc(c(-c6ccc(S(=O)(=O)[O-])cc6)c6ccc3[nH]6)C=C5)C=C4)cc2)CCN(C(=O)C[C@H]2CSCC[NH2+]2)CC1
REMARK SMILES IDX 10 1 9 2 8 3 7 4 6 5 4 6 5 7 3 8 75 9 88 10 76 11 87 12
REMARK SMILES IDX 77 13 78 14 79 15 2 16 1 17 80 18 81 19 82 20 86 21 83 22
REMARK SMILES IDX 85 23 84 26 11 27 12 28 13 29 14 30 15 31 16 32 74 33 17 34
REMARK SMILES IDX 73 35 18 36 19 37 20 38 67 39 21 40 72 41 66 42 68 43 22 44
REMARK SMILES IDX 71 45 65 46 64 47 23 49 53 50 34 51 52 52 35 53 38 54 51 55
REMARK SMILES IDX 69 56 36 57 37 58 50 60 70 61 39 62 24 63 25 64 33 65 26 66
REMARK SMILES IDX 32 67 27 68 28 69 29 70 30 71 31 72 54 73 55 74 63 75 56 76
REMARK SMILES IDX 62 77 57 78 58 79 59 80 60 81 61 82 40 83 41 84 49 85 42 86
REMARK SMILES IDX 48 87 43 88 44 89 45 90 46 91 47 92
REMARK H PARENT 86 24 86 25 68 48 38 59
REMARK Flexibility Score: inf
ROOT
ATOM      1  C   UNL A   1      34.491  31.461  27.674  1.00  0.00     0.202 C 
ENDROOT
BRANCH   1   2
ATOM      2  O   UNL A   1      33.182  31.081  27.256  1.00  0.00    -0.374 OA
BRANCH   2   3
ATOM      3  C   UNL A   1      33.075  30.182  26.154  1.00  0.00     0.202 C 
BRANCH   3   4
ATOM      4  C   UNL A   1      32.623  28.749  26.454  1.00  0.00     0.261 C 
BRANCH   4   5
ATOM      5  O   UNL A   1      31.387  28.421  25.802  1.00  0.00    -0.463 OA
BRANCH   5   6
ATOM      6  C   UNL A   1      31.019  27.114  25.849  1.00  0.00     0.312 C 
ATOM      7  O   UNL A   1      30.991  26.436  26.870  1.00  0.00    -0.252 OA
BRANCH   6   8
ATOM      8  C   UNL A   1      30.668  26.536  24.468  1.00  0.00     0.071 C 
ATOM      9  C   UNL A   1      31.647  26.951  23.325  1.00  0.00     0.040 C 
ATOM     10  C   UNL A   1      30.750  25.002  24.678  1.00  0.00     0.040 C 
ATOM     11  C   UNL A   1      31.557  26.056  22.080  1.00  0.00     0.120 C 
ATOM     12  C   UNL A   1      30.612  24.225  23.378  1.00  0.00     0.120 C 
ATOM     13  N   UNL A   1      31.661  24.653  22.472  1.00  0.00    -0.342 N 
ATOM     14  C   UNL A   1      32.787  23.924  22.117  1.00  0.00     0.228 C 
ATOM     15  O   UNL A   1      33.616  24.366  21.316  1.00  0.00    -0.275 OA
BRANCH   8  16
ATOM     16  C   UNL A   1      29.198  26.930  24.127  1.00  0.00     0.015 C 
ATOM     17  C   UNL A   1      29.026  28.159  23.241  1.00  0.00     0.005 C 
ENDBRANCH   8  16
BRANCH  14  18
ATOM     18  C   UNL A   1      33.038  22.570  22.773  1.00  0.00     0.166 C 
BRANCH  18  19
ATOM     19  C   UNL A   1      33.943  22.718  24.018  1.00  0.00     0.201 C 
ATOM     20  C   UNL A   1      34.203  21.344  24.672  1.00  0.00     0.135 C 
ATOM     21  N   UNL A   1      35.234  23.333  23.635  1.00  0.00    -0.342 N 
ATOM     22  S   UNL A   1      35.026  21.520  26.284  1.00  0.00    -0.150 SA
ATOM     23  C   UNL A   1      36.061  23.658  24.815  1.00  0.00     0.271 C 
ATOM     24  H   UNL A   1      35.049  24.192  23.115  1.00  0.00     0.346 HD
ATOM     25  H   UNL A   1      35.747  22.662  23.063  1.00  0.00     0.346 HD
ATOM     26  C   UNL A   1      36.466  22.458  25.683  1.00  0.00     0.131 C 
ENDBRANCH  18  19
ENDBRANCH  14  18
ENDBRANCH   6   8
ENDBRANCH   5   6
ENDBRANCH   4   5
ENDBRANCH   3   4
ENDBRANCH   2   3
ENDBRANCH   1   2
BRANCH   1  27
ATOM     27  C   UNL A   1      34.646  32.115  29.053  1.00  0.00     0.261 C 
BRANCH  27  28
ATOM     28  O   UNL A   1      35.465  31.343  29.946  1.00  0.00    -0.460 OA
BRANCH  28  29
ATOM     29  C   UNL A   1      36.615  31.952  30.322  1.00  0.00     0.338 C 
ATOM     30  O   UNL A   1      36.724  32.983  30.976  1.00  0.00    -0.246 OA
BRANCH  29  31
ATOM     31  C   UNL A   1      37.769  31.099  29.995  1.00  0.00     0.060 A 
ATOM     32  C   UNL A   1      38.674  30.803  31.024  1.00  0.00     0.016 A 
ATOM     33  C   UNL A   1      38.006  30.668  28.689  1.00  0.00     0.016 A 
ATOM     34  C   UNL A   1      39.853  30.117  30.741  1.00  0.00     0.010 A 
ATOM     35  C   UNL A   1      39.196  29.995  28.404  1.00  0.00     0.010 A 
ATOM     36  C   UNL A   1      40.140  29.754  29.421  1.00  0.00    -0.014 A 
BRANCH  36  37
ATOM     37  C   UNL A   1      41.499  29.296  29.055  1.00  0.00     0.031 A 
ATOM     38  C   UNL A   1      42.607  30.314  29.018  1.00  0.00     0.074 A 
ATOM     39  C   UNL A   1      41.740  28.011  28.747  1.00  0.00     0.049 A 
ATOM     40  N   UNL A   1      43.836  30.184  28.597  1.00  0.00    -0.248 NA
ATOM     41  C   UNL A   1      42.278  31.660  29.520  1.00  0.00     0.031 C 
ATOM     42  C   UNL A   1      40.762  26.927  28.813  1.00  0.00     0.029 A 
ATOM     43  N   UNL A   1      42.886  27.406  28.298  1.00  0.00    -0.354 N 
ATOM     44  C   UNL A   1      44.422  31.434  28.760  1.00  0.00     0.074 A 
ATOM     45  C   UNL A   1      43.411  32.312  29.305  1.00  0.00     0.031 C 
ATOM     46  C   UNL A   1      41.346  25.790  28.394  1.00  0.00     0.029 A 
ATOM     47  C   UNL A   1      42.721  26.078  27.991  1.00  0.00     0.049 A 
ATOM     48  H   UNL A   1      43.746  27.879  28.205  1.00  0.00     0.167 HD
ATOM     49  C   UNL A   1      45.689  31.818  28.473  1.00  0.00     0.031 A 
ATOM     50  C   UNL A   1      43.573  25.206  27.416  1.00  0.00     0.031 A 
ATOM     51  C   UNL A   1      46.681  30.941  27.915  1.00  0.00     0.049 A 
ATOM     52  C   UNL A   1      44.954  25.671  27.034  1.00  0.00     0.074 A 
ATOM     53  C   UNL A   1      47.993  31.228  27.580  1.00  0.00     0.029 A 
ATOM     54  N   UNL A   1      46.470  29.606  27.606  1.00  0.00    -0.354 N 
ATOM     55  N   UNL A   1      45.495  26.857  27.184  1.00  0.00    -0.248 NA
ATOM     56  C   UNL A   1      45.842  24.680  26.407  1.00  0.00     0.031 C 
ATOM     57  C   UNL A   1      48.561  30.077  27.025  1.00  0.00     0.029 A 
ATOM     58  C   UNL A   1      47.621  29.058  27.070  1.00  0.00     0.049 A 
ATOM     59  H   UNL A   1      45.625  29.120  27.747  1.00  0.00     0.167 HD
ATOM     60  C   UNL A   1      46.797  26.745  26.707  1.00  0.00     0.074 A 
ATOM     61  C   UNL A   1      46.962  25.377  26.261  1.00  0.00     0.031 C 
ATOM     62  C   UNL A   1      47.770  27.687  26.651  1.00  0.00     0.031 A 
BRANCH  49  63
ATOM     63  C   UNL A   1      46.051  33.259  28.715  1.00  0.00    -0.014 A 
ATOM     64  C   UNL A   1      46.599  33.679  29.940  1.00  0.00     0.010 A 
ATOM     65  C   UNL A   1      45.862  34.203  27.688  1.00  0.00     0.010 A 
ATOM     66  C   UNL A   1      46.913  35.024  30.148  1.00  0.00     0.020 A 
ATOM     67  C   UNL A   1      46.201  35.544  27.884  1.00  0.00     0.020 A 
ATOM     68  C   UNL A   1      46.708  35.950  29.120  1.00  0.00     0.054 A 
BRANCH  68  69
ATOM     69  S   UNL A   1      47.139  37.688  29.411  1.00  0.00     0.124 S 
ATOM     70  O   UNL A   1      47.442  38.151  28.059  1.00  0.00    -0.237 OA
ATOM     71  O   UNL A   1      45.916  38.227  30.000  1.00  0.00    -0.237 OA
ATOM     72  O   UNL A   1      48.283  37.615  30.316  1.00  0.00    -0.744 OA
ENDBRANCH  68  69
ENDBRANCH  49  63
BRANCH  50  73
ATOM     73  C   UNL A   1      43.132  23.811  27.141  1.00  0.00    -0.014 A 
ATOM     74  C   UNL A   1      42.727  23.429  25.852  1.00  0.00     0.010 A 
ATOM     75  C   UNL A   1      43.125  22.854  28.174  1.00  0.00     0.010 A 
ATOM     76  C   UNL A   1      42.313  22.117  25.600  1.00  0.00     0.020 A 
ATOM     77  C   UNL A   1      42.737  21.536  27.920  1.00  0.00     0.020 A 
ATOM     78  C   UNL A   1      42.324  21.178  26.636  1.00  0.00     0.054 A 
BRANCH  78  79
ATOM     79  S   UNL A   1      41.843  19.466  26.274  1.00  0.00     0.124 S 
ATOM     80  O   UNL A   1      42.625  19.179  25.076  1.00  0.00    -0.237 OA
ATOM     81  O   UNL A   1      42.253  18.759  27.484  1.00  0.00    -0.237 OA
ATOM     82  O   UNL A   1      40.398  19.556  26.075  1.00  0.00    -0.744 OA
ENDBRANCH  78  79
ENDBRANCH  50  73
BRANCH  62  83
ATOM     83  C   UNL A   1      49.126  27.267  26.152  1.00  0.00    -0.014 A 
ATOM     84  C   UNL A   1      49.463  27.342  24.790  1.00  0.00     0.010 A 
ATOM     85  C   UNL A   1      50.111  26.888  27.085  1.00  0.00     0.010 A 
ATOM     86  C   UNL A   1      50.760  27.032  24.368  1.00  0.00     0.020 A 
ATOM     87  C   UNL A   1      51.412  26.601  26.669  1.00  0.00     0.020 A 
ATOM     88  C   UNL A   1      51.726  26.668  25.311  1.00  0.00     0.054 A 
BRANCH  88  89
ATOM     89  S   UNL A   1      53.421  26.347  24.748  1.00  0.00     0.124 S 
ATOM     90  O   UNL A   1      53.551  27.279  23.631  1.00  0.00    -0.237 OA
ATOM     91  O   UNL A   1      54.218  26.667  25.929  1.00  0.00    -0.237 OA
ATOM     92  O   UNL A   1      53.402  24.934  24.380  1.00  0.00    -0.744 OA
ENDBRANCH  88  89
ENDBRANCH  62  83
ENDBRANCH  36  37
ENDBRANCH  29  31
ENDBRANCH  28  29
ENDBRANCH  27  28
ENDBRANCH   1  27
TORSDOF 20
ENDMDL
MODEL 2
REMARK VINA RESULT:      -9.8      6.106     11.869
REMARK SMILES CCC1(C(=O)OCCOCCOC(=O)c2ccc(-c3c4nc(c(-c5ccc(S(=O)(=O)[O-])cc5)c5ccc([nH]5)c(-c5ccc(S(=O)(=O)[O-])cc5)c5nc(c(-c6ccc(S(=O)(=O)[O-])cc6)c6ccc3[nH]6)C=C5)C=C4)cc2)CCN(C(=O)C[C@H]2CSCC[NH2+]2)CC1
REMARK SMILES IDX 10 1 9 2 8 3 7 4 6 5 4 6 5 7 3 8 75 9 88 10 76 11 87 12
REMARK SMILES IDX 77 13 78 14 79 15 2 16 1 17 80 18 81 19 82 20 86 21 83 22
REMARK SMILES IDX 85 23 84 26 11 27 12 28 13 29 14 30 15 31 16 32 74 33 17 34
REMARK SMILES IDX 73 35 18 36 19 37 20 38 67 39 21 40 72 41 66 42 68 43 22 44
REMARK SMILES IDX 71 45 65 46 64 47 23 49 53 50 34 51 52 52 35 53 38 54 51 55
REMARK SMILES IDX 69 56 36 57 37 58 50 60 70 61 39 62 24 63 25 64 33 65 26 66
REMARK SMILES IDX 32 67 27 68 28 69 29 70 30 71 31 72 54 73 55 74 63 75 56 76
REMARK SMILES IDX 62 77 57 78 58 79 59 80 60 81 61 82 40 83 41 84 49 85 42 86
REMARK SMILES IDX 48 87 43 88 44 89 45 90 46 91 47 92
REMARK H PARENT 86 24 86 25 68 48 38 59
REMARK Flexibility Score: inf
ROOT
ATOM      1  C   UNL A   1      39.831  21.927  26.779  1.00  0.00     0.202 C 
ENDROOT
BRANCH   1   2
ATOM      2  O   UNL A   1      38.736  21.536  25.952  1.00  0.00    -0.374 OA
BRANCH   2   3
ATOM      3  C   UNL A   1      37.779  22.535  25.607  1.00  0.00     0.202 C 
BRANCH   3   4
ATOM      4  C   UNL A   1      36.425  22.058  25.071  1.00  0.00     0.261 C 
BRANCH   4   5
ATOM      5  O   UNL A   1      35.480  23.132  24.947  1.00  0.00    -0.463 OA
BRANCH   5   6
ATOM      6  C   UNL A   1      35.059  23.409  23.686  1.00  0.00     0.312 C 
ATOM      7  O   UNL A   1      35.788  23.447  22.701  1.00  0.00    -0.252 OA
BRANCH   6   8
ATOM      8  C   UNL A   1      33.553  23.715  23.606  1.00  0.00     0.071 C 
ATOM      9  C   UNL A   1      32.906  24.135  24.963  1.00  0.00     0.040 C 
ATOM     10  C   UNL A   1      33.469  24.901  22.612  1.00  0.00     0.040 C 
ATOM     11  C   UNL A   1      31.550  24.840  24.808  1.00  0.00     0.120 C 
ATOM     12  C   UNL A   1      32.070  25.489  22.520  1.00  0.00     0.120 C 
ATOM     13  N   UNL A   1      31.667  25.928  23.843  1.00  0.00    -0.342 N 
ATOM     14  C   UNL A   1      31.568  27.243  24.277  1.00  0.00     0.228 C 
ATOM     15  O   UNL A   1      31.192  27.519  25.419  1.00  0.00    -0.275 OA
BRANCH   8  16
ATOM     16  C   UNL A   1      32.830  22.477  22.992  1.00  0.00     0.015 C 
ATOM     17  C   UNL A   1      32.710  21.257  23.900  1.00  0.00     0.005 C 
ENDBRANCH   8  16
BRANCH  14  18
ATOM     18  C   UNL A   1      31.987  28.372  23.340  1.00  0.00     0.166 C 
BRANCH  18  19
ATOM     19  C   UNL A   1      30.793  29.306  23.032  1.00  0.00     0.201 C 
ATOM     20  C   UNL A   1      29.542  28.487  22.648  1.00  0.00     0.135 C 
ATOM     21  N   UNL A   1      30.489  30.146  24.213  1.00  0.00    -0.342 N 
ATOM     22  S   UNL A   1      28.215  29.557  22.015  1.00  0.00    -0.150 SA
ATOM     23  C   UNL A   1      29.475  31.176  23.909  1.00  0.00     0.271 C 
ATOM     24  H   UNL A   1      31.347  30.607  24.519  1.00  0.00     0.346 HD
ATOM     25  H   UNL A   1      30.117  29.541  24.945  1.00  0.00     0.346 HD
ATOM     26  C   UNL A   1      28.104  30.640  23.474  1.00  0.00     0.131 C 
ENDBRANCH  18  19
ENDBRANCH  14  18
ENDBRANCH   6   8
ENDBRANCH   5   6
ENDBRANCH   4   5
ENDBRANCH   3   4
ENDBRANCH   2   3
ENDBRANCH   1   2
BRANCH   1  27
ATOM     27  C   UNL A   1      40.772  23.021  26.259  1.00  0.00     0.261 C 
BRANCH  27  28
ATOM     28  O   UNL A   1      40.217  24.340  26.389  1.00  0.00    -0.460 OA
BRANCH  28  29
ATOM     29  C   UNL A   1      41.115  25.343  26.243  1.00  0.00     0.338 C 
ATOM     30  O   UNL A   1      41.672  25.691  25.208  1.00  0.00    -0.246 OA
BRANCH  29  31
ATOM     31  C   UNL A   1      41.213  26.118  27.490  1.00  0.00     0.060 A 
ATOM     32  C   UNL A   1      40.193  25.961  28.439  1.00  0.00     0.016 A 
ATOM     33  C   UNL A   1      42.239  27.044  27.692  1.00  0.00     0.016 A 
ATOM     34  C   UNL A   1      40.163  26.770  29.573  1.00  0.00     0.010 A 
ATOM     35  C   UNL A   1      42.199  27.863  28.821  1.00  0.00     0.010 A 
ATOM     36  C   UNL A   1      41.139  27.757  29.742  1.00  0.00    -0.014 A 
BRANCH  36  37
ATOM     37  C   UNL A   1      40.963  28.807  30.770  1.00  0.00     0.031 A 
ATOM     38  C   UNL A   1      41.825  28.749  32.002  1.00  0.00     0.074 A 
ATOM     39  C   UNL A   1      40.048  29.779  30.621  1.00  0.00     0.049 A 
ATOM     40  N   UNL A   1      41.762  29.466  33.091  1.00  0.00    -0.248 NA
ATOM     41  C   UNL A   1      42.902  27.742  32.002  1.00  0.00     0.031 C 
ATOM     42  C   UNL A   1      39.204  29.973  29.443  1.00  0.00     0.029 A 
ATOM     43  N   UNL A   1      39.665  30.776  31.481  1.00  0.00    -0.354 N 
ATOM     44  C   UNL A   1      42.771  28.983  33.917  1.00  0.00     0.074 A 
ATOM     45  C   UNL A   1      43.423  27.905  33.209  1.00  0.00     0.031 C 
ATOM     46  C   UNL A   1      38.382  31.015  29.666  1.00  0.00     0.029 A 
ATOM     47  C   UNL A   1      38.614  31.528  31.015  1.00  0.00     0.049 A 
ATOM     48  H   UNL A   1      40.101  30.938  32.350  1.00  0.00     0.167 HD
ATOM     49  C   UNL A   1      43.118  29.399  35.159  1.00  0.00     0.031 A 
ATOM     50  C   UNL A   1      37.899  32.495  31.625  1.00  0.00     0.031 A 
ATOM     51  C   UNL A   1      42.452  30.461  35.861  1.00  0.00     0.049 A 
ATOM     52  C   UNL A   1      38.251  32.892  33.035  1.00  0.00     0.074 A 
ATOM     53  C   UNL A   1      42.718  30.958  37.125  1.00  0.00     0.029 A 
ATOM     54  N   UNL A   1      41.383  31.188  35.359  1.00  0.00    -0.354 N 
ATOM     55  N   UNL A   1      39.200  32.423  33.809  1.00  0.00    -0.248 NA
ATOM     56  C   UNL A   1      37.437  33.948  33.653  1.00  0.00     0.031 C 
ATOM     57  C   UNL A   1      41.779  31.956  37.405  1.00  0.00     0.029 A 
ATOM     58  C   UNL A   1      40.967  32.120  36.293  1.00  0.00     0.049 A 
ATOM     59  H   UNL A   1      40.980  31.061  34.470  1.00  0.00     0.167 HD
ATOM     60  C   UNL A   1      39.124  33.154  34.990  1.00  0.00     0.074 A 
ATOM     61  C   UNL A   1      38.033  34.094  34.830  1.00  0.00     0.031 C 
ATOM     62  C   UNL A   1      39.892  33.061  36.103  1.00  0.00     0.031 A 
BRANCH  49  63
ATOM     63  C   UNL A   1      44.237  28.667  35.849  1.00  0.00    -0.014 A 
ATOM     64  C   UNL A   1      43.988  27.535  36.646  1.00  0.00     0.010 A 
ATOM     65  C   UNL A   1      45.563  29.106  35.677  1.00  0.00     0.010 A 
ATOM     66  C   UNL A   1      45.042  26.880  37.289  1.00  0.00     0.020 A 
ATOM     67  C   UNL A   1      46.621  28.437  36.297  1.00  0.00     0.020 A 
ATOM     68  C   UNL A   1      46.352  27.337  37.115  1.00  0.00     0.054 A 
BRANCH  68  69
ATOM     69  S   UNL A   1      47.702  26.460  37.950  1.00  0.00     0.124 S 
ATOM     70  O   UNL A   1      46.972  25.615  38.893  1.00  0.00    -0.237 OA
ATOM     71  O   UNL A   1      48.354  25.754  36.850  1.00  0.00    -0.237 OA
ATOM     72  O   UNL A   1      48.491  27.530  38.554  1.00  0.00    -0.744 OA
ENDBRANCH  68  69
ENDBRANCH  49  63
BRANCH  50  73
ATOM     73  C   UNL A   1      36.760  33.134  30.911  1.00  0.00    -0.014 A 
ATOM     74  C   UNL A   1      35.440  32.715  31.149  1.00  0.00     0.010 A 
ATOM     75  C   UNL A   1      36.994  34.177  29.995  1.00  0.00     0.010 A 
ATOM     76  C   UNL A   1      34.374  33.320  30.475  1.00  0.00     0.020 A 
ATOM     77  C   UNL A   1      35.929  34.801  29.340  1.00  0.00     0.020 A 
ATOM     78  C   UNL A   1      34.625  34.362  29.577  1.00  0.00     0.054 A 
BRANCH  78  79
ATOM     79  S   UNL A   1      33.223  35.174  28.761  1.00  0.00     0.124 S 
ATOM     80  O   UNL A   1      32.619  34.069  28.024  1.00  0.00    -0.237 OA
ATOM     81  O   UNL A   1      32.450  35.681  29.892  1.00  0.00    -0.237 OA
ATOM     82  O   UNL A   1      33.859  36.204  27.942  1.00  0.00    -0.744 OA
ENDBRANCH  78  79
ENDBRANCH  50  73
BRANCH  62  83
ATOM     83  C   UNL A   1      39.635  34.039  37.218  1.00  0.00    -0.014 A 
ATOM     84  C   UNL A   1      38.882  33.683  38.350  1.00  0.00     0.010 A 
ATOM     85  C   UNL A   1      40.247  35.307  37.171  1.00  0.00     0.010 A 
ATOM     86  C   UNL A   1      38.736  34.582  39.410  1.00  0.00     0.020 A 
ATOM     87  C   UNL A   1      40.123  36.198  38.238  1.00  0.00     0.020 A 
ATOM     88  C   UNL A   1      39.362  35.832  39.349  1.00  0.00     0.054 A 
BRANCH  88  89
ATOM     89  S   UNL A   1      39.224  36.950  40.771  1.00  0.00     0.124 S 
ATOM     90  O   UNL A   1      38.556  36.105  41.757  1.00  0.00    -0.237 OA
ATOM     91  O   UNL A   1      40.618  37.275  41.061  1.00  0.00    -0.237 OA
ATOM     92  O   UNL A   1      38.424  38.062  40.261  1.00  0.00    -0.744 OA
ENDBRANCH  88  89
ENDBRANCH  62  83
ENDBRANCH  36  37
ENDBRANCH  29  31
ENDBRANCH  28  29
ENDBRANCH  27  28
ENDBRANCH   1  27
TORSDOF 20
ENDMDL
MODEL 3
REMARK VINA RESULT:      -9.8      5.913     10.521
REMARK SMILES CCC1(C(=O)OCCOCCOC(=O)c2ccc(-c3c4nc(c(-c5ccc(S(=O)(=O)[O-])cc5)c5ccc([nH]5)c(-c5ccc(S(=O)(=O)[O-])cc5)c5nc(c(-c6ccc(S(=O)(=O)[O-])cc6)c6ccc3[nH]6)C=C5)C=C4)cc2)CCN(C(=O)C[C@H]2CSCC[NH2+]2)CC1
REMARK SMILES IDX 10 1 9 2 8 3 7 4 6 5 4 6 5 7 3 8 75 9 88 10 76 11 87 12
REMARK SMILES IDX 77 13 78 14 79 15 2 16 1 17 80 18 81 19 82 20 86 21 83 22
REMARK SMILES IDX 85 23 84 26 11 27 12 28 13 29 14 30 15 31 16 32 74 33 17 34
REMARK SMILES IDX 73 35 18 36 19 37 20 38 67 39 21 40 72 41 66 42 68 43 22 44
REMARK SMILES IDX 71 45 65 46 64 47 23 49 53 50 34 51 52 52 35 53 38 54 51 55
REMARK SMILES IDX 69 56 36 57 37 58 50 60 70 61 39 62 24 63 25 64 33 65 26 66
REMARK SMILES IDX 32 67 27 68 28 69 29 70 30 71 31 72 54 73 55 74 63 75 56 76
REMARK SMILES IDX 62 77 57 78 58 79 59 80 60 81 61 82 40 83 41 84 49 85 42 86
REMARK SMILES IDX 48 87 43 88 44 89 45 90 46 91 47 92
REMARK H PARENT 86 24 86 25 68 48 38 59
REMARK Flexibility Score: inf
ROOT
ATOM      1  C   UNL A   1      33.756  30.544  27.535  1.00  0.00     0.202 C 
ENDROOT
BRANCH   1   2
ATOM      2  O   UNL A   1      33.280  30.450  26.194  1.00  0.00    -0.374 OA
BRANCH   2   3
ATOM      3  C   UNL A   1      31.884  30.232  26.002  1.00  0.00     0.202 C 
BRANCH   3   4
ATOM      4  C   UNL A   1      31.472  29.072  25.089  1.00  0.00     0.261 C 
BRANCH   4   5
ATOM      5  O   UNL A   1      32.120  27.842  25.446  1.00  0.00    -0.463 OA
BRANCH   5   6
ATOM      6  C   UNL A   1      31.384  26.977  26.190  1.00  0.00     0.312 C 
ATOM      7  O   UNL A   1      31.087  27.149  27.367  1.00  0.00    -0.252 OA
BRANCH   6   8
ATOM      8  C   UNL A   1      30.977  25.711  25.417  1.00  0.00     0.071 C 
ATOM      9  C   UNL A   1      31.819  25.441  24.130  1.00  0.00     0.040 C 
ATOM     10  C   UNL A   1      31.216  24.564  26.433  1.00  0.00     0.040 C 
ATOM     11  C   UNL A   1      31.711  23.998  23.614  1.00  0.00     0.120 C 
ATOM     12  C   UNL A   1      31.046  23.187  25.811  1.00  0.00     0.120 C 
ATOM     13  N   UNL A   1      31.974  23.062  24.704  1.00  0.00    -0.342 N 
ATOM     14  C   UNL A   1      33.131  22.295  24.684  1.00  0.00     0.228 C 
ATOM     15  O   UNL A   1      33.848  22.235  23.682  1.00  0.00    -0.275 OA
BRANCH   8  16
ATOM     16  C   UNL A   1      29.455  25.799  25.091  1.00  0.00     0.015 C 
ATOM     17  C   UNL A   1      29.086  26.588  23.838  1.00  0.00     0.005 C 
ENDBRANCH   8  16
BRANCH  14  18
ATOM     18  C   UNL A   1      33.556  21.553  25.947  1.00  0.00     0.166 C 
BRANCH  18  19
ATOM     19  C   UNL A   1      33.727  20.041  25.669  1.00  0.00     0.201 C 
ATOM     20  C   UNL A   1      32.478  19.471  24.962  1.00  0.00     0.135 C 
ATOM     21  N   UNL A   1      34.920  19.814  24.823  1.00  0.00    -0.342 N 
ATOM     22  S   UNL A   1      32.535  17.655  24.876  1.00  0.00    -0.150 SA
ATOM     23  C   UNL A   1      35.226  18.376  24.678  1.00  0.00     0.271 C 
ATOM     24  H   UNL A   1      35.721  20.280  25.250  1.00  0.00     0.346 HD
ATOM     25  H   UNL A   1      34.727  20.192  23.895  1.00  0.00     0.346 HD
ATOM     26  C   UNL A   1      34.130  17.535  24.006  1.00  0.00     0.131 C 
ENDBRANCH  18  19
ENDBRANCH  14  18
ENDBRANCH   6   8
ENDBRANCH   5   6
ENDBRANCH   4   5
ENDBRANCH   3   4
ENDBRANCH   2   3
ENDBRANCH   1   2
BRANCH   1  27
ATOM     27  C   UNL A   1      34.392  31.866  27.983  1.00  0.00     0.261 C 
BRANCH  27  28
ATOM     28  O   UNL A   1      33.633  33.016  27.576  1.00  0.00    -0.460 OA
BRANCH  28  29
ATOM     29  C   UNL A   1      33.583  34.010  28.495  1.00  0.00     0.338 C 
ATOM     30  O   UNL A   1      32.697  34.845  28.630  1.00  0.00    -0.246 OA
BRANCH  29  31
ATOM     31  C   UNL A   1      34.676  33.853  29.468  1.00  0.00     0.060 A 
ATOM     32  C   UNL A   1      35.961  34.257  29.077  1.00  0.00     0.016 A 
ATOM     33  C   UNL A   1      34.464  33.245  30.707  1.00  0.00     0.016 A 
ATOM     34  C   UNL A   1      37.053  34.005  29.903  1.00  0.00     0.010 A 
ATOM     35  C   UNL A   1      35.563  32.980  31.527  1.00  0.00     0.010 A 
ATOM     36  C   UNL A   1      36.863  33.322  31.109  1.00  0.00    -0.014 A 
BRANCH  36  37
ATOM     37  C   UNL A   1      38.027  32.789  31.853  1.00  0.00     0.031 A 
ATOM     38  C   UNL A   1      38.761  31.610  31.275  1.00  0.00     0.074 A 
ATOM     39  C   UNL A   1      38.412  33.329  33.021  1.00  0.00     0.049 A 
ATOM     40  N   UNL A   1      39.713  30.888  31.802  1.00  0.00    -0.248 NA
ATOM     41  C   UNL A   1      38.363  31.189  29.920  1.00  0.00     0.031 C 
ATOM     42  C   UNL A   1      37.819  34.512  33.643  1.00  0.00     0.029 A 
ATOM     43  N   UNL A   1      39.387  32.935  33.901  1.00  0.00    -0.354 N 
ATOM     44  C   UNL A   1      40.011  29.912  30.857  1.00  0.00     0.074 A 
ATOM     45  C   UNL A   1      39.132  30.128  29.730  1.00  0.00     0.031 C 
ATOM     46  C   UNL A   1      38.430  34.734  34.821  1.00  0.00     0.029 A 
ATOM     47  C   UNL A   1      39.423  33.686  35.052  1.00  0.00     0.049 A 
ATOM     48  H   UNL A   1      40.004  32.187  33.726  1.00  0.00     0.167 HD
ATOM     49  C   UNL A   1      40.932  28.921  30.927  1.00  0.00     0.031 A 
ATOM     50  C   UNL A   1      40.147  33.519  36.176  1.00  0.00     0.031 A 
ATOM     51  C   UNL A   1      41.789  28.707  32.060  1.00  0.00     0.049 A 
ATOM     52  C   UNL A   1      41.113  32.366  36.265  1.00  0.00     0.074 A 
ATOM     53  C   UNL A   1      42.753  27.729  32.237  1.00  0.00     0.029 A 
ATOM     54  N   UNL A   1      41.784  29.480  33.210  1.00  0.00    -0.354 N 
ATOM     55  N   UNL A   1      41.380  31.445  35.370  1.00  0.00    -0.248 NA
ATOM     56  C   UNL A   1      41.875  32.230  37.515  1.00  0.00     0.031 C 
ATOM     57  C   UNL A   1      43.298  27.885  33.516  1.00  0.00     0.029 A 
ATOM     58  C   UNL A   1      42.716  28.994  34.110  1.00  0.00     0.049 A 
ATOM     59  H   UNL A   1      41.203  30.260  33.365  1.00  0.00     0.167 HD
ATOM     60  C   UNL A   1      42.370  30.645  35.931  1.00  0.00     0.074 A 
ATOM     61  C   UNL A   1      42.651  31.188  37.245  1.00  0.00     0.031 C 
ATOM     62  C   UNL A   1      42.994  29.563  35.404  1.00  0.00     0.031 A 
BRANCH  49  63
ATOM     63  C   UNL A   1      41.020  27.971  29.763  1.00  0.00    -0.014 A 
ATOM     64  C   UNL A   1      40.017  27.014  29.523  1.00  0.00     0.010 A 
ATOM     65  C   UNL A   1      42.113  28.054  28.881  1.00  0.00     0.010 A 
ATOM     66  C   UNL A   1      40.127  26.133  28.445  1.00  0.00     0.020 A 
ATOM     67  C   UNL A   1      42.212  27.191  27.787  1.00  0.00     0.020 A 
ATOM     68  C   UNL A   1      41.226  26.223  27.586  1.00  0.00     0.054 A 
BRANCH  68  69
ATOM     69  S   UNL A   1      41.336  25.076  26.185  1.00  0.00     0.124 S 
ATOM     70  O   UNL A   1      41.300  25.990  25.046  1.00  0.00    -0.237 OA
ATOM     71  O   UNL A   1      42.616  24.411  26.415  1.00  0.00    -0.237 OA
ATOM     72  O   UNL A   1      40.159  24.225  26.339  1.00  0.00    -0.744 OA
ENDBRANCH  68  69
ENDBRANCH  49  63
BRANCH  50  73
ATOM     73  C   UNL A   1      39.966  34.456  37.319  1.00  0.00    -0.014 A 
ATOM     74  C   UNL A   1      39.081  34.146  38.365  1.00  0.00     0.010 A 
ATOM     75  C   UNL A   1      40.689  35.662  37.368  1.00  0.00     0.010 A 
ATOM     76  C   UNL A   1      38.914  35.029  39.436  1.00  0.00     0.020 A 
ATOM     77  C   UNL A   1      40.545  36.535  38.450  1.00  0.00     0.020 A 
ATOM     78  C   UNL A   1      39.650  36.218  39.473  1.00  0.00     0.054 A 
BRANCH  78  79
ATOM     79  S   UNL A   1      39.466  37.320  40.902  1.00  0.00     0.124 S 
ATOM     80  O   UNL A   1      40.840  37.756  41.129  1.00  0.00    -0.237 OA
ATOM     81  O   UNL A   1      38.550  38.341  40.399  1.00  0.00    -0.237 OA
ATOM     82  O   UNL A   1      38.905  36.447  41.932  1.00  0.00    -0.744 OA
ENDBRANCH  78  79
ENDBRANCH  50  73
BRANCH  62  83
ATOM     83  C   UNL A   1      44.093  28.925  36.210  1.00  0.00    -0.014 A 
ATOM     84  C   UNL A   1      43.855  27.796  37.012  1.00  0.00     0.010 A 
ATOM     85  C   UNL A   1      45.409  29.409  36.077  1.00  0.00     0.010 A 
ATOM     86  C   UNL A   1      44.914  27.170  37.678  1.00  0.00     0.020 A 
ATOM     87  C   UNL A   1      46.471  28.772  36.721  1.00  0.00     0.020 A 
ATOM     88  C   UNL A   1      46.215  27.660  37.524  1.00  0.00     0.054 A 
BRANCH  88  89
ATOM     89  S   UNL A   1      47.581  26.783  38.334  1.00  0.00     0.124 S 
ATOM     90  O   UNL A   1      47.186  25.386  38.167  1.00  0.00    -0.237 OA
ATOM     91  O   UNL A   1      48.741  27.206  37.554  1.00  0.00    -0.237 OA
ATOM     92  O   UNL A   1      47.546  27.280  39.707  1.00  0.00    -0.744 OA
ENDBRANCH  88  89
ENDBRANCH  62  83
ENDBRANCH  36  37
ENDBRANCH  29  31
ENDBRANCH  28  29
ENDBRANCH  27  28
ENDBRANCH   1  27
TORSDOF 20
ENDMDL
