MODEL 1
REMARK VINA RESULT:     -10.0      0.000      0.000
REMARK SMILES CC(=O)c1cc(C(=O)NC[C@H]2CC[C@H](C(=O)OCCOCCOC(=O)c3ccc(-c4c5nc(c(-c6ccc(S(=O)(=O)[O-])cc6)c6ccc([nH]6)c(-c6ccc(S(=O)(=O)[O-])cc6)c6nc(c(-c7ccc(S(=O)(=O)[O-])cc7)c7ccc4[nH]7)C=C6)C=C5)cc3)O2)n(C)c1
REMARK SMILES IDX 19 1 18 2 17 3 15 4 16 5 14 6 11 7 12 8 86 9 13 10 10 11
REMARK SMILES IDX 9 12 7 13 8 14 6 16 4 17 5 18 89 19 87 20 88 21 2 22 1 23
REMARK SMILES IDX 3 24 20 25 21 26 22 27 23 28 24 29 25 30 26 31 27 32 85 33
REMARK SMILES IDX 28 34 84 35 29 36 30 37 31 38 78 39 32 40 83 41 77 42 79 43
REMARK SMILES IDX 33 44 82 45 76 46 75 47 34 49 64 50 45 51 63 52 46 53 49 54
REMARK SMILES IDX 62 55 80 56 47 57 48 58 61 60 81 61 50 62 35 63 36 64 44 65
REMARK SMILES IDX 37 66 43 67 38 68 39 69 40 70 41 71 42 72 65 73 66 74 74 75
REMARK SMILES IDX 67 76 73 77 68 78 69 79 70 80 71 81 72 82 51 83 52 84 60 85
REMARK SMILES IDX 53 86 59 87 54 88 55 89 56 90 57 91 58 92
REMARK H PARENT 9 15 79 48 49 59
REMARK Flexibility Score: inf
ROOT
ATOM      1  C   UNL A   1      40.632  21.202  27.183  1.00  0.00     0.202 C 
ENDROOT
BRANCH   1   2
ATOM      2  C   UNL A   1      39.857  21.453  25.887  1.00  0.00     0.261 C 
BRANCH   2   3
ATOM      3  O   UNL A   1      38.444  21.486  26.148  1.00  0.00    -0.461 OA
BRANCH   3   4
ATOM      4  C   UNL A   1      37.733  22.456  25.514  1.00  0.00     0.335 C 
ATOM      5  O   UNL A   1      37.951  23.659  25.607  1.00  0.00    -0.249 OA
BRANCH   4   6
ATOM      6  C   UNL A   1      36.622  21.868  24.622  1.00  0.00     0.228 C 
ATOM      7  C   UNL A   1      34.592  22.633  25.412  1.00  0.00     0.138 C 
ATOM      8  C   UNL A   1      34.787  21.241  25.994  1.00  0.00     0.037 C 
ATOM      9  O   UNL A   1      35.586  22.824  24.386  1.00  0.00    -0.361 OA
ATOM     10  C   UNL A   1      35.880  20.648  25.140  1.00  0.00     0.047 C 
BRANCH   7  11
ATOM     11  C   UNL A   1      33.204  22.876  24.829  1.00  0.00     0.148 C 
BRANCH  11  12
ATOM     12  N   UNL A   1      32.156  22.953  25.829  1.00  0.00    -0.348 N 
ATOM     13  C   UNL A   1      31.417  24.013  26.277  1.00  0.00     0.268 C 
ATOM     14  O   UNL A   1      30.670  23.794  27.233  1.00  0.00    -0.268 OA
ATOM     15  H   UNL A   1      31.940  22.095  26.260  1.00  0.00     0.163 HD
BRANCH  13  16
ATOM     16  C   UNL A   1      31.542  25.343  25.698  1.00  0.00     0.107 A 
ATOM     17  C   UNL A   1      31.993  27.600  25.562  1.00  0.00     0.036 A 
ATOM     18  C   UNL A   1      32.076  26.441  26.378  1.00  0.00     0.045 A 
ATOM     19  C   UNL A   1      31.435  27.171  24.377  1.00  0.00     0.097 A 
ATOM     20  N   UNL A   1      31.079  25.851  24.499  1.00  0.00    -0.346 N 
ATOM     21  C   UNL A   1      30.203  25.226  23.533  1.00  0.00     0.150 C 
BRANCH  17  22
ATOM     22  C   UNL A   1      32.359  28.988  25.843  1.00  0.00     0.161 C 
ATOM     23  C   UNL A   1      32.163  29.517  27.239  1.00  0.00     0.093 C 
ATOM     24  O   UNL A   1      32.826  29.716  24.967  1.00  0.00    -0.294 OA
ENDBRANCH  17  22
ENDBRANCH  13  16
ENDBRANCH  11  12
ENDBRANCH   7  11
ENDBRANCH   4   6
ENDBRANCH   3   4
ENDBRANCH   2   3
ENDBRANCH   1   2
BRANCH   1  25
ATOM     25  O   UNL A   1      41.988  21.654  27.210  1.00  0.00    -0.374 OA
BRANCH  25  26
ATOM     26  C   UNL A   1      42.574  22.082  25.984  1.00  0.00     0.202 C 
BRANCH  26  27
ATOM     27  C   UNL A   1      42.886  23.579  25.835  1.00  0.00     0.261 C 
BRANCH  27  28
ATOM     28  O   UNL A   1      41.719  24.415  25.935  1.00  0.00    -0.460 OA
BRANCH  28  29
ATOM     29  C   UNL A   1      41.983  25.742  25.890  1.00  0.00     0.338 C 
ATOM     30  O   UNL A   1      42.075  26.439  24.880  1.00  0.00    -0.246 OA
BRANCH  29  31
ATOM     31  C   UNL A   1      41.987  26.338  27.235  1.00  0.00     0.060 A 
ATOM     32  C   UNL A   1      40.952  25.958  28.099  1.00  0.00     0.016 A 
ATOM     33  C   UNL A   1      42.883  27.345  27.603  1.00  0.00     0.016 A 
ATOM     34  C   UNL A   1      40.772  26.625  29.307  1.00  0.00     0.010 A 
ATOM     35  C   UNL A   1      42.695  28.018  28.821  1.00  0.00     0.010 A 
ATOM     36  C   UNL A   1      41.612  27.691  29.657  1.00  0.00    -0.014 A 
BRANCH  36  37
ATOM     37  C   UNL A   1      41.237  28.530  30.825  1.00  0.00     0.031 A 
ATOM     38  C   UNL A   1      42.060  28.451  32.087  1.00  0.00     0.074 A 
ATOM     39  C   UNL A   1      40.248  29.438  30.725  1.00  0.00     0.049 A 
ATOM     40  N   UNL A   1      41.970  29.167  33.179  1.00  0.00    -0.248 NA
ATOM     41  C   UNL A   1      43.131  27.441  32.119  1.00  0.00     0.031 C 
ATOM     42  C   UNL A   1      39.406  29.646  29.547  1.00  0.00     0.029 A 
ATOM     43  N   UNL A   1      39.801  30.373  31.626  1.00  0.00    -0.354 N 
ATOM     44  C   UNL A   1      42.981  28.710  34.018  1.00  0.00     0.074 A 
ATOM     45  C   UNL A   1      43.642  27.624  33.328  1.00  0.00     0.031 C 
ATOM     46  C   UNL A   1      38.550  30.653  29.794  1.00  0.00     0.029 A 
ATOM     47  C   UNL A   1      38.769  31.149  31.152  1.00  0.00     0.049 A 
ATOM     48  H   UNL A   1      40.184  30.478  32.527  1.00  0.00     0.167 HD
ATOM     49  C   UNL A   1      43.341  29.163  35.243  1.00  0.00     0.031 A 
ATOM     50  C   UNL A   1      38.079  32.143  31.743  1.00  0.00     0.031 A 
ATOM     51  C   UNL A   1      42.676  30.232  35.942  1.00  0.00     0.049 A 
ATOM     52  C   UNL A   1      38.453  32.577  33.138  1.00  0.00     0.074 A 
ATOM     53  C   UNL A   1      42.959  30.746  37.195  1.00  0.00     0.029 A 
ATOM     54  N   UNL A   1      41.601  30.953  35.448  1.00  0.00    -0.354 N 
ATOM     55  N   UNL A   1      39.419  32.138  33.908  1.00  0.00    -0.248 NA
ATOM     56  C   UNL A   1      37.648  33.654  33.734  1.00  0.00     0.031 C 
ATOM     57  C   UNL A   1      42.027  31.751  37.478  1.00  0.00     0.029 A 
ATOM     58  C   UNL A   1      41.199  31.897  36.377  1.00  0.00     0.049 A 
ATOM     59  H   UNL A   1      41.185  30.815  34.567  1.00  0.00     0.167 HD
ATOM     60  C   UNL A   1      39.353  32.902  35.069  1.00  0.00     0.074 A 
ATOM     61  C   UNL A   1      38.271  33.846  34.889  1.00  0.00     0.031 C 
ATOM     62  C   UNL A   1      40.119  32.830  36.187  1.00  0.00     0.031 A 
BRANCH  49  63
ATOM     63  C   UNL A   1      44.512  28.500  35.916  1.00  0.00    -0.014 A 
ATOM     64  C   UNL A   1      44.322  27.399  36.770  1.00  0.00     0.010 A 
ATOM     65  C   UNL A   1      45.821  28.933  35.637  1.00  0.00     0.010 A 
ATOM     66  C   UNL A   1      45.418  26.754  37.349  1.00  0.00     0.020 A 
ATOM     67  C   UNL A   1      46.922  28.276  36.196  1.00  0.00     0.020 A 
ATOM     68  C   UNL A   1      46.713  27.196  37.056  1.00  0.00     0.054 A 
BRANCH  68  69
ATOM     69  S   UNL A   1      48.119  26.308  37.781  1.00  0.00     0.124 S 
ATOM     70  O   UNL A   1      47.717  24.915  37.606  1.00  0.00    -0.237 OA
ATOM     71  O   UNL A   1      49.238  26.750  36.952  1.00  0.00    -0.237 OA
ATOM     72  O   UNL A   1      48.150  26.778  39.164  1.00  0.00    -0.744 OA
ENDBRANCH  68  69
ENDBRANCH  49  63
BRANCH  50  73
ATOM     73  C   UNL A   1      36.938  32.789  31.038  1.00  0.00    -0.014 A 
ATOM     74  C   UNL A   1      35.608  32.469  31.361  1.00  0.00     0.010 A 
ATOM     75  C   UNL A   1      37.188  33.699  29.993  1.00  0.00     0.010 A 
ATOM     76  C   UNL A   1      34.549  33.015  30.627  1.00  0.00     0.020 A 
ATOM     77  C   UNL A   1      36.133  34.270  29.279  1.00  0.00     0.020 A 
ATOM     78  C   UNL A   1      34.821  33.907  29.586  1.00  0.00     0.054 A 
BRANCH  78  79
ATOM     79  S   UNL A   1      33.438  34.616  28.649  1.00  0.00     0.124 S 
ATOM     80  O   UNL A   1      32.491  34.943  29.710  1.00  0.00    -0.237 OA
ATOM     81  O   UNL A   1      34.059  35.757  27.980  1.00  0.00    -0.237 OA
ATOM     82  O   UNL A   1      33.036  33.527  27.762  1.00  0.00    -0.744 OA
ENDBRANCH  78  79
ENDBRANCH  50  73
BRANCH  62  83
ATOM     83  C   UNL A   1      39.830  33.818  37.286  1.00  0.00    -0.014 A 
ATOM     84  C   UNL A   1      40.262  35.153  37.197  1.00  0.00     0.010 A 
ATOM     85  C   UNL A   1      39.099  33.408  38.416  1.00  0.00     0.010 A 
ATOM     86  C   UNL A   1      40.013  36.047  38.242  1.00  0.00     0.020 A 
ATOM     87  C   UNL A   1      38.824  34.307  39.450  1.00  0.00     0.020 A 
ATOM     88  C   UNL A   1      39.302  35.616  39.366  1.00  0.00     0.054 A 
BRANCH  88  89
ATOM     89  S   UNL A   1      38.983  36.795  40.706  1.00  0.00     0.124 S 
ATOM     90  O   UNL A   1      40.326  37.034  41.227  1.00  0.00    -0.237 OA
ATOM     91  O   UNL A   1      38.372  37.922  40.007  1.00  0.00    -0.237 OA
ATOM     92  O   UNL A   1      38.087  36.067  41.602  1.00  0.00    -0.744 OA
ENDBRANCH  88  89
ENDBRANCH  62  83
ENDBRANCH  36  37
ENDBRANCH  29  31
ENDBRANCH  28  29
ENDBRANCH  27  28
ENDBRANCH  26  27
ENDBRANCH  25  26
ENDBRANCH   1  25
TORSDOF 21
ENDMDL
MODEL 2
REMARK VINA RESULT:     -10.0      3.614      4.885
REMARK SMILES CC(=O)c1cc(C(=O)NC[C@H]2CC[C@H](C(=O)OCCOCCOC(=O)c3ccc(-c4c5nc(c(-c6ccc(S(=O)(=O)[O-])cc6)c6ccc([nH]6)c(-c6ccc(S(=O)(=O)[O-])cc6)c6nc(c(-c7ccc(S(=O)(=O)[O-])cc7)c7ccc4[nH]7)C=C6)C=C5)cc3)O2)n(C)c1
REMARK SMILES IDX 19 1 18 2 17 3 15 4 16 5 14 6 11 7 12 8 86 9 13 10 10 11
REMARK SMILES IDX 9 12 7 13 8 14 6 16 4 17 5 18 89 19 87 20 88 21 2 22 1 23
REMARK SMILES IDX 3 24 20 25 21 26 22 27 23 28 24 29 25 30 26 31 27 32 85 33
REMARK SMILES IDX 28 34 84 35 29 36 30 37 31 38 78 39 32 40 83 41 77 42 79 43
REMARK SMILES IDX 33 44 82 45 76 46 75 47 34 49 64 50 45 51 63 52 46 53 49 54
REMARK SMILES IDX 62 55 80 56 47 57 48 58 61 60 81 61 50 62 35 63 36 64 44 65
REMARK SMILES IDX 37 66 43 67 38 68 39 69 40 70 41 71 42 72 65 73 66 74 74 75
REMARK SMILES IDX 67 76 73 77 68 78 69 79 70 80 71 81 72 82 51 83 52 84 60 85
REMARK SMILES IDX 53 86 59 87 54 88 55 89 56 90 57 91 58 92
REMARK H PARENT 9 15 79 48 49 59
REMARK Flexibility Score: inf
ROOT
ATOM      1  C   UNL A   1      34.627  20.701  25.692  1.00  0.00     0.202 C 
ENDROOT
BRANCH   1   2
ATOM      2  C   UNL A   1      33.639  21.690  25.068  1.00  0.00     0.261 C 
BRANCH   2   3
ATOM      3  O   UNL A   1      33.428  22.806  25.948  1.00  0.00    -0.461 OA
BRANCH   3   4
ATOM      4  C   UNL A   1      32.364  22.721  26.790  1.00  0.00     0.335 C 
ATOM      5  O   UNL A   1      32.442  22.585  28.006  1.00  0.00    -0.249 OA
BRANCH   4   6
ATOM      6  C   UNL A   1      31.023  22.848  26.043  1.00  0.00     0.228 C 
ATOM      7  C   UNL A   1      30.878  24.991  25.196  1.00  0.00     0.138 C 
ATOM      8  C   UNL A   1      30.090  24.985  26.498  1.00  0.00     0.037 C 
ATOM      9  O   UNL A   1      31.165  23.622  24.849  1.00  0.00    -0.361 OA
ATOM     10  C   UNL A   1      29.873  23.518  26.776  1.00  0.00     0.047 C 
BRANCH   7  11
ATOM     11  C   UNL A   1      30.158  25.671  24.035  1.00  0.00     0.148 C 
BRANCH  11  12
ATOM     12  N   UNL A   1      31.035  26.038  22.939  1.00  0.00    -0.348 N 
ATOM     13  C   UNL A   1      31.848  27.124  22.764  1.00  0.00     0.268 C 
ATOM     14  O   UNL A   1      32.392  27.226  21.662  1.00  0.00    -0.268 OA
ATOM     15  H   UNL A   1      31.047  25.395  22.195  1.00  0.00     0.163 HD
BRANCH  13  16
ATOM     16  C   UNL A   1      32.020  28.136  23.795  1.00  0.00     0.107 A 
ATOM     17  C   UNL A   1      32.855  29.176  25.676  1.00  0.00     0.036 A 
ATOM     18  C   UNL A   1      33.000  28.075  24.790  1.00  0.00     0.045 A 
ATOM     19  C   UNL A   1      31.801  29.908  25.177  1.00  0.00     0.097 A 
ATOM     20  N   UNL A   1      31.245  29.235  24.117  1.00  0.00    -0.346 N 
ATOM     21  C   UNL A   1      29.949  29.608  23.596  1.00  0.00     0.150 C 
BRANCH  17  22
ATOM     22  C   UNL A   1      33.591  29.519  26.892  1.00  0.00     0.161 C 
ATOM     23  C   UNL A   1      33.574  30.949  27.366  1.00  0.00     0.093 C 
ATOM     24  O   UNL A   1      34.210  28.665  27.528  1.00  0.00    -0.294 OA
ENDBRANCH  17  22
ENDBRANCH  13  16
ENDBRANCH  11  12
ENDBRANCH   7  11
ENDBRANCH   4   6
ENDBRANCH   3   4
ENDBRANCH   2   3
ENDBRANCH   1   2
BRANCH   1  25
ATOM     25  O   UNL A   1      35.956  21.181  25.906  1.00  0.00    -0.374 OA
BRANCH  25  26
ATOM     26  C   UNL A   1      36.986  20.708  25.042  1.00  0.00     0.202 C 
BRANCH  26  27
ATOM     27  C   UNL A   1      38.332  21.446  25.078  1.00  0.00     0.261 C 
BRANCH  27  28
ATOM     28  O   UNL A   1      38.579  22.118  26.327  1.00  0.00    -0.460 OA
BRANCH  28  29
ATOM     29  C   UNL A   1      39.801  22.693  26.414  1.00  0.00     0.338 C 
ATOM     30  O   UNL A   1      40.856  22.248  25.964  1.00  0.00    -0.246 OA
BRANCH  29  31
ATOM     31  C   UNL A   1      39.722  24.048  26.983  1.00  0.00     0.060 A 
ATOM     32  C   UNL A   1      40.507  25.036  26.377  1.00  0.00     0.016 A 
ATOM     33  C   UNL A   1      39.017  24.324  28.157  1.00  0.00     0.016 A 
ATOM     34  C   UNL A   1      40.641  26.284  26.976  1.00  0.00     0.010 A 
ATOM     35  C   UNL A   1      39.158  25.584  28.761  1.00  0.00     0.010 A 
ATOM     36  C   UNL A   1      40.006  26.554  28.196  1.00  0.00    -0.014 A 
BRANCH  36  37
ATOM     37  C   UNL A   1      40.371  27.800  28.921  1.00  0.00     0.031 A 
ATOM     38  C   UNL A   1      41.763  27.948  29.482  1.00  0.00     0.074 A 
ATOM     39  C   UNL A   1      39.513  28.835  28.976  1.00  0.00     0.049 A 
ATOM     40  N   UNL A   1      42.319  28.986  30.054  1.00  0.00    -0.248 NA
ATOM     41  C   UNL A   1      42.650  26.776  29.376  1.00  0.00     0.031 C 
ATOM     42  C   UNL A   1      38.153  28.837  28.434  1.00  0.00     0.029 A 
ATOM     43  N   UNL A   1      39.668  30.097  29.496  1.00  0.00    -0.354 N 
ATOM     44  C   UNL A   1      43.621  28.603  30.357  1.00  0.00     0.074 A 
ATOM     45  C   UNL A   1      43.760  27.222  29.948  1.00  0.00     0.031 C 
ATOM     46  C   UNL A   1      37.602  30.046  28.642  1.00  0.00     0.029 A 
ATOM     47  C   UNL A   1      38.560  30.897  29.346  1.00  0.00     0.049 A 
ATOM     48  H   UNL A   1      40.496  30.399  29.934  1.00  0.00     0.167 HD
ATOM     49  C   UNL A   1      44.618  29.336  30.907  1.00  0.00     0.031 A 
ATOM     50  C   UNL A   1      38.341  32.168  29.733  1.00  0.00     0.031 A 
ATOM     51  C   UNL A   1      44.482  30.705  31.330  1.00  0.00     0.049 A 
ATOM     52  C   UNL A   1      39.445  32.938  30.412  1.00  0.00     0.074 A 
ATOM     53  C   UNL A   1      45.433  31.522  31.916  1.00  0.00     0.029 A 
ATOM     54  N   UNL A   1      43.327  31.460  31.211  1.00  0.00    -0.354 N 
ATOM     55  N   UNL A   1      40.672  32.559  30.678  1.00  0.00    -0.248 NA
ATOM     56  C   UNL A   1      39.136  34.314  30.826  1.00  0.00     0.031 C 
ATOM     57  C   UNL A   1      44.840  32.760  32.190  1.00  0.00     0.029 A 
ATOM     58  C   UNL A   1      43.535  32.728  31.725  1.00  0.00     0.049 A 
ATOM     59  H   UNL A   1      42.482  31.142  30.818  1.00  0.00     0.167 HD
ATOM     60  C   UNL A   1      41.287  33.658  31.270  1.00  0.00     0.074 A 
ATOM     61  C   UNL A   1      40.306  34.722  31.298  1.00  0.00     0.031 C 
ATOM     62  C   UNL A   1      42.550  33.778  31.749  1.00  0.00     0.031 A 
BRANCH  49  63
ATOM     63  C   UNL A   1      45.956  28.670  31.088  1.00  0.00    -0.014 A 
ATOM     64  C   UNL A   1      46.238  27.929  32.249  1.00  0.00     0.010 A 
ATOM     65  C   UNL A   1      46.914  28.724  30.059  1.00  0.00     0.010 A 
ATOM     66  C   UNL A   1      47.462  27.269  32.387  1.00  0.00     0.020 A 
ATOM     67  C   UNL A   1      48.130  28.046  30.184  1.00  0.00     0.020 A 
ATOM     68  C   UNL A   1      48.400  27.329  31.352  1.00  0.00     0.054 A 
BRANCH  68  69
ATOM     69  S   UNL A   1      49.959  26.420  31.536  1.00  0.00     0.124 S 
ATOM     70  O   UNL A   1      50.098  26.353  32.989  1.00  0.00    -0.237 OA
ATOM     71  O   UNL A   1      49.670  25.151  30.873  1.00  0.00    -0.237 OA
ATOM     72  O   UNL A   1      50.937  27.266  30.856  1.00  0.00    -0.744 OA
ENDBRANCH  68  69
ENDBRANCH  49  63
BRANCH  50  73
ATOM     73  C   UNL A   1      37.010  32.801  29.518  1.00  0.00    -0.014 A 
ATOM     74  C   UNL A   1      36.694  33.434  28.304  1.00  0.00     0.010 A 
ATOM     75  C   UNL A   1      36.066  32.814  30.562  1.00  0.00     0.010 A 
ATOM     76  C   UNL A   1      35.475  34.103  28.150  1.00  0.00     0.020 A 
ATOM     77  C   UNL A   1      34.836  33.456  30.402  1.00  0.00     0.020 A 
ATOM     78  C   UNL A   1      34.557  34.115  29.204  1.00  0.00     0.054 A 
BRANCH  78  79
ATOM     79  S   UNL A   1      32.975  34.977  28.988  1.00  0.00     0.124 S 
ATOM     80  O   UNL A   1      33.409  36.286  28.509  1.00  0.00    -0.237 OA
ATOM     81  O   UNL A   1      32.287  34.141  28.009  1.00  0.00    -0.237 OA
ATOM     82  O   UNL A   1      32.395  34.960  30.329  1.00  0.00    -0.744 OA
ENDBRANCH  78  79
ENDBRANCH  50  73
BRANCH  62  83
ATOM     83  C   UNL A   1      42.949  35.115  32.315  1.00  0.00    -0.014 A 
ATOM     84  C   UNL A   1      42.682  35.448  33.655  1.00  0.00     0.010 A 
ATOM     85  C   UNL A   1      43.617  36.045  31.498  1.00  0.00     0.010 A 
ATOM     86  C   UNL A   1      43.030  36.706  34.154  1.00  0.00     0.020 A 
ATOM     87  C   UNL A   1      43.993  37.294  32.001  1.00  0.00     0.020 A 
ATOM     88  C   UNL A   1      43.677  37.625  33.320  1.00  0.00     0.054 A 
BRANCH  88  89
ATOM     89  S   UNL A   1      44.128  39.248  33.990  1.00  0.00     0.124 S 
ATOM     90  O   UNL A   1      44.383  38.936  35.394  1.00  0.00    -0.237 OA
ATOM     91  O   UNL A   1      45.304  39.609  33.203  1.00  0.00    -0.237 OA
ATOM     92  O   UNL A   1      42.944  40.067  33.739  1.00  0.00    -0.744 OA
ENDBRANCH  88  89
ENDBRANCH  62  83
ENDBRANCH  36  37
ENDBRANCH  29  31
ENDBRANCH  28  29
ENDBRANCH  27  28
ENDBRANCH  26  27
ENDBRANCH  25  26
ENDBRANCH   1  25
TORSDOF 21
ENDMDL
MODEL 3
REMARK VINA RESULT:     -10.0      5.599     11.730
REMARK SMILES CC(=O)c1cc(C(=O)NC[C@H]2CC[C@H](C(=O)OCCOCCOC(=O)c3ccc(-c4c5nc(c(-c6ccc(S(=O)(=O)[O-])cc6)c6ccc([nH]6)c(-c6ccc(S(=O)(=O)[O-])cc6)c6nc(c(-c7ccc(S(=O)(=O)[O-])cc7)c7ccc4[nH]7)C=C6)C=C5)cc3)O2)n(C)c1
REMARK SMILES IDX 19 1 18 2 17 3 15 4 16 5 14 6 11 7 12 8 86 9 13 10 10 11
REMARK SMILES IDX 9 12 7 13 8 14 6 16 4 17 5 18 89 19 87 20 88 21 2 22 1 23
REMARK SMILES IDX 3 24 20 25 21 26 22 27 23 28 24 29 25 30 26 31 27 32 85 33
REMARK SMILES IDX 28 34 84 35 29 36 30 37 31 38 78 39 32 40 83 41 77 42 79 43
REMARK SMILES IDX 33 44 82 45 76 46 75 47 34 49 64 50 45 51 63 52 46 53 49 54
REMARK SMILES IDX 62 55 80 56 47 57 48 58 61 60 81 61 50 62 35 63 36 64 44 65
REMARK SMILES IDX 37 66 43 67 38 68 39 69 40 70 41 71 42 72 65 73 66 74 74 75
REMARK SMILES IDX 67 76 73 77 68 78 69 79 70 80 71 81 72 82 51 83 52 84 60 85
REMARK SMILES IDX 53 86 59 87 54 88 55 89 56 90 57 91 58 92
REMARK H PARENT 9 15 79 48 49 59
REMARK Flexibility Score: inf
ROOT
ATOM      1  C   UNL A   1      35.141  31.920  28.101  1.00  0.00     0.202 C 
ENDROOT
BRANCH   1   2
ATOM      2  C   UNL A   1      33.728  31.802  27.523  1.00  0.00     0.261 C 
BRANCH   2   3
ATOM      3  O   UNL A   1      33.232  30.463  27.688  1.00  0.00    -0.461 OA
BRANCH   3   4
ATOM      4  C   UNL A   1      33.798  29.507  26.905  1.00  0.00     0.335 C 
ATOM      5  O   UNL A   1      34.848  28.926  27.156  1.00  0.00    -0.249 OA
BRANCH   4   6
ATOM      6  C   UNL A   1      32.946  29.202  25.658  1.00  0.00     0.228 C 
ATOM      7  C   UNL A   1      32.028  27.099  25.918  1.00  0.00     0.138 C 
ATOM      8  C   UNL A   1      33.264  26.928  25.048  1.00  0.00     0.037 C 
ATOM      9  O   UNL A   1      31.745  28.509  26.008  1.00  0.00    -0.361 OA
ATOM     10  C   UNL A   1      33.568  28.330  24.581  1.00  0.00     0.047 C 
BRANCH   7  11
ATOM     11  C   UNL A   1      30.796  26.363  25.401  1.00  0.00     0.148 C 
BRANCH  11  12
ATOM     12  N   UNL A   1      30.287  25.361  26.319  1.00  0.00    -0.348 N 
ATOM     13  C   UNL A   1      30.677  24.069  26.546  1.00  0.00     0.268 C 
ATOM     14  O   UNL A   1      29.970  23.413  27.313  1.00  0.00    -0.268 OA
ATOM     15  H   UNL A   1      29.532  25.662  26.873  1.00  0.00     0.163 HD
BRANCH  13  16
ATOM     16  C   UNL A   1      31.827  23.480  25.876  1.00  0.00     0.107 A 
ATOM     17  C   UNL A   1      33.995  22.771  25.540  1.00  0.00     0.036 A 
ATOM     18  C   UNL A   1      33.075  23.307  26.480  1.00  0.00     0.045 A 
ATOM     19  C   UNL A   1      33.270  22.596  24.381  1.00  0.00     0.097 A 
ATOM     20  N   UNL A   1      32.009  23.110  24.556  1.00  0.00    -0.346 N 
ATOM     21  C   UNL A   1      31.138  23.342  23.426  1.00  0.00     0.150 C 
BRANCH  17  22
ATOM     22  C   UNL A   1      35.420  22.471  25.671  1.00  0.00     0.161 C 
ATOM     23  C   UNL A   1      35.987  21.311  24.895  1.00  0.00     0.093 C 
ATOM     24  O   UNL A   1      36.153  23.149  26.391  1.00  0.00    -0.294 OA
ENDBRANCH  17  22
ENDBRANCH  13  16
ENDBRANCH  11  12
ENDBRANCH   7  11
ENDBRANCH   4   6
ENDBRANCH   3   4
ENDBRANCH   2   3
ENDBRANCH   1   2
BRANCH   1  25
ATOM     25  O   UNL A   1      35.439  33.126  28.808  1.00  0.00    -0.374 OA
BRANCH  25  26
ATOM     26  C   UNL A   1      34.608  33.478  29.911  1.00  0.00     0.202 C 
BRANCH  26  27
ATOM     27  C   UNL A   1      34.936  32.847  31.272  1.00  0.00     0.261 C 
BRANCH  27  28
ATOM     28  O   UNL A   1      35.491  31.523  31.166  1.00  0.00    -0.460 OA
BRANCH  28  29
ATOM     29  C   UNL A   1      36.594  31.323  31.925  1.00  0.00     0.338 C 
ATOM     30  O   UNL A   1      36.717  31.575  33.123  1.00  0.00    -0.246 OA
BRANCH  29  31
ATOM     31  C   UNL A   1      37.631  30.585  31.186  1.00  0.00     0.060 A 
ATOM     32  C   UNL A   1      38.738  30.144  31.921  1.00  0.00     0.016 A 
ATOM     33  C   UNL A   1      37.602  30.447  29.796  1.00  0.00     0.016 A 
ATOM     34  C   UNL A   1      39.847  29.621  31.264  1.00  0.00     0.010 A 
ATOM     35  C   UNL A   1      38.725  29.922  29.136  1.00  0.00     0.010 A 
ATOM     36  C   UNL A   1      39.869  29.549  29.864  1.00  0.00    -0.014 A 
BRANCH  36  37
ATOM     37  C   UNL A   1      41.156  29.220  29.195  1.00  0.00     0.031 A 
ATOM     38  C   UNL A   1      42.235  30.270  29.110  1.00  0.00     0.074 A 
ATOM     39  C   UNL A   1      41.406  27.966  28.775  1.00  0.00     0.049 A 
ATOM     40  N   UNL A   1      43.461  30.163  28.665  1.00  0.00    -0.248 NA
ATOM     41  C   UNL A   1      41.891  31.616  29.599  1.00  0.00     0.031 C 
ATOM     42  C   UNL A   1      40.465  26.848  28.840  1.00  0.00     0.029 A 
ATOM     43  N   UNL A   1      42.541  27.418  28.229  1.00  0.00    -0.354 N 
ATOM     44  C   UNL A   1      44.041  31.415  28.838  1.00  0.00     0.074 A 
ATOM     45  C   UNL A   1      43.019  32.280  29.386  1.00  0.00     0.031 C 
ATOM     46  C   UNL A   1      41.065  25.743  28.361  1.00  0.00     0.029 A 
ATOM     47  C   UNL A   1      42.424  26.079  27.939  1.00  0.00     0.049 A 
ATOM     48  H   UNL A   1      43.361  27.935  28.061  1.00  0.00     0.167 HD
ATOM     49  C   UNL A   1      45.312  31.807  28.584  1.00  0.00     0.031 A 
ATOM     50  C   UNL A   1      43.308  25.221  27.395  1.00  0.00     0.031 A 
ATOM     51  C   UNL A   1      46.329  30.956  28.024  1.00  0.00     0.049 A 
ATOM     52  C   UNL A   1      44.695  25.704  27.052  1.00  0.00     0.074 A 
ATOM     53  C   UNL A   1      47.640  31.272  27.714  1.00  0.00     0.029 A 
ATOM     54  N   UNL A   1      46.152  29.622  27.695  1.00  0.00    -0.354 N 
ATOM     55  N   UNL A   1      45.224  26.890  27.235  1.00  0.00    -0.248 NA
ATOM     56  C   UNL A   1      45.606  24.724  26.443  1.00  0.00     0.031 C 
ATOM     57  C   UNL A   1      48.245  30.140  27.157  1.00  0.00     0.029 A 
ATOM     58  C   UNL A   1      47.325  29.105  27.171  1.00  0.00     0.049 A 
ATOM     59  H   UNL A   1      45.316  29.116  27.815  1.00  0.00     0.167 HD
ATOM     60  C   UNL A   1      46.538  26.790  26.785  1.00  0.00     0.074 A 
ATOM     61  C   UNL A   1      46.728  25.423  26.347  1.00  0.00     0.031 C 
ATOM     62  C   UNL A   1      47.501  27.743  26.737  1.00  0.00     0.031 A 
BRANCH  49  63
ATOM     63  C   UNL A   1      45.682  33.230  28.907  1.00  0.00    -0.014 A 
ATOM     64  C   UNL A   1      46.336  33.548  30.111  1.00  0.00     0.010 A 
ATOM     65  C   UNL A   1      45.439  34.250  27.970  1.00  0.00     0.010 A 
ATOM     66  C   UNL A   1      46.724  34.863  30.380  1.00  0.00     0.020 A 
ATOM     67  C   UNL A   1      45.846  35.563  28.225  1.00  0.00     0.020 A 
ATOM     68  C   UNL A   1      46.478  35.863  29.433  1.00  0.00     0.054 A 
BRANCH  68  69
ATOM     69  S   UNL A   1      47.039  37.551  29.787  1.00  0.00     0.124 S 
ATOM     70  O   UNL A   1      45.773  38.262  29.945  1.00  0.00    -0.237 OA
ATOM     71  O   UNL A   1      47.821  37.379  31.009  1.00  0.00    -0.237 OA
ATOM     72  O   UNL A   1      47.812  37.915  28.603  1.00  0.00    -0.744 OA
ENDBRANCH  68  69
ENDBRANCH  49  63
BRANCH  50  73
ATOM     73  C   UNL A   1      42.913  23.814  27.108  1.00  0.00    -0.014 A 
ATOM     74  C   UNL A   1      42.819  22.861  28.137  1.00  0.00     0.010 A 
ATOM     75  C   UNL A   1      42.678  23.411  25.780  1.00  0.00     0.010 A 
ATOM     76  C   UNL A   1      42.536  21.524  27.841  1.00  0.00     0.020 A 
ATOM     77  C   UNL A   1      42.367  22.083  25.483  1.00  0.00     0.020 A 
ATOM     78  C   UNL A   1      42.319  21.143  26.514  1.00  0.00     0.054 A 
BRANCH  78  79
ATOM     79  S   UNL A   1      41.943  19.407  26.143  1.00  0.00     0.124 S 
ATOM     80  O   UNL A   1      42.313  18.746  27.392  1.00  0.00    -0.237 OA
ATOM     81  O   UNL A   1      40.514  19.447  25.846  1.00  0.00    -0.237 OA
ATOM     82  O   UNL A   1      42.802  19.111  24.999  1.00  0.00    -0.744 OA
ENDBRANCH  78  79
ENDBRANCH  50  73
BRANCH  62  83
ATOM     83  C   UNL A   1      48.854  27.331  26.221  1.00  0.00    -0.014 A 
ATOM     84  C   UNL A   1      49.169  27.414  24.852  1.00  0.00     0.010 A 
ATOM     85  C   UNL A   1      49.831  26.870  27.122  1.00  0.00     0.010 A 
ATOM     86  C   UNL A   1      50.418  26.997  24.388  1.00  0.00     0.020 A 
ATOM     87  C   UNL A   1      51.093  26.477  26.664  1.00  0.00     0.020 A 
ATOM     88  C   UNL A   1      51.370  26.522  25.296  1.00  0.00     0.054 A 
BRANCH  88  89
ATOM     89  S   UNL A   1      52.989  25.993  24.673  1.00  0.00     0.124 S 
ATOM     90  O   UNL A   1      52.871  26.279  23.245  1.00  0.00    -0.237 OA
ATOM     91  O   UNL A   1      53.915  26.848  25.410  1.00  0.00    -0.237 OA
ATOM     92  O   UNL A   1      53.047  24.575  25.022  1.00  0.00    -0.744 OA
ENDBRANCH  88  89
ENDBRANCH  62  83
ENDBRANCH  36  37
ENDBRANCH  29  31
ENDBRANCH  28  29
ENDBRANCH  27  28
ENDBRANCH  26  27
ENDBRANCH  25  26
ENDBRANCH   1  25
TORSDOF 21
ENDMDL
