MODEL 1
REMARK VINA RESULT:     -12.3      0.000      0.000
REMARK SMILES Cc1ccccc1C(=O)Nc1ccc(N2CCCCC2)cc1C(=O)OCCOCCOC(=O)c1ccc(-c2c3nc(c(-c4ccc(S(=O)(=O)[O-])cc4)c4ccc([nH]4)c(-c4ccc(S(=O)(=O)[O-])cc4)c4nc(c(-c5ccc(S(=O)(=O)[O-])cc5)c5ccc2[nH]5)C=C4)C=C3)cc1
REMARK SMILES IDX 29 1 28 2 27 3 26 4 25 5 23 6 24 7 22 8 11 9 12 10 13 11
REMARK SMILES IDX 21 12 14 13 10 14 8 15 9 16 7 18 1 19 2 20 3 21 4 22 6 23
REMARK SMILES IDX 5 24 15 25 16 26 20 27 17 28 19 29 18 30 30 31 31 32 32 33
REMARK SMILES IDX 33 34 34 35 35 36 93 37 36 38 92 39 37 40 38 41 39 42 86 43
REMARK SMILES IDX 40 44 91 45 85 46 87 47 41 48 90 49 84 50 83 51 42 53 72 54
REMARK SMILES IDX 53 55 71 56 54 57 57 58 70 59 88 60 55 61 56 62 69 64 89 65
REMARK SMILES IDX 58 66 43 67 44 68 52 69 45 70 51 71 46 72 47 73 48 74 49 75
REMARK SMILES IDX 50 76 73 77 74 78 82 79 75 80 81 81 76 82 77 83 78 84 79 85
REMARK SMILES IDX 80 86 59 87 60 88 68 89 61 90 67 91 62 92 63 93 64 94 65 95
REMARK SMILES IDX 66 96
REMARK H PARENT 10 17 87 52 57 63
REMARK Flexibility Score: inf
ROOT
ATOM      1  C   UNL A   1      35.511  23.060  24.383  1.00  0.00     0.202 C 
ENDROOT
BRANCH   1   2
ATOM      2  O   UNL A   1      34.882  24.279  24.064  1.00  0.00    -0.374 OA
BRANCH   2   3
ATOM      3  C   UNL A   1      34.480  25.032  25.192  1.00  0.00     0.202 C 
BRANCH   3   4
ATOM      4  C   UNL A   1      33.604  26.169  24.723  1.00  0.00     0.261 C 
BRANCH   4   5
ATOM      5  O   UNL A   1      33.122  27.058  25.762  1.00  0.00    -0.460 OA
BRANCH   5   6
ATOM      6  C   UNL A   1      31.882  27.113  26.319  1.00  0.00     0.340 C 
ATOM      7  O   UNL A   1      31.536  27.338  27.450  1.00  0.00    -0.246 OA
BRANCH   6   8
ATOM      8  C   UNL A   1      30.958  26.975  25.163  1.00  0.00     0.085 A 
ATOM      9  C   UNL A   1      29.978  25.975  25.191  1.00  0.00     0.056 A 
ATOM     10  C   UNL A   1      28.861  26.085  24.358  1.00  0.00     0.029 A 
ATOM     11  C   UNL A   1      28.678  27.257  23.610  1.00  0.00     0.028 A 
ATOM     12  C   UNL A   1      30.817  28.085  24.319  1.00  0.00     0.043 A 
ATOM     13  C   UNL A   1      29.624  28.297  23.631  1.00  0.00     0.038 A 
BRANCH   9  14
ATOM     14  N   UNL A   1      30.083  24.913  26.084  1.00  0.00    -0.321 N 
ATOM     15  C   UNL A   1      31.039  23.937  26.226  1.00  0.00     0.255 C 
ATOM     16  O   UNL A   1      31.308  23.622  27.393  1.00  0.00    -0.269 OA
ATOM     17  H   UNL A   1      29.341  24.849  26.728  1.00  0.00     0.170 HD
BRANCH  15  18
ATOM     18  C   UNL A   1      31.553  23.030  25.108  1.00  0.00     0.043 A 
ATOM     19  C   UNL A   1      31.391  24.356  22.836  1.00  0.00     0.045 C 
ATOM     20  C   UNL A   1      31.628  23.161  23.701  1.00  0.00    -0.038 A 
ATOM     21  C   UNL A   1      32.027  22.041  22.915  1.00  0.00     0.004 A 
ATOM     22  C   UNL A   1      32.346  20.809  23.465  1.00  0.00     0.000 A 
ATOM     23  C   UNL A   1      31.930  21.755  25.632  1.00  0.00     0.014 A 
ATOM     24  C   UNL A   1      32.310  20.667  24.837  1.00  0.00     0.001 A 
ENDBRANCH  15  18
ENDBRANCH   9  14
BRANCH  13  25
ATOM     25  N   UNL A   1      29.292  29.555  23.122  1.00  0.00    -0.372 N 
ATOM     26  C   UNL A   1      29.688  30.673  23.996  1.00  0.00     0.116 C 
ATOM     27  C   UNL A   1      29.507  29.823  21.695  1.00  0.00     0.116 C 
ATOM     28  C   UNL A   1      28.835  31.891  23.657  1.00  0.00     0.021 C 
ATOM     29  C   UNL A   1      28.633  31.008  21.292  1.00  0.00     0.021 C 
ATOM     30  C   UNL A   1      28.899  32.232  22.169  1.00  0.00     0.004 C 
ENDBRANCH  13  25
ENDBRANCH   6   8
ENDBRANCH   5   6
ENDBRANCH   4   5
ENDBRANCH   3   4
ENDBRANCH   2   3
ENDBRANCH   1   2
BRANCH   1  31
ATOM     31  C   UNL A   1      36.577  23.158  25.476  1.00  0.00     0.261 C 
BRANCH  31  32
ATOM     32  O   UNL A   1      37.900  22.699  25.126  1.00  0.00    -0.460 OA
BRANCH  32  33
ATOM     33  C   UNL A   1      38.877  22.714  26.067  1.00  0.00     0.338 C 
ATOM     34  O   UNL A   1      39.424  21.724  26.524  1.00  0.00    -0.246 OA
BRANCH  33  35
ATOM     35  C   UNL A   1      39.150  24.078  26.539  1.00  0.00     0.060 A 
ATOM     36  C   UNL A   1      40.044  24.916  25.862  1.00  0.00     0.016 A 
ATOM     37  C   UNL A   1      38.655  24.412  27.792  1.00  0.00     0.016 A 
ATOM     38  C   UNL A   1      40.521  26.068  26.500  1.00  0.00     0.010 A 
ATOM     39  C   UNL A   1      39.248  25.466  28.462  1.00  0.00     0.010 A 
ATOM     40  C   UNL A   1      40.169  26.318  27.828  1.00  0.00    -0.014 A 
BRANCH  40  41
ATOM     41  C   UNL A   1      40.758  27.362  28.680  1.00  0.00     0.031 A 
ATOM     42  C   UNL A   1      40.031  28.623  28.939  1.00  0.00     0.074 A 
ATOM     43  C   UNL A   1      41.883  27.146  29.396  1.00  0.00     0.049 A 
ATOM     44  N   UNL A   1      40.577  29.649  29.498  1.00  0.00    -0.248 NA
ATOM     45  C   UNL A   1      38.650  28.880  28.542  1.00  0.00     0.031 C 
ATOM     46  C   UNL A   1      42.333  27.815  30.618  1.00  0.00     0.029 A 
ATOM     47  N   UNL A   1      42.882  26.213  29.156  1.00  0.00    -0.354 N 
ATOM     48  C   UNL A   1      39.569  30.490  29.891  1.00  0.00     0.074 A 
ATOM     49  C   UNL A   1      38.421  30.054  29.135  1.00  0.00     0.031 C 
ATOM     50  C   UNL A   1      43.585  27.428  30.902  1.00  0.00     0.029 A 
ATOM     51  C   UNL A   1      44.063  26.619  29.798  1.00  0.00     0.049 A 
ATOM     52  H   UNL A   1      42.779  25.394  28.618  1.00  0.00     0.167 HD
ATOM     53  C   UNL A   1      39.806  31.361  30.912  1.00  0.00     0.031 A 
ATOM     54  C   UNL A   1      45.190  26.862  29.063  1.00  0.00     0.031 A 
ATOM     55  C   UNL A   1      41.238  31.423  31.273  1.00  0.00     0.049 A 
ATOM     56  C   UNL A   1      45.494  28.346  28.973  1.00  0.00     0.074 A 
ATOM     57  C   UNL A   1      42.002  31.181  32.403  1.00  0.00     0.029 A 
ATOM     58  N   UNL A   1      42.162  31.573  30.242  1.00  0.00    -0.354 N 
ATOM     59  N   UNL A   1      44.969  29.248  29.762  1.00  0.00    -0.248 NA
ATOM     60  C   UNL A   1      46.338  28.954  27.942  1.00  0.00     0.031 C 
ATOM     61  C   UNL A   1      43.386  31.176  32.020  1.00  0.00     0.029 A 
ATOM     62  C   UNL A   1      43.469  31.451  30.668  1.00  0.00     0.049 A 
ATOM     63  H   UNL A   1      41.909  31.749  29.308  1.00  0.00     0.167 HD
ATOM     64  C   UNL A   1      45.192  30.493  29.246  1.00  0.00     0.074 A 
ATOM     65  C   UNL A   1      46.125  30.267  28.153  1.00  0.00     0.031 C 
ATOM     66  C   UNL A   1      44.532  31.608  29.678  1.00  0.00     0.031 A 
BRANCH  53  67
ATOM     67  C   UNL A   1      38.704  32.075  31.673  1.00  0.00    -0.014 A 
ATOM     68  C   UNL A   1      38.416  31.720  33.005  1.00  0.00     0.010 A 
ATOM     69  C   UNL A   1      37.870  33.071  31.118  1.00  0.00     0.010 A 
ATOM     70  C   UNL A   1      37.373  32.327  33.732  1.00  0.00     0.020 A 
ATOM     71  C   UNL A   1      36.851  33.708  31.836  1.00  0.00     0.020 A 
ATOM     72  C   UNL A   1      36.602  33.328  33.143  1.00  0.00     0.054 A 
BRANCH  72  73
ATOM     73  S   UNL A   1      35.272  34.121  34.082  1.00  0.00     0.124 S 
ATOM     74  O   UNL A   1      34.085  33.432  33.583  1.00  0.00    -0.237 OA
ATOM     75  O   UNL A   1      35.641  33.827  35.463  1.00  0.00    -0.237 OA
ATOM     76  O   UNL A   1      35.372  35.530  33.702  1.00  0.00    -0.744 OA
ENDBRANCH  72  73
ENDBRANCH  53  67
BRANCH  54  77
ATOM     77  C   UNL A   1      45.437  25.792  28.042  1.00  0.00    -0.014 A 
ATOM     78  C   UNL A   1      45.606  24.478  28.538  1.00  0.00     0.010 A 
ATOM     79  C   UNL A   1      45.031  25.948  26.704  1.00  0.00     0.010 A 
ATOM     80  C   UNL A   1      45.221  23.362  27.781  1.00  0.00     0.020 A 
ATOM     81  C   UNL A   1      44.627  24.831  25.948  1.00  0.00     0.020 A 
ATOM     82  C   UNL A   1      44.675  23.551  26.510  1.00  0.00     0.054 A 
BRANCH  82  83
ATOM     83  S   UNL A   1      43.764  22.172  25.731  1.00  0.00     0.124 S 
ATOM     84  O   UNL A   1      43.123  22.822  24.596  1.00  0.00    -0.237 OA
ATOM     85  O   UNL A   1      44.830  21.228  25.392  1.00  0.00    -0.237 OA
ATOM     86  O   UNL A   1      42.873  21.718  26.796  1.00  0.00    -0.744 OA
ENDBRANCH  82  83
ENDBRANCH  54  77
BRANCH  66  87
ATOM     87  C   UNL A   1      44.802  32.971  29.101  1.00  0.00    -0.014 A 
ATOM     88  C   UNL A   1      43.869  33.614  28.272  1.00  0.00     0.010 A 
ATOM     89  C   UNL A   1      46.058  33.593  29.273  1.00  0.00     0.010 A 
ATOM     90  C   UNL A   1      44.156  34.857  27.693  1.00  0.00     0.020 A 
ATOM     91  C   UNL A   1      46.363  34.819  28.682  1.00  0.00     0.020 A 
ATOM     92  C   UNL A   1      45.398  35.457  27.914  1.00  0.00     0.054 A 
BRANCH  92  93
ATOM     93  S   UNL A   1      45.758  37.061  27.158  1.00  0.00     0.124 S 
ATOM     94  O   UNL A   1      46.356  37.810  28.262  1.00  0.00    -0.237 OA
ATOM     95  O   UNL A   1      46.675  36.687  26.085  1.00  0.00    -0.237 OA
ATOM     96  O   UNL A   1      44.450  37.544  26.724  1.00  0.00    -0.744 OA
ENDBRANCH  92  93
ENDBRANCH  66  87
ENDBRANCH  40  41
ENDBRANCH  33  35
ENDBRANCH  32  33
ENDBRANCH  31  32
ENDBRANCH   1  31
TORSDOF 20
ENDMDL
MODEL 2
REMARK VINA RESULT:     -12.2      3.602     10.199
REMARK SMILES Cc1ccccc1C(=O)Nc1ccc(N2CCCCC2)cc1C(=O)OCCOCCOC(=O)c1ccc(-c2c3nc(c(-c4ccc(S(=O)(=O)[O-])cc4)c4ccc([nH]4)c(-c4ccc(S(=O)(=O)[O-])cc4)c4nc(c(-c5ccc(S(=O)(=O)[O-])cc5)c5ccc2[nH]5)C=C4)C=C3)cc1
REMARK SMILES IDX 29 1 28 2 27 3 26 4 25 5 23 6 24 7 22 8 11 9 12 10 13 11
REMARK SMILES IDX 21 12 14 13 10 14 8 15 9 16 7 18 1 19 2 20 3 21 4 22 6 23
REMARK SMILES IDX 5 24 15 25 16 26 20 27 17 28 19 29 18 30 30 31 31 32 32 33
REMARK SMILES IDX 33 34 34 35 35 36 93 37 36 38 92 39 37 40 38 41 39 42 86 43
REMARK SMILES IDX 40 44 91 45 85 46 87 47 41 48 90 49 84 50 83 51 42 53 72 54
REMARK SMILES IDX 53 55 71 56 54 57 57 58 70 59 88 60 55 61 56 62 69 64 89 65
REMARK SMILES IDX 58 66 43 67 44 68 52 69 45 70 51 71 46 72 47 73 48 74 49 75
REMARK SMILES IDX 50 76 73 77 74 78 82 79 75 80 81 81 76 82 77 83 78 84 79 85
REMARK SMILES IDX 80 86 59 87 60 88 68 89 61 90 67 91 62 92 63 93 64 94 65 95
REMARK SMILES IDX 66 96
REMARK H PARENT 10 17 87 52 57 63
REMARK Flexibility Score: inf
ROOT
ATOM      1  C   UNL A   1      31.187  27.820  24.975  1.00  0.00     0.202 C 
ENDROOT
BRANCH   1   2
ATOM      2  O   UNL A   1      31.196  26.897  26.038  1.00  0.00    -0.374 OA
BRANCH   2   3
ATOM      3  C   UNL A   1      31.196  25.544  25.627  1.00  0.00     0.202 C 
BRANCH   3   4
ATOM      4  C   UNL A   1      31.999  24.739  26.620  1.00  0.00     0.261 C 
BRANCH   4   5
ATOM      5  O   UNL A   1      33.126  24.010  26.070  1.00  0.00    -0.460 OA
BRANCH   5   6
ATOM      6  C   UNL A   1      34.251  24.508  25.488  1.00  0.00     0.340 C 
ATOM      7  O   UNL A   1      34.532  25.628  25.151  1.00  0.00    -0.246 OA
BRANCH   6   8
ATOM      8  C   UNL A   1      35.193  23.358  25.477  1.00  0.00     0.085 A 
ATOM      9  C   UNL A   1      35.081  22.398  24.463  1.00  0.00     0.056 A 
ATOM     10  C   UNL A   1      36.171  21.573  24.176  1.00  0.00     0.029 A 
ATOM     11  C   UNL A   1      37.396  21.810  24.815  1.00  0.00     0.028 A 
ATOM     12  C   UNL A   1      36.390  23.502  26.190  1.00  0.00     0.043 A 
ATOM     13  C   UNL A   1      37.535  22.820  25.785  1.00  0.00     0.038 A 
BRANCH   9  14
ATOM     14  N   UNL A   1      33.916  22.307  23.706  1.00  0.00    -0.321 N 
ATOM     15  C   UNL A   1      32.781  21.552  23.873  1.00  0.00     0.255 C 
ATOM     16  O   UNL A   1      31.718  22.118  23.584  1.00  0.00    -0.269 OA
ATOM     17  H   UNL A   1      33.903  22.888  22.911  1.00  0.00     0.170 HD
BRANCH  15  18
ATOM     18  C   UNL A   1      32.746  20.038  24.082  1.00  0.00     0.043 A 
ATOM     19  C   UNL A   1      32.288  18.899  21.750  1.00  0.00     0.045 C 
ATOM     20  C   UNL A   1      32.465  18.942  23.233  1.00  0.00    -0.038 A 
ATOM     21  C   UNL A   1      32.364  17.634  23.790  1.00  0.00     0.004 A 
ATOM     22  C   UNL A   1      32.524  17.377  25.143  1.00  0.00     0.000 A 
ATOM     23  C   UNL A   1      32.944  19.719  25.461  1.00  0.00     0.014 A 
ATOM     24  C   UNL A   1      32.829  18.426  25.985  1.00  0.00     0.001 A 
ENDBRANCH  15  18
ENDBRANCH   9  14
BRANCH  13  25
ATOM     25  N   UNL A   1      38.808  23.229  26.190  1.00  0.00    -0.372 N 
ATOM     26  C   UNL A   1      38.814  24.502  26.931  1.00  0.00     0.116 C 
ATOM     27  C   UNL A   1      39.736  22.231  26.734  1.00  0.00     0.116 C 
ATOM     28  C   UNL A   1      40.206  25.119  26.842  1.00  0.00     0.021 C 
ATOM     29  C   UNL A   1      41.155  22.781  26.620  1.00  0.00     0.021 C 
ATOM     30  C   UNL A   1      41.289  24.144  27.302  1.00  0.00     0.004 C 
ENDBRANCH  13  25
ENDBRANCH   6   8
ENDBRANCH   5   6
ENDBRANCH   4   5
ENDBRANCH   3   4
ENDBRANCH   2   3
ENDBRANCH   1   2
BRANCH   1  31
ATOM     31  C   UNL A   1      31.441  29.272  25.386  1.00  0.00     0.261 C 
BRANCH  31  32
ATOM     32  O   UNL A   1      32.082  29.474  26.664  1.00  0.00    -0.460 OA
BRANCH  32  33
ATOM     33  C   UNL A   1      32.460  30.726  27.025  1.00  0.00     0.338 C 
ATOM     34  O   UNL A   1      31.704  31.672  27.164  1.00  0.00    -0.246 OA
BRANCH  33  35
ATOM     35  C   UNL A   1      33.920  30.833  27.154  1.00  0.00     0.060 A 
ATOM     36  C   UNL A   1      34.746  29.714  27.003  1.00  0.00     0.016 A 
ATOM     37  C   UNL A   1      34.413  32.034  27.643  1.00  0.00     0.016 A 
ATOM     38  C   UNL A   1      36.075  29.779  27.440  1.00  0.00     0.010 A 
ATOM     39  C   UNL A   1      35.675  32.035  28.205  1.00  0.00     0.010 A 
ATOM     40  C   UNL A   1      36.530  30.924  28.098  1.00  0.00    -0.014 A 
BRANCH  40  41
ATOM     41  C   UNL A   1      37.821  31.047  28.791  1.00  0.00     0.031 A 
ATOM     42  C   UNL A   1      38.908  30.076  28.539  1.00  0.00     0.074 A 
ATOM     43  C   UNL A   1      38.131  32.133  29.533  1.00  0.00     0.049 A 
ATOM     44  N   UNL A   1      39.974  30.008  29.262  1.00  0.00    -0.248 NA
ATOM     45  C   UNL A   1      38.878  29.050  27.502  1.00  0.00     0.031 C 
ATOM     46  C   UNL A   1      39.452  32.666  29.869  1.00  0.00     0.029 A 
ATOM     47  N   UNL A   1      37.261  33.025  30.143  1.00  0.00    -0.354 N 
ATOM     48  C   UNL A   1      40.895  29.266  28.571  1.00  0.00     0.074 A 
ATOM     49  C   UNL A   1      40.120  28.564  27.579  1.00  0.00     0.031 C 
ATOM     50  C   UNL A   1      39.320  33.648  30.772  1.00  0.00     0.029 A 
ATOM     51  C   UNL A   1      37.930  33.690  31.183  1.00  0.00     0.049 A 
ATOM     52  H   UNL A   1      36.321  33.169  29.887  1.00  0.00     0.167 HD
ATOM     53  C   UNL A   1      42.218  29.450  28.843  1.00  0.00     0.031 A 
ATOM     54  C   UNL A   1      37.477  33.576  32.468  1.00  0.00     0.031 A 
ATOM     55  C   UNL A   1      42.431  30.272  30.053  1.00  0.00     0.049 A 
ATOM     56  C   UNL A   1      38.388  32.701  33.310  1.00  0.00     0.074 A 
ATOM     57  C   UNL A   1      43.053  31.472  30.356  1.00  0.00     0.029 A 
ATOM     58  N   UNL A   1      41.712  29.942  31.198  1.00  0.00    -0.354 N 
ATOM     59  N   UNL A   1      39.611  32.382  32.971  1.00  0.00    -0.248 NA
ATOM     60  C   UNL A   1      37.980  32.042  34.553  1.00  0.00     0.031 C 
ATOM     61  C   UNL A   1      42.676  31.851  31.689  1.00  0.00     0.029 A 
ATOM     62  C   UNL A   1      41.858  30.866  32.211  1.00  0.00     0.049 A 
ATOM     63  H   UNL A   1      41.157  29.133  31.276  1.00  0.00     0.167 HD
ATOM     64  C   UNL A   1      40.052  31.359  33.762  1.00  0.00     0.074 A 
ATOM     65  C   UNL A   1      39.033  31.236  34.792  1.00  0.00     0.031 C 
ATOM     66  C   UNL A   1      41.163  30.619  33.472  1.00  0.00     0.031 A 
BRANCH  53  67
ATOM     67  C   UNL A   1      43.332  28.977  27.926  1.00  0.00    -0.014 A 
ATOM     68  C   UNL A   1      43.032  28.209  26.784  1.00  0.00     0.010 A 
ATOM     69  C   UNL A   1      44.705  29.204  28.160  1.00  0.00     0.010 A 
ATOM     70  C   UNL A   1      44.039  27.713  25.932  1.00  0.00     0.020 A 
ATOM     71  C   UNL A   1      45.717  28.748  27.307  1.00  0.00     0.020 A 
ATOM     72  C   UNL A   1      45.378  27.996  26.195  1.00  0.00     0.054 A 
BRANCH  72  73
ATOM     73  S   UNL A   1      46.673  27.373  25.092  1.00  0.00     0.124 S 
ATOM     74  O   UNL A   1      46.723  28.403  24.058  1.00  0.00    -0.237 OA
ATOM     75  O   UNL A   1      47.833  27.304  25.973  1.00  0.00    -0.237 OA
ATOM     76  O   UNL A   1      46.157  26.079  24.647  1.00  0.00    -0.744 OA
ENDBRANCH  72  73
ENDBRANCH  53  67
BRANCH  54  77
ATOM     77  C   UNL A   1      35.989  33.735  32.556  1.00  0.00    -0.014 A 
ATOM     78  C   UNL A   1      35.501  34.478  33.657  1.00  0.00     0.010 A 
ATOM     79  C   UNL A   1      35.171  33.624  31.417  1.00  0.00     0.010 A 
ATOM     80  C   UNL A   1      34.317  35.224  33.561  1.00  0.00     0.020 A 
ATOM     81  C   UNL A   1      33.991  34.385  31.311  1.00  0.00     0.020 A 
ATOM     82  C   UNL A   1      33.600  35.220  32.363  1.00  0.00     0.054 A 
BRANCH  82  83
ATOM     83  S   UNL A   1      32.348  36.522  32.086  1.00  0.00     0.124 S 
ATOM     84  O   UNL A   1      32.272  36.577  30.632  1.00  0.00    -0.237 OA
ATOM     85  O   UNL A   1      31.164  35.982  32.755  1.00  0.00    -0.237 OA
ATOM     86  O   UNL A   1      32.930  37.690  32.740  1.00  0.00    -0.744 OA
ENDBRANCH  82  83
ENDBRANCH  54  77
BRANCH  66  87
ATOM     87  C   UNL A   1      41.635  29.504  34.364  1.00  0.00    -0.014 A 
ATOM     88  C   UNL A   1      42.547  29.736  35.407  1.00  0.00     0.010 A 
ATOM     89  C   UNL A   1      41.274  28.164  34.101  1.00  0.00     0.010 A 
ATOM     90  C   UNL A   1      43.026  28.681  36.193  1.00  0.00     0.020 A 
ATOM     91  C   UNL A   1      41.763  27.103  34.863  1.00  0.00     0.020 A 
ATOM     92  C   UNL A   1      42.619  27.372  35.924  1.00  0.00     0.054 A 
BRANCH  92  93
ATOM     93  S   UNL A   1      43.246  26.017  36.945  1.00  0.00     0.124 S 
ATOM     94  O   UNL A   1      42.328  24.924  36.630  1.00  0.00    -0.237 OA
ATOM     95  O   UNL A   1      44.605  25.860  36.433  1.00  0.00    -0.237 OA
ATOM     96  O   UNL A   1      43.148  26.532  38.308  1.00  0.00    -0.744 OA
ENDBRANCH  92  93
ENDBRANCH  66  87
ENDBRANCH  40  41
ENDBRANCH  33  35
ENDBRANCH  32  33
ENDBRANCH  31  32
ENDBRANCH   1  31
TORSDOF 20
ENDMDL
MODEL 3
REMARK VINA RESULT:     -12.2      3.160      9.022
REMARK SMILES Cc1ccccc1C(=O)Nc1ccc(N2CCCCC2)cc1C(=O)OCCOCCOC(=O)c1ccc(-c2c3nc(c(-c4ccc(S(=O)(=O)[O-])cc4)c4ccc([nH]4)c(-c4ccc(S(=O)(=O)[O-])cc4)c4nc(c(-c5ccc(S(=O)(=O)[O-])cc5)c5ccc2[nH]5)C=C4)C=C3)cc1
REMARK SMILES IDX 29 1 28 2 27 3 26 4 25 5 23 6 24 7 22 8 11 9 12 10 13 11
REMARK SMILES IDX 21 12 14 13 10 14 8 15 9 16 7 18 1 19 2 20 3 21 4 22 6 23
REMARK SMILES IDX 5 24 15 25 16 26 20 27 17 28 19 29 18 30 30 31 31 32 32 33
REMARK SMILES IDX 33 34 34 35 35 36 93 37 36 38 92 39 37 40 38 41 39 42 86 43
REMARK SMILES IDX 40 44 91 45 85 46 87 47 41 48 90 49 84 50 83 51 42 53 72 54
REMARK SMILES IDX 53 55 71 56 54 57 57 58 70 59 88 60 55 61 56 62 69 64 89 65
REMARK SMILES IDX 58 66 43 67 44 68 52 69 45 70 51 71 46 72 47 73 48 74 49 75
REMARK SMILES IDX 50 76 73 77 74 78 82 79 75 80 81 81 76 82 77 83 78 84 79 85
REMARK SMILES IDX 80 86 59 87 60 88 68 89 61 90 67 91 62 92 63 93 64 94 65 95
REMARK SMILES IDX 66 96
REMARK H PARENT 10 17 87 52 57 63
REMARK Flexibility Score: inf
ROOT
ATOM      1  C   UNL A   1      33.069  28.663  26.795  1.00  0.00     0.202 C 
ENDROOT
BRANCH   1   2
ATOM      2  O   UNL A   1      32.467  28.344  25.563  1.00  0.00    -0.374 OA
BRANCH   2   3
ATOM      3  C   UNL A   1      33.022  29.027  24.455  1.00  0.00     0.202 C 
BRANCH   3   4
ATOM      4  C   UNL A   1      34.141  28.188  23.885  1.00  0.00     0.261 C 
BRANCH   4   5
ATOM      5  O   UNL A   1      34.028  26.760  24.108  1.00  0.00    -0.460 OA
BRANCH   5   6
ATOM      6  C   UNL A   1      33.545  25.808  23.264  1.00  0.00     0.340 C 
ATOM      7  O   UNL A   1      34.073  25.220  22.357  1.00  0.00    -0.246 OA
BRANCH   6   8
ATOM      8  C   UNL A   1      32.192  25.503  23.798  1.00  0.00     0.085 A 
ATOM      9  C   UNL A   1      32.078  24.886  25.050  1.00  0.00     0.056 A 
ATOM     10  C   UNL A   1      30.873  24.973  25.751  1.00  0.00     0.029 A 
ATOM     11  C   UNL A   1      29.846  25.785  25.249  1.00  0.00     0.028 A 
ATOM     12  C   UNL A   1      31.113  26.213  23.255  1.00  0.00     0.043 A 
ATOM     13  C   UNL A   1      29.980  26.465  24.025  1.00  0.00     0.038 A 
BRANCH   9  14
ATOM     14  N   UNL A   1      33.174  24.245  25.620  1.00  0.00    -0.321 N 
ATOM     15  C   UNL A   1      33.961  23.215  25.167  1.00  0.00     0.255 C 
ATOM     16  O   UNL A   1      35.169  23.314  25.422  1.00  0.00    -0.269 OA
ATOM     17  H   UNL A   1      33.433  24.593  26.505  1.00  0.00     0.170 HD
BRANCH  15  18
ATOM     18  C   UNL A   1      33.449  21.863  24.666  1.00  0.00     0.043 A 
ATOM     19  C   UNL A   1      32.474  22.203  22.242  1.00  0.00     0.045 C 
ATOM     20  C   UNL A   1      32.764  21.451  23.499  1.00  0.00    -0.038 A 
ATOM     21  C   UNL A   1      32.282  20.113  23.407  1.00  0.00     0.004 A 
ATOM     22  C   UNL A   1      32.449  19.181  24.421  1.00  0.00     0.000 A 
ATOM     23  C   UNL A   1      33.633  20.858  25.665  1.00  0.00     0.014 A 
ATOM     24  C   UNL A   1      33.141  19.552  25.555  1.00  0.00     0.001 A 
ENDBRANCH  15  18
ENDBRANCH   9  14
BRANCH  13  25
ATOM     25  N   UNL A   1      29.084  27.483  23.689  1.00  0.00    -0.372 N 
ATOM     26  C   UNL A   1      29.608  28.430  22.690  1.00  0.00     0.116 C 
ATOM     27  C   UNL A   1      27.669  27.147  23.490  1.00  0.00     0.116 C 
ATOM     28  C   UNL A   1      28.837  29.742  22.801  1.00  0.00     0.021 C 
ATOM     29  C   UNL A   1      26.845  28.423  23.643  1.00  0.00     0.021 C 
ATOM     30  C   UNL A   1      27.329  29.524  22.697  1.00  0.00     0.004 C 
ENDBRANCH  13  25
ENDBRANCH   6   8
ENDBRANCH   5   6
ENDBRANCH   4   5
ENDBRANCH   3   4
ENDBRANCH   2   3
ENDBRANCH   1   2
BRANCH   1  31
ATOM     31  C   UNL A   1      32.898  30.119  27.232  1.00  0.00     0.261 C 
BRANCH  31  32
ATOM     32  O   UNL A   1      34.084  30.942  27.203  1.00  0.00    -0.460 OA
BRANCH  32  33
ATOM     33  C   UNL A   1      34.696  31.262  28.370  1.00  0.00     0.338 C 
ATOM     34  O   UNL A   1      34.382  32.192  29.094  1.00  0.00    -0.246 OA
BRANCH  33  35
ATOM     35  C   UNL A   1      35.852  30.393  28.629  1.00  0.00     0.060 A 
ATOM     36  C   UNL A   1      36.126  29.910  29.913  1.00  0.00     0.016 A 
ATOM     37  C   UNL A   1      36.769  30.257  27.596  1.00  0.00     0.016 A 
ATOM     38  C   UNL A   1      37.385  29.362  30.186  1.00  0.00     0.010 A 
ATOM     39  C   UNL A   1      38.051  29.854  27.917  1.00  0.00     0.010 A 
ATOM     40  C   UNL A   1      38.376  29.385  29.202  1.00  0.00    -0.014 A 
BRANCH  40  41
ATOM     41  C   UNL A   1      39.790  29.043  29.414  1.00  0.00     0.031 A 
ATOM     42  C   UNL A   1      40.288  27.680  29.126  1.00  0.00     0.074 A 
ATOM     43  C   UNL A   1      40.717  29.984  29.700  1.00  0.00     0.049 A 
ATOM     44  N   UNL A   1      41.455  27.265  29.486  1.00  0.00    -0.248 NA
ATOM     45  C   UNL A   1      39.508  26.634  28.471  1.00  0.00     0.031 C 
ATOM     46  C   UNL A   1      42.160  29.949  29.463  1.00  0.00     0.029 A 
ATOM     47  N   UNL A   1      40.516  31.233  30.271  1.00  0.00    -0.354 N 
ATOM     48  C   UNL A   1      41.721  26.120  28.784  1.00  0.00     0.074 A 
ATOM     49  C   UNL A   1      40.433  25.685  28.303  1.00  0.00     0.031 C 
ATOM     50  C   UNL A   1      42.734  31.006  30.056  1.00  0.00     0.029 A 
ATOM     51  C   UNL A   1      41.718  31.685  30.837  1.00  0.00     0.049 A 
ATOM     52  H   UNL A   1      39.662  31.724  30.279  1.00  0.00     0.167 HD
ATOM     53  C   UNL A   1      43.021  25.763  28.584  1.00  0.00     0.031 A 
ATOM     54  C   UNL A   1      41.786  31.944  32.178  1.00  0.00     0.031 A 
ATOM     55  C   UNL A   1      43.954  26.570  29.398  1.00  0.00     0.049 A 
ATOM     56  C   UNL A   1      42.588  30.886  32.915  1.00  0.00     0.074 A 
ATOM     57  C   UNL A   1      45.017  27.425  29.158  1.00  0.00     0.029 A 
ATOM     58  N   UNL A   1      43.665  26.729  30.751  1.00  0.00    -0.354 N 
ATOM     59  N   UNL A   1      43.393  30.040  32.327  1.00  0.00    -0.248 NA
ATOM     60  C   UNL A   1      42.490  30.631  34.354  1.00  0.00     0.031 C 
ATOM     61  C   UNL A   1      45.339  28.101  30.383  1.00  0.00     0.029 A 
ATOM     62  C   UNL A   1      44.500  27.631  31.377  1.00  0.00     0.049 A 
ATOM     63  H   UNL A   1      42.941  26.248  31.212  1.00  0.00     0.167 HD
ATOM     64  C   UNL A   1      43.722  29.041  33.199  1.00  0.00     0.074 A 
ATOM     65  C   UNL A   1      43.204  29.497  34.479  1.00  0.00     0.031 C 
ATOM     66  C   UNL A   1      44.305  27.870  32.806  1.00  0.00     0.031 A 
BRANCH  53  67
ATOM     67  C   UNL A   1      43.458  24.747  27.543  1.00  0.00    -0.014 A 
ATOM     68  C   UNL A   1      43.373  23.368  27.819  1.00  0.00     0.010 A 
ATOM     69  C   UNL A   1      44.016  25.081  26.290  1.00  0.00     0.010 A 
ATOM     70  C   UNL A   1      43.809  22.394  26.899  1.00  0.00     0.020 A 
ATOM     71  C   UNL A   1      44.423  24.127  25.350  1.00  0.00     0.020 A 
ATOM     72  C   UNL A   1      44.323  22.782  25.663  1.00  0.00     0.054 A 
BRANCH  72  73
ATOM     73  S   UNL A   1      44.868  21.531  24.472  1.00  0.00     0.124 S 
ATOM     74  O   UNL A   1      46.296  21.426  24.761  1.00  0.00    -0.237 OA
ATOM     75  O   UNL A   1      44.061  20.373  24.839  1.00  0.00    -0.237 OA
ATOM     76  O   UNL A   1      44.545  22.123  23.174  1.00  0.00    -0.744 OA
ENDBRANCH  72  73
ENDBRANCH  53  67
BRANCH  54  77
ATOM     77  C   UNL A   1      40.601  32.725  32.660  1.00  0.00    -0.014 A 
ATOM     78  C   UNL A   1      40.214  33.832  31.868  1.00  0.00     0.010 A 
ATOM     79  C   UNL A   1      39.638  32.148  33.508  1.00  0.00     0.010 A 
ATOM     80  C   UNL A   1      38.874  34.239  31.796  1.00  0.00     0.020 A 
ATOM     81  C   UNL A   1      38.289  32.543  33.425  1.00  0.00     0.020 A 
ATOM     82  C   UNL A   1      37.908  33.550  32.532  1.00  0.00     0.054 A 
BRANCH  82  83
ATOM     83  S   UNL A   1      36.148  33.770  32.092  1.00  0.00     0.124 S 
ATOM     84  O   UNL A   1      35.683  34.694  33.119  1.00  0.00    -0.237 OA
ATOM     85  O   UNL A   1      36.217  34.321  30.739  1.00  0.00    -0.237 OA
ATOM     86  O   UNL A   1      35.614  32.413  32.165  1.00  0.00    -0.744 OA
ENDBRANCH  82  83
ENDBRANCH  54  77
BRANCH  66  87
ATOM     87  C   UNL A   1      44.668  26.788  33.786  1.00  0.00    -0.014 A 
ATOM     88  C   UNL A   1      43.759  25.775  34.129  1.00  0.00     0.010 A 
ATOM     89  C   UNL A   1      45.892  26.831  34.490  1.00  0.00     0.010 A 
ATOM     90  C   UNL A   1      44.086  24.807  35.087  1.00  0.00     0.020 A 
ATOM     91  C   UNL A   1      46.218  25.886  35.462  1.00  0.00     0.020 A 
ATOM     92  C   UNL A   1      45.321  24.862  35.738  1.00  0.00     0.054 A 
BRANCH  92  93
ATOM     93  S   UNL A   1      45.731  23.608  36.976  1.00  0.00     0.124 S 
ATOM     94  O   UNL A   1      45.026  24.084  38.164  1.00  0.00    -0.237 OA
ATOM     95  O   UNL A   1      45.186  22.398  36.367  1.00  0.00    -0.237 OA
ATOM     96  O   UNL A   1      47.188  23.664  37.060  1.00  0.00    -0.744 OA
ENDBRANCH  92  93
ENDBRANCH  66  87
ENDBRANCH  40  41
ENDBRANCH  33  35
ENDBRANCH  32  33
ENDBRANCH  31  32
ENDBRANCH   1  31
TORSDOF 20
ENDMDL
