MODEL 1
REMARK VINA RESULT:      -9.1      0.000      0.000
REMARK SMILES C=CCOC(=O)N[C@@H](Cc1ccccc1)C(=O)OCCOCCOC(=O)c1ccc(-c2c3nc(c(-c4ccc(S(=O)(=O)[O-])cc4)c4ccc([nH]4)c(-c4ccc(S(=O)(=O)[O-])cc4)c4nc(c(-c5ccc(S(=O)(=O)[O-])cc5)c5ccc2[nH]5)C=C4)C=C3)cc1
REMARK SMILES IDX 20 1 19 2 18 3 16 4 17 5 8 6 7 7 5 8 6 9 4 11 3 12 2 13 1 14
REMARK SMILES IDX 9 15 10 16 11 17 15 18 12 19 14 20 13 21 21 22 22 23 23 24
REMARK SMILES IDX 24 25 25 26 26 27 27 28 28 29 86 30 29 31 85 32 30 33 31 34
REMARK SMILES IDX 32 35 79 36 33 37 84 38 78 39 80 40 34 41 83 42 77 43 76 44
REMARK SMILES IDX 35 46 65 47 46 48 64 49 47 50 50 51 63 52 81 53 48 54 49 55
REMARK SMILES IDX 62 57 82 58 51 59 36 60 37 61 45 62 38 63 44 64 39 65 40 66
REMARK SMILES IDX 41 67 42 68 43 69 66 70 67 71 75 72 68 73 74 74 69 75 70 76
REMARK SMILES IDX 71 77 72 78 73 79 52 80 53 81 61 82 54 83 60 84 55 85 56 86
REMARK SMILES IDX 57 87 58 88 59 89
REMARK H PARENT 7 10 80 45 50 56
REMARK Flexibility Score: inf
ROOT
ATOM      1  C   UNL A   1      31.207  26.910  24.235  1.00  0.00     0.202 C 
ENDROOT
BRANCH   1   2
ATOM      2  C   UNL A   1      31.808  26.036  23.133  1.00  0.00     0.261 C 
BRANCH   2   3
ATOM      3  O   UNL A   1      32.883  25.232  23.627  1.00  0.00    -0.462 OA
BRANCH   3   4
ATOM      4  C   UNL A   1      33.031  24.010  23.041  1.00  0.00     0.329 C 
ATOM      5  O   UNL A   1      33.483  23.813  21.918  1.00  0.00    -0.250 OA
BRANCH   4   6
ATOM      6  C   UNL A   1      32.461  22.887  23.913  1.00  0.00     0.199 C 
BRANCH   6   7
ATOM      7  N   UNL A   1      31.420  23.312  24.859  1.00  0.00    -0.308 N 
ATOM      8  C   UNL A   1      31.144  22.779  26.077  1.00  0.00     0.408 C 
ATOM      9  O   UNL A   1      30.073  22.999  26.636  1.00  0.00    -0.225 OA
ATOM     10  H   UNL A   1      30.859  24.070  24.578  1.00  0.00     0.168 HD
BRANCH   8  11
ATOM     11  O   UNL A   1      32.151  22.026  26.576  1.00  0.00    -0.445 OA
BRANCH  11  12
ATOM     12  C   UNL A   1      32.986  22.652  27.562  1.00  0.00     0.262 C 
BRANCH  12  13
ATOM     13  C   UNL A   1      34.447  22.567  27.222  1.00  0.00     0.006 C 
ATOM     14  C   UNL A   1      35.044  23.364  26.325  1.00  0.00     0.007 C 
ENDBRANCH  12  13
ENDBRANCH  11  12
ENDBRANCH   8  11
ENDBRANCH   6   7
BRANCH   6  15
ATOM     15  C   UNL A   1      31.924  21.782  22.977  1.00  0.00     0.072 C 
BRANCH  15  16
ATOM     16  C   UNL A   1      32.532  20.422  23.267  1.00  0.00    -0.045 A 
ATOM     17  C   UNL A   1      32.160  19.302  22.510  1.00  0.00     0.004 A 
ATOM     18  C   UNL A   1      33.394  20.246  24.361  1.00  0.00     0.004 A 
ATOM     19  C   UNL A   1      32.611  18.029  22.864  1.00  0.00     0.000 A 
ATOM     20  C   UNL A   1      33.832  18.971  24.718  1.00  0.00     0.000 A 
ATOM     21  C   UNL A   1      33.436  17.863  23.973  1.00  0.00     0.000 A 
ENDBRANCH  15  16
ENDBRANCH   6  15
ENDBRANCH   4   6
ENDBRANCH   3   4
ENDBRANCH   2   3
ENDBRANCH   1   2
BRANCH   1  22
ATOM     22  O   UNL A   1      31.765  28.208  24.428  1.00  0.00    -0.374 OA
BRANCH  22  23
ATOM     23  C   UNL A   1      32.154  28.590  25.748  1.00  0.00     0.202 C 
BRANCH  23  24
ATOM     24  C   UNL A   1      33.516  28.126  26.287  1.00  0.00     0.261 C 
BRANCH  24  25
ATOM     25  O   UNL A   1      33.840  28.630  27.595  1.00  0.00    -0.460 OA
BRANCH  25  26
ATOM     26  C   UNL A   1      34.419  29.859  27.597  1.00  0.00     0.338 C 
ATOM     27  O   UNL A   1      33.874  30.931  27.392  1.00  0.00    -0.246 OA
BRANCH  26  28
ATOM     28  C   UNL A   1      35.814  29.766  28.062  1.00  0.00     0.060 A 
ATOM     29  C   UNL A   1      36.834  29.956  27.121  1.00  0.00     0.016 A 
ATOM     30  C   UNL A   1      36.115  29.387  29.370  1.00  0.00     0.016 A 
ATOM     31  C   UNL A   1      38.164  29.743  27.481  1.00  0.00     0.010 A 
ATOM     32  C   UNL A   1      37.449  29.164  29.725  1.00  0.00     0.010 A 
ATOM     33  C   UNL A   1      38.478  29.316  28.778  1.00  0.00    -0.014 A 
BRANCH  33  34
ATOM     34  C   UNL A   1      39.871  28.932  29.113  1.00  0.00     0.031 A 
ATOM     35  C   UNL A   1      40.778  29.939  29.769  1.00  0.00     0.074 A 
ATOM     36  C   UNL A   1      40.319  27.693  28.842  1.00  0.00     0.049 A 
ATOM     37  N   UNL A   1      42.041  29.827  30.090  1.00  0.00    -0.248 NA
ATOM     38  C   UNL A   1      40.182  31.242  30.106  1.00  0.00     0.031 C 
ATOM     39  C   UNL A   1      39.523  26.617  28.254  1.00  0.00     0.029 A 
ATOM     40  N   UNL A   1      41.560  27.135  29.023  1.00  0.00    -0.354 N 
ATOM     41  C   UNL A   1      42.397  31.047  30.655  1.00  0.00     0.074 A 
ATOM     42  C   UNL A   1      41.222  31.891  30.610  1.00  0.00     0.031 C 
ATOM     43  C   UNL A   1      40.299  25.528  28.115  1.00  0.00     0.029 A 
ATOM     44  C   UNL A   1      41.654  25.844  28.563  1.00  0.00     0.049 A 
ATOM     45  H   UNL A   1      42.311  27.614  29.442  1.00  0.00     0.167 HD
ATOM     46  C   UNL A   1      43.593  31.428  31.167  1.00  0.00     0.031 A 
ATOM     47  C   UNL A   1      42.717  25.019  28.484  1.00  0.00     0.031 A 
ATOM     48  C   UNL A   1      44.762  30.588  31.195  1.00  0.00     0.049 A 
ATOM     49  C   UNL A   1      44.058  25.495  28.980  1.00  0.00     0.074 A 
ATOM     50  C   UNL A   1      46.016  30.877  31.706  1.00  0.00     0.029 A 
ATOM     51  N   UNL A   1      44.829  29.302  30.680  1.00  0.00    -0.354 N 
ATOM     52  N   UNL A   1      44.374  26.642  29.533  1.00  0.00    -0.248 NA
ATOM     53  C   UNL A   1      45.185  24.562  28.844  1.00  0.00     0.031 C 
ATOM     54  C   UNL A   1      46.857  29.792  31.441  1.00  0.00     0.029 A 
ATOM     55  C   UNL A   1      46.110  28.797  30.830  1.00  0.00     0.049 A 
ATOM     56  H   UNL A   1      44.075  28.818  30.270  1.00  0.00     0.167 HD
ATOM     57  C   UNL A   1      45.730  26.558  29.835  1.00  0.00     0.074 A 
ATOM     58  C   UNL A   1      46.169  25.242  29.419  1.00  0.00     0.031 C 
ATOM     59  C   UNL A   1      46.537  27.487  30.406  1.00  0.00     0.031 A 
BRANCH  46  60
ATOM     60  C   UNL A   1      43.709  32.832  31.701  1.00  0.00    -0.014 A 
ATOM     61  C   UNL A   1      43.994  33.919  30.855  1.00  0.00     0.010 A 
ATOM     62  C   UNL A   1      43.484  33.074  33.070  1.00  0.00     0.010 A 
ATOM     63  C   UNL A   1      44.091  35.214  31.373  1.00  0.00     0.020 A 
ATOM     64  C   UNL A   1      43.551  34.371  33.587  1.00  0.00     0.020 A 
ATOM     65  C   UNL A   1      43.870  35.432  32.737  1.00  0.00     0.054 A 
BRANCH  65  66
ATOM     66  S   UNL A   1      43.979  37.125  33.376  1.00  0.00     0.124 S 
ATOM     67  O   UNL A   1      42.694  37.276  34.055  1.00  0.00    -0.237 OA
ATOM     68  O   UNL A   1      45.147  37.061  34.251  1.00  0.00    -0.237 OA
ATOM     69  O   UNL A   1      44.148  37.940  32.175  1.00  0.00    -0.744 OA
ENDBRANCH  65  66
ENDBRANCH  46  60
BRANCH  47  70
ATOM     70  C   UNL A   1      42.563  23.665  27.885  1.00  0.00    -0.014 A 
ATOM     71  C   UNL A   1      42.125  22.579  28.663  1.00  0.00     0.010 A 
ATOM     72  C   UNL A   1      42.856  23.455  26.524  1.00  0.00     0.010 A 
ATOM     73  C   UNL A   1      41.997  21.308  28.096  1.00  0.00     0.020 A 
ATOM     74  C   UNL A   1      42.698  22.193  25.945  1.00  0.00     0.020 A 
ATOM     75  C   UNL A   1      42.279  21.124  26.739  1.00  0.00     0.054 A 
BRANCH  75  76
ATOM     76  S   UNL A   1      42.050  19.477  26.014  1.00  0.00     0.124 S 
ATOM     77  O   UNL A   1      42.900  19.546  24.829  1.00  0.00    -0.237 OA
ATOM     78  O   UNL A   1      42.519  18.598  27.081  1.00  0.00    -0.237 OA
ATOM     79  O   UNL A   1      40.613  19.416  25.753  1.00  0.00    -0.744 OA
ENDBRANCH  75  76
ENDBRANCH  47  70
BRANCH  59  80
ATOM     80  C   UNL A   1      47.977  27.107  30.645  1.00  0.00    -0.014 A 
ATOM     81  C   UNL A   1      48.971  27.367  29.685  1.00  0.00     0.010 A 
ATOM     82  C   UNL A   1      48.348  26.530  31.874  1.00  0.00     0.010 A 
ATOM     83  C   UNL A   1      50.304  27.031  29.938  1.00  0.00     0.020 A 
ATOM     84  C   UNL A   1      49.684  26.221  32.143  1.00  0.00     0.020 A 
ATOM     85  C   UNL A   1      50.652  26.461  31.167  1.00  0.00     0.054 A 
BRANCH  85  86
ATOM     86  S   UNL A   1      52.396  26.077  31.487  1.00  0.00     0.124 S 
ATOM     87  O   UNL A   1      52.771  27.128  32.428  1.00  0.00    -0.237 OA
ATOM     88  O   UNL A   1      52.329  24.729  32.044  1.00  0.00    -0.237 OA
ATOM     89  O   UNL A   1      53.020  26.171  30.169  1.00  0.00    -0.744 OA
ENDBRANCH  85  86
ENDBRANCH  59  80
ENDBRANCH  33  34
ENDBRANCH  26  28
ENDBRANCH  25  26
ENDBRANCH  24  25
ENDBRANCH  23  24
ENDBRANCH  22  23
ENDBRANCH   1  22
TORSDOF 23
ENDMDL
MODEL 2
REMARK VINA RESULT:      -9.1      1.247      2.321
REMARK SMILES C=CCOC(=O)N[C@@H](Cc1ccccc1)C(=O)OCCOCCOC(=O)c1ccc(-c2c3nc(c(-c4ccc(S(=O)(=O)[O-])cc4)c4ccc([nH]4)c(-c4ccc(S(=O)(=O)[O-])cc4)c4nc(c(-c5ccc(S(=O)(=O)[O-])cc5)c5ccc2[nH]5)C=C4)C=C3)cc1
REMARK SMILES IDX 20 1 19 2 18 3 16 4 17 5 8 6 7 7 5 8 6 9 4 11 3 12 2 13 1 14
REMARK SMILES IDX 9 15 10 16 11 17 15 18 12 19 14 20 13 21 21 22 22 23 23 24
REMARK SMILES IDX 24 25 25 26 26 27 27 28 28 29 86 30 29 31 85 32 30 33 31 34
REMARK SMILES IDX 32 35 79 36 33 37 84 38 78 39 80 40 34 41 83 42 77 43 76 44
REMARK SMILES IDX 35 46 65 47 46 48 64 49 47 50 50 51 63 52 81 53 48 54 49 55
REMARK SMILES IDX 62 57 82 58 51 59 36 60 37 61 45 62 38 63 44 64 39 65 40 66
REMARK SMILES IDX 41 67 42 68 43 69 66 70 67 71 75 72 68 73 74 74 69 75 70 76
REMARK SMILES IDX 71 77 72 78 73 79 52 80 53 81 61 82 54 83 60 84 55 85 56 86
REMARK SMILES IDX 57 87 58 88 59 89
REMARK H PARENT 7 10 80 45 50 56
REMARK Flexibility Score: inf
ROOT
ATOM      1  C   UNL A   1      31.070  27.174  25.844  1.00  0.00     0.202 C 
ENDROOT
BRANCH   1   2
ATOM      2  C   UNL A   1      31.415  25.785  26.385  1.00  0.00     0.261 C 
BRANCH   2   3
ATOM      3  O   UNL A   1      30.272  24.925  26.392  1.00  0.00    -0.462 OA
BRANCH   3   4
ATOM      4  C   UNL A   1      30.516  23.613  26.667  1.00  0.00     0.329 C 
ATOM      5  O   UNL A   1      30.127  23.013  27.664  1.00  0.00    -0.250 OA
BRANCH   4   6
ATOM      6  C   UNL A   1      31.441  22.975  25.626  1.00  0.00     0.199 C 
BRANCH   6   7
ATOM      7  N   UNL A   1      31.835  21.590  25.919  1.00  0.00    -0.308 N 
ATOM      8  C   UNL A   1      33.094  21.092  26.011  1.00  0.00     0.408 C 
ATOM      9  O   UNL A   1      33.304  19.884  25.948  1.00  0.00    -0.225 OA
ATOM     10  H   UNL A   1      31.102  20.950  26.064  1.00  0.00     0.168 HD
BRANCH   8  11
ATOM     11  O   UNL A   1      34.038  22.045  26.189  1.00  0.00    -0.445 OA
BRANCH  11  12
ATOM     12  C   UNL A   1      35.351  21.743  25.694  1.00  0.00     0.262 C 
BRANCH  12  13
ATOM     13  C   UNL A   1      36.061  22.953  25.158  1.00  0.00     0.006 C 
ATOM     14  C   UNL A   1      36.185  23.217  23.849  1.00  0.00     0.007 C 
ENDBRANCH  12  13
ENDBRANCH  11  12
ENDBRANCH   8  11
ENDBRANCH   6   7
BRANCH   6  15
ATOM     15  C   UNL A   1      30.742  23.061  24.251  1.00  0.00     0.072 C 
BRANCH  15  16
ATOM     16  C   UNL A   1      31.552  23.836  23.229  1.00  0.00    -0.045 A 
ATOM     17  C   UNL A   1      31.140  25.111  22.815  1.00  0.00     0.004 A 
ATOM     18  C   UNL A   1      32.665  23.248  22.608  1.00  0.00     0.004 A 
ATOM     19  C   UNL A   1      31.804  25.765  21.776  1.00  0.00     0.000 A 
ATOM     20  C   UNL A   1      33.318  23.899  21.562  1.00  0.00     0.000 A 
ATOM     21  C   UNL A   1      32.884  25.155  21.143  1.00  0.00     0.000 A 
ENDBRANCH  15  16
ENDBRANCH   6  15
ENDBRANCH   4   6
ENDBRANCH   3   4
ENDBRANCH   2   3
ENDBRANCH   1   2
BRANCH   1  22
ATOM     22  O   UNL A   1      31.929  27.729  24.851  1.00  0.00    -0.374 OA
BRANCH  22  23
ATOM     23  C   UNL A   1      33.070  28.474  25.278  1.00  0.00     0.202 C 
BRANCH  23  24
ATOM     24  C   UNL A   1      33.898  27.952  26.463  1.00  0.00     0.261 C 
BRANCH  24  25
ATOM     25  O   UNL A   1      33.749  28.713  27.674  1.00  0.00    -0.460 OA
BRANCH  25  26
ATOM     26  C   UNL A   1      34.329  29.941  27.643  1.00  0.00     0.338 C 
ATOM     27  O   UNL A   1      33.785  31.009  27.415  1.00  0.00    -0.246 OA
BRANCH  26  28
ATOM     28  C   UNL A   1      35.727  29.857  28.102  1.00  0.00     0.060 A 
ATOM     29  C   UNL A   1      36.741  30.076  27.161  1.00  0.00     0.016 A 
ATOM     30  C   UNL A   1      36.036  29.458  29.402  1.00  0.00     0.016 A 
ATOM     31  C   UNL A   1      38.075  29.874  27.514  1.00  0.00     0.010 A 
ATOM     32  C   UNL A   1      37.374  29.246  29.750  1.00  0.00     0.010 A 
ATOM     33  C   UNL A   1      38.398  29.428  28.802  1.00  0.00    -0.014 A 
BRANCH  33  34
ATOM     34  C   UNL A   1      39.797  29.055  29.126  1.00  0.00     0.031 A 
ATOM     35  C   UNL A   1      40.703  30.072  29.768  1.00  0.00     0.074 A 
ATOM     36  C   UNL A   1      40.250  27.817  28.859  1.00  0.00     0.049 A 
ATOM     37  N   UNL A   1      41.970  29.970  30.077  1.00  0.00    -0.248 NA
ATOM     38  C   UNL A   1      40.102  31.373  30.102  1.00  0.00     0.031 C 
ATOM     39  C   UNL A   1      39.456  26.732  28.285  1.00  0.00     0.029 A 
ATOM     40  N   UNL A   1      41.497  27.268  29.031  1.00  0.00    -0.354 N 
ATOM     41  C   UNL A   1      42.323  31.196  30.632  1.00  0.00     0.074 A 
ATOM     42  C   UNL A   1      41.142  32.032  30.592  1.00  0.00     0.031 C 
ATOM     43  C   UNL A   1      40.238  25.647  28.146  1.00  0.00     0.029 A 
ATOM     44  C   UNL A   1      41.595  25.975  28.579  1.00  0.00     0.049 A 
ATOM     45  H   UNL A   1      42.249  27.755  29.440  1.00  0.00     0.167 HD
ATOM     46  C   UNL A   1      43.521  31.588  31.129  1.00  0.00     0.031 A 
ATOM     47  C   UNL A   1      42.663  25.157  28.494  1.00  0.00     0.031 A 
ATOM     48  C   UNL A   1      44.696  30.756  31.151  1.00  0.00     0.049 A 
ATOM     49  C   UNL A   1      44.005  25.644  28.975  1.00  0.00     0.074 A 
ATOM     50  C   UNL A   1      45.953  31.056  31.649  1.00  0.00     0.029 A 
ATOM     51  N   UNL A   1      44.766  29.467  30.644  1.00  0.00    -0.354 N 
ATOM     52  N   UNL A   1      44.318  26.797  29.518  1.00  0.00    -0.248 NA
ATOM     53  C   UNL A   1      45.137  24.718  28.834  1.00  0.00     0.031 C 
ATOM     54  C   UNL A   1      46.798  29.975  31.383  1.00  0.00     0.029 A 
ATOM     55  C   UNL A   1      46.052  28.972  30.785  1.00  0.00     0.049 A 
ATOM     56  H   UNL A   1      44.012  28.976  30.244  1.00  0.00     0.167 HD
ATOM     57  C   UNL A   1      45.678  26.724  29.808  1.00  0.00     0.074 A 
ATOM     58  C   UNL A   1      46.122  25.409  29.395  1.00  0.00     0.031 C 
ATOM     59  C   UNL A   1      46.484  27.661  30.365  1.00  0.00     0.031 A 
BRANCH  46  60
ATOM     60  C   UNL A   1      43.633  32.996  31.654  1.00  0.00    -0.014 A 
ATOM     61  C   UNL A   1      43.418  33.293  33.012  1.00  0.00     0.010 A 
ATOM     62  C   UNL A   1      44.006  34.035  30.780  1.00  0.00     0.010 A 
ATOM     63  C   UNL A   1      43.533  34.606  33.478  1.00  0.00     0.020 A 
ATOM     64  C   UNL A   1      44.152  35.345  31.247  1.00  0.00     0.020 A 
ATOM     65  C   UNL A   1      43.900  35.624  32.591  1.00  0.00     0.054 A 
BRANCH  65  66
ATOM     66  S   UNL A   1      44.065  37.314  33.228  1.00  0.00     0.124 S 
ATOM     67  O   UNL A   1      45.389  37.277  33.844  1.00  0.00    -0.237 OA
ATOM     68  O   UNL A   1      43.957  38.124  32.018  1.00  0.00    -0.237 OA
ATOM     69  O   UNL A   1      42.949  37.444  34.163  1.00  0.00    -0.744 OA
ENDBRANCH  65  66
ENDBRANCH  46  60
BRANCH  47  70
ATOM     70  C   UNL A   1      42.512  23.798  27.905  1.00  0.00    -0.014 A 
ATOM     71  C   UNL A   1      42.311  22.675  28.727  1.00  0.00     0.010 A 
ATOM     72  C   UNL A   1      42.570  23.621  26.510  1.00  0.00     0.010 A 
ATOM     73  C   UNL A   1      42.184  21.401  28.167  1.00  0.00     0.020 A 
ATOM     74  C   UNL A   1      42.411  22.353  25.944  1.00  0.00     0.020 A 
ATOM     75  C   UNL A   1      42.230  21.249  26.778  1.00  0.00     0.054 A 
BRANCH  75  76
ATOM     76  S   UNL A   1      42.007  19.593  26.072  1.00  0.00     0.124 S 
ATOM     77  O   UNL A   1      42.392  18.733  27.187  1.00  0.00    -0.237 OA
ATOM     78  O   UNL A   1      40.588  19.587  25.728  1.00  0.00    -0.237 OA
ATOM     79  O   UNL A   1      42.917  19.583  24.929  1.00  0.00    -0.744 OA
ENDBRANCH  75  76
ENDBRANCH  47  70
BRANCH  59  80
ATOM     80  C   UNL A   1      47.929  27.292  30.592  1.00  0.00    -0.014 A 
ATOM     81  C   UNL A   1      48.884  27.413  29.568  1.00  0.00     0.010 A 
ATOM     82  C   UNL A   1      48.345  26.872  31.869  1.00  0.00     0.010 A 
ATOM     83  C   UNL A   1      50.223  27.090  29.808  1.00  0.00     0.020 A 
ATOM     84  C   UNL A   1      49.688  26.578  32.122  1.00  0.00     0.020 A 
ATOM     85  C   UNL A   1      50.616  26.677  31.085  1.00  0.00     0.054 A 
BRANCH  85  86
ATOM     86  S   UNL A   1      52.368  26.309  31.381  1.00  0.00     0.124 S 
ATOM     87  O   UNL A   1      52.941  26.465  30.047  1.00  0.00    -0.237 OA
ATOM     88  O   UNL A   1      52.750  27.330  32.352  1.00  0.00    -0.237 OA
ATOM     89  O   UNL A   1      52.354  24.941  31.896  1.00  0.00    -0.744 OA
ENDBRANCH  85  86
ENDBRANCH  59  80
ENDBRANCH  33  34
ENDBRANCH  26  28
ENDBRANCH  25  26
ENDBRANCH  24  25
ENDBRANCH  23  24
ENDBRANCH  22  23
ENDBRANCH   1  22
TORSDOF 23
ENDMDL
MODEL 3
REMARK VINA RESULT:      -8.8      4.590      9.994
REMARK SMILES C=CCOC(=O)N[C@@H](Cc1ccccc1)C(=O)OCCOCCOC(=O)c1ccc(-c2c3nc(c(-c4ccc(S(=O)(=O)[O-])cc4)c4ccc([nH]4)c(-c4ccc(S(=O)(=O)[O-])cc4)c4nc(c(-c5ccc(S(=O)(=O)[O-])cc5)c5ccc2[nH]5)C=C4)C=C3)cc1
REMARK SMILES IDX 20 1 19 2 18 3 16 4 17 5 8 6 7 7 5 8 6 9 4 11 3 12 2 13 1 14
REMARK SMILES IDX 9 15 10 16 11 17 15 18 12 19 14 20 13 21 21 22 22 23 23 24
REMARK SMILES IDX 24 25 25 26 26 27 27 28 28 29 86 30 29 31 85 32 30 33 31 34
REMARK SMILES IDX 32 35 79 36 33 37 84 38 78 39 80 40 34 41 83 42 77 43 76 44
REMARK SMILES IDX 35 46 65 47 46 48 64 49 47 50 50 51 63 52 81 53 48 54 49 55
REMARK SMILES IDX 62 57 82 58 51 59 36 60 37 61 45 62 38 63 44 64 39 65 40 66
REMARK SMILES IDX 41 67 42 68 43 69 66 70 67 71 75 72 68 73 74 74 69 75 70 76
REMARK SMILES IDX 71 77 72 78 73 79 52 80 53 81 61 82 54 83 60 84 55 85 56 86
REMARK SMILES IDX 57 87 58 88 59 89
REMARK H PARENT 7 10 80 45 50 56
REMARK Flexibility Score: inf
ROOT
ATOM      1  C   UNL A   1      33.319  28.871  26.844  1.00  0.00     0.202 C 
ENDROOT
BRANCH   1   2
ATOM      2  C   UNL A   1      32.771  27.442  26.815  1.00  0.00     0.261 C 
BRANCH   2   3
ATOM      3  O   UNL A   1      32.088  27.166  25.589  1.00  0.00    -0.462 OA
BRANCH   3   4
ATOM      4  C   UNL A   1      30.913  26.483  25.704  1.00  0.00     0.329 C 
ATOM      5  O   UNL A   1      30.354  26.207  26.760  1.00  0.00    -0.250 OA
BRANCH   4   6
ATOM      6  C   UNL A   1      30.405  25.993  24.345  1.00  0.00     0.199 C 
BRANCH   6   7
ATOM      7  N   UNL A   1      30.393  24.532  24.183  1.00  0.00    -0.308 N 
ATOM      8  C   UNL A   1      30.944  23.808  23.175  1.00  0.00     0.408 C 
ATOM      9  O   UNL A   1      30.610  22.643  22.977  1.00  0.00    -0.225 OA
ATOM     10  H   UNL A   1      29.933  24.020  24.886  1.00  0.00     0.168 HD
BRANCH   8  11
ATOM     11  O   UNL A   1      31.870  24.492  22.465  1.00  0.00    -0.445 OA
BRANCH  11  12
ATOM     12  C   UNL A   1      33.220  24.426  22.946  1.00  0.00     0.262 C 
BRANCH  12  13
ATOM     13  C   UNL A   1      33.888  25.771  22.986  1.00  0.00     0.006 C 
ATOM     14  C   UNL A   1      33.442  26.837  22.306  1.00  0.00     0.007 C 
ENDBRANCH  12  13
ENDBRANCH  11  12
ENDBRANCH   8  11
ENDBRANCH   6   7
BRANCH   6  15
ATOM     15  C   UNL A   1      28.991  26.574  24.125  1.00  0.00     0.072 C 
BRANCH  15  16
ATOM     16  C   UNL A   1      29.009  27.889  23.370  1.00  0.00    -0.045 A 
ATOM     17  C   UNL A   1      27.808  28.512  23.000  1.00  0.00     0.004 A 
ATOM     18  C   UNL A   1      30.222  28.447  22.939  1.00  0.00     0.004 A 
ATOM     19  C   UNL A   1      27.821  29.646  22.186  1.00  0.00     0.000 A 
ATOM     20  C   UNL A   1      30.231  29.572  22.116  1.00  0.00     0.000 A 
ATOM     21  C   UNL A   1      29.031  30.168  21.735  1.00  0.00     0.000 A 
ENDBRANCH  15  16
ENDBRANCH   6  15
ENDBRANCH   4   6
ENDBRANCH   3   4
ENDBRANCH   2   3
ENDBRANCH   1   2
BRANCH   1  22
ATOM     22  O   UNL A   1      32.444  29.905  27.288  1.00  0.00    -0.374 OA
BRANCH  22  23
ATOM     23  C   UNL A   1      32.741  31.251  26.916  1.00  0.00     0.202 C 
BRANCH  23  24
ATOM     24  C   UNL A   1      33.739  32.056  27.763  1.00  0.00     0.261 C 
BRANCH  24  25
ATOM     25  O   UNL A   1      33.699  33.476  27.541  1.00  0.00    -0.460 OA
BRANCH  25  26
ATOM     26  C   UNL A   1      33.576  34.219  28.671  1.00  0.00     0.338 C 
ATOM     27  O   UNL A   1      32.641  34.939  28.982  1.00  0.00    -0.246 OA
BRANCH  26  28
ATOM     28  C   UNL A   1      34.675  33.917  29.605  1.00  0.00     0.060 A 
ATOM     29  C   UNL A   1      35.979  34.245  29.213  1.00  0.00     0.016 A 
ATOM     30  C   UNL A   1      34.443  33.220  30.790  1.00  0.00     0.016 A 
ATOM     31  C   UNL A   1      37.063  33.856  29.999  1.00  0.00     0.010 A 
ATOM     32  C   UNL A   1      35.532  32.821  31.571  1.00  0.00     0.010 A 
ATOM     33  C   UNL A   1      36.848  33.114  31.168  1.00  0.00    -0.014 A 
BRANCH  33  34
ATOM     34  C   UNL A   1      38.004  32.560  31.915  1.00  0.00     0.031 A 
ATOM     35  C   UNL A   1      38.767  31.397  31.338  1.00  0.00     0.074 A 
ATOM     36  C   UNL A   1      38.375  33.097  33.091  1.00  0.00     0.049 A 
ATOM     37  N   UNL A   1      39.767  30.729  31.853  1.00  0.00    -0.248 NA
ATOM     38  C   UNL A   1      38.347  30.926  30.009  1.00  0.00     0.031 C 
ATOM     39  C   UNL A   1      37.747  34.254  33.727  1.00  0.00     0.029 A 
ATOM     40  N   UNL A   1      39.370  32.732  33.963  1.00  0.00    -0.354 N 
ATOM     41  C   UNL A   1      40.089  29.751  30.919  1.00  0.00     0.074 A 
ATOM     42  C   UNL A   1      39.161  29.898  29.817  1.00  0.00     0.031 C 
ATOM     43  C   UNL A   1      38.368  34.500  34.893  1.00  0.00     0.029 A 
ATOM     44  C   UNL A   1      39.406  33.493  35.106  1.00  0.00     0.049 A 
ATOM     45  H   UNL A   1      39.999  31.995  33.786  1.00  0.00     0.167 HD
ATOM     46  C   UNL A   1      41.068  28.815  30.973  1.00  0.00     0.031 A 
ATOM     47  C   UNL A   1      40.168  33.374  36.212  1.00  0.00     0.031 A 
ATOM     48  C   UNL A   1      41.978  28.664  32.079  1.00  0.00     0.049 A 
ATOM     49  C   UNL A   1      41.193  32.273  36.286  1.00  0.00     0.074 A 
ATOM     50  C   UNL A   1      43.015  27.758  32.221  1.00  0.00     0.029 A 
ATOM     51  N   UNL A   1      41.954  29.426  33.237  1.00  0.00    -0.354 N 
ATOM     52  N   UNL A   1      41.502  31.371  35.385  1.00  0.00    -0.248 NA
ATOM     53  C   UNL A   1      41.976  32.178  37.526  1.00  0.00     0.031 C 
ATOM     54  C   UNL A   1      43.574  27.929  33.491  1.00  0.00     0.029 A 
ATOM     55  C   UNL A   1      42.934  28.989  34.113  1.00  0.00     0.049 A 
ATOM     56  H   UNL A   1      41.332  30.171  33.411  1.00  0.00     0.167 HD
ATOM     57  C   UNL A   1      42.533  30.617  35.939  1.00  0.00     0.074 A 
ATOM     58  C   UNL A   1      42.805  31.181  37.246  1.00  0.00     0.031 C 
ATOM     59  C   UNL A   1      43.193  29.555  35.414  1.00  0.00     0.031 A 
BRANCH  46  60
ATOM     60  C   UNL A   1      41.181  27.853  29.819  1.00  0.00    -0.014 A 
ATOM     61  C   UNL A   1      40.232  26.835  29.616  1.00  0.00     0.010 A 
ATOM     62  C   UNL A   1      42.233  28.000  28.894  1.00  0.00     0.010 A 
ATOM     63  C   UNL A   1      40.355  25.958  28.534  1.00  0.00     0.020 A 
ATOM     64  C   UNL A   1      42.342  27.144  27.794  1.00  0.00     0.020 A 
ATOM     65  C   UNL A   1      41.410  26.118  27.630  1.00  0.00     0.054 A 
BRANCH  65  66
ATOM     66  S   UNL A   1      41.530  24.980  26.223  1.00  0.00     0.124 S 
ATOM     67  O   UNL A   1      40.302  24.199  26.360  1.00  0.00    -0.237 OA
ATOM     68  O   UNL A   1      41.571  25.888  25.080  1.00  0.00    -0.237 OA
ATOM     69  O   UNL A   1      42.766  24.243  26.476  1.00  0.00    -0.744 OA
ENDBRANCH  65  66
ENDBRANCH  46  60
BRANCH  47  70
ATOM     70  C   UNL A   1      39.970  34.310  37.353  1.00  0.00    -0.014 A 
ATOM     71  C   UNL A   1      39.017  34.038  38.350  1.00  0.00     0.010 A 
ATOM     72  C   UNL A   1      40.740  35.484  37.447  1.00  0.00     0.010 A 
ATOM     73  C   UNL A   1      38.828  34.928  39.410  1.00  0.00     0.020 A 
ATOM     74  C   UNL A   1      40.577  36.361  38.523  1.00  0.00     0.020 A 
ATOM     75  C   UNL A   1      39.613  36.083  39.493  1.00  0.00     0.054 A 
BRANCH  75  76
ATOM     76  S   UNL A   1      39.388  37.194  40.909  1.00  0.00     0.124 S 
ATOM     77  O   UNL A   1      38.478  38.197  40.366  1.00  0.00    -0.237 OA
ATOM     78  O   UNL A   1      38.822  36.303  41.919  1.00  0.00    -0.237 OA
ATOM     79  O   UNL A   1      40.743  37.663  41.193  1.00  0.00    -0.744 OA
ENDBRANCH  75  76
ENDBRANCH  47  70
BRANCH  59  80
ATOM     80  C   UNL A   1      44.299  28.945  36.237  1.00  0.00    -0.014 A 
ATOM     81  C   UNL A   1      45.604  29.467  36.209  1.00  0.00     0.010 A 
ATOM     82  C   UNL A   1      44.013  27.867  37.095  1.00  0.00     0.010 A 
ATOM     83  C   UNL A   1      46.609  28.903  37.001  1.00  0.00     0.020 A 
ATOM     84  C   UNL A   1      45.006  27.320  37.911  1.00  0.00     0.020 A 
ATOM     85  C   UNL A   1      46.302  27.833  37.848  1.00  0.00     0.054 A 
BRANCH  85  86
ATOM     86  S   UNL A   1      47.614  27.149  38.899  1.00  0.00     0.124 S 
ATOM     87  O   UNL A   1      48.170  26.101  38.047  1.00  0.00    -0.237 OA
ATOM     88  O   UNL A   1      48.480  28.304  39.121  1.00  0.00    -0.237 OA
ATOM     89  O   UNL A   1      46.900  26.676  40.083  1.00  0.00    -0.744 OA
ENDBRANCH  85  86
ENDBRANCH  59  80
ENDBRANCH  33  34
ENDBRANCH  26  28
ENDBRANCH  25  26
ENDBRANCH  24  25
ENDBRANCH  23  24
ENDBRANCH  22  23
ENDBRANCH   1  22
TORSDOF 23
ENDMDL
