MODEL 1
REMARK VINA RESULT:     -10.6      0.000      0.000
REMARK SMILES O=C(CCC(=O)N1CCC(c2nnc3ccccn23)CC1)OCCOCCOC(=O)c1ccc(-c2c3nc(c(-c4ccc(S(=O)(=O)[O-])cc4)c4ccc([nH]4)c(-c4ccc(S(=O)(=O)[O-])cc4)c4nc(c(-c5ccc(S(=O)(=O)[O-])cc5)c5ccc2[nH]5)C=C4)C=C3)cc1
REMARK SMILES IDX 25 1 24 2 23 3 22 4 2 5 1 6 3 7 4 8 5 9 6 10 7 11 8 12 21 13
REMARK SMILES IDX 9 14 20 15 10 16 11 17 12 18 19 19 13 20 14 21 18 22 15 23
REMARK SMILES IDX 17 24 16 25 26 26 27 27 28 28 29 29 30 30 31 31 32 32 90 33
REMARK SMILES IDX 33 34 89 35 34 36 35 37 36 38 83 39 37 40 88 41 82 42 84 43
REMARK SMILES IDX 38 44 87 45 81 46 80 47 39 49 69 50 50 51 68 52 51 53 54 54
REMARK SMILES IDX 67 55 85 56 52 57 53 58 66 60 86 61 55 62 40 63 41 64 49 65
REMARK SMILES IDX 42 66 48 67 43 68 44 69 45 70 46 71 47 72 70 73 71 74 79 75
REMARK SMILES IDX 72 76 78 77 73 78 74 79 75 80 76 81 77 82 56 83 57 84 65 85
REMARK SMILES IDX 58 86 64 87 59 88 60 89 61 90 62 91 63 92
REMARK H PARENT 84 48 54 59
REMARK Flexibility Score: inf
ROOT
ATOM      1  O   UNL A   1      38.131  21.580  25.878  1.00  0.00    -0.374 OA
ENDROOT
BRANCH   1   2
ATOM      2  C   UNL A   1      37.382  22.358  24.950  1.00  0.00     0.202 C 
BRANCH   2   3
ATOM      3  C   UNL A   1      36.052  21.768  24.473  1.00  0.00     0.261 C 
BRANCH   3   4
ATOM      4  O   UNL A   1      35.313  21.133  25.532  1.00  0.00    -0.463 OA
BRANCH   4   5
ATOM      5  C   UNL A   1      34.597  21.772  26.479  1.00  0.00     0.306 C 
ATOM      6  O   UNL A   1      34.166  21.153  27.452  1.00  0.00    -0.252 OA
BRANCH   5   7
ATOM      7  C   UNL A   1      34.371  23.252  26.376  1.00  0.00     0.132 C 
BRANCH   7   8
ATOM      8  C   UNL A   1      33.127  23.520  25.550  1.00  0.00     0.112 C 
BRANCH   8   9
ATOM      9  C   UNL A   1      33.282  24.726  24.650  1.00  0.00     0.223 C 
ATOM     10  O   UNL A   1      34.336  24.865  24.023  1.00  0.00    -0.275 OA
ATOM     11  N   UNL A   1      32.224  25.608  24.520  1.00  0.00    -0.343 N 
ATOM     12  C   UNL A   1      32.247  26.564  23.424  1.00  0.00     0.120 C 
ATOM     13  C   UNL A   1      31.152  25.849  25.488  1.00  0.00     0.120 C 
ATOM     14  C   UNL A   1      32.502  27.954  23.961  1.00  0.00     0.033 C 
ATOM     15  C   UNL A   1      31.273  27.254  26.090  1.00  0.00     0.033 C 
ATOM     16  C   UNL A   1      31.468  28.360  25.028  1.00  0.00     0.062 C 
BRANCH  16  17
ATOM     17  C   UNL A   1      31.978  29.630  25.639  1.00  0.00     0.140 A 
ATOM     18  N   UNL A   1      31.264  30.727  25.804  1.00  0.00    -0.134 NA
ATOM     19  N   UNL A   1      33.147  29.733  26.369  1.00  0.00    -0.286 N 
ATOM     20  N   UNL A   1      31.918  31.530  26.698  1.00  0.00    -0.130 NA
ATOM     21  C   UNL A   1      33.051  30.953  27.020  1.00  0.00     0.160 A 
ATOM     22  C   UNL A   1      34.209  28.852  26.561  1.00  0.00     0.095 A 
ATOM     23  C   UNL A   1      34.118  31.342  27.871  1.00  0.00     0.050 A 
ATOM     24  C   UNL A   1      35.189  29.192  27.415  1.00  0.00     0.019 A 
ATOM     25  C   UNL A   1      35.146  30.494  28.068  1.00  0.00     0.005 A 
ENDBRANCH  16  17
ENDBRANCH   8   9
ENDBRANCH   7   8
ENDBRANCH   5   7
ENDBRANCH   4   5
ENDBRANCH   3   4
ENDBRANCH   2   3
ENDBRANCH   1   2
BRANCH   1  26
ATOM     26  C   UNL A   1      39.524  21.863  26.030  1.00  0.00     0.202 C 
BRANCH  26  27
ATOM     27  C   UNL A   1      39.977  22.878  27.089  1.00  0.00     0.261 C 
BRANCH  27  28
ATOM     28  O   UNL A   1      39.315  24.157  27.023  1.00  0.00    -0.460 OA
BRANCH  28  29
ATOM     29  C   UNL A   1      40.113  25.190  26.652  1.00  0.00     0.338 C 
ATOM     30  O   UNL A   1      40.493  25.431  25.510  1.00  0.00    -0.246 OA
BRANCH  29  31
ATOM     31  C   UNL A   1      40.423  26.095  27.778  1.00  0.00     0.060 A 
ATOM     32  C   UNL A   1      39.512  26.130  28.835  1.00  0.00     0.016 A 
ATOM     33  C   UNL A   1      41.502  26.986  27.759  1.00  0.00     0.016 A 
ATOM     34  C   UNL A   1      39.675  27.058  29.863  1.00  0.00     0.010 A 
ATOM     35  C   UNL A   1      41.653  27.931  28.790  1.00  0.00     0.010 A 
ATOM     36  C   UNL A   1      40.740  27.978  29.855  1.00  0.00    -0.014 A 
BRANCH  36  37
ATOM     37  C   UNL A   1      40.777  29.012  30.934  1.00  0.00     0.031 A 
ATOM     38  C   UNL A   1      39.657  30.019  30.988  1.00  0.00     0.074 A 
ATOM     39  C   UNL A   1      41.695  28.996  31.923  1.00  0.00     0.049 A 
ATOM     40  N   UNL A   1      39.303  30.822  31.959  1.00  0.00    -0.248 NA
ATOM     41  C   UNL A   1      38.816  30.117  29.783  1.00  0.00     0.031 C 
ATOM     42  C   UNL A   1      42.815  28.064  32.022  1.00  0.00     0.029 A 
ATOM     43  N   UNL A   1      41.774  29.732  33.089  1.00  0.00    -0.354 N 
ATOM     44  C   UNL A   1      38.209  31.532  31.475  1.00  0.00     0.074 A 
ATOM     45  C   UNL A   1      37.925  31.025  30.149  1.00  0.00     0.031 C 
ATOM     46  C   UNL A   1      43.388  28.193  33.231  1.00  0.00     0.029 A 
ATOM     47  C   UNL A   1      42.697  29.235  33.988  1.00  0.00     0.049 A 
ATOM     48  H   UNL A   1      41.227  30.532  33.262  1.00  0.00     0.167 HD
ATOM     49  C   UNL A   1      37.535  32.559  32.046  1.00  0.00     0.031 A 
ATOM     50  C   UNL A   1      42.913  29.544  35.286  1.00  0.00     0.031 A 
ATOM     51  C   UNL A   1      37.880  33.155  33.306  1.00  0.00     0.049 A 
ATOM     52  C   UNL A   1      42.134  30.678  35.911  1.00  0.00     0.074 A 
ATOM     53  C   UNL A   1      37.370  34.303  33.885  1.00  0.00     0.029 A 
ATOM     54  N   UNL A   1      38.847  32.664  34.167  1.00  0.00    -0.354 N 
ATOM     55  N   UNL A   1      41.094  31.326  35.448  1.00  0.00    -0.248 NA
ATOM     56  C   UNL A   1      42.587  31.135  37.236  1.00  0.00     0.031 C 
ATOM     57  C   UNL A   1      38.067  34.535  35.078  1.00  0.00     0.029 A 
ATOM     58  C   UNL A   1      38.968  33.498  35.264  1.00  0.00     0.049 A 
ATOM     59  H   UNL A   1      39.372  31.844  34.021  1.00  0.00     0.167 HD
ATOM     60  C   UNL A   1      40.790  32.286  36.411  1.00  0.00     0.074 A 
ATOM     61  C   UNL A   1      41.700  32.079  37.517  1.00  0.00     0.031 C 
ATOM     62  C   UNL A   1      39.872  33.282  36.362  1.00  0.00     0.031 A 
BRANCH  49  63
ATOM     63  C   UNL A   1      36.460  33.191  31.211  1.00  0.00    -0.014 A 
ATOM     64  C   UNL A   1      36.710  33.637  29.902  1.00  0.00     0.010 A 
ATOM     65  C   UNL A   1      35.194  33.405  31.787  1.00  0.00     0.010 A 
ATOM     66  C   UNL A   1      35.725  34.340  29.203  1.00  0.00     0.020 A 
ATOM     67  C   UNL A   1      34.204  34.092  31.086  1.00  0.00     0.020 A 
ATOM     68  C   UNL A   1      34.485  34.579  29.808  1.00  0.00     0.054 A 
BRANCH  68  69
ATOM     69  S   UNL A   1      33.240  35.543  28.907  1.00  0.00     0.124 S 
ATOM     70  O   UNL A   1      32.405  36.044  29.996  1.00  0.00    -0.237 OA
ATOM     71  O   UNL A   1      34.046  36.549  28.219  1.00  0.00    -0.237 OA
ATOM     72  O   UNL A   1      32.604  34.558  28.036  1.00  0.00    -0.744 OA
ENDBRANCH  68  69
ENDBRANCH  49  63
BRANCH  50  73
ATOM     73  C   UNL A   1      43.859  28.761  36.140  1.00  0.00    -0.014 A 
ATOM     74  C   UNL A   1      45.207  29.168  36.228  1.00  0.00     0.010 A 
ATOM     75  C   UNL A   1      43.469  27.591  36.810  1.00  0.00     0.010 A 
ATOM     76  C   UNL A   1      46.140  28.426  36.956  1.00  0.00     0.020 A 
ATOM     77  C   UNL A   1      44.395  26.855  37.563  1.00  0.00     0.020 A 
ATOM     78  C   UNL A   1      45.726  27.272  37.620  1.00  0.00     0.054 A 
BRANCH  78  79
ATOM     79  S   UNL A   1      46.941  26.345  38.600  1.00  0.00     0.124 S 
ATOM     80  O   UNL A   1      46.828  25.006  38.033  1.00  0.00    -0.237 OA
ATOM     81  O   UNL A   1      48.185  27.056  38.312  1.00  0.00    -0.237 OA
ATOM     82  O   UNL A   1      46.452  26.497  39.968  1.00  0.00    -0.744 OA
ENDBRANCH  78  79
ENDBRANCH  50  73
BRANCH  62  83
ATOM     83  C   UNL A   1      39.827  34.255  37.510  1.00  0.00    -0.014 A 
ATOM     84  C   UNL A   1      39.033  33.988  38.641  1.00  0.00     0.010 A 
ATOM     85  C   UNL A   1      40.652  35.393  37.506  1.00  0.00     0.010 A 
ATOM     86  C   UNL A   1      39.050  34.851  39.739  1.00  0.00     0.020 A 
ATOM     87  C   UNL A   1      40.690  36.246  38.613  1.00  0.00     0.020 A 
ATOM     88  C   UNL A   1      39.883  35.974  39.720  1.00  0.00     0.054 A 
BRANCH  88  89
ATOM     89  S   UNL A   1      39.948  37.034  41.191  1.00  0.00     0.124 S 
ATOM     90  O   UNL A   1      39.621  38.345  40.635  1.00  0.00    -0.237 OA
ATOM     91  O   UNL A   1      38.929  36.447  42.057  1.00  0.00    -0.237 OA
ATOM     92  O   UNL A   1      41.322  36.883  41.665  1.00  0.00    -0.744 OA
ENDBRANCH  88  89
ENDBRANCH  62  83
ENDBRANCH  36  37
ENDBRANCH  29  31
ENDBRANCH  28  29
ENDBRANCH  27  28
ENDBRANCH  26  27
ENDBRANCH   1  26
TORSDOF 20
ENDMDL
MODEL 2
REMARK VINA RESULT:     -10.4      6.289     11.959
REMARK SMILES O=C(CCC(=O)N1CCC(c2nnc3ccccn23)CC1)OCCOCCOC(=O)c1ccc(-c2c3nc(c(-c4ccc(S(=O)(=O)[O-])cc4)c4ccc([nH]4)c(-c4ccc(S(=O)(=O)[O-])cc4)c4nc(c(-c5ccc(S(=O)(=O)[O-])cc5)c5ccc2[nH]5)C=C4)C=C3)cc1
REMARK SMILES IDX 25 1 24 2 23 3 22 4 2 5 1 6 3 7 4 8 5 9 6 10 7 11 8 12 21 13
REMARK SMILES IDX 9 14 20 15 10 16 11 17 12 18 19 19 13 20 14 21 18 22 15 23
REMARK SMILES IDX 17 24 16 25 26 26 27 27 28 28 29 29 30 30 31 31 32 32 90 33
REMARK SMILES IDX 33 34 89 35 34 36 35 37 36 38 83 39 37 40 88 41 82 42 84 43
REMARK SMILES IDX 38 44 87 45 81 46 80 47 39 49 69 50 50 51 68 52 51 53 54 54
REMARK SMILES IDX 67 55 85 56 52 57 53 58 66 60 86 61 55 62 40 63 41 64 49 65
REMARK SMILES IDX 42 66 48 67 43 68 44 69 45 70 46 71 47 72 70 73 71 74 79 75
REMARK SMILES IDX 72 76 78 77 73 78 74 79 75 80 76 81 77 82 56 83 57 84 65 85
REMARK SMILES IDX 58 86 64 87 59 88 60 89 61 90 62 91 63 92
REMARK H PARENT 84 48 54 59
REMARK Flexibility Score: inf
ROOT
ATOM      1  O   UNL A   1      33.824  33.951  30.747  1.00  0.00    -0.374 OA
ENDROOT
BRANCH   1   2
ATOM      2  C   UNL A   1      34.168  34.136  29.377  1.00  0.00     0.202 C 
BRANCH   2   3
ATOM      3  C   UNL A   1      33.151  33.648  28.341  1.00  0.00     0.261 C 
BRANCH   3   4
ATOM      4  O   UNL A   1      33.751  32.848  27.306  1.00  0.00    -0.463 OA
BRANCH   4   5
ATOM      5  C   UNL A   1      34.041  31.535  27.400  1.00  0.00     0.306 C 
ATOM      6  O   UNL A   1      35.202  31.169  27.584  1.00  0.00    -0.252 OA
BRANCH   5   7
ATOM      7  C   UNL A   1      32.939  30.519  27.334  1.00  0.00     0.132 C 
BRANCH   7   8
ATOM      8  C   UNL A   1      33.515  29.129  27.528  1.00  0.00     0.112 C 
BRANCH   8   9
ATOM      9  C   UNL A   1      32.480  28.044  27.324  1.00  0.00     0.223 C 
ATOM     10  O   UNL A   1      31.608  27.889  28.183  1.00  0.00    -0.275 OA
ATOM     11  N   UNL A   1      32.514  27.294  26.162  1.00  0.00    -0.343 N 
ATOM     12  C   UNL A   1      31.349  26.495  25.817  1.00  0.00     0.120 C 
ATOM     13  C   UNL A   1      33.679  27.033  25.314  1.00  0.00     0.120 C 
ATOM     14  C   UNL A   1      31.658  25.029  26.009  1.00  0.00     0.033 C 
ATOM     15  C   UNL A   1      34.082  25.555  25.391  1.00  0.00     0.033 C 
ATOM     16  C   UNL A   1      32.892  24.586  25.200  1.00  0.00     0.062 C 
BRANCH  16  17
ATOM     17  C   UNL A   1      33.225  23.203  25.671  1.00  0.00     0.140 A 
ATOM     18  N   UNL A   1      33.508  22.880  26.919  1.00  0.00    -0.134 NA
ATOM     19  N   UNL A   1      32.997  22.051  24.942  1.00  0.00    -0.286 N 
ATOM     20  N   UNL A   1      33.398  21.522  27.042  1.00  0.00    -0.130 NA
ATOM     21  C   UNL A   1      33.117  21.022  25.863  1.00  0.00     0.160 A 
ATOM     22  C   UNL A   1      32.636  21.843  23.614  1.00  0.00     0.095 A 
ATOM     23  C   UNL A   1      32.921  19.692  25.406  1.00  0.00     0.050 A 
ATOM     24  C   UNL A   1      32.389  20.589  23.196  1.00  0.00     0.019 A 
ATOM     25  C   UNL A   1      32.565  19.481  24.125  1.00  0.00     0.005 A 
ENDBRANCH  16  17
ENDBRANCH   8   9
ENDBRANCH   7   8
ENDBRANCH   5   7
ENDBRANCH   4   5
ENDBRANCH   3   4
ENDBRANCH   2   3
ENDBRANCH   1   2
BRANCH   1  26
ATOM     26  C   UNL A   1      34.561  32.991  31.507  1.00  0.00     0.202 C 
BRANCH  26  27
ATOM     27  C   UNL A   1      35.866  32.418  30.936  1.00  0.00     0.261 C 
BRANCH  27  28
ATOM     28  O   UNL A   1      35.822  31.012  30.620  1.00  0.00    -0.460 OA
BRANCH  28  29
ATOM     29  C   UNL A   1      36.692  30.245  31.324  1.00  0.00     0.338 C 
ATOM     30  O   UNL A   1      36.565  29.904  32.496  1.00  0.00    -0.246 OA
BRANCH  29  31
ATOM     31  C   UNL A   1      37.812  29.754  30.493  1.00  0.00     0.060 A 
ATOM     32  C   UNL A   1      38.845  29.085  31.151  1.00  0.00     0.016 A 
ATOM     33  C   UNL A   1      37.926  30.044  29.129  1.00  0.00     0.016 A 
ATOM     34  C   UNL A   1      39.992  28.716  30.448  1.00  0.00     0.010 A 
ATOM     35  C   UNL A   1      39.093  29.683  28.428  1.00  0.00     0.010 A 
ATOM     36  C   UNL A   1      40.139  29.014  29.081  1.00  0.00    -0.014 A 
BRANCH  36  37
ATOM     37  C   UNL A   1      41.445  28.685  28.432  1.00  0.00     0.031 A 
ATOM     38  C   UNL A   1      42.595  29.638  28.630  1.00  0.00     0.074 A 
ATOM     39  C   UNL A   1      41.663  27.517  27.792  1.00  0.00     0.049 A 
ATOM     40  N   UNL A   1      43.874  29.458  28.423  1.00  0.00    -0.248 NA
ATOM     41  C   UNL A   1      42.248  30.973  29.149  1.00  0.00     0.031 C 
ATOM     42  C   UNL A   1      40.658  26.485  27.552  1.00  0.00     0.029 A 
ATOM     43  N   UNL A   1      42.831  26.960  27.308  1.00  0.00    -0.354 N 
ATOM     44  C   UNL A   1      44.482  30.660  28.770  1.00  0.00     0.074 A 
ATOM     45  C   UNL A   1      43.439  31.540  29.252  1.00  0.00     0.031 C 
ATOM     46  C   UNL A   1      41.267  25.378  27.090  1.00  0.00     0.029 A 
ATOM     47  C   UNL A   1      42.702  25.627  26.973  1.00  0.00     0.049 A 
ATOM     48  H   UNL A   1      43.671  27.463  27.212  1.00  0.00     0.167 HD
ATOM     49  C   UNL A   1      45.778  31.032  28.640  1.00  0.00     0.031 A 
ATOM     50  C   UNL A   1      43.642  24.703  26.668  1.00  0.00     0.031 A 
ATOM     51  C   UNL A   1      46.801  30.217  28.051  1.00  0.00     0.049 A 
ATOM     52  C   UNL A   1      45.086  25.134  26.553  1.00  0.00     0.074 A 
ATOM     53  C   UNL A   1      48.098  30.566  27.719  1.00  0.00     0.029 A 
ATOM     54  N   UNL A   1      46.632  28.894  27.676  1.00  0.00    -0.354 N 
ATOM     55  N   UNL A   1      45.646  26.267  26.899  1.00  0.00    -0.248 NA
ATOM     56  C   UNL A   1      46.020  24.154  25.974  1.00  0.00     0.031 C 
ATOM     57  C   UNL A   1      48.699  29.465  27.096  1.00  0.00     0.029 A 
ATOM     58  C   UNL A   1      47.793  28.418  27.094  1.00  0.00     0.049 A 
ATOM     59  H   UNL A   1      45.807  28.371  27.804  1.00  0.00     0.167 HD
ATOM     60  C   UNL A   1      46.988  26.145  26.552  1.00  0.00     0.074 A 
ATOM     61  C   UNL A   1      47.175  24.801  26.047  1.00  0.00     0.031 C 
ATOM     62  C   UNL A   1      47.970  27.078  26.600  1.00  0.00     0.031 A 
BRANCH  49  63
ATOM     63  C   UNL A   1      46.099  32.452  29.007  1.00  0.00    -0.014 A 
ATOM     64  C   UNL A   1      46.182  32.866  30.347  1.00  0.00     0.010 A 
ATOM     65  C   UNL A   1      46.246  33.400  27.978  1.00  0.00     0.010 A 
ATOM     66  C   UNL A   1      46.350  34.220  30.651  1.00  0.00     0.020 A 
ATOM     67  C   UNL A   1      46.430  34.749  28.278  1.00  0.00     0.020 A 
ATOM     68  C   UNL A   1      46.454  35.154  29.614  1.00  0.00     0.054 A 
BRANCH  68  69
ATOM     69  S   UNL A   1      46.613  36.913  30.029  1.00  0.00     0.124 S 
ATOM     70  O   UNL A   1      48.062  37.095  30.014  1.00  0.00    -0.237 OA
ATOM     71  O   UNL A   1      45.886  37.568  28.944  1.00  0.00    -0.237 OA
ATOM     72  O   UNL A   1      45.985  37.015  31.344  1.00  0.00    -0.744 OA
ENDBRANCH  68  69
ENDBRANCH  49  63
BRANCH  50  73
ATOM     73  C   UNL A   1      43.305  23.256  26.499  1.00  0.00    -0.014 A 
ATOM     74  C   UNL A   1      42.942  22.495  27.629  1.00  0.00     0.010 A 
ATOM     75  C   UNL A   1      43.399  22.606  25.257  1.00  0.00     0.010 A 
ATOM     76  C   UNL A   1      42.689  21.125  27.528  1.00  0.00     0.020 A 
ATOM     77  C   UNL A   1      43.122  21.237  25.144  1.00  0.00     0.020 A 
ATOM     78  C   UNL A   1      42.781  20.504  26.283  1.00  0.00     0.054 A 
BRANCH  78  79
ATOM     79  S   UNL A   1      42.403  18.733  26.160  1.00  0.00     0.124 S 
ATOM     80  O   UNL A   1      43.372  18.285  25.167  1.00  0.00    -0.237 OA
ATOM     81  O   UNL A   1      42.630  18.268  27.527  1.00  0.00    -0.237 OA
ATOM     82  O   UNL A   1      41.006  18.719  25.733  1.00  0.00    -0.744 OA
ENDBRANCH  78  79
ENDBRANCH  50  73
BRANCH  62  83
ATOM     83  C   UNL A   1      49.323  26.705  26.055  1.00  0.00    -0.014 A 
ATOM     84  C   UNL A   1      49.721  27.134  24.776  1.00  0.00     0.010 A 
ATOM     85  C   UNL A   1      50.240  26.003  26.858  1.00  0.00     0.010 A 
ATOM     86  C   UNL A   1      51.005  26.854  24.301  1.00  0.00     0.020 A 
ATOM     87  C   UNL A   1      51.534  25.743  26.395  1.00  0.00     0.020 A 
ATOM     88  C   UNL A   1      51.905  26.163  25.116  1.00  0.00     0.054 A 
BRANCH  88  89
ATOM     89  S   UNL A   1      53.592  25.883  24.508  1.00  0.00     0.124 S 
ATOM     90  O   UNL A   1      54.261  27.125  24.887  1.00  0.00    -0.237 OA
ATOM     91  O   UNL A   1      54.007  24.694  25.247  1.00  0.00    -0.237 OA
ATOM     92  O   UNL A   1      53.413  25.684  23.071  1.00  0.00    -0.744 OA
ENDBRANCH  88  89
ENDBRANCH  62  83
ENDBRANCH  36  37
ENDBRANCH  29  31
ENDBRANCH  28  29
ENDBRANCH  27  28
ENDBRANCH  26  27
ENDBRANCH   1  26
TORSDOF 20
ENDMDL
MODEL 3
REMARK VINA RESULT:     -10.2      2.222      8.288
REMARK SMILES O=C(CCC(=O)N1CCC(c2nnc3ccccn23)CC1)OCCOCCOC(=O)c1ccc(-c2c3nc(c(-c4ccc(S(=O)(=O)[O-])cc4)c4ccc([nH]4)c(-c4ccc(S(=O)(=O)[O-])cc4)c4nc(c(-c5ccc(S(=O)(=O)[O-])cc5)c5ccc2[nH]5)C=C4)C=C3)cc1
REMARK SMILES IDX 25 1 24 2 23 3 22 4 2 5 1 6 3 7 4 8 5 9 6 10 7 11 8 12 21 13
REMARK SMILES IDX 9 14 20 15 10 16 11 17 12 18 19 19 13 20 14 21 18 22 15 23
REMARK SMILES IDX 17 24 16 25 26 26 27 27 28 28 29 29 30 30 31 31 32 32 90 33
REMARK SMILES IDX 33 34 89 35 34 36 35 37 36 38 83 39 37 40 88 41 82 42 84 43
REMARK SMILES IDX 38 44 87 45 81 46 80 47 39 49 69 50 50 51 68 52 51 53 54 54
REMARK SMILES IDX 67 55 85 56 52 57 53 58 66 60 86 61 55 62 40 63 41 64 49 65
REMARK SMILES IDX 42 66 48 67 43 68 44 69 45 70 46 71 47 72 70 73 71 74 79 75
REMARK SMILES IDX 72 76 78 77 73 78 74 79 75 80 76 81 77 82 56 83 57 84 65 85
REMARK SMILES IDX 58 86 64 87 59 88 60 89 61 90 62 91 63 92
REMARK H PARENT 84 48 54 59
REMARK Flexibility Score: inf
ROOT
ATOM      1  O   UNL A   1      42.015  22.187  27.895  1.00  0.00    -0.374 OA
ENDROOT
BRANCH   1   2
ATOM      2  C   UNL A   1      41.453  21.098  27.171  1.00  0.00     0.202 C 
BRANCH   2   3
ATOM      3  C   UNL A   1      40.642  21.448  25.920  1.00  0.00     0.261 C 
BRANCH   3   4
ATOM      4  O   UNL A   1      39.237  21.176  26.073  1.00  0.00    -0.463 OA
BRANCH   4   5
ATOM      5  C   UNL A   1      38.236  22.013  25.733  1.00  0.00     0.306 C 
ATOM      6  O   UNL A   1      38.334  23.219  25.959  1.00  0.00    -0.252 OA
BRANCH   5   7
ATOM      7  C   UNL A   1      37.023  21.481  25.029  1.00  0.00     0.132 C 
BRANCH   7   8
ATOM      8  C   UNL A   1      35.860  22.435  25.226  1.00  0.00     0.112 C 
BRANCH   8   9
ATOM      9  C   UNL A   1      35.360  23.010  23.919  1.00  0.00     0.223 C 
ATOM     10  O   UNL A   1      36.179  23.257  23.030  1.00  0.00    -0.275 OA
ATOM     11  N   UNL A   1      34.001  23.196  23.743  1.00  0.00    -0.343 N 
ATOM     12  C   UNL A   1      33.499  23.428  22.398  1.00  0.00     0.120 C 
ATOM     13  C   UNL A   1      32.995  23.396  24.789  1.00  0.00     0.120 C 
ATOM     14  C   UNL A   1      33.062  24.867  22.255  1.00  0.00     0.033 C 
ATOM     15  C   UNL A   1      32.437  24.824  24.733  1.00  0.00     0.033 C 
ATOM     16  C   UNL A   1      32.012  25.261  23.312  1.00  0.00     0.062 C 
BRANCH  16  17
ATOM     17  C   UNL A   1      31.860  26.748  23.214  1.00  0.00     0.140 A 
ATOM     18  N   UNL A   1      32.815  27.581  22.847  1.00  0.00    -0.134 NA
ATOM     19  N   UNL A   1      30.648  27.412  23.206  1.00  0.00    -0.286 N 
ATOM     20  N   UNL A   1      32.235  28.777  22.523  1.00  0.00    -0.130 NA
ATOM     21  C   UNL A   1      30.948  28.689  22.757  1.00  0.00     0.160 A 
ATOM     22  C   UNL A   1      29.349  26.988  23.476  1.00  0.00     0.095 A 
ATOM     23  C   UNL A   1      29.883  29.619  22.630  1.00  0.00     0.050 A 
ATOM     24  C   UNL A   1      28.333  27.850  23.295  1.00  0.00     0.019 A 
ATOM     25  C   UNL A   1      28.623  29.217  22.882  1.00  0.00     0.005 A 
ENDBRANCH  16  17
ENDBRANCH   8   9
ENDBRANCH   7   8
ENDBRANCH   5   7
ENDBRANCH   4   5
ENDBRANCH   3   4
ENDBRANCH   2   3
ENDBRANCH   1   2
BRANCH   1  26
ATOM     26  C   UNL A   1      41.311  23.431  27.903  1.00  0.00     0.202 C 
BRANCH  26  27
ATOM     27  C   UNL A   1      41.671  24.509  26.870  1.00  0.00     0.261 C 
BRANCH  27  28
ATOM     28  O   UNL A   1      40.565  25.326  26.438  1.00  0.00    -0.460 OA
BRANCH  28  29
ATOM     29  C   UNL A   1      40.811  26.660  26.439  1.00  0.00     0.338 C 
ATOM     30  O   UNL A   1      41.241  27.313  25.493  1.00  0.00    -0.246 OA
BRANCH  29  31
ATOM     31  C   UNL A   1      40.412  27.306  27.707  1.00  0.00     0.060 A 
ATOM     32  C   UNL A   1      40.988  28.544  27.998  1.00  0.00     0.016 A 
ATOM     33  C   UNL A   1      39.597  26.677  28.655  1.00  0.00     0.016 A 
ATOM     34  C   UNL A   1      40.758  29.144  29.236  1.00  0.00     0.010 A 
ATOM     35  C   UNL A   1      39.382  27.278  29.908  1.00  0.00     0.010 A 
ATOM     36  C   UNL A   1      39.960  28.520  30.213  1.00  0.00    -0.014 A 
BRANCH  36  37
ATOM     37  C   UNL A   1      39.858  29.176  31.553  1.00  0.00     0.031 A 
ATOM     38  C   UNL A   1      41.063  29.135  32.456  1.00  0.00     0.074 A 
ATOM     39  C   UNL A   1      38.784  29.904  31.924  1.00  0.00     0.049 A 
ATOM     40  N   UNL A   1      41.334  29.846  33.520  1.00  0.00    -0.248 NA
ATOM     41  C   UNL A   1      42.111  28.165  32.093  1.00  0.00     0.031 C 
ATOM     42  C   UNL A   1      37.560  30.062  31.143  1.00  0.00     0.029 A 
ATOM     43  N   UNL A   1      38.588  30.728  33.015  1.00  0.00    -0.354 N 
ATOM     44  C   UNL A   1      42.574  29.398  33.963  1.00  0.00     0.074 A 
ATOM     45  C   UNL A   1      43.025  28.396  33.021  1.00  0.00     0.031 C 
ATOM     46  C   UNL A   1      36.801  31.019  31.706  1.00  0.00     0.029 A 
ATOM     47  C   UNL A   1      37.467  31.526  32.904  1.00  0.00     0.049 A 
ATOM     48  H   UNL A   1      39.188  30.744  33.795  1.00  0.00     0.167 HD
ATOM     49  C   UNL A   1      43.255  29.735  35.085  1.00  0.00     0.031 A 
ATOM     50  C   UNL A   1      37.062  32.581  33.647  1.00  0.00     0.031 A 
ATOM     51  C   UNL A   1      42.766  30.635  36.090  1.00  0.00     0.049 A 
ATOM     52  C   UNL A   1      37.850  32.955  34.881  1.00  0.00     0.074 A 
ATOM     53  C   UNL A   1      43.300  30.906  37.338  1.00  0.00     0.029 A 
ATOM     54  N   UNL A   1      41.609  31.388  35.975  1.00  0.00    -0.354 N 
ATOM     55  N   UNL A   1      39.026  32.535  35.277  1.00  0.00    -0.248 NA
ATOM     56  C   UNL A   1      37.227  33.937  35.785  1.00  0.00     0.031 C 
ATOM     57  C   UNL A   1      42.436  31.788  37.998  1.00  0.00     0.029 A 
ATOM     58  C   UNL A   1      41.398  32.107  37.138  1.00  0.00     0.049 A 
ATOM     59  H   UNL A   1      41.024  31.407  35.184  1.00  0.00     0.167 HD
ATOM     60  C   UNL A   1      39.268  33.178  36.488  1.00  0.00     0.074 A 
ATOM     61  C   UNL A   1      38.158  34.077  36.719  1.00  0.00     0.031 C 
ATOM     62  C   UNL A   1      40.294  33.003  37.356  1.00  0.00     0.031 A 
BRANCH  49  63
ATOM     63  C   UNL A   1      44.530  28.984  35.336  1.00  0.00    -0.014 A 
ATOM     64  C   UNL A   1      45.763  29.437  34.837  1.00  0.00     0.010 A 
ATOM     65  C   UNL A   1      44.469  27.759  36.026  1.00  0.00     0.010 A 
ATOM     66  C   UNL A   1      46.906  28.646  34.976  1.00  0.00     0.020 A 
ATOM     67  C   UNL A   1      45.611  26.975  36.180  1.00  0.00     0.020 A 
ATOM     68  C   UNL A   1      46.818  27.411  35.630  1.00  0.00     0.054 A 
BRANCH  68  69
ATOM     69  S   UNL A   1      48.300  26.372  35.748  1.00  0.00     0.124 S 
ATOM     70  O   UNL A   1      47.723  25.031  35.792  1.00  0.00    -0.237 OA
ATOM     71  O   UNL A   1      49.026  26.704  34.525  1.00  0.00    -0.237 OA
ATOM     72  O   UNL A   1      48.936  26.818  36.985  1.00  0.00    -0.744 OA
ENDBRANCH  68  69
ENDBRANCH  49  63
BRANCH  50  73
ATOM     73  C   UNL A   1      35.892  33.425  33.254  1.00  0.00    -0.014 A 
ATOM     74  C   UNL A   1      36.111  34.748  32.817  1.00  0.00     0.010 A 
ATOM     75  C   UNL A   1      34.569  32.968  33.365  1.00  0.00     0.010 A 
ATOM     76  C   UNL A   1      35.044  35.594  32.508  1.00  0.00     0.020 A 
ATOM     77  C   UNL A   1      33.494  33.804  33.032  1.00  0.00     0.020 A 
ATOM     78  C   UNL A   1      33.739  35.114  32.618  1.00  0.00     0.054 A 
BRANCH  78  79
ATOM     79  S   UNL A   1      32.364  36.211  32.168  1.00  0.00     0.124 S 
ATOM     80  O   UNL A   1      31.205  35.427  32.578  1.00  0.00    -0.237 OA
ATOM     81  O   UNL A   1      32.641  37.404  32.967  1.00  0.00    -0.237 OA
ATOM     82  O   UNL A   1      32.534  36.385  30.728  1.00  0.00    -0.744 OA
ENDBRANCH  78  79
ENDBRANCH  50  73
BRANCH  62  83
ATOM     83  C   UNL A   1      40.251  33.759  38.657  1.00  0.00    -0.014 A 
ATOM     84  C   UNL A   1      39.610  33.208  39.782  1.00  0.00     0.010 A 
ATOM     85  C   UNL A   1      40.934  34.981  38.788  1.00  0.00     0.010 A 
ATOM     86  C   UNL A   1      39.636  33.874  41.010  1.00  0.00     0.020 A 
ATOM     87  C   UNL A   1      40.983  35.638  40.022  1.00  0.00     0.020 A 
ATOM     88  C   UNL A   1      40.326  35.083  41.123  1.00  0.00     0.054 A 
BRANCH  88  89
ATOM     89  S   UNL A   1      40.414  35.887  42.748  1.00  0.00     0.124 S 
ATOM     90  O   UNL A   1      41.708  36.562  42.683  1.00  0.00    -0.237 OA
ATOM     91  O   UNL A   1      39.246  36.763  42.738  1.00  0.00    -0.237 OA
ATOM     92  O   UNL A   1      40.340  34.772  43.689  1.00  0.00    -0.744 OA
ENDBRANCH  88  89
ENDBRANCH  62  83
ENDBRANCH  36  37
ENDBRANCH  29  31
ENDBRANCH  28  29
ENDBRANCH  27  28
ENDBRANCH  26  27
ENDBRANCH   1  26
TORSDOF 20
ENDMDL
