MODEL 1
REMARK VINA RESULT:     -13.0      0.000      0.000
REMARK SMILES COc1cc2ccccc2cc1C(=O)Nc1cc(C(=O)OCCOCCOC(=O)c2ccc(-c3c4nc(c(-c5ccc(S(=O)(=O)[O-])cc5)c5ccc([nH]5)c(-c5ccc(S(=O)(=O)[O-])cc5)c5nc(c(-c6ccc(S(=O)(=O)[O-])cc6)c6ccc3[nH]6)C=C5)C=C4)cc2)ccc1C
REMARK SMILES IDX 24 1 23 2 22 3 21 4 19 5 20 6 18 7 16 8 17 9 92 10 91 11
REMARK SMILES IDX 93 12 90 13 15 14 13 15 14 16 12 18 3 19 4 20 5 21 11 22
REMARK SMILES IDX 6 23 10 24 7 25 9 26 8 27 2 28 1 29 25 30 26 31 27 32 28 33
REMARK SMILES IDX 29 34 30 35 31 36 89 37 32 38 88 39 33 40 34 41 35 42 82 43
REMARK SMILES IDX 36 44 87 45 81 46 83 47 37 48 86 49 80 50 79 51 38 53 68 54
REMARK SMILES IDX 49 55 67 56 50 57 53 58 66 59 84 60 51 61 52 62 65 64 85 65
REMARK SMILES IDX 54 66 39 67 40 68 48 69 41 70 47 71 42 72 43 73 44 74 45 75
REMARK SMILES IDX 46 76 69 77 70 78 78 79 71 80 77 81 72 82 73 83 74 84 75 85
REMARK SMILES IDX 76 86 55 87 56 88 64 89 57 90 63 91 58 92 59 93 60 94 61 95
REMARK SMILES IDX 62 96
REMARK H PARENT 15 17 83 52 53 63
REMARK Flexibility Score: inf
ROOT
ATOM      1  O   UNL A   1      36.616  21.585  25.780  1.00  0.00    -0.374 OA
ENDROOT
BRANCH   1   2
ATOM      2  C   UNL A   1      35.778  21.367  24.651  1.00  0.00     0.202 C 
BRANCH   2   3
ATOM      3  C   UNL A   1      34.601  20.589  25.118  1.00  0.00     0.261 C 
BRANCH   3   4
ATOM      4  O   UNL A   1      33.371  21.273  24.981  1.00  0.00    -0.460 OA
BRANCH   4   5
ATOM      5  C   UNL A   1      32.769  20.991  23.797  1.00  0.00     0.338 C 
ATOM      6  O   UNL A   1      32.566  19.920  23.287  1.00  0.00    -0.246 OA
BRANCH   5   7
ATOM      7  C   UNL A   1      32.258  22.286  23.319  1.00  0.00     0.062 A 
ATOM      8  C   UNL A   1      30.830  24.152  23.758  1.00  0.00     0.045 A 
ATOM      9  C   UNL A   1      31.109  22.809  23.909  1.00  0.00     0.042 A 
ATOM     10  C   UNL A   1      31.521  24.907  22.791  1.00  0.00    -0.027 A 
ATOM     11  C   UNL A   1      32.585  24.307  22.083  1.00  0.00     0.006 A 
ATOM     12  C   UNL A   1      31.357  26.392  22.652  1.00  0.00     0.046 C 
ATOM     13  C   UNL A   1      32.989  23.010  22.385  1.00  0.00     0.016 A 
BRANCH   8  14
ATOM     14  N   UNL A   1      29.949  24.753  24.660  1.00  0.00    -0.322 N 
ATOM     15  C   UNL A   1      30.195  25.527  25.782  1.00  0.00     0.259 C 
ATOM     16  O   UNL A   1      29.259  25.615  26.588  1.00  0.00    -0.269 OA
ATOM     17  H   UNL A   1      28.995  24.601  24.467  1.00  0.00     0.170 HD
BRANCH  15  18
ATOM     18  C   UNL A   1      31.435  26.360  26.048  1.00  0.00     0.082 A 
ATOM     19  C   UNL A   1      32.781  25.968  25.996  1.00  0.00     0.132 A 
ATOM     20  C   UNL A   1      33.814  26.870  26.283  1.00  0.00     0.056 A 
ATOM     21  C   UNL A   1      33.547  28.210  26.550  1.00  0.00    -0.015 A 
ATOM     22  C   UNL A   1      31.188  27.735  26.297  1.00  0.00     0.026 A 
ATOM     23  C   UNL A   1      34.588  29.081  26.888  1.00  0.00     0.009 A 
ATOM     24  C   UNL A   1      32.220  28.664  26.559  1.00  0.00    -0.017 A 
ATOM     25  C   UNL A   1      34.328  30.386  27.294  1.00  0.00     0.001 A 
ATOM     26  C   UNL A   1      31.977  30.013  26.882  1.00  0.00     0.009 A 
ATOM     27  C   UNL A   1      33.021  30.859  27.272  1.00  0.00     0.001 A 
BRANCH  19  28
ATOM     28  O   UNL A   1      33.206  24.690  25.808  1.00  0.00    -0.496 OA
ATOM     29  C   UNL A   1      34.600  24.584  25.580  1.00  0.00     0.278 C 
ENDBRANCH  19  28
ENDBRANCH  15  18
ENDBRANCH   8  14
ENDBRANCH   5   7
ENDBRANCH   4   5
ENDBRANCH   3   4
ENDBRANCH   2   3
ENDBRANCH   1   2
BRANCH   1  30
ATOM     30  C   UNL A   1      37.536  22.640  25.582  1.00  0.00     0.202 C 
BRANCH  30  31
ATOM     31  C   UNL A   1      38.937  22.382  26.169  1.00  0.00     0.261 C 
BRANCH  31  32
ATOM     32  O   UNL A   1      39.690  23.614  26.269  1.00  0.00    -0.460 OA
BRANCH  32  33
ATOM     33  C   UNL A   1      40.095  24.010  27.515  1.00  0.00     0.338 C 
ATOM     34  O   UNL A   1      40.711  23.292  28.284  1.00  0.00    -0.246 OA
BRANCH  33  35
ATOM     35  C   UNL A   1      39.919  25.479  27.698  1.00  0.00     0.060 A 
ATOM     36  C   UNL A   1      40.304  26.412  26.717  1.00  0.00     0.016 A 
ATOM     37  C   UNL A   1      39.445  25.934  28.922  1.00  0.00     0.016 A 
ATOM     38  C   UNL A   1      40.361  27.787  27.018  1.00  0.00     0.010 A 
ATOM     39  C   UNL A   1      39.543  27.273  29.229  1.00  0.00     0.010 A 
ATOM     40  C   UNL A   1      40.048  28.212  28.306  1.00  0.00    -0.014 A 
BRANCH  40  41
ATOM     41  C   UNL A   1      40.352  29.517  28.922  1.00  0.00     0.031 A 
ATOM     42  C   UNL A   1      39.238  30.488  29.021  1.00  0.00     0.074 A 
ATOM     43  C   UNL A   1      41.467  29.695  29.681  1.00  0.00     0.049 A 
ATOM     44  N   UNL A   1      39.303  31.565  29.708  1.00  0.00    -0.248 NA
ATOM     45  C   UNL A   1      37.933  30.325  28.380  1.00  0.00     0.031 C 
ATOM     46  C   UNL A   1      41.729  30.666  30.749  1.00  0.00     0.029 A 
ATOM     47  N   UNL A   1      42.690  29.024  29.587  1.00  0.00    -0.354 N 
ATOM     48  C   UNL A   1      38.072  32.158  29.746  1.00  0.00     0.074 A 
ATOM     49  C   UNL A   1      37.228  31.318  28.938  1.00  0.00     0.031 C 
ATOM     50  C   UNL A   1      43.054  30.736  30.955  1.00  0.00     0.029 A 
ATOM     51  C   UNL A   1      43.710  29.889  29.990  1.00  0.00     0.049 A 
ATOM     52  H   UNL A   1      42.812  28.094  29.285  1.00  0.00     0.167 HD
ATOM     53  C   UNL A   1      37.958  33.283  30.502  1.00  0.00     0.031 A 
ATOM     54  C   UNL A   1      44.688  30.213  29.112  1.00  0.00     0.031 A 
ATOM     55  C   UNL A   1      39.296  33.795  30.860  1.00  0.00     0.049 A 
ATOM     56  C   UNL A   1      44.428  31.652  28.706  1.00  0.00     0.074 A 
ATOM     57  C   UNL A   1      39.977  34.051  32.034  1.00  0.00     0.029 A 
ATOM     58  N   UNL A   1      40.254  33.912  29.838  1.00  0.00    -0.354 N 
ATOM     59  N   UNL A   1      43.296  32.272  28.968  1.00  0.00    -0.248 NA
ATOM     60  C   UNL A   1      45.402  32.561  28.115  1.00  0.00     0.031 C 
ATOM     61  C   UNL A   1      41.322  34.376  31.689  1.00  0.00     0.029 A 
ATOM     62  C   UNL A   1      41.514  34.189  30.327  1.00  0.00     0.049 A 
ATOM     63  H   UNL A   1      40.049  33.807  28.882  1.00  0.00     0.167 HD
ATOM     64  C   UNL A   1      43.454  33.616  28.858  1.00  0.00     0.074 A 
ATOM     65  C   UNL A   1      44.733  33.732  28.162  1.00  0.00     0.031 C 
ATOM     66  C   UNL A   1      42.605  34.541  29.412  1.00  0.00     0.031 A 
BRANCH  53  67
ATOM     67  C   UNL A   1      36.649  33.876  30.990  1.00  0.00    -0.014 A 
ATOM     68  C   UNL A   1      35.601  34.094  30.071  1.00  0.00     0.010 A 
ATOM     69  C   UNL A   1      36.395  34.304  32.310  1.00  0.00     0.010 A 
ATOM     70  C   UNL A   1      34.397  34.723  30.432  1.00  0.00     0.020 A 
ATOM     71  C   UNL A   1      35.192  34.927  32.692  1.00  0.00     0.020 A 
ATOM     72  C   UNL A   1      34.199  35.141  31.744  1.00  0.00     0.054 A 
BRANCH  72  73
ATOM     73  S   UNL A   1      32.641  35.952  32.190  1.00  0.00     0.124 S 
ATOM     74  O   UNL A   1      33.068  36.928  33.189  1.00  0.00    -0.237 OA
ATOM     75  O   UNL A   1      32.199  36.509  30.915  1.00  0.00    -0.237 OA
ATOM     76  O   UNL A   1      31.815  34.863  32.707  1.00  0.00    -0.744 OA
ENDBRANCH  72  73
ENDBRANCH  53  67
BRANCH  54  77
ATOM     77  C   UNL A   1      45.185  28.945  28.447  1.00  0.00    -0.014 A 
ATOM     78  C   UNL A   1      44.459  28.569  27.273  1.00  0.00     0.010 A 
ATOM     79  C   UNL A   1      46.536  28.550  28.500  1.00  0.00     0.010 A 
ATOM     80  C   UNL A   1      45.099  28.052  26.131  1.00  0.00     0.020 A 
ATOM     81  C   UNL A   1      47.178  28.006  27.356  1.00  0.00     0.020 A 
ATOM     82  C   UNL A   1      46.472  27.825  26.160  1.00  0.00     0.054 A 
BRANCH  82  83
ATOM     83  S   UNL A   1      47.341  27.553  24.572  1.00  0.00     0.124 S 
ATOM     84  O   UNL A   1      46.670  28.486  23.676  1.00  0.00    -0.237 OA
ATOM     85  O   UNL A   1      48.729  27.884  24.898  1.00  0.00    -0.237 OA
ATOM     86  O   UNL A   1      47.114  26.138  24.295  1.00  0.00    -0.744 OA
ENDBRANCH  82  83
ENDBRANCH  54  77
BRANCH  66  87
ATOM     87  C   UNL A   1      42.725  35.998  29.113  1.00  0.00    -0.014 A 
ATOM     88  C   UNL A   1      42.017  36.652  28.105  1.00  0.00     0.010 A 
ATOM     89  C   UNL A   1      43.626  36.749  29.903  1.00  0.00     0.010 A 
ATOM     90  C   UNL A   1      42.056  38.043  28.024  1.00  0.00     0.020 A 
ATOM     91  C   UNL A   1      43.715  38.126  29.792  1.00  0.00     0.020 A 
ATOM     92  C   UNL A   1      42.874  38.768  28.898  1.00  0.00     0.054 A 
BRANCH  92  93
ATOM     93  S   UNL A   1      42.795  40.567  28.884  1.00  0.00     0.124 S 
ATOM     94  O   UNL A   1      42.890  40.877  27.460  1.00  0.00    -0.237 OA
ATOM     95  O   UNL A   1      41.491  40.808  29.497  1.00  0.00    -0.237 OA
ATOM     96  O   UNL A   1      43.947  40.973  29.686  1.00  0.00    -0.744 OA
ENDBRANCH  92  93
ENDBRANCH  66  87
ENDBRANCH  40  41
ENDBRANCH  33  35
ENDBRANCH  32  33
ENDBRANCH  31  32
ENDBRANCH  30  31
ENDBRANCH   1  30
TORSDOF 20
ENDMDL
MODEL 2
REMARK VINA RESULT:     -11.8      1.902      2.427
REMARK SMILES COc1cc2ccccc2cc1C(=O)Nc1cc(C(=O)OCCOCCOC(=O)c2ccc(-c3c4nc(c(-c5ccc(S(=O)(=O)[O-])cc5)c5ccc([nH]5)c(-c5ccc(S(=O)(=O)[O-])cc5)c5nc(c(-c6ccc(S(=O)(=O)[O-])cc6)c6ccc3[nH]6)C=C5)C=C4)cc2)ccc1C
REMARK SMILES IDX 24 1 23 2 22 3 21 4 19 5 20 6 18 7 16 8 17 9 92 10 91 11
REMARK SMILES IDX 93 12 90 13 15 14 13 15 14 16 12 18 3 19 4 20 5 21 11 22
REMARK SMILES IDX 6 23 10 24 7 25 9 26 8 27 2 28 1 29 25 30 26 31 27 32 28 33
REMARK SMILES IDX 29 34 30 35 31 36 89 37 32 38 88 39 33 40 34 41 35 42 82 43
REMARK SMILES IDX 36 44 87 45 81 46 83 47 37 48 86 49 80 50 79 51 38 53 68 54
REMARK SMILES IDX 49 55 67 56 50 57 53 58 66 59 84 60 51 61 52 62 65 64 85 65
REMARK SMILES IDX 54 66 39 67 40 68 48 69 41 70 47 71 42 72 43 73 44 74 45 75
REMARK SMILES IDX 46 76 69 77 70 78 78 79 71 80 77 81 72 82 73 83 74 84 75 85
REMARK SMILES IDX 76 86 55 87 56 88 64 89 57 90 63 91 58 92 59 93 60 94 61 95
REMARK SMILES IDX 62 96
REMARK H PARENT 15 17 83 52 53 63
REMARK Flexibility Score: inf
ROOT
ATOM      1  O   UNL A   1      36.146  22.287  25.514  1.00  0.00    -0.374 OA
ENDROOT
BRANCH   1   2
ATOM      2  C   UNL A   1      35.880  22.005  24.146  1.00  0.00     0.202 C 
BRANCH   2   3
ATOM      3  C   UNL A   1      35.396  23.264  23.521  1.00  0.00     0.261 C 
BRANCH   3   4
ATOM      4  O   UNL A   1      34.592  23.064  22.375  1.00  0.00    -0.460 OA
BRANCH   4   5
ATOM      5  C   UNL A   1      33.343  22.647  22.706  1.00  0.00     0.338 C 
ATOM      6  O   UNL A   1      33.000  21.607  23.206  1.00  0.00    -0.246 OA
BRANCH   5   7
ATOM      7  C   UNL A   1      32.483  23.818  22.471  1.00  0.00     0.062 A 
ATOM      8  C   UNL A   1      30.817  25.282  23.363  1.00  0.00     0.045 A 
ATOM      9  C   UNL A   1      31.397  24.030  23.319  1.00  0.00     0.042 A 
ATOM     10  C   UNL A   1      31.118  26.230  22.367  1.00  0.00    -0.027 A 
ATOM     11  C   UNL A   1      32.113  25.930  21.412  1.00  0.00     0.006 A 
ATOM     12  C   UNL A   1      30.619  27.644  22.417  1.00  0.00     0.046 C 
ATOM     13  C   UNL A   1      32.835  24.743  21.495  1.00  0.00     0.016 A 
BRANCH   8  14
ATOM     14  N   UNL A   1      30.036  25.612  24.474  1.00  0.00    -0.322 N 
ATOM     15  C   UNL A   1      30.401  26.072  25.728  1.00  0.00     0.259 C 
ATOM     16  O   UNL A   1      29.551  25.931  26.618  1.00  0.00    -0.269 OA
ATOM     17  H   UNL A   1      29.066  25.498  24.343  1.00  0.00     0.170 HD
BRANCH  15  18
ATOM     18  C   UNL A   1      31.668  26.829  26.078  1.00  0.00     0.082 A 
ATOM     19  C   UNL A   1      32.995  26.376  26.045  1.00  0.00     0.132 A 
ATOM     20  C   UNL A   1      34.059  27.211  26.412  1.00  0.00     0.056 A 
ATOM     21  C   UNL A   1      33.845  28.546  26.745  1.00  0.00    -0.015 A 
ATOM     22  C   UNL A   1      31.477  28.199  26.395  1.00  0.00     0.026 A 
ATOM     23  C   UNL A   1      34.914  29.346  27.163  1.00  0.00     0.009 A 
ATOM     24  C   UNL A   1      32.541  29.061  26.739  1.00  0.00    -0.017 A 
ATOM     25  C   UNL A   1      34.701  30.639  27.633  1.00  0.00     0.001 A 
ATOM     26  C   UNL A   1      32.350  30.401  27.129  1.00  0.00     0.009 A 
ATOM     27  C   UNL A   1      33.419  31.174  27.598  1.00  0.00     0.001 A 
BRANCH  19  28
ATOM     28  O   UNL A   1      33.367  25.091  25.800  1.00  0.00    -0.496 OA
ATOM     29  C   UNL A   1      32.886  24.169  26.761  1.00  0.00     0.278 C 
ENDBRANCH  19  28
ENDBRANCH  15  18
ENDBRANCH   8  14
ENDBRANCH   5   7
ENDBRANCH   4   5
ENDBRANCH   3   4
ENDBRANCH   2   3
ENDBRANCH   1   2
BRANCH   1  30
ATOM     30  C   UNL A   1      37.470  22.732  25.734  1.00  0.00     0.202 C 
BRANCH  30  31
ATOM     31  C   UNL A   1      38.522  21.607  25.770  1.00  0.00     0.261 C 
BRANCH  31  32
ATOM     32  O   UNL A   1      39.862  22.154  25.773  1.00  0.00    -0.460 OA
BRANCH  32  33
ATOM     33  C   UNL A   1      40.382  22.553  26.975  1.00  0.00     0.338 C 
ATOM     34  O   UNL A   1      40.945  21.798  27.750  1.00  0.00    -0.246 OA
BRANCH  33  35
ATOM     35  C   UNL A   1      40.402  24.039  27.088  1.00  0.00     0.060 A 
ATOM     36  C   UNL A   1      41.013  24.860  26.121  1.00  0.00     0.016 A 
ATOM     37  C   UNL A   1      39.879  24.614  28.239  1.00  0.00     0.016 A 
ATOM     38  C   UNL A   1      41.237  26.227  26.380  1.00  0.00     0.010 A 
ATOM     39  C   UNL A   1      40.139  25.940  28.509  1.00  0.00     0.010 A 
ATOM     40  C   UNL A   1      40.862  26.753  27.612  1.00  0.00    -0.014 A 
BRANCH  40  41
ATOM     41  C   UNL A   1      41.288  28.031  28.212  1.00  0.00     0.031 A 
ATOM     42  C   UNL A   1      40.224  29.010  28.532  1.00  0.00     0.074 A 
ATOM     43  C   UNL A   1      42.519  28.169  28.776  1.00  0.00     0.049 A 
ATOM     44  N   UNL A   1      40.422  30.060  29.235  1.00  0.00    -0.248 NA
ATOM     45  C   UNL A   1      38.826  28.884  28.118  1.00  0.00     0.031 C 
ATOM     46  C   UNL A   1      42.975  29.098  29.816  1.00  0.00     0.029 A 
ATOM     47  N   UNL A   1      43.696  27.489  28.452  1.00  0.00    -0.354 N 
ATOM     48  C   UNL A   1      39.225  30.665  29.503  1.00  0.00     0.074 A 
ATOM     49  C   UNL A   1      38.243  29.863  28.821  1.00  0.00     0.031 C 
ATOM     50  C   UNL A   1      44.316  29.146  29.795  1.00  0.00     0.029 A 
ATOM     51  C   UNL A   1      44.784  28.328  28.705  1.00  0.00     0.049 A 
ATOM     52  H   UNL A   1      43.750  26.570  28.102  1.00  0.00     0.167 HD
ATOM     53  C   UNL A   1      39.260  31.762  30.305  1.00  0.00     0.031 A 
ATOM     54  C   UNL A   1      45.604  28.674  27.684  1.00  0.00     0.031 A 
ATOM     55  C   UNL A   1      40.648  32.247  30.447  1.00  0.00     0.049 A 
ATOM     56  C   UNL A   1      45.303  30.130  27.378  1.00  0.00     0.074 A 
ATOM     57  C   UNL A   1      41.522  32.452  31.496  1.00  0.00     0.029 A 
ATOM     58  N   UNL A   1      41.421  32.391  29.282  1.00  0.00    -0.354 N 
ATOM     59  N   UNL A   1      44.243  30.752  27.850  1.00  0.00    -0.248 NA
ATOM     60  C   UNL A   1      46.178  31.049  26.661  1.00  0.00     0.031 C 
ATOM     61  C   UNL A   1      42.795  32.776  30.938  1.00  0.00     0.029 A 
ATOM     62  C   UNL A   1      42.750  32.636  29.557  1.00  0.00     0.049 A 
ATOM     63  H   UNL A   1      41.054  32.323  28.371  1.00  0.00     0.167 HD
ATOM     64  C   UNL A   1      44.402  32.097  27.761  1.00  0.00     0.074 A 
ATOM     65  C   UNL A   1      45.546  32.224  26.862  1.00  0.00     0.031 C 
ATOM     66  C   UNL A   1      43.675  33.010  28.483  1.00  0.00     0.031 A 
BRANCH  53  67
ATOM     67  C   UNL A   1      38.063  32.351  31.029  1.00  0.00    -0.014 A 
ATOM     68  C   UNL A   1      38.104  33.694  31.457  1.00  0.00     0.010 A 
ATOM     69  C   UNL A   1      36.899  31.637  31.384  1.00  0.00     0.010 A 
ATOM     70  C   UNL A   1      37.073  34.279  32.212  1.00  0.00     0.020 A 
ATOM     71  C   UNL A   1      35.853  32.209  32.133  1.00  0.00     0.020 A 
ATOM     72  C   UNL A   1      35.950  33.530  32.550  1.00  0.00     0.054 A 
BRANCH  72  73
ATOM     73  S   UNL A   1      34.632  34.301  33.527  1.00  0.00     0.124 S 
ATOM     74  O   UNL A   1      34.492  35.608  32.890  1.00  0.00    -0.237 OA
ATOM     75  O   UNL A   1      33.515  33.382  33.330  1.00  0.00    -0.237 OA
ATOM     76  O   UNL A   1      35.175  34.332  34.883  1.00  0.00    -0.744 OA
ENDBRANCH  72  73
ENDBRANCH  53  67
BRANCH  54  77
ATOM     77  C   UNL A   1      45.960  27.426  26.901  1.00  0.00    -0.014 A 
ATOM     78  C   UNL A   1      46.530  26.377  27.689  1.00  0.00     0.010 A 
ATOM     79  C   UNL A   1      45.244  27.030  25.755  1.00  0.00     0.010 A 
ATOM     80  C   UNL A   1      46.202  25.023  27.481  1.00  0.00     0.020 A 
ATOM     81  C   UNL A   1      44.931  25.663  25.531  1.00  0.00     0.020 A 
ATOM     82  C   UNL A   1      45.355  24.678  26.433  1.00  0.00     0.054 A 
BRANCH  82  83
ATOM     83  S   UNL A   1      44.619  23.001  26.428  1.00  0.00     0.124 S 
ATOM     84  O   UNL A   1      43.666  23.071  25.328  1.00  0.00    -0.237 OA
ATOM     85  O   UNL A   1      45.778  22.137  26.200  1.00  0.00    -0.237 OA
ATOM     86  O   UNL A   1      44.037  22.879  27.761  1.00  0.00    -0.744 OA
ENDBRANCH  82  83
ENDBRANCH  54  77
BRANCH  66  87
ATOM     87  C   UNL A   1      43.767  34.475  28.218  1.00  0.00    -0.014 A 
ATOM     88  C   UNL A   1      42.958  35.160  27.311  1.00  0.00     0.010 A 
ATOM     89  C   UNL A   1      44.749  35.202  28.930  1.00  0.00     0.010 A 
ATOM     90  C   UNL A   1      42.992  36.553  27.269  1.00  0.00     0.020 A 
ATOM     91  C   UNL A   1      44.829  36.582  28.854  1.00  0.00     0.020 A 
ATOM     92  C   UNL A   1      43.900  37.251  28.074  1.00  0.00     0.054 A 
BRANCH  92  93
ATOM     93  S   UNL A   1      43.825  39.050  28.124  1.00  0.00     0.124 S 
ATOM     94  O   UNL A   1      42.407  39.300  28.368  1.00  0.00    -0.237 OA
ATOM     95  O   UNL A   1      44.719  39.349  29.239  1.00  0.00    -0.237 OA
ATOM     96  O   UNL A   1      44.310  39.455  26.807  1.00  0.00    -0.744 OA
ENDBRANCH  92  93
ENDBRANCH  66  87
ENDBRANCH  40  41
ENDBRANCH  33  35
ENDBRANCH  32  33
ENDBRANCH  31  32
ENDBRANCH  30  31
ENDBRANCH   1  30
TORSDOF 20
ENDMDL
MODEL 3
REMARK VINA RESULT:     -11.7      4.936     11.317
REMARK SMILES COc1cc2ccccc2cc1C(=O)Nc1cc(C(=O)OCCOCCOC(=O)c2ccc(-c3c4nc(c(-c5ccc(S(=O)(=O)[O-])cc5)c5ccc([nH]5)c(-c5ccc(S(=O)(=O)[O-])cc5)c5nc(c(-c6ccc(S(=O)(=O)[O-])cc6)c6ccc3[nH]6)C=C5)C=C4)cc2)ccc1C
REMARK SMILES IDX 24 1 23 2 22 3 21 4 19 5 20 6 18 7 16 8 17 9 92 10 91 11
REMARK SMILES IDX 93 12 90 13 15 14 13 15 14 16 12 18 3 19 4 20 5 21 11 22
REMARK SMILES IDX 6 23 10 24 7 25 9 26 8 27 2 28 1 29 25 30 26 31 27 32 28 33
REMARK SMILES IDX 29 34 30 35 31 36 89 37 32 38 88 39 33 40 34 41 35 42 82 43
REMARK SMILES IDX 36 44 87 45 81 46 83 47 37 48 86 49 80 50 79 51 38 53 68 54
REMARK SMILES IDX 49 55 67 56 50 57 53 58 66 59 84 60 51 61 52 62 65 64 85 65
REMARK SMILES IDX 54 66 39 67 40 68 48 69 41 70 47 71 42 72 43 73 44 74 45 75
REMARK SMILES IDX 46 76 69 77 70 78 78 79 71 80 77 81 72 82 73 83 74 84 75 85
REMARK SMILES IDX 76 86 55 87 56 88 64 89 57 90 63 91 58 92 59 93 60 94 61 95
REMARK SMILES IDX 62 96
REMARK H PARENT 15 17 83 52 53 63
REMARK Flexibility Score: inf
ROOT
ATOM      1  O   UNL A   1      33.445  30.658  26.662  1.00  0.00    -0.374 OA
ENDROOT
BRANCH   1   2
ATOM      2  C   UNL A   1      32.134  30.623  26.112  1.00  0.00     0.202 C 
BRANCH   2   3
ATOM      3  C   UNL A   1      31.996  29.337  25.379  1.00  0.00     0.261 C 
BRANCH   3   4
ATOM      4  O   UNL A   1      33.229  28.747  25.019  1.00  0.00    -0.460 OA
BRANCH   4   5
ATOM      5  C   UNL A   1      33.298  28.503  23.685  1.00  0.00     0.338 C 
ATOM      6  O   UNL A   1      33.748  29.198  22.811  1.00  0.00    -0.246 OA
BRANCH   5   7
ATOM      7  C   UNL A   1      32.844  27.111  23.535  1.00  0.00     0.062 A 
ATOM      8  C   UNL A   1      32.129  25.115  24.639  1.00  0.00     0.045 A 
ATOM      9  C   UNL A   1      32.880  26.273  24.648  1.00  0.00     0.042 A 
ATOM     10  C   UNL A   1      31.583  24.643  23.430  1.00  0.00    -0.027 A 
ATOM     11  C   UNL A   1      31.699  25.436  22.268  1.00  0.00     0.006 A 
ATOM     12  C   UNL A   1      30.661  23.461  23.363  1.00  0.00     0.046 C 
ATOM     13  C   UNL A   1      32.285  26.697  22.332  1.00  0.00     0.016 A 
BRANCH   8  14
ATOM     14  N   UNL A   1      31.831  24.508  25.861  1.00  0.00    -0.322 N 
ATOM     15  C   UNL A   1      32.259  23.305  26.400  1.00  0.00     0.259 C 
ATOM     16  O   UNL A   1      31.562  22.851  27.317  1.00  0.00    -0.269 OA
ATOM     17  H   UNL A   1      31.215  25.018  26.435  1.00  0.00     0.170 HD
BRANCH  15  18
ATOM     18  C   UNL A   1      33.544  22.573  26.061  1.00  0.00     0.082 A 
ATOM     19  C   UNL A   1      33.703  21.279  25.543  1.00  0.00     0.132 A 
ATOM     20  C   UNL A   1      34.974  20.745  25.295  1.00  0.00     0.056 A 
ATOM     21  C   UNL A   1      36.125  21.509  25.476  1.00  0.00    -0.015 A 
ATOM     22  C   UNL A   1      34.727  23.341  26.214  1.00  0.00     0.026 A 
ATOM     23  C   UNL A   1      37.386  20.939  25.276  1.00  0.00     0.009 A 
ATOM     24  C   UNL A   1      36.014  22.828  25.940  1.00  0.00    -0.017 A 
ATOM     25  C   UNL A   1      38.548  21.640  25.586  1.00  0.00     0.001 A 
ATOM     26  C   UNL A   1      37.197  23.560  26.162  1.00  0.00     0.009 A 
ATOM     27  C   UNL A   1      38.453  22.960  26.011  1.00  0.00     0.001 A 
BRANCH  19  28
ATOM     28  O   UNL A   1      32.691  20.388  25.366  1.00  0.00    -0.496 OA
ATOM     29  C   UNL A   1      32.919  19.474  24.309  1.00  0.00     0.278 C 
ENDBRANCH  19  28
ENDBRANCH  15  18
ENDBRANCH   8  14
ENDBRANCH   5   7
ENDBRANCH   4   5
ENDBRANCH   3   4
ENDBRANCH   2   3
ENDBRANCH   1   2
BRANCH   1  30
ATOM     30  C   UNL A   1      33.576  31.601  27.707  1.00  0.00     0.202 C 
BRANCH  30  31
ATOM     31  C   UNL A   1      34.943  32.310  27.759  1.00  0.00     0.261 C 
BRANCH  31  32
ATOM     32  O   UNL A   1      36.020  31.347  27.842  1.00  0.00    -0.460 OA
BRANCH  32  33
ATOM     33  C   UNL A   1      36.849  31.416  28.930  1.00  0.00     0.338 C 
ATOM     34  O   UNL A   1      36.680  32.188  29.859  1.00  0.00    -0.246 OA
BRANCH  33  35
ATOM     35  C   UNL A   1      37.806  30.273  28.952  1.00  0.00     0.060 A 
ATOM     36  C   UNL A   1      37.528  29.071  29.631  1.00  0.00     0.016 A 
ATOM     37  C   UNL A   1      39.048  30.449  28.358  1.00  0.00     0.016 A 
ATOM     38  C   UNL A   1      38.544  28.118  29.846  1.00  0.00     0.010 A 
ATOM     39  C   UNL A   1      40.051  29.538  28.607  1.00  0.00     0.010 A 
ATOM     40  C   UNL A   1      39.832  28.388  29.394  1.00  0.00    -0.014 A 
BRANCH  40  41
ATOM     41  C   UNL A   1      41.084  27.714  29.787  1.00  0.00     0.031 A 
ATOM     42  C   UNL A   1      41.360  26.398  29.168  1.00  0.00     0.074 A 
ATOM     43  C   UNL A   1      42.095  28.401  30.386  1.00  0.00     0.049 A 
ATOM     44  N   UNL A   1      42.489  25.802  29.257  1.00  0.00    -0.248 NA
ATOM     45  C   UNL A   1      40.402  25.639  28.364  1.00  0.00     0.031 C 
ATOM     46  C   UNL A   1      43.533  28.114  30.415  1.00  0.00     0.029 A 
ATOM     47  N   UNL A   1      42.005  29.539  31.192  1.00  0.00    -0.354 N 
ATOM     48  C   UNL A   1      42.491  24.703  28.443  1.00  0.00     0.074 A 
ATOM     49  C   UNL A   1      41.174  24.666  27.863  1.00  0.00     0.031 C 
ATOM     50  C   UNL A   1      44.094  28.817  31.412  1.00  0.00     0.029 A 
ATOM     51  C   UNL A   1      43.051  29.518  32.117  1.00  0.00     0.049 A 
ATOM     52  H   UNL A   1      41.317  30.240  31.119  1.00  0.00     0.167 HD
ATOM     53  C   UNL A   1      43.652  23.998  28.370  1.00  0.00     0.031 A 
ATOM     54  C   UNL A   1      42.763  29.490  33.440  1.00  0.00     0.031 A 
ATOM     55  C   UNL A   1      44.567  24.407  29.455  1.00  0.00     0.049 A 
ATOM     56  C   UNL A   1      43.097  28.087  33.913  1.00  0.00     0.074 A 
ATOM     57  C   UNL A   1      45.839  24.939  29.530  1.00  0.00     0.029 A 
ATOM     58  N   UNL A   1      44.051  24.487  30.760  1.00  0.00    -0.354 N 
ATOM     59  N   UNL A   1      43.323  27.091  33.082  1.00  0.00    -0.248 NA
ATOM     60  C   UNL A   1      43.342  27.688  35.293  1.00  0.00     0.031 C 
ATOM     61  C   UNL A   1      46.087  25.274  30.894  1.00  0.00     0.029 A 
ATOM     62  C   UNL A   1      44.931  25.083  31.640  1.00  0.00     0.049 A 
ATOM     63  H   UNL A   1      43.161  24.155  31.018  1.00  0.00     0.167 HD
ATOM     64  C   UNL A   1      43.962  26.076  33.719  1.00  0.00     0.074 A 
ATOM     65  C   UNL A   1      43.798  26.429  35.127  1.00  0.00     0.031 C 
ATOM     66  C   UNL A   1      44.658  25.080  33.081  1.00  0.00     0.031 A 
BRANCH  53  67
ATOM     67  C   UNL A   1      44.000  23.004  27.279  1.00  0.00    -0.014 A 
ATOM     68  C   UNL A   1      43.069  22.004  26.929  1.00  0.00     0.010 A 
ATOM     69  C   UNL A   1      45.237  22.943  26.602  1.00  0.00     0.010 A 
ATOM     70  C   UNL A   1      43.358  20.995  25.994  1.00  0.00     0.020 A 
ATOM     71  C   UNL A   1      45.540  21.945  25.656  1.00  0.00     0.020 A 
ATOM     72  C   UNL A   1      44.597  20.968  25.362  1.00  0.00     0.054 A 
BRANCH  72  73
ATOM     73  S   UNL A   1      44.952  19.657  24.162  1.00  0.00     0.124 S 
ATOM     74  O   UNL A   1      44.158  18.542  24.670  1.00  0.00    -0.237 OA
ATOM     75  O   UNL A   1      44.484  20.242  22.909  1.00  0.00    -0.237 OA
ATOM     76  O   UNL A   1      46.399  19.478  24.258  1.00  0.00    -0.744 OA
ENDBRANCH  72  73
ENDBRANCH  53  67
BRANCH  54  77
ATOM     77  C   UNL A   1      41.707  30.537  33.731  1.00  0.00    -0.014 A 
ATOM     78  C   UNL A   1      40.585  30.053  34.475  1.00  0.00     0.010 A 
ATOM     79  C   UNL A   1      42.026  31.899  33.893  1.00  0.00     0.010 A 
ATOM     80  C   UNL A   1      39.978  30.815  35.492  1.00  0.00     0.020 A 
ATOM     81  C   UNL A   1      41.398  32.676  34.903  1.00  0.00     0.020 A 
ATOM     82  C   UNL A   1      40.428  32.109  35.739  1.00  0.00     0.054 A 
BRANCH  82  83
ATOM     83  S   UNL A   1      39.925  32.918  37.303  1.00  0.00     0.124 S 
ATOM     84  O   UNL A   1      39.300  34.150  36.840  1.00  0.00    -0.237 OA
ATOM     85  O   UNL A   1      39.016  31.938  37.899  1.00  0.00    -0.237 OA
ATOM     86  O   UNL A   1      41.184  33.080  38.025  1.00  0.00    -0.744 OA
ENDBRANCH  82  83
ENDBRANCH  54  77
BRANCH  66  87
ATOM     87  C   UNL A   1      45.190  23.897  33.815  1.00  0.00    -0.014 A 
ATOM     88  C   UNL A   1      44.432  22.774  34.147  1.00  0.00     0.010 A 
ATOM     89  C   UNL A   1      46.549  23.934  34.204  1.00  0.00     0.010 A 
ATOM     90  C   UNL A   1      45.062  21.645  34.668  1.00  0.00     0.020 A 
ATOM     91  C   UNL A   1      47.172  22.836  34.774  1.00  0.00     0.020 A 
ATOM     92  C   UNL A   1      46.435  21.674  34.936  1.00  0.00     0.054 A 
BRANCH  92  93
ATOM     93  S   UNL A   1      47.260  20.161  35.460  1.00  0.00     0.124 S 
ATOM     94  O   UNL A   1      46.248  19.142  35.194  1.00  0.00    -0.237 OA
ATOM     95  O   UNL A   1      48.423  20.141  34.577  1.00  0.00    -0.237 OA
ATOM     96  O   UNL A   1      47.550  20.394  36.872  1.00  0.00    -0.744 OA
ENDBRANCH  92  93
ENDBRANCH  66  87
ENDBRANCH  40  41
ENDBRANCH  33  35
ENDBRANCH  32  33
ENDBRANCH  31  32
ENDBRANCH  30  31
ENDBRANCH   1  30
TORSDOF 20
ENDMDL
