MODEL 1
REMARK VINA RESULT:      -7.1      0.000      0.000
REMARK SMILES CC(C)C[C@H](NC(=O)CNC(=O)[C@@H]([NH3+])C(C)C)C(=O)OCCOCCOC(=O)c1ccc(-c2c3nc(c(-c4ccc(S(=O)(=O)[O-])cc4)c4ccc([nH]4)c(-c4ccc(S(=O)(=O)[O-])cc4)c4nc(c(-c5ccc(S(=O)(=O)[O-])cc5)c5ccc2[nH]5)C=C4)C=C3)cc1
REMARK SMILES IDX 22 1 21 2 20 3 18 4 19 5 5 6 4 7 2 8 1 9 3 10 6 11 7 12 8 14
REMARK SMILES IDX 9 15 10 16 11 17 12 19 13 20 14 21 15 25 16 26 17 27 23 28
REMARK SMILES IDX 24 29 25 30 26 31 27 32 28 33 29 34 30 35 88 36 31 37 87 38
REMARK SMILES IDX 32 39 33 40 34 41 81 42 35 43 86 44 80 45 82 46 36 47 85 48
REMARK SMILES IDX 79 49 78 50 37 52 67 53 48 54 66 55 49 56 52 57 65 58 83 59
REMARK SMILES IDX 50 60 51 61 64 63 84 64 53 65 38 66 39 67 47 68 40 69 46 70
REMARK SMILES IDX 41 71 42 72 43 73 44 74 45 75 68 76 69 77 77 78 70 79 76 80
REMARK SMILES IDX 71 81 72 82 73 83 74 84 75 85 54 86 55 87 63 88 56 89 62 90
REMARK SMILES IDX 57 91 58 92 59 93 60 94 61 95
REMARK H PARENT 6 13 10 18 14 22 14 23 14 24 82 51 52 62
REMARK Flexibility Score: inf
ROOT
ATOM      1  C   UNL A   1      39.442  32.268  37.560  1.00  0.00     0.202 C 
ENDROOT
BRANCH   1   2
ATOM      2  C   UNL A   1      38.095  31.626  37.222  1.00  0.00     0.261 C 
BRANCH   2   3
ATOM      3  O   UNL A   1      37.779  31.606  35.823  1.00  0.00    -0.462 OA
BRANCH   3   4
ATOM      4  C   UNL A   1      37.130  32.724  35.393  1.00  0.00     0.328 C 
ATOM      5  O   UNL A   1      36.460  33.462  36.107  1.00  0.00    -0.250 OA
BRANCH   4   6
ATOM      6  C   UNL A   1      37.222  32.901  33.881  1.00  0.00     0.192 C 
BRANCH   6   7
ATOM      7  C   UNL A   1      38.650  32.622  33.389  1.00  0.00     0.040 C 
BRANCH   7   8
ATOM      8  C   UNL A   1      39.022  32.699  31.897  1.00  0.00    -0.015 C 
ATOM      9  C   UNL A   1      39.549  34.057  31.434  1.00  0.00     0.007 C 
ATOM     10  C   UNL A   1      40.118  31.653  31.636  1.00  0.00     0.007 C 
ENDBRANCH   7   8
ENDBRANCH   6   7
BRANCH   6  11
ATOM     11  N   UNL A   1      36.780  34.241  33.463  1.00  0.00    -0.341 N 
ATOM     12  C   UNL A   1      35.539  34.691  33.112  1.00  0.00     0.240 C 
ATOM     13  H   UNL A   1      37.492  34.920  33.431  1.00  0.00     0.164 HD
ATOM     14  O   UNL A   1      35.399  35.907  32.942  1.00  0.00    -0.273 OA
BRANCH  12  15
ATOM     15  C   UNL A   1      34.330  33.744  32.985  1.00  0.00     0.216 C 
BRANCH  15  16
ATOM     16  N   UNL A   1      34.365  32.942  31.773  1.00  0.00    -0.342 N 
ATOM     17  C   UNL A   1      34.442  33.277  30.456  1.00  0.00     0.278 C 
ATOM     18  H   UNL A   1      34.324  31.972  31.935  1.00  0.00     0.164 HD
ATOM     19  O   UNL A   1      34.403  32.346  29.643  1.00  0.00    -0.268 OA
BRANCH  17  20
ATOM     20  C   UNL A   1      34.592  34.732  29.940  1.00  0.00     0.273 C 
BRANCH  20  21
ATOM     21  N   UNL A   1      35.532  34.827  28.805  1.00  0.00    -0.347 N 
ATOM     22  H   UNL A   1      35.111  35.386  28.062  1.00  0.00     0.345 HD
ATOM     23  H   UNL A   1      35.736  33.892  28.452  1.00  0.00     0.345 HD
ATOM     24  H   UNL A   1      36.396  35.270  29.116  1.00  0.00     0.345 HD
ENDBRANCH  20  21
BRANCH  20  25
ATOM     25  C   UNL A   1      33.203  35.353  29.670  1.00  0.00     0.051 C 
ATOM     26  C   UNL A   1      32.682  36.030  30.948  1.00  0.00     0.014 C 
ATOM     27  C   UNL A   1      33.230  36.396  28.548  1.00  0.00     0.014 C 
ENDBRANCH  20  25
ENDBRANCH  17  20
ENDBRANCH  15  16
ENDBRANCH  12  15
ENDBRANCH   6  11
ENDBRANCH   4   6
ENDBRANCH   3   4
ENDBRANCH   2   3
ENDBRANCH   1   2
BRANCH   1  28
ATOM     28  O   UNL A   1      39.699  32.593  38.920  1.00  0.00    -0.374 OA
BRANCH  28  29
ATOM     29  C   UNL A   1      40.265  33.866  39.230  1.00  0.00     0.202 C 
BRANCH  29  30
ATOM     30  C   UNL A   1      39.317  35.061  39.362  1.00  0.00     0.261 C 
BRANCH  30  31
ATOM     31  O   UNL A   1      39.144  35.763  38.116  1.00  0.00    -0.460 OA
BRANCH  31  32
ATOM     32  C   UNL A   1      40.119  36.662  37.841  1.00  0.00     0.338 C 
ATOM     33  O   UNL A   1      40.491  37.588  38.550  1.00  0.00    -0.246 OA
BRANCH  32  34
ATOM     34  C   UNL A   1      40.839  36.289  36.615  1.00  0.00     0.060 A 
ATOM     35  C   UNL A   1      40.101  35.716  35.571  1.00  0.00     0.016 A 
ATOM     36  C   UNL A   1      42.233  36.347  36.558  1.00  0.00     0.016 A 
ATOM     37  C   UNL A   1      40.761  35.141  34.488  1.00  0.00     0.010 A 
ATOM     38  C   UNL A   1      42.892  35.759  35.474  1.00  0.00     0.010 A 
ATOM     39  C   UNL A   1      42.161  35.115  34.460  1.00  0.00    -0.014 A 
BRANCH  39  40
ATOM     40  C   UNL A   1      42.853  34.268  33.460  1.00  0.00     0.031 A 
ATOM     41  C   UNL A   1      43.368  34.906  32.197  1.00  0.00     0.074 A 
ATOM     42  C   UNL A   1      43.051  32.959  33.690  1.00  0.00     0.049 A 
ATOM     43  N   UNL A   1      43.976  34.353  31.180  1.00  0.00    -0.248 NA
ATOM     44  C   UNL A   1      43.175  36.360  32.067  1.00  0.00     0.031 C 
ATOM     45  C   UNL A   1      42.648  32.243  34.900  1.00  0.00     0.029 A 
ATOM     46  N   UNL A   1      43.643  31.999  32.911  1.00  0.00    -0.354 N 
ATOM     47  C   UNL A   1      44.233  35.386  30.287  1.00  0.00     0.074 A 
ATOM     48  C   UNL A   1      43.696  36.596  30.870  1.00  0.00     0.031 C 
ATOM     49  C   UNL A   1      42.999  30.951  34.778  1.00  0.00     0.029 A 
ATOM     50  C   UNL A   1      43.617  30.745  33.469  1.00  0.00     0.049 A 
ATOM     51  H   UNL A   1      44.048  32.190  32.033  1.00  0.00     0.167 HD
ATOM     52  C   UNL A   1      44.862  35.333  29.088  1.00  0.00     0.031 A 
ATOM     53  C   UNL A   1      44.025  29.560  32.973  1.00  0.00     0.031 A 
ATOM     54  C   UNL A   1      45.378  34.126  28.503  1.00  0.00     0.049 A 
ATOM     55  C   UNL A   1      44.646  29.511  31.601  1.00  0.00     0.074 A 
ATOM     56  C   UNL A   1      46.035  33.966  27.295  1.00  0.00     0.029 A 
ATOM     57  N   UNL A   1      45.291  32.868  29.079  1.00  0.00    -0.354 N 
ATOM     58  N   UNL A   1      44.891  30.499  30.772  1.00  0.00    -0.248 NA
ATOM     59  C   UNL A   1      45.047  28.189  31.100  1.00  0.00     0.031 C 
ATOM     60  C   UNL A   1      46.298  32.604  27.118  1.00  0.00     0.029 A 
ATOM     61  C   UNL A   1      45.856  31.922  28.241  1.00  0.00     0.049 A 
ATOM     62  H   UNL A   1      44.884  32.676  29.956  1.00  0.00     0.167 HD
ATOM     63  C   UNL A   1      45.496  29.920  29.662  1.00  0.00     0.074 A 
ATOM     64  C   UNL A   1      45.590  28.500  29.930  1.00  0.00     0.031 C 
ATOM     65  C   UNL A   1      45.938  30.511  28.523  1.00  0.00     0.031 A 
BRANCH  52  66
ATOM     66  C   UNL A   1      44.991  36.619  28.315  1.00  0.00    -0.014 A 
ATOM     67  C   UNL A   1      46.175  37.376  28.352  1.00  0.00     0.010 A 
ATOM     68  C   UNL A   1      43.920  37.060  27.516  1.00  0.00     0.010 A 
ATOM     69  C   UNL A   1      46.273  38.571  27.632  1.00  0.00     0.020 A 
ATOM     70  C   UNL A   1      44.022  38.242  26.776  1.00  0.00     0.020 A 
ATOM     71  C   UNL A   1      45.193  39.000  26.854  1.00  0.00     0.054 A 
BRANCH  71  72
ATOM     72  S   UNL A   1      45.352  40.546  25.918  1.00  0.00     0.124 S 
ATOM     73  O   UNL A   1      46.298  40.169  24.872  1.00  0.00    -0.237 OA
ATOM     74  O   UNL A   1      43.984  40.792  25.469  1.00  0.00    -0.237 OA
ATOM     75  O   UNL A   1      45.860  41.497  26.904  1.00  0.00    -0.744 OA
ENDBRANCH  71  72
ENDBRANCH  52  66
BRANCH  53  76
ATOM     76  C   UNL A   1      43.837  28.319  33.770  1.00  0.00    -0.014 A 
ATOM     77  C   UNL A   1      44.883  27.805  34.555  1.00  0.00     0.010 A 
ATOM     78  C   UNL A   1      42.600  27.650  33.756  1.00  0.00     0.010 A 
ATOM     79  C   UNL A   1      44.698  26.639  35.304  1.00  0.00     0.020 A 
ATOM     80  C   UNL A   1      42.403  26.498  34.523  1.00  0.00     0.020 A 
ATOM     81  C   UNL A   1      43.459  25.995  35.285  1.00  0.00     0.054 A 
BRANCH  81  82
ATOM     82  S   UNL A   1      43.221  24.517  36.312  1.00  0.00     0.124 S 
ATOM     83  O   UNL A   1      44.428  24.522  37.133  1.00  0.00    -0.237 OA
ATOM     84  O   UNL A   1      41.976  24.817  37.014  1.00  0.00    -0.237 OA
ATOM     85  O   UNL A   1      43.130  23.434  35.335  1.00  0.00    -0.744 OA
ENDBRANCH  81  82
ENDBRANCH  53  76
BRANCH  65  86
ATOM     86  C   UNL A   1      46.591  29.631  27.492  1.00  0.00    -0.014 A 
ATOM     87  C   UNL A   1      45.915  29.264  26.316  1.00  0.00     0.010 A 
ATOM     88  C   UNL A   1      47.924  29.218  27.677  1.00  0.00     0.010 A 
ATOM     89  C   UNL A   1      46.553  28.477  25.352  1.00  0.00     0.020 A 
ATOM     90  C   UNL A   1      48.573  28.454  26.704  1.00  0.00     0.020 A 
ATOM     91  C   UNL A   1      47.878  28.077  25.552  1.00  0.00     0.054 A 
BRANCH  91  92
ATOM     92  S   UNL A   1      48.701  27.100  24.265  1.00  0.00     0.124 S 
ATOM     93  O   UNL A   1      49.451  28.122  23.542  1.00  0.00    -0.237 OA
ATOM     94  O   UNL A   1      49.506  26.160  25.041  1.00  0.00    -0.237 OA
ATOM     95  O   UNL A   1      47.594  26.498  23.526  1.00  0.00    -0.744 OA
ENDBRANCH  91  92
ENDBRANCH  65  86
ENDBRANCH  39  40
ENDBRANCH  32  34
ENDBRANCH  31  32
ENDBRANCH  30  31
ENDBRANCH  29  30
ENDBRANCH  28  29
ENDBRANCH   1  28
TORSDOF 25
ENDMDL
MODEL 2
REMARK VINA RESULT:      -7.1      1.527      2.335
REMARK SMILES CC(C)C[C@H](NC(=O)CNC(=O)[C@@H]([NH3+])C(C)C)C(=O)OCCOCCOC(=O)c1ccc(-c2c3nc(c(-c4ccc(S(=O)(=O)[O-])cc4)c4ccc([nH]4)c(-c4ccc(S(=O)(=O)[O-])cc4)c4nc(c(-c5ccc(S(=O)(=O)[O-])cc5)c5ccc2[nH]5)C=C4)C=C3)cc1
REMARK SMILES IDX 22 1 21 2 20 3 18 4 19 5 5 6 4 7 2 8 1 9 3 10 6 11 7 12 8 14
REMARK SMILES IDX 9 15 10 16 11 17 12 19 13 20 14 21 15 25 16 26 17 27 23 28
REMARK SMILES IDX 24 29 25 30 26 31 27 32 28 33 29 34 30 35 88 36 31 37 87 38
REMARK SMILES IDX 32 39 33 40 34 41 81 42 35 43 86 44 80 45 82 46 36 47 85 48
REMARK SMILES IDX 79 49 78 50 37 52 67 53 48 54 66 55 49 56 52 57 65 58 83 59
REMARK SMILES IDX 50 60 51 61 64 63 84 64 53 65 38 66 39 67 47 68 40 69 46 70
REMARK SMILES IDX 41 71 42 72 43 73 44 74 45 75 68 76 69 77 77 78 70 79 76 80
REMARK SMILES IDX 71 81 72 82 73 83 74 84 75 85 54 86 55 87 63 88 56 89 62 90
REMARK SMILES IDX 57 91 58 92 59 93 60 94 61 95
REMARK H PARENT 6 13 10 18 14 22 14 23 14 24 82 51 52 62
REMARK Flexibility Score: inf
ROOT
ATOM      1  C   UNL A   1      39.386  32.550  37.145  1.00  0.00     0.202 C 
ENDROOT
BRANCH   1   2
ATOM      2  C   UNL A   1      38.079  32.263  36.404  1.00  0.00     0.261 C 
BRANCH   2   3
ATOM      3  O   UNL A   1      38.245  31.642  35.121  1.00  0.00    -0.462 OA
BRANCH   3   4
ATOM      4  C   UNL A   1      38.281  32.528  34.086  1.00  0.00     0.328 C 
ATOM      5  O   UNL A   1      37.732  33.624  34.084  1.00  0.00    -0.250 OA
BRANCH   4   6
ATOM      6  C   UNL A   1      38.984  31.955  32.860  1.00  0.00     0.192 C 
BRANCH   6   7
ATOM      7  C   UNL A   1      39.838  30.738  33.244  1.00  0.00     0.040 C 
BRANCH   7   8
ATOM      8  C   UNL A   1      39.681  29.382  32.532  1.00  0.00    -0.015 C 
ATOM      9  C   UNL A   1      38.248  29.025  32.135  1.00  0.00     0.007 C 
ATOM     10  C   UNL A   1      40.527  29.429  31.249  1.00  0.00     0.007 C 
ENDBRANCH   7   8
ENDBRANCH   6   7
BRANCH   6  11
ATOM     11  N   UNL A   1      39.804  32.972  32.179  1.00  0.00    -0.341 N 
ATOM     12  C   UNL A   1      39.901  33.284  30.853  1.00  0.00     0.240 C 
ATOM     13  H   UNL A   1      40.372  33.512  32.775  1.00  0.00     0.164 HD
ATOM     14  O   UNL A   1      40.554  34.287  30.549  1.00  0.00    -0.273 OA
BRANCH  12  15
ATOM     15  C   UNL A   1      39.181  32.466  29.764  1.00  0.00     0.216 C 
BRANCH  15  16
ATOM     16  N   UNL A   1      38.047  33.170  29.185  1.00  0.00    -0.342 N 
ATOM     17  C   UNL A   1      36.799  32.760  28.831  1.00  0.00     0.278 C 
ATOM     18  H   UNL A   1      38.215  34.125  29.016  1.00  0.00     0.164 HD
ATOM     19  O   UNL A   1      36.064  33.605  28.308  1.00  0.00    -0.268 OA
BRANCH  17  20
ATOM     20  C   UNL A   1      36.261  31.324  29.064  1.00  0.00     0.273 C 
BRANCH  20  21
ATOM     21  N   UNL A   1      34.879  31.323  29.585  1.00  0.00    -0.347 N 
ATOM     22  H   UNL A   1      34.706  30.452  30.088  1.00  0.00     0.345 HD
ATOM     23  H   UNL A   1      34.223  31.403  28.808  1.00  0.00     0.345 HD
ATOM     24  H   UNL A   1      34.754  32.112  30.218  1.00  0.00     0.345 HD
ENDBRANCH  20  21
BRANCH  20  25
ATOM     25  C   UNL A   1      36.463  30.462  27.798  1.00  0.00     0.051 C 
ATOM     26  C   UNL A   1      37.808  29.720  27.886  1.00  0.00     0.014 C 
ATOM     27  C   UNL A   1      35.352  29.423  27.605  1.00  0.00     0.014 C 
ENDBRANCH  20  25
ENDBRANCH  17  20
ENDBRANCH  15  16
ENDBRANCH  12  15
ENDBRANCH   6  11
ENDBRANCH   4   6
ENDBRANCH   3   4
ENDBRANCH   2   3
ENDBRANCH   1   2
BRANCH   1  28
ATOM     28  O   UNL A   1      39.326  32.718  38.555  1.00  0.00    -0.374 OA
BRANCH  28  29
ATOM     29  C   UNL A   1      40.046  33.795  39.154  1.00  0.00     0.202 C 
BRANCH  29  30
ATOM     30  C   UNL A   1      39.300  35.109  39.399  1.00  0.00     0.261 C 
BRANCH  30  31
ATOM     31  O   UNL A   1      39.305  35.966  38.241  1.00  0.00    -0.460 OA
BRANCH  31  32
ATOM     32  C   UNL A   1      40.442  36.683  38.080  1.00  0.00     0.338 C 
ATOM     33  O   UNL A   1      40.956  37.445  38.890  1.00  0.00    -0.246 OA
BRANCH  32  34
ATOM     34  C   UNL A   1      41.126  36.303  36.836  1.00  0.00     0.060 A 
ATOM     35  C   UNL A   1      40.338  35.856  35.767  1.00  0.00     0.016 A 
ATOM     36  C   UNL A   1      42.518  36.230  36.777  1.00  0.00     0.016 A 
ATOM     37  C   UNL A   1      40.942  35.273  34.655  1.00  0.00     0.010 A 
ATOM     38  C   UNL A   1      43.120  35.634  35.665  1.00  0.00     0.010 A 
ATOM     39  C   UNL A   1      42.332  35.114  34.622  1.00  0.00    -0.014 A 
BRANCH  39  40
ATOM     40  C   UNL A   1      42.941  34.254  33.580  1.00  0.00     0.031 A 
ATOM     41  C   UNL A   1      43.403  34.885  32.294  1.00  0.00     0.074 A 
ATOM     42  C   UNL A   1      43.113  32.939  33.792  1.00  0.00     0.049 A 
ATOM     43  N   UNL A   1      43.936  34.322  31.241  1.00  0.00    -0.248 NA
ATOM     44  C   UNL A   1      43.246  36.345  32.183  1.00  0.00     0.031 C 
ATOM     45  C   UNL A   1      42.759  32.226  35.019  1.00  0.00     0.029 A 
ATOM     46  N   UNL A   1      43.632  31.967  32.975  1.00  0.00    -0.354 N 
ATOM     47  C   UNL A   1      44.172  35.354  30.340  1.00  0.00     0.074 A 
ATOM     48  C   UNL A   1      43.705  36.575  30.959  1.00  0.00     0.031 C 
ATOM     49  C   UNL A   1      43.064  30.925  34.870  1.00  0.00     0.029 A 
ATOM     50  C   UNL A   1      43.601  30.710  33.528  1.00  0.00     0.049 A 
ATOM     51  H   UNL A   1      43.992  32.152  32.077  1.00  0.00     0.167 HD
ATOM     52  C   UNL A   1      44.731  35.291  29.107  1.00  0.00     0.031 A 
ATOM     53  C   UNL A   1      43.945  29.517  33.002  1.00  0.00     0.031 A 
ATOM     54  C   UNL A   1      45.177  34.073  28.487  1.00  0.00     0.049 A 
ATOM     55  C   UNL A   1      44.485  29.460  31.597  1.00  0.00     0.074 A 
ATOM     56  C   UNL A   1      45.760  33.903  27.243  1.00  0.00     0.029 A 
ATOM     57  N   UNL A   1      45.085  32.814  29.061  1.00  0.00    -0.354 N 
ATOM     58  N   UNL A   1      44.712  30.446  30.762  1.00  0.00    -0.248 NA
ATOM     59  C   UNL A   1      44.818  28.131  31.068  1.00  0.00     0.031 C 
ATOM     60  C   UNL A   1      45.972  32.534  27.045  1.00  0.00     0.029 A 
ATOM     61  C   UNL A   1      45.574  31.858  28.187  1.00  0.00     0.049 A 
ATOM     62  H   UNL A   1      44.724  32.628  29.958  1.00  0.00     0.167 HD
ATOM     63  C   UNL A   1      45.237  29.857  29.615  1.00  0.00     0.074 A 
ATOM     64  C   UNL A   1      45.303  28.433  29.870  1.00  0.00     0.031 C 
ATOM     65  C   UNL A   1      45.631  30.444  28.457  1.00  0.00     0.031 A 
BRANCH  52  66
ATOM     66  C   UNL A   1      44.853  36.577  28.335  1.00  0.00    -0.014 A 
ATOM     67  C   UNL A   1      46.039  37.333  28.360  1.00  0.00     0.010 A 
ATOM     68  C   UNL A   1      43.775  37.022  27.547  1.00  0.00     0.010 A 
ATOM     69  C   UNL A   1      46.132  38.528  27.642  1.00  0.00     0.020 A 
ATOM     70  C   UNL A   1      43.872  38.205  26.809  1.00  0.00     0.020 A 
ATOM     71  C   UNL A   1      45.045  38.960  26.875  1.00  0.00     0.054 A 
BRANCH  71  72
ATOM     72  S   UNL A   1      45.196  40.507  25.940  1.00  0.00     0.124 S 
ATOM     73  O   UNL A   1      45.741  41.415  26.946  1.00  0.00    -0.237 OA
ATOM     74  O   UNL A   1      46.111  40.143  24.861  1.00  0.00    -0.237 OA
ATOM     75  O   UNL A   1      43.826  40.794  25.520  1.00  0.00    -0.744 OA
ENDBRANCH  71  72
ENDBRANCH  52  66
BRANCH  53  76
ATOM     76  C   UNL A   1      43.766  28.277  33.802  1.00  0.00    -0.014 A 
ATOM     77  C   UNL A   1      44.813  27.777  34.596  1.00  0.00     0.010 A 
ATOM     78  C   UNL A   1      42.536  27.594  33.783  1.00  0.00     0.010 A 
ATOM     79  C   UNL A   1      44.636  26.611  35.347  1.00  0.00     0.020 A 
ATOM     80  C   UNL A   1      42.347  26.443  34.552  1.00  0.00     0.020 A 
ATOM     81  C   UNL A   1      43.404  25.953  35.323  1.00  0.00     0.054 A 
BRANCH  81  82
ATOM     82  S   UNL A   1      43.177  24.476  36.353  1.00  0.00     0.124 S 
ATOM     83  O   UNL A   1      44.123  24.716  37.438  1.00  0.00    -0.237 OA
ATOM     84  O   UNL A   1      41.763  24.558  36.714  1.00  0.00    -0.237 OA
ATOM     85  O   UNL A   1      43.518  23.377  35.453  1.00  0.00    -0.744 OA
ENDBRANCH  81  82
ENDBRANCH  53  76
BRANCH  65  86
ATOM     86  C   UNL A   1      46.198  29.552  27.386  1.00  0.00    -0.014 A 
ATOM     87  C   UNL A   1      47.574  29.273  27.323  1.00  0.00     0.010 A 
ATOM     88  C   UNL A   1      45.329  28.933  26.467  1.00  0.00     0.010 A 
ATOM     89  C   UNL A   1      48.076  28.411  26.344  1.00  0.00     0.020 A 
ATOM     90  C   UNL A   1      45.824  28.051  25.503  1.00  0.00     0.020 A 
ATOM     91  C   UNL A   1      47.198  27.806  25.440  1.00  0.00     0.054 A 
BRANCH  91  92
ATOM     92  S   UNL A   1      47.865  26.651  24.210  1.00  0.00     0.124 S 
ATOM     93  O   UNL A   1      47.029  25.473  24.416  1.00  0.00    -0.237 OA
ATOM     94  O   UNL A   1      47.652  27.363  22.953  1.00  0.00    -0.237 OA
ATOM     95  O   UNL A   1      49.265  26.500  24.602  1.00  0.00    -0.744 OA
ENDBRANCH  91  92
ENDBRANCH  65  86
ENDBRANCH  39  40
ENDBRANCH  32  34
ENDBRANCH  31  32
ENDBRANCH  30  31
ENDBRANCH  29  30
ENDBRANCH  28  29
ENDBRANCH   1  28
TORSDOF 25
ENDMDL
MODEL 3
REMARK VINA RESULT:      -7.0      6.306     12.757
REMARK SMILES CC(C)C[C@H](NC(=O)CNC(=O)[C@@H]([NH3+])C(C)C)C(=O)OCCOCCOC(=O)c1ccc(-c2c3nc(c(-c4ccc(S(=O)(=O)[O-])cc4)c4ccc([nH]4)c(-c4ccc(S(=O)(=O)[O-])cc4)c4nc(c(-c5ccc(S(=O)(=O)[O-])cc5)c5ccc2[nH]5)C=C4)C=C3)cc1
REMARK SMILES IDX 22 1 21 2 20 3 18 4 19 5 5 6 4 7 2 8 1 9 3 10 6 11 7 12 8 14
REMARK SMILES IDX 9 15 10 16 11 17 12 19 13 20 14 21 15 25 16 26 17 27 23 28
REMARK SMILES IDX 24 29 25 30 26 31 27 32 28 33 29 34 30 35 88 36 31 37 87 38
REMARK SMILES IDX 32 39 33 40 34 41 81 42 35 43 86 44 80 45 82 46 36 47 85 48
REMARK SMILES IDX 79 49 78 50 37 52 67 53 48 54 66 55 49 56 52 57 65 58 83 59
REMARK SMILES IDX 50 60 51 61 64 63 84 64 53 65 38 66 39 67 47 68 40 69 46 70
REMARK SMILES IDX 41 71 42 72 43 73 44 74 45 75 68 76 69 77 77 78 70 79 76 80
REMARK SMILES IDX 71 81 72 82 73 83 74 84 75 85 54 86 55 87 63 88 56 89 62 90
REMARK SMILES IDX 57 91 58 92 59 93 60 94 61 95
REMARK H PARENT 6 13 10 18 14 22 14 23 14 24 82 51 52 62
REMARK Flexibility Score: inf
ROOT
ATOM      1  C   UNL A   1      46.688  40.846  25.599  1.00  0.00     0.202 C 
ENDROOT
BRANCH   1   2
ATOM      2  C   UNL A   1      46.662  42.070  24.681  1.00  0.00     0.261 C 
BRANCH   2   3
ATOM      3  O   UNL A   1      45.963  41.873  23.443  1.00  0.00    -0.462 OA
BRANCH   3   4
ATOM      4  C   UNL A   1      46.784  41.800  22.358  1.00  0.00     0.328 C 
ATOM      5  O   UNL A   1      47.557  40.877  22.126  1.00  0.00    -0.250 OA
BRANCH   4   6
ATOM      6  C   UNL A   1      46.734  43.068  21.510  1.00  0.00     0.192 C 
BRANCH   6   7
ATOM      7  C   UNL A   1      47.843  44.043  21.928  1.00  0.00     0.040 C 
BRANCH   7   8
ATOM      8  C   UNL A   1      47.523  45.413  22.556  1.00  0.00    -0.015 C 
ATOM      9  C   UNL A   1      48.661  46.031  23.368  1.00  0.00     0.007 C 
ATOM     10  C   UNL A   1      47.180  46.380  21.411  1.00  0.00     0.007 C 
ENDBRANCH   7   8
ENDBRANCH   6   7
BRANCH   6  11
ATOM     11  N   UNL A   1      45.414  43.717  21.583  1.00  0.00    -0.341 N 
ATOM     12  C   UNL A   1      44.526  44.023  20.592  1.00  0.00     0.240 C 
ATOM     13  H   UNL A   1      45.128  43.971  22.490  1.00  0.00     0.164 HD
ATOM     14  O   UNL A   1      43.413  44.436  20.931  1.00  0.00    -0.273 OA
BRANCH  12  15
ATOM     15  C   UNL A   1      44.856  43.811  19.101  1.00  0.00     0.216 C 
BRANCH  15  16
ATOM     16  N   UNL A   1      45.154  45.054  18.407  1.00  0.00    -0.342 N 
ATOM     17  C   UNL A   1      44.359  46.050  17.931  1.00  0.00     0.278 C 
ATOM     18  H   UNL A   1      46.115  45.203  18.251  1.00  0.00     0.164 HD
ATOM     19  O   UNL A   1      44.923  46.973  17.332  1.00  0.00    -0.268 OA
BRANCH  17  20
ATOM     20  C   UNL A   1      42.820  46.091  18.114  1.00  0.00     0.273 C 
BRANCH  20  21
ATOM     21  N   UNL A   1      42.244  47.392  17.719  1.00  0.00    -0.347 N 
ATOM     22  H   UNL A   1      41.278  47.260  17.419  1.00  0.00     0.345 HD
ATOM     23  H   UNL A   1      42.788  47.785  16.950  1.00  0.00     0.345 HD
ATOM     24  H   UNL A   1      42.269  48.031  18.513  1.00  0.00     0.345 HD
ENDBRANCH  20  21
BRANCH  20  25
ATOM     25  C   UNL A   1      42.163  44.871  17.430  1.00  0.00     0.051 C 
ATOM     26  C   UNL A   1      40.936  44.421  18.241  1.00  0.00     0.014 C 
ATOM     27  C   UNL A   1      41.710  45.170  15.996  1.00  0.00     0.014 C 
ENDBRANCH  20  25
ENDBRANCH  17  20
ENDBRANCH  15  16
ENDBRANCH  12  15
ENDBRANCH   6  11
ENDBRANCH   4   6
ENDBRANCH   3   4
ENDBRANCH   2   3
ENDBRANCH   1   2
BRANCH   1  28
ATOM     28  O   UNL A   1      46.510  39.567  25.003  1.00  0.00    -0.374 OA
BRANCH  28  29
ATOM     29  C   UNL A   1      47.528  38.580  25.172  1.00  0.00     0.202 C 
BRANCH  29  30
ATOM     30  C   UNL A   1      48.201  38.471  26.543  1.00  0.00     0.261 C 
BRANCH  30  31
ATOM     31  O   UNL A   1      48.963  37.256  26.683  1.00  0.00    -0.460 OA
BRANCH  31  32
ATOM     32  C   UNL A   1      48.975  36.744  27.937  1.00  0.00     0.338 C 
ATOM     33  O   UNL A   1      49.546  37.205  28.917  1.00  0.00    -0.246 OA
BRANCH  32  34
ATOM     34  C   UNL A   1      48.043  35.613  28.046  1.00  0.00     0.060 A 
ATOM     35  C   UNL A   1      48.219  34.722  29.112  1.00  0.00     0.016 A 
ATOM     36  C   UNL A   1      47.124  35.342  27.031  1.00  0.00     0.016 A 
ATOM     37  C   UNL A   1      47.515  33.520  29.135  1.00  0.00     0.010 A 
ATOM     38  C   UNL A   1      46.429  34.129  27.051  1.00  0.00     0.010 A 
ATOM     39  C   UNL A   1      46.656  33.196  28.079  1.00  0.00    -0.014 A 
BRANCH  39  40
ATOM     40  C   UNL A   1      46.131  31.815  27.966  1.00  0.00     0.031 A 
ATOM     41  C   UNL A   1      47.013  30.746  27.379  1.00  0.00     0.074 A 
ATOM     42  C   UNL A   1      44.901  31.511  28.414  1.00  0.00     0.049 A 
ATOM     43  N   UNL A   1      46.750  29.483  27.162  1.00  0.00    -0.248 NA
ATOM     44  C   UNL A   1      48.373  31.154  26.989  1.00  0.00     0.031 C 
ATOM     45  C   UNL A   1      43.978  32.448  29.053  1.00  0.00     0.029 A 
ATOM     46  N   UNL A   1      44.217  30.322  28.398  1.00  0.00    -0.354 N 
ATOM     47  C   UNL A   1      47.906  28.947  26.605  1.00  0.00     0.074 A 
ATOM     48  C   UNL A   1      48.864  30.025  26.496  1.00  0.00     0.031 C 
ATOM     49  C   UNL A   1      42.842  31.799  29.361  1.00  0.00     0.029 A 
ATOM     50  C   UNL A   1      42.946  30.412  28.910  1.00  0.00     0.049 A 
ATOM     51  H   UNL A   1      44.600  29.484  28.051  1.00  0.00     0.167 HD
ATOM     52  C   UNL A   1      48.148  27.671  26.221  1.00  0.00     0.031 A 
ATOM     53  C   UNL A   1      41.968  29.487  28.985  1.00  0.00     0.031 A 
ATOM     54  C   UNL A   1      47.186  26.606  26.314  1.00  0.00     0.049 A 
ATOM     55  C   UNL A   1      42.231  28.095  28.473  1.00  0.00     0.074 A 
ATOM     56  C   UNL A   1      47.334  25.277  25.954  1.00  0.00     0.029 A 
ATOM     57  N   UNL A   1      45.893  26.748  26.795  1.00  0.00    -0.354 N 
ATOM     58  N   UNL A   1      43.332  27.601  27.958  1.00  0.00    -0.248 NA
ATOM     59  C   UNL A   1      41.120  27.137  28.556  1.00  0.00     0.031 C 
ATOM     60  C   UNL A   1      46.113  24.629  26.171  1.00  0.00     0.029 A 
ATOM     61  C   UNL A   1      45.223  25.540  26.717  1.00  0.00     0.049 A 
ATOM     62  H   UNL A   1      45.509  27.587  27.140  1.00  0.00     0.167 HD
ATOM     63  C   UNL A   1      43.054  26.267  27.677  1.00  0.00     0.074 A 
ATOM     64  C   UNL A   1      41.686  26.031  28.090  1.00  0.00     0.031 C 
ATOM     65  C   UNL A   1      43.859  25.323  27.130  1.00  0.00     0.031 A 
BRANCH  52  66
ATOM     66  C   UNL A   1      49.498  27.370  25.629  1.00  0.00    -0.014 A 
ATOM     67  C   UNL A   1      49.746  27.536  24.255  1.00  0.00     0.010 A 
ATOM     68  C   UNL A   1      50.546  26.942  26.467  1.00  0.00     0.010 A 
ATOM     69  C   UNL A   1      51.005  27.244  23.722  1.00  0.00     0.020 A 
ATOM     70  C   UNL A   1      51.813  26.671  25.942  1.00  0.00     0.020 A 
ATOM     71  C   UNL A   1      52.029  26.808  24.569  1.00  0.00     0.054 A 
BRANCH  71  72
ATOM     72  S   UNL A   1      53.659  26.450  23.855  1.00  0.00     0.124 S 
ATOM     73  O   UNL A   1      54.385  27.687  24.128  1.00  0.00    -0.237 OA
ATOM     74  O   UNL A   1      54.096  25.284  24.619  1.00  0.00    -0.237 OA
ATOM     75  O   UNL A   1      53.371  26.194  22.446  1.00  0.00    -0.744 OA
ENDBRANCH  71  72
ENDBRANCH  52  66
BRANCH  53  76
ATOM     76  C   UNL A   1      40.642  29.856  29.547  1.00  0.00    -0.014 A 
ATOM     77  C   UNL A   1      40.462  29.988  30.934  1.00  0.00     0.010 A 
ATOM     78  C   UNL A   1      39.552  30.092  28.690  1.00  0.00     0.010 A 
ATOM     79  C   UNL A   1      39.212  30.337  31.455  1.00  0.00     0.020 A 
ATOM     80  C   UNL A   1      38.307  30.466  29.205  1.00  0.00     0.020 A 
ATOM     81  C   UNL A   1      38.144  30.577  30.587  1.00  0.00     0.054 A 
BRANCH  81  82
ATOM     82  S   UNL A   1      36.547  31.089  31.281  1.00  0.00     0.124 S 
ATOM     83  O   UNL A   1      35.787  31.419  30.080  1.00  0.00    -0.237 OA
ATOM     84  O   UNL A   1      36.114  29.890  31.995  1.00  0.00    -0.237 OA
ATOM     85  O   UNL A   1      36.895  32.222  32.136  1.00  0.00    -0.744 OA
ENDBRANCH  81  82
ENDBRANCH  53  76
BRANCH  65  86
ATOM     86  C   UNL A   1      43.295  23.937  26.972  1.00  0.00    -0.014 A 
ATOM     87  C   UNL A   1      42.766  23.502  25.745  1.00  0.00     0.010 A 
ATOM     88  C   UNL A   1      43.355  23.037  28.053  1.00  0.00     0.010 A 
ATOM     89  C   UNL A   1      42.283  22.197  25.607  1.00  0.00     0.020 A 
ATOM     90  C   UNL A   1      42.896  21.725  27.911  1.00  0.00     0.020 A 
ATOM     91  C   UNL A   1      42.350  21.317  26.692  1.00  0.00     0.054 A 
BRANCH  91  92
ATOM     92  S   UNL A   1      41.763  19.614  26.475  1.00  0.00     0.124 S 
ATOM     93  O   UNL A   1      42.487  19.194  25.280  1.00  0.00    -0.237 OA
ATOM     94  O   UNL A   1      42.177  18.971  27.720  1.00  0.00    -0.237 OA
ATOM     95  O   UNL A   1      40.319  19.764  26.310  1.00  0.00    -0.744 OA
ENDBRANCH  91  92
ENDBRANCH  65  86
ENDBRANCH  39  40
ENDBRANCH  32  34
ENDBRANCH  31  32
ENDBRANCH  30  31
ENDBRANCH  29  30
ENDBRANCH  28  29
ENDBRANCH   1  28
TORSDOF 25
ENDMDL
