MODEL 1
REMARK VINA RESULT:      -9.6      0.000      0.000
REMARK SMILES CC(C)Cc1noc(C[NH+]2CCC(CC(=O)OCCOCCOC(=O)c3ccc(-c4c5nc(c(-c6ccc(S(=O)(=O)[O-])cc6)c6ccc([nH]6)c(-c6ccc(S(=O)(=O)[O-])cc6)c6nc(c(-c7ccc(S(=O)(=O)[O-])cc7)c7ccc4[nH]7)C=C6)C=C5)cc3)CC2)n1
REMARK SMILES IDX 19 1 18 2 17 3 15 4 16 5 14 6 13 7 10 8 11 9 87 10 12 12
REMARK SMILES IDX 86 13 9 14 8 15 5 16 6 17 88 18 7 19 4 20 2 21 1 22 3 23
REMARK SMILES IDX 20 24 21 25 22 26 23 27 24 28 25 29 26 30 27 31 85 32 28 33
REMARK SMILES IDX 84 34 29 35 30 36 31 37 78 38 32 39 83 40 77 41 79 42 33 43
REMARK SMILES IDX 82 44 76 45 75 46 34 48 64 49 45 50 63 51 46 52 49 53 62 54
REMARK SMILES IDX 80 55 47 56 48 57 61 59 81 60 50 61 35 62 36 63 44 64 37 65
REMARK SMILES IDX 43 66 38 67 39 68 40 69 41 70 42 71 65 72 66 73 74 74 67 75
REMARK SMILES IDX 73 76 68 77 69 78 70 79 71 80 72 81 51 82 52 83 60 84 53 85
REMARK SMILES IDX 59 86 54 87 55 88 56 89 57 90 58 91
REMARK H PARENT 10 11 79 47 49 58
REMARK Flexibility Score: inf
ROOT
ATOM      1  C   UNL A   1      32.103  30.041  26.343  1.00  0.00     0.202 C 
ENDROOT
BRANCH   1   2
ATOM      2  C   UNL A   1      31.622  29.669  24.939  1.00  0.00     0.261 C 
BRANCH   2   3
ATOM      3  O   UNL A   1      32.502  28.706  24.331  1.00  0.00    -0.463 OA
BRANCH   3   4
ATOM      4  C   UNL A   1      32.005  28.000  23.288  1.00  0.00     0.306 C 
ATOM      5  O   UNL A   1      32.640  27.672  22.293  1.00  0.00    -0.252 OA
BRANCH   4   6
ATOM      6  C   UNL A   1      30.532  27.691  23.447  1.00  0.00     0.126 C 
BRANCH   6   7
ATOM      7  C   UNL A   1      30.123  26.296  23.964  1.00  0.00     0.011 C 
ATOM      8  N   UNL A   1      31.038  23.867  25.331  1.00  0.00    -0.327 N 
ATOM      9  C   UNL A   1      30.634  23.788  23.925  1.00  0.00     0.262 C 
ATOM     10  C   UNL A   1      30.221  24.839  26.058  1.00  0.00     0.262 C 
ATOM     11  H   UNL A   1      31.999  24.208  25.360  1.00  0.00     0.348 HD
ATOM     12  C   UNL A   1      30.839  25.142  23.238  1.00  0.00     0.066 C 
ATOM     13  C   UNL A   1      30.424  26.234  25.474  1.00  0.00     0.066 C 
BRANCH   8  14
ATOM     14  C   UNL A   1      31.079  22.539  25.982  1.00  0.00     0.364 C 
BRANCH  14  15
ATOM     15  C   UNL A   1      32.199  21.635  25.588  1.00  0.00     0.281 A 
ATOM     16  C   UNL A   1      33.524  20.126  24.999  1.00  0.00     0.172 A 
ATOM     17  N   UNL A   1      34.329  21.161  25.268  1.00  0.00    -0.062 NA
ATOM     18  N   UNL A   1      32.188  20.376  25.207  1.00  0.00    -0.191 NA
ATOM     19  O   UNL A   1      33.451  22.176  25.620  1.00  0.00    -0.333 OA
BRANCH  16  20
ATOM     20  C   UNL A   1      34.020  18.791  24.560  1.00  0.00     0.084 C 
BRANCH  20  21
ATOM     21  C   UNL A   1      32.927  17.792  24.121  1.00  0.00    -0.010 C 
ATOM     22  C   UNL A   1      33.062  17.366  22.654  1.00  0.00     0.008 C 
ATOM     23  C   UNL A   1      32.989  16.539  25.001  1.00  0.00     0.008 C 
ENDBRANCH  20  21
ENDBRANCH  16  20
ENDBRANCH  14  15
ENDBRANCH   8  14
ENDBRANCH   6   7
ENDBRANCH   4   6
ENDBRANCH   3   4
ENDBRANCH   2   3
ENDBRANCH   1   2
BRANCH   1  24
ATOM     24  O   UNL A   1      31.813  31.371  26.773  1.00  0.00    -0.374 OA
BRANCH  24  25
ATOM     25  C   UNL A   1      32.781  32.009  27.603  1.00  0.00     0.202 C 
BRANCH  25  26
ATOM     26  C   UNL A   1      32.829  33.541  27.546  1.00  0.00     0.261 C 
BRANCH  26  27
ATOM     27  O   UNL A   1      32.514  34.142  28.814  1.00  0.00    -0.460 OA
BRANCH  27  28
ATOM     28  C   UNL A   1      33.454  34.996  29.285  1.00  0.00     0.338 C 
ATOM     29  O   UNL A   1      33.328  36.199  29.475  1.00  0.00    -0.246 OA
BRANCH  28  30
ATOM     30  C   UNL A   1      34.640  34.242  29.734  1.00  0.00     0.060 A 
ATOM     31  C   UNL A   1      34.462  33.294  30.753  1.00  0.00     0.016 A 
ATOM     32  C   UNL A   1      35.912  34.505  29.225  1.00  0.00     0.016 A 
ATOM     33  C   UNL A   1      35.563  32.645  31.306  1.00  0.00     0.010 A 
ATOM     34  C   UNL A   1      37.017  33.860  29.787  1.00  0.00     0.010 A 
ATOM     35  C   UNL A   1      36.851  32.959  30.857  1.00  0.00    -0.014 A 
BRANCH  35  36
ATOM     36  C   UNL A   1      38.041  32.506  31.618  1.00  0.00     0.031 A 
ATOM     37  C   UNL A   1      38.854  31.369  31.059  1.00  0.00     0.074 A 
ATOM     38  C   UNL A   1      38.393  33.082  32.779  1.00  0.00     0.049 A 
ATOM     39  N   UNL A   1      39.849  30.717  31.599  1.00  0.00    -0.248 NA
ATOM     40  C   UNL A   1      38.490  30.908  29.708  1.00  0.00     0.031 C 
ATOM     41  C   UNL A   1      37.739  34.241  33.384  1.00  0.00     0.029 A 
ATOM     42  N   UNL A   1      39.390  32.757  33.665  1.00  0.00    -0.354 N 
ATOM     43  C   UNL A   1      40.217  29.754  30.666  1.00  0.00     0.074 A 
ATOM     44  C   UNL A   1      39.322  29.892  29.537  1.00  0.00     0.031 C 
ATOM     45  C   UNL A   1      38.346  34.524  34.550  1.00  0.00     0.029 A 
ATOM     46  C   UNL A   1      39.396  33.536  34.797  1.00  0.00     0.049 A 
ATOM     47  H   UNL A   1      40.038  32.034  33.504  1.00  0.00     0.167 HD
ATOM     48  C   UNL A   1      41.210  28.836  30.741  1.00  0.00     0.031 A 
ATOM     49  C   UNL A   1      40.142  33.442  35.916  1.00  0.00     0.031 A 
ATOM     50  C   UNL A   1      42.082  28.689  31.876  1.00  0.00     0.049 A 
ATOM     51  C   UNL A   1      41.169  32.343  36.030  1.00  0.00     0.074 A 
ATOM     52  C   UNL A   1      43.111  27.784  32.060  1.00  0.00     0.029 A 
ATOM     53  N   UNL A   1      42.023  29.469  33.021  1.00  0.00    -0.354 N 
ATOM     54  N   UNL A   1      41.495  31.427  35.150  1.00  0.00    -0.248 NA
ATOM     55  C   UNL A   1      41.925  32.264  37.288  1.00  0.00     0.031 C 
ATOM     56  C   UNL A   1      43.638  27.980  33.340  1.00  0.00     0.029 A 
ATOM     57  C   UNL A   1      42.984  29.054  33.924  1.00  0.00     0.049 A 
ATOM     58  H   UNL A   1      41.391  30.210  33.169  1.00  0.00     0.167 HD
ATOM     59  C   UNL A   1      42.527  30.694  35.729  1.00  0.00     0.074 A 
ATOM     60  C   UNL A   1      42.763  31.266  37.039  1.00  0.00     0.031 C 
ATOM     61  C   UNL A   1      43.223  29.649  35.216  1.00  0.00     0.031 A 
BRANCH  48  62
ATOM     62  C   UNL A   1      41.364  27.887  29.581  1.00  0.00    -0.014 A 
ATOM     63  C   UNL A   1      40.457  26.832  29.374  1.00  0.00     0.010 A 
ATOM     64  C   UNL A   1      42.433  28.055  28.682  1.00  0.00     0.010 A 
ATOM     65  C   UNL A   1      40.650  25.929  28.325  1.00  0.00     0.020 A 
ATOM     66  C   UNL A   1      42.611  27.175  27.613  1.00  0.00     0.020 A 
ATOM     67  C   UNL A   1      41.732  26.102  27.456  1.00  0.00     0.054 A 
BRANCH  67  68
ATOM     68  S   UNL A   1      41.968  24.908  26.112  1.00  0.00     0.124 S 
ATOM     69  O   UNL A   1      43.305  24.393  26.399  1.00  0.00    -0.237 OA
ATOM     70  O   UNL A   1      40.874  23.964  26.323  1.00  0.00    -0.237 OA
ATOM     71  O   UNL A   1      41.862  25.721  24.902  1.00  0.00    -0.744 OA
ENDBRANCH  67  68
ENDBRANCH  48  62
BRANCH  49  72
ATOM     72  C   UNL A   1      39.941  34.413  37.025  1.00  0.00    -0.014 A 
ATOM     73  C   UNL A   1      39.033  34.132  38.061  1.00  0.00     0.010 A 
ATOM     74  C   UNL A   1      40.666  35.619  37.062  1.00  0.00     0.010 A 
ATOM     75  C   UNL A   1      38.847  35.041  39.108  1.00  0.00     0.020 A 
ATOM     76  C   UNL A   1      40.504  36.517  38.120  1.00  0.00     0.020 A 
ATOM     77  C   UNL A   1      39.589  36.225  39.134  1.00  0.00     0.054 A 
BRANCH  77  78
ATOM     78  S   UNL A   1      39.375  37.358  40.536  1.00  0.00     0.124 S 
ATOM     79  O   UNL A   1      38.514  36.584  41.423  1.00  0.00    -0.237 OA
ATOM     80  O   UNL A   1      40.748  37.552  40.994  1.00  0.00    -0.237 OA
ATOM     81  O   UNL A   1      38.756  38.536  39.931  1.00  0.00    -0.744 OA
ENDBRANCH  77  78
ENDBRANCH  49  72
BRANCH  61  82
ATOM     82  C   UNL A   1      44.361  29.088  36.027  1.00  0.00    -0.014 A 
ATOM     83  C   UNL A   1      44.157  28.083  36.988  1.00  0.00     0.010 A 
ATOM     84  C   UNL A   1      45.676  29.495  35.729  1.00  0.00     0.010 A 
ATOM     85  C   UNL A   1      45.248  27.497  37.637  1.00  0.00     0.020 A 
ATOM     86  C   UNL A   1      46.769  28.894  36.358  1.00  0.00     0.020 A 
ATOM     87  C   UNL A   1      46.548  27.899  37.311  1.00  0.00     0.054 A 
BRANCH  87  88
ATOM     88  S   UNL A   1      47.947  27.053  38.094  1.00  0.00     0.124 S 
ATOM     89  O   UNL A   1      47.333  25.811  38.556  1.00  0.00    -0.237 OA
ATOM     90  O   UNL A   1      48.895  26.913  36.991  1.00  0.00    -0.237 OA
ATOM     91  O   UNL A   1      48.362  27.972  39.151  1.00  0.00    -0.744 OA
ENDBRANCH  87  88
ENDBRANCH  61  82
ENDBRANCH  35  36
ENDBRANCH  28  30
ENDBRANCH  27  28
ENDBRANCH  26  27
ENDBRANCH  25  26
ENDBRANCH  24  25
ENDBRANCH   1  24
TORSDOF 22
ENDMDL
MODEL 2
REMARK VINA RESULT:      -9.5      6.205     11.285
REMARK SMILES CC(C)Cc1noc(C[NH+]2CCC(CC(=O)OCCOCCOC(=O)c3ccc(-c4c5nc(c(-c6ccc(S(=O)(=O)[O-])cc6)c6ccc([nH]6)c(-c6ccc(S(=O)(=O)[O-])cc6)c6nc(c(-c7ccc(S(=O)(=O)[O-])cc7)c7ccc4[nH]7)C=C6)C=C5)cc3)CC2)n1
REMARK SMILES IDX 19 1 18 2 17 3 15 4 16 5 14 6 13 7 10 8 11 9 87 10 12 12
REMARK SMILES IDX 86 13 9 14 8 15 5 16 6 17 88 18 7 19 4 20 2 21 1 22 3 23
REMARK SMILES IDX 20 24 21 25 22 26 23 27 24 28 25 29 26 30 27 31 85 32 28 33
REMARK SMILES IDX 84 34 29 35 30 36 31 37 78 38 32 39 83 40 77 41 79 42 33 43
REMARK SMILES IDX 82 44 76 45 75 46 34 48 64 49 45 50 63 51 46 52 49 53 62 54
REMARK SMILES IDX 80 55 47 56 48 57 61 59 81 60 50 61 35 62 36 63 44 64 37 65
REMARK SMILES IDX 43 66 38 67 39 68 40 69 41 70 42 71 65 72 66 73 74 74 67 75
REMARK SMILES IDX 73 76 68 77 69 78 70 79 71 80 72 81 51 82 52 83 60 84 53 85
REMARK SMILES IDX 59 86 54 87 55 88 56 89 57 90 58 91
REMARK H PARENT 10 11 79 47 49 58
REMARK Flexibility Score: inf
ROOT
ATOM      1  C   UNL A   1      33.372  27.978  26.067  1.00  0.00     0.202 C 
ENDROOT
BRANCH   1   2
ATOM      2  C   UNL A   1      33.003  27.463  24.675  1.00  0.00     0.261 C 
BRANCH   2   3
ATOM      3  O   UNL A   1      31.645  27.801  24.343  1.00  0.00    -0.463 OA
BRANCH   3   4
ATOM      4  C   UNL A   1      31.075  27.107  23.329  1.00  0.00     0.306 C 
ATOM      5  O   UNL A   1      31.397  27.193  22.150  1.00  0.00    -0.252 OA
BRANCH   4   6
ATOM      6  C   UNL A   1      29.934  26.230  23.796  1.00  0.00     0.126 C 
BRANCH   6   7
ATOM      7  C   UNL A   1      30.218  24.741  24.083  1.00  0.00     0.011 C 
ATOM      8  N   UNL A   1      32.230  22.795  24.964  1.00  0.00    -0.327 N 
ATOM      9  C   UNL A   1      31.733  22.739  23.587  1.00  0.00     0.262 C 
ATOM     10  C   UNL A   1      31.171  23.206  25.887  1.00  0.00     0.262 C 
ATOM     11  H   UNL A   1      32.952  23.515  25.005  1.00  0.00     0.348 HD
ATOM     12  C   UNL A   1      31.263  24.126  23.135  1.00  0.00     0.066 C 
ATOM     13  C   UNL A   1      30.694  24.614  25.543  1.00  0.00     0.066 C 
BRANCH   8  14
ATOM     14  C   UNL A   1      32.905  21.544  25.372  1.00  0.00     0.364 C 
BRANCH  14  15
ATOM     15  C   UNL A   1      34.392  21.517  25.250  1.00  0.00     0.281 A 
ATOM     16  C   UNL A   1      36.455  21.825  25.081  1.00  0.00     0.172 A 
ATOM     17  N   UNL A   1      36.331  20.494  25.004  1.00  0.00    -0.062 NA
ATOM     18  N   UNL A   1      35.265  22.500  25.213  1.00  0.00    -0.191 NA
ATOM     19  O   UNL A   1      34.968  20.284  25.157  1.00  0.00    -0.333 OA
BRANCH  16  20
ATOM     20  C   UNL A   1      37.761  22.536  24.982  1.00  0.00     0.084 C 
BRANCH  20  21
ATOM     21  C   UNL A   1      38.475  22.796  26.326  1.00  0.00    -0.010 C 
ATOM     22  C   UNL A   1      39.844  22.108  26.418  1.00  0.00     0.008 C 
ATOM     23  C   UNL A   1      38.671  24.302  26.525  1.00  0.00     0.008 C 
ENDBRANCH  20  21
ENDBRANCH  16  20
ENDBRANCH  14  15
ENDBRANCH   8  14
ENDBRANCH   6   7
ENDBRANCH   4   6
ENDBRANCH   3   4
ENDBRANCH   2   3
ENDBRANCH   1   2
BRANCH   1  24
ATOM     24  O   UNL A   1      33.902  29.304  26.127  1.00  0.00    -0.374 OA
BRANCH  24  25
ATOM     25  C   UNL A   1      33.892  29.948  27.398  1.00  0.00     0.202 C 
BRANCH  25  26
ATOM     26  C   UNL A   1      35.250  30.413  27.940  1.00  0.00     0.261 C 
BRANCH  26  27
ATOM     27  O   UNL A   1      35.987  29.339  28.552  1.00  0.00    -0.460 OA
BRANCH  27  28
ATOM     28  C   UNL A   1      36.954  29.735  29.414  1.00  0.00     0.338 C 
ATOM     29  O   UNL A   1      36.797  30.322  30.477  1.00  0.00    -0.246 OA
BRANCH  28  30
ATOM     30  C   UNL A   1      38.258  29.192  28.992  1.00  0.00     0.060 A 
ATOM     31  C   UNL A   1      39.066  28.600  29.975  1.00  0.00     0.016 A 
ATOM     32  C   UNL A   1      38.717  29.322  27.680  1.00  0.00     0.016 A 
ATOM     33  C   UNL A   1      40.360  28.186  29.663  1.00  0.00     0.010 A 
ATOM     34  C   UNL A   1      40.018  28.914  27.371  1.00  0.00     0.010 A 
ATOM     35  C   UNL A   1      40.858  28.383  28.370  1.00  0.00    -0.014 A 
BRANCH  35  36
ATOM     36  C   UNL A   1      42.306  28.222  28.092  1.00  0.00     0.031 A 
ATOM     37  C   UNL A   1      43.220  29.384  28.377  1.00  0.00     0.074 A 
ATOM     38  C   UNL A   1      42.802  27.077  27.596  1.00  0.00     0.049 A 
ATOM     39  N   UNL A   1      44.488  29.530  28.097  1.00  0.00    -0.248 NA
ATOM     40  C   UNL A   1      42.616  30.537  29.066  1.00  0.00     0.031 C 
ATOM     41  C   UNL A   1      42.038  25.854  27.356  1.00  0.00     0.029 A 
ATOM     42  N   UNL A   1      44.077  26.763  27.194  1.00  0.00    -0.354 N 
ATOM     43  C   UNL A   1      44.830  30.797  28.556  1.00  0.00     0.074 A 
ATOM     44  C   UNL A   1      43.630  31.387  29.109  1.00  0.00     0.031 C 
ATOM     45  C   UNL A   1      42.858  24.923  26.836  1.00  0.00     0.029 A 
ATOM     46  C   UNL A   1      44.190  25.501  26.660  1.00  0.00     0.049 A 
ATOM     47  H   UNL A   1      44.837  27.382  27.279  1.00  0.00     0.167 HD
ATOM     48  C   UNL A   1      46.035  31.414  28.520  1.00  0.00     0.031 A 
ATOM     49  C   UNL A   1      45.239  24.896  26.070  1.00  0.00     0.031 A 
ATOM     50  C   UNL A   1      47.219  30.830  27.949  1.00  0.00     0.049 A 
ATOM     51  C   UNL A   1      46.544  25.640  25.938  1.00  0.00     0.074 A 
ATOM     52  C   UNL A   1      48.486  31.375  27.850  1.00  0.00     0.029 A 
ATOM     53  N   UNL A   1      47.278  29.568  27.378  1.00  0.00    -0.354 N 
ATOM     54  N   UNL A   1      46.852  26.844  26.359  1.00  0.00    -0.248 NA
ATOM     55  C   UNL A   1      47.642  24.946  25.250  1.00  0.00     0.031 C 
ATOM     56  C   UNL A   1      49.298  30.464  27.167  1.00  0.00     0.029 A 
ATOM     57  C   UNL A   1      48.554  29.324  26.906  1.00  0.00     0.049 A 
ATOM     58  H   UNL A   1      46.523  28.939  27.317  1.00  0.00     0.167 HD
ATOM     59  C   UNL A   1      48.191  27.031  26.029  1.00  0.00     0.074 A 
ATOM     60  C   UNL A   1      48.632  25.822  25.364  1.00  0.00     0.031 C 
ATOM     61  C   UNL A   1      48.985  28.105  26.267  1.00  0.00     0.031 A 
BRANCH  48  62
ATOM     62  C   UNL A   1      46.111  32.815  29.070  1.00  0.00    -0.014 A 
ATOM     63  C   UNL A   1      46.535  33.060  30.389  1.00  0.00     0.010 A 
ATOM     64  C   UNL A   1      45.754  33.903  28.254  1.00  0.00     0.010 A 
ATOM     65  C   UNL A   1      46.545  34.361  30.898  1.00  0.00     0.020 A 
ATOM     66  C   UNL A   1      45.793  35.209  28.748  1.00  0.00     0.020 A 
ATOM     67  C   UNL A   1      46.165  35.426  30.076  1.00  0.00     0.054 A 
BRANCH  67  68
ATOM     68  S   UNL A   1      46.172  37.104  30.766  1.00  0.00     0.124 S 
ATOM     69  O   UNL A   1      46.530  37.907  29.600  1.00  0.00    -0.237 OA
ATOM     70  O   UNL A   1      44.799  37.263  31.239  1.00  0.00    -0.237 OA
ATOM     71  O   UNL A   1      47.187  37.045  31.816  1.00  0.00    -0.744 OA
ENDBRANCH  67  68
ENDBRANCH  48  62
BRANCH  49  72
ATOM     72  C   UNL A   1      45.099  23.508  25.549  1.00  0.00    -0.014 A 
ATOM     73  C   UNL A   1      44.470  23.272  24.314  1.00  0.00     0.010 A 
ATOM     74  C   UNL A   1      45.606  22.415  26.277  1.00  0.00     0.010 A 
ATOM     75  C   UNL A   1      44.343  21.970  23.821  1.00  0.00     0.020 A 
ATOM     76  C   UNL A   1      45.505  21.115  25.775  1.00  0.00     0.020 A 
ATOM     77  C   UNL A   1      44.867  20.900  24.551  1.00  0.00     0.054 A 
BRANCH  77  78
ATOM     78  S   UNL A   1      44.744  19.227  23.859  1.00  0.00     0.124 S 
ATOM     79  O   UNL A   1      44.530  19.500  22.442  1.00  0.00    -0.237 OA
ATOM     80  O   UNL A   1      46.039  18.649  24.206  1.00  0.00    -0.237 OA
ATOM     81  O   UNL A   1      43.603  18.648  24.565  1.00  0.00    -0.744 OA
ENDBRANCH  77  78
ENDBRANCH  49  72
BRANCH  61  82
ATOM     82  C   UNL A   1      50.438  28.012  25.878  1.00  0.00    -0.014 A 
ATOM     83  C   UNL A   1      50.893  28.435  24.619  1.00  0.00     0.010 A 
ATOM     84  C   UNL A   1      51.377  27.604  26.846  1.00  0.00     0.010 A 
ATOM     85  C   UNL A   1      52.262  28.451  24.332  1.00  0.00     0.020 A 
ATOM     86  C   UNL A   1      52.745  27.642  26.572  1.00  0.00     0.020 A 
ATOM     87  C   UNL A   1      53.180  28.064  25.315  1.00  0.00     0.054 A 
BRANCH  87  88
ATOM     88  S   UNL A   1      54.953  28.189  24.952  1.00  0.00     0.124 S 
ATOM     89  O   UNL A   1      55.535  27.321  25.972  1.00  0.00    -0.237 OA
ATOM     90  O   UNL A   1      55.035  27.691  23.581  1.00  0.00    -0.237 OA
ATOM     91  O   UNL A   1      55.240  29.614  25.110  1.00  0.00    -0.744 OA
ENDBRANCH  87  88
ENDBRANCH  61  82
ENDBRANCH  35  36
ENDBRANCH  28  30
ENDBRANCH  27  28
ENDBRANCH  26  27
ENDBRANCH  25  26
ENDBRANCH  24  25
ENDBRANCH   1  24
TORSDOF 22
ENDMDL
MODEL 3
REMARK VINA RESULT:      -9.5      6.616      8.819
REMARK SMILES CC(C)Cc1noc(C[NH+]2CCC(CC(=O)OCCOCCOC(=O)c3ccc(-c4c5nc(c(-c6ccc(S(=O)(=O)[O-])cc6)c6ccc([nH]6)c(-c6ccc(S(=O)(=O)[O-])cc6)c6nc(c(-c7ccc(S(=O)(=O)[O-])cc7)c7ccc4[nH]7)C=C6)C=C5)cc3)CC2)n1
REMARK SMILES IDX 19 1 18 2 17 3 15 4 16 5 14 6 13 7 10 8 11 9 87 10 12 12
REMARK SMILES IDX 86 13 9 14 8 15 5 16 6 17 88 18 7 19 4 20 2 21 1 22 3 23
REMARK SMILES IDX 20 24 21 25 22 26 23 27 24 28 25 29 26 30 27 31 85 32 28 33
REMARK SMILES IDX 84 34 29 35 30 36 31 37 78 38 32 39 83 40 77 41 79 42 33 43
REMARK SMILES IDX 82 44 76 45 75 46 34 48 64 49 45 50 63 51 46 52 49 53 62 54
REMARK SMILES IDX 80 55 47 56 48 57 61 59 81 60 50 61 35 62 36 63 44 64 37 65
REMARK SMILES IDX 43 66 38 67 39 68 40 69 41 70 42 71 65 72 66 73 74 74 67 75
REMARK SMILES IDX 73 76 68 77 69 78 70 79 71 80 72 81 51 82 52 83 60 84 53 85
REMARK SMILES IDX 59 86 54 87 55 88 56 89 57 90 58 91
REMARK H PARENT 10 11 79 47 49 58
REMARK Flexibility Score: inf
ROOT
ATOM      1  C   UNL A   1      32.948  29.693  25.433  1.00  0.00     0.202 C 
ENDROOT
BRANCH   1   2
ATOM      2  C   UNL A   1      31.753  29.050  24.727  1.00  0.00     0.261 C 
BRANCH   2   3
ATOM      3  O   UNL A   1      32.184  28.035  23.803  1.00  0.00    -0.463 OA
BRANCH   3   4
ATOM      4  C   UNL A   1      31.747  26.774  24.036  1.00  0.00     0.306 C 
ATOM      5  O   UNL A   1      31.362  26.352  25.120  1.00  0.00    -0.252 OA
BRANCH   4   6
ATOM      6  C   UNL A   1      31.831  25.895  22.807  1.00  0.00     0.126 C 
BRANCH   6   7
ATOM      7  C   UNL A   1      32.695  24.619  22.871  1.00  0.00     0.011 C 
ATOM      8  N   UNL A   1      34.010  22.682  24.640  1.00  0.00    -0.327 N 
ATOM      9  C   UNL A   1      34.831  23.549  23.790  1.00  0.00     0.262 C 
ATOM     10  C   UNL A   1      32.765  22.312  23.964  1.00  0.00     0.262 C 
ATOM     11  H   UNL A   1      33.749  23.215  25.469  1.00  0.00     0.348 HD
ATOM     12  C   UNL A   1      34.086  24.854  23.488  1.00  0.00     0.066 C 
ATOM     13  C   UNL A   1      31.930  23.559  23.688  1.00  0.00     0.066 C 
BRANCH   8  14
ATOM     14  C   UNL A   1      34.763  21.516  25.151  1.00  0.00     0.364 C 
BRANCH  14  15
ATOM     15  C   UNL A   1      36.219  21.720  25.406  1.00  0.00     0.281 A 
ATOM     16  C   UNL A   1      38.160  22.288  25.945  1.00  0.00     0.172 A 
ATOM     17  N   UNL A   1      38.354  21.227  25.152  1.00  0.00    -0.062 NA
ATOM     18  N   UNL A   1      36.842  22.641  26.111  1.00  0.00    -0.191 NA
ATOM     19  O   UNL A   1      37.067  20.823  24.826  1.00  0.00    -0.333 OA
BRANCH  16  20
ATOM     20  C   UNL A   1      39.271  23.065  26.563  1.00  0.00     0.084 C 
BRANCH  20  21
ATOM     21  C   UNL A   1      40.483  22.230  27.028  1.00  0.00    -0.010 C 
ATOM     22  C   UNL A   1      41.536  22.042  25.929  1.00  0.00     0.008 C 
ATOM     23  C   UNL A   1      41.148  22.909  28.231  1.00  0.00     0.008 C 
ENDBRANCH  20  21
ENDBRANCH  16  20
ENDBRANCH  14  15
ENDBRANCH   8  14
ENDBRANCH   6   7
ENDBRANCH   4   6
ENDBRANCH   3   4
ENDBRANCH   2   3
ENDBRANCH   1   2
BRANCH   1  24
ATOM     24  O   UNL A   1      32.887  29.733  26.859  1.00  0.00    -0.374 OA
BRANCH  24  25
ATOM     25  C   UNL A   1      34.031  30.244  27.541  1.00  0.00     0.202 C 
BRANCH  25  26
ATOM     26  C   UNL A   1      35.266  29.334  27.580  1.00  0.00     0.261 C 
BRANCH  26  27
ATOM     27  O   UNL A   1      36.455  30.049  27.961  1.00  0.00    -0.460 OA
BRANCH  27  28
ATOM     28  C   UNL A   1      37.145  29.495  28.986  1.00  0.00     0.338 C 
ATOM     29  O   UNL A   1      36.708  29.188  30.087  1.00  0.00    -0.246 OA
BRANCH  28  30
ATOM     30  C   UNL A   1      38.499  29.121  28.537  1.00  0.00     0.060 A 
ATOM     31  C   UNL A   1      39.403  28.661  29.507  1.00  0.00     0.016 A 
ATOM     32  C   UNL A   1      38.904  29.284  27.212  1.00  0.00     0.016 A 
ATOM     33  C   UNL A   1      40.732  28.416  29.167  1.00  0.00     0.010 A 
ATOM     34  C   UNL A   1      40.239  29.046  26.874  1.00  0.00     0.010 A 
ATOM     35  C   UNL A   1      41.167  28.652  27.857  1.00  0.00    -0.014 A 
BRANCH  35  36
ATOM     36  C   UNL A   1      42.616  28.678  27.543  1.00  0.00     0.031 A 
ATOM     37  C   UNL A   1      43.255  27.421  27.017  1.00  0.00     0.074 A 
ATOM     38  C   UNL A   1      43.353  29.788  27.722  1.00  0.00     0.049 A 
ATOM     39  N   UNL A   1      44.517  27.161  26.797  1.00  0.00    -0.248 NA
ATOM     40  C   UNL A   1      42.344  26.308  26.702  1.00  0.00     0.031 C 
ATOM     41  C   UNL A   1      42.839  31.089  28.145  1.00  0.00     0.029 A 
ATOM     42  N   UNL A   1      44.703  29.988  27.577  1.00  0.00    -0.354 N 
ATOM     43  C   UNL A   1      44.554  25.849  26.339  1.00  0.00     0.074 A 
ATOM     44  C   UNL A   1      43.193  25.360  26.336  1.00  0.00     0.031 C 
ATOM     45  C   UNL A   1      43.865  31.953  28.238  1.00  0.00     0.029 A 
ATOM     46  C   UNL A   1      45.112  31.252  27.930  1.00  0.00     0.049 A 
ATOM     47  H   UNL A   1      45.320  29.294  27.253  1.00  0.00     0.167 HD
ATOM     48  C   UNL A   1      45.627  25.116  25.954  1.00  0.00     0.031 A 
ATOM     49  C   UNL A   1      46.352  31.773  28.023  1.00  0.00     0.031 A 
ATOM     50  C   UNL A   1      46.980  25.601  25.980  1.00  0.00     0.049 A 
ATOM     51  C   UNL A   1      47.544  30.908  27.699  1.00  0.00     0.074 A 
ATOM     52  C   UNL A   1      48.140  24.937  25.625  1.00  0.00     0.029 A 
ATOM     53  N   UNL A   1      47.354  26.873  26.388  1.00  0.00    -0.354 N 
ATOM     54  N   UNL A   1      47.569  29.664  27.284  1.00  0.00    -0.248 NA
ATOM     55  C   UNL A   1      48.872  31.516  27.857  1.00  0.00     0.031 C 
ATOM     56  C   UNL A   1      49.222  25.788  25.871  1.00  0.00     0.029 A 
ATOM     57  C   UNL A   1      48.728  27.007  26.312  1.00  0.00     0.049 A 
ATOM     58  H   UNL A   1      46.734  27.576  26.687  1.00  0.00     0.167 HD
ATOM     59  C   UNL A   1      48.912  29.357  27.087  1.00  0.00     0.074 A 
ATOM     60  C   UNL A   1      49.669  30.541  27.437  1.00  0.00     0.031 C 
ATOM     61  C   UNL A   1      49.466  28.201  26.643  1.00  0.00     0.031 A 
BRANCH  48  62
ATOM     62  C   UNL A   1      45.374  23.694  25.524  1.00  0.00    -0.014 A 
ATOM     63  C   UNL A   1      45.293  22.650  26.464  1.00  0.00     0.010 A 
ATOM     64  C   UNL A   1      45.214  23.398  24.159  1.00  0.00     0.010 A 
ATOM     65  C   UNL A   1      45.115  21.330  26.041  1.00  0.00     0.020 A 
ATOM     66  C   UNL A   1      45.003  22.085  23.734  1.00  0.00     0.020 A 
ATOM     67  C   UNL A   1      44.979  21.055  24.677  1.00  0.00     0.054 A 
BRANCH  67  68
ATOM     68  S   UNL A   1      44.764  19.333  24.153  1.00  0.00     0.124 S 
ATOM     69  O   UNL A   1      43.671  18.891  25.015  1.00  0.00    -0.237 OA
ATOM     70  O   UNL A   1      44.431  19.466  22.737  1.00  0.00    -0.237 OA
ATOM     71  O   UNL A   1      46.062  18.720  24.430  1.00  0.00    -0.744 OA
ENDBRANCH  67  68
ENDBRANCH  48  62
BRANCH  49  72
ATOM     72  C   UNL A   1      46.532  33.187  28.453  1.00  0.00    -0.014 A 
ATOM     73  C   UNL A   1      46.550  34.223  27.502  1.00  0.00     0.010 A 
ATOM     74  C   UNL A   1      46.672  33.509  29.816  1.00  0.00     0.010 A 
ATOM     75  C   UNL A   1      46.713  35.552  27.904  1.00  0.00     0.020 A 
ATOM     76  C   UNL A   1      46.807  34.839  30.224  1.00  0.00     0.020 A 
ATOM     77  C   UNL A   1      46.834  35.853  29.264  1.00  0.00     0.054 A 
BRANCH  77  78
ATOM     78  S   UNL A   1      46.982  37.591  29.764  1.00  0.00     0.124 S 
ATOM     79  O   UNL A   1      47.136  38.264  28.479  1.00  0.00    -0.237 OA
ATOM     80  O   UNL A   1      45.717  37.826  30.456  1.00  0.00    -0.237 OA
ATOM     81  O   UNL A   1      48.164  37.600  30.623  1.00  0.00    -0.744 OA
ENDBRANCH  77  78
ENDBRANCH  49  72
BRANCH  61  82
ATOM     82  C   UNL A   1      50.957  28.164  26.434  1.00  0.00    -0.014 A 
ATOM     83  C   UNL A   1      51.831  27.705  27.433  1.00  0.00     0.010 A 
ATOM     84  C   UNL A   1      51.475  28.483  25.163  1.00  0.00     0.010 A 
ATOM     85  C   UNL A   1      53.197  27.567  27.167  1.00  0.00     0.020 A 
ATOM     86  C   UNL A   1      52.835  28.322  24.886  1.00  0.00     0.020 A 
ATOM     87  C   UNL A   1      53.689  27.867  25.892  1.00  0.00     0.054 A 
BRANCH  87  88
ATOM     88  S   UNL A   1      55.446  27.583  25.543  1.00  0.00     0.124 S 
ATOM     89  O   UNL A   1      55.473  27.599  24.083  1.00  0.00    -0.237 OA
ATOM     90  O   UNL A   1      56.089  28.721  26.196  1.00  0.00    -0.237 OA
ATOM     91  O   UNL A   1      55.717  26.285  26.157  1.00  0.00    -0.744 OA
ENDBRANCH  87  88
ENDBRANCH  61  82
ENDBRANCH  35  36
ENDBRANCH  28  30
ENDBRANCH  27  28
ENDBRANCH  26  27
ENDBRANCH  25  26
ENDBRANCH  24  25
ENDBRANCH   1  24
TORSDOF 22
ENDMDL
