MODEL 1
REMARK VINA RESULT:     -10.4      0.000      0.000
REMARK SMILES COc1ccc(CNC(=O)[C@H]2CC(C)=C(C)C[C@@H]2C(=O)OCCOCCOC(=O)c2ccc(-c3c4nc(c(-c5ccc(S(=O)(=O)[O-])cc5)c5ccc([nH]5)c(-c5ccc(S(=O)(=O)[O-])cc5)c5nc(c(-c6ccc(S(=O)(=O)[O-])cc6)c6ccc3[nH]6)C=C5)C=C4)cc2)cc1OC
REMARK SMILES IDX 23 1 22 2 21 3 19 4 20 5 18 6 11 7 12 8 13 9 17 10 14 11
REMARK SMILES IDX 15 12 16 13 9 14 8 15 10 17 7 18 6 19 3 20 4 21 91 22 5 23
REMARK SMILES IDX 90 24 2 25 1 26 92 27 93 28 24 29 25 30 26 31 27 32 28 33
REMARK SMILES IDX 29 34 30 35 31 36 89 37 32 38 88 39 33 40 34 41 35 42 82 43
REMARK SMILES IDX 36 44 87 45 81 46 83 47 37 48 86 49 80 50 79 51 38 53 68 54
REMARK SMILES IDX 49 55 67 56 50 57 53 58 66 59 84 60 51 61 52 62 65 64 85 65
REMARK SMILES IDX 54 66 39 67 40 68 48 69 41 70 47 71 42 72 43 73 44 74 45 75
REMARK SMILES IDX 46 76 69 77 70 78 78 79 71 80 77 81 72 82 73 83 74 84 75 85
REMARK SMILES IDX 76 86 55 87 56 88 64 89 57 90 63 91 58 92 59 93 60 94 61 95
REMARK SMILES IDX 62 96
REMARK H PARENT 8 16 83 52 53 63
REMARK Flexibility Score: inf
ROOT
ATOM      1  C   UNL A   1      32.304  26.647  26.263  1.00  0.00     0.202 C 
ENDROOT
BRANCH   1   2
ATOM      2  C   UNL A   1      31.572  25.338  26.580  1.00  0.00     0.261 C 
BRANCH   2   3
ATOM      3  O   UNL A   1      32.459  24.208  26.443  1.00  0.00    -0.463 OA
BRANCH   3   4
ATOM      4  C   UNL A   1      31.911  23.019  26.080  1.00  0.00     0.310 C 
ATOM      5  O   UNL A   1      30.798  22.632  26.421  1.00  0.00    -0.252 OA
BRANCH   4   6
ATOM      6  C   UNL A   1      32.765  22.250  25.066  1.00  0.00     0.116 C 
ATOM      7  C   UNL A   1      32.141  22.182  23.648  1.00  0.00     0.097 C 
ATOM      8  C   UNL A   1      32.529  20.919  22.905  1.00  0.00     0.045 C 
ATOM      9  C   UNL A   1      32.461  19.637  23.679  1.00  0.00    -0.074 C 
ATOM     10  C   UNL A   1      33.201  20.903  25.691  1.00  0.00     0.046 C 
ATOM     11  C   UNL A   1      32.153  18.422  22.842  1.00  0.00     0.039 C 
ATOM     12  C   UNL A   1      32.816  19.628  24.976  1.00  0.00    -0.073 C 
ATOM     13  C   UNL A   1      32.986  18.352  25.757  1.00  0.00     0.039 C 
BRANCH   7  14
ATOM     14  C   UNL A   1      32.486  23.508  22.953  1.00  0.00     0.224 C 
ATOM     15  N   UNL A   1      31.751  24.638  22.972  1.00  0.00    -0.352 N 
ATOM     16  H   UNL A   1      32.216  25.386  22.534  1.00  0.00     0.163 HD
ATOM     17  O   UNL A   1      33.552  23.593  22.328  1.00  0.00    -0.275 OA
BRANCH  15  18
ATOM     18  C   UNL A   1      30.449  25.032  23.472  1.00  0.00     0.151 C 
BRANCH  18  19
ATOM     19  C   UNL A   1      30.144  26.485  23.242  1.00  0.00    -0.025 A 
ATOM     20  C   UNL A   1      29.720  29.227  22.808  1.00  0.00     0.160 A 
ATOM     21  C   UNL A   1      28.646  28.384  23.126  1.00  0.00     0.051 A 
ATOM     22  C   UNL A   1      31.008  28.700  22.670  1.00  0.00     0.161 A 
ATOM     23  C   UNL A   1      28.853  27.015  23.325  1.00  0.00     0.009 A 
ATOM     24  C   UNL A   1      31.200  27.332  22.880  1.00  0.00     0.056 A 
BRANCH  20  25
ATOM     25  O   UNL A   1      29.513  30.578  22.779  1.00  0.00    -0.493 OA
ATOM     26  C   UNL A   1      28.350  30.976  23.501  1.00  0.00     0.278 C 
ENDBRANCH  20  25
BRANCH  22  27
ATOM     27  O   UNL A   1      32.175  29.350  22.376  1.00  0.00    -0.493 OA
ATOM     28  C   UNL A   1      33.393  28.720  22.737  1.00  0.00     0.278 C 
ENDBRANCH  22  27
ENDBRANCH  18  19
ENDBRANCH  15  18
ENDBRANCH   7  14
ENDBRANCH   4   6
ENDBRANCH   3   4
ENDBRANCH   2   3
ENDBRANCH   1   2
BRANCH   1  29
ATOM     29  O   UNL A   1      31.778  27.805  26.921  1.00  0.00    -0.374 OA
BRANCH  29  30
ATOM     30  C   UNL A   1      32.027  29.046  26.266  1.00  0.00     0.202 C 
BRANCH  30  31
ATOM     31  C   UNL A   1      32.454  30.189  27.187  1.00  0.00     0.261 C 
BRANCH  31  32
ATOM     32  O   UNL A   1      33.727  30.714  26.774  1.00  0.00    -0.460 OA
BRANCH  32  33
ATOM     33  C   UNL A   1      34.306  31.536  27.676  1.00  0.00     0.338 C 
ATOM     34  O   UNL A   1      33.795  32.504  28.227  1.00  0.00    -0.246 OA
BRANCH  33  35
ATOM     35  C   UNL A   1      35.633  31.019  28.053  1.00  0.00     0.060 A 
ATOM     36  C   UNL A   1      35.710  29.669  28.419  1.00  0.00     0.016 A 
ATOM     37  C   UNL A   1      36.764  31.837  28.112  1.00  0.00     0.016 A 
ATOM     38  C   UNL A   1      36.900  29.150  28.917  1.00  0.00     0.010 A 
ATOM     39  C   UNL A   1      37.960  31.314  28.615  1.00  0.00     0.010 A 
ATOM     40  C   UNL A   1      38.017  29.982  29.061  1.00  0.00    -0.014 A 
BRANCH  40  41
ATOM     41  C   UNL A   1      39.188  29.493  29.827  1.00  0.00     0.031 A 
ATOM     42  C   UNL A   1      39.525  30.152  31.138  1.00  0.00     0.074 A 
ATOM     43  C   UNL A   1      39.912  28.451  29.382  1.00  0.00     0.049 A 
ATOM     44  N   UNL A   1      40.504  29.895  31.965  1.00  0.00    -0.248 NA
ATOM     45  C   UNL A   1      38.642  31.247  31.572  1.00  0.00     0.031 C 
ATOM     46  C   UNL A   1      39.652  27.703  28.151  1.00  0.00     0.029 A 
ATOM     47  N   UNL A   1      41.017  27.840  29.919  1.00  0.00    -0.354 N 
ATOM     48  C   UNL A   1      40.364  30.802  33.010  1.00  0.00     0.074 A 
ATOM     49  C   UNL A   1      39.222  31.634  32.699  1.00  0.00     0.031 C 
ATOM     50  C   UNL A   1      40.576  26.736  28.026  1.00  0.00     0.029 A 
ATOM     51  C   UNL A   1      41.511  26.817  29.146  1.00  0.00     0.049 A 
ATOM     52  H   UNL A   1      41.417  28.108  30.777  1.00  0.00     0.167 HD
ATOM     53  C   UNL A   1      41.117  30.929  34.128  1.00  0.00     0.031 A 
ATOM     54  C   UNL A   1      42.604  26.048  29.315  1.00  0.00     0.031 A 
ATOM     55  C   UNL A   1      42.253  30.098  34.428  1.00  0.00     0.049 A 
ATOM     56  C   UNL A   1      43.465  26.252  30.535  1.00  0.00     0.074 A 
ATOM     57  C   UNL A   1      43.065  30.126  35.549  1.00  0.00     0.029 A 
ATOM     58  N   UNL A   1      42.743  29.098  33.603  1.00  0.00    -0.354 N 
ATOM     59  N   UNL A   1      43.300  27.092  31.528  1.00  0.00    -0.248 NA
ATOM     60  C   UNL A   1      44.655  25.398  30.658  1.00  0.00     0.031 C 
ATOM     61  C   UNL A   1      44.084  29.186  35.371  1.00  0.00     0.029 A 
ATOM     62  C   UNL A   1      43.869  28.526  34.172  1.00  0.00     0.049 A 
ATOM     63  H   UNL A   1      42.349  28.833  32.741  1.00  0.00     0.167 HD
ATOM     64  C   UNL A   1      44.350  26.848  32.409  1.00  0.00     0.074 A 
ATOM     65  C   UNL A   1      45.134  25.774  31.837  1.00  0.00     0.031 C 
ATOM     66  C   UNL A   1      44.638  27.456  33.587  1.00  0.00     0.031 A 
BRANCH  53  67
ATOM     67  C   UNL A   1      40.763  32.031  35.091  1.00  0.00    -0.014 A 
ATOM     68  C   UNL A   1      39.916  31.802  36.191  1.00  0.00     0.010 A 
ATOM     69  C   UNL A   1      41.328  33.308  34.918  1.00  0.00     0.010 A 
ATOM     70  C   UNL A   1      39.614  32.840  37.078  1.00  0.00     0.020 A 
ATOM     71  C   UNL A   1      41.050  34.341  35.818  1.00  0.00     0.020 A 
ATOM     72  C   UNL A   1      40.182  34.103  36.885  1.00  0.00     0.054 A 
BRANCH  72  73
ATOM     73  S   UNL A   1      39.795  35.423  38.068  1.00  0.00     0.124 S 
ATOM     74  O   UNL A   1      39.661  36.584  37.191  1.00  0.00    -0.237 OA
ATOM     75  O   UNL A   1      38.557  34.951  38.680  1.00  0.00    -0.237 OA
ATOM     76  O   UNL A   1      40.956  35.445  38.955  1.00  0.00    -0.744 OA
ENDBRANCH  72  73
ENDBRANCH  53  67
BRANCH  54  77
ATOM     77  C   UNL A   1      42.966  25.032  28.287  1.00  0.00    -0.014 A 
ATOM     78  C   UNL A   1      43.860  25.343  27.248  1.00  0.00     0.010 A 
ATOM     79  C   UNL A   1      42.403  23.744  28.342  1.00  0.00     0.010 A 
ATOM     80  C   UNL A   1      44.167  24.392  26.270  1.00  0.00     0.020 A 
ATOM     81  C   UNL A   1      42.730  22.780  27.385  1.00  0.00     0.020 A 
ATOM     82  C   UNL A   1      43.600  23.116  26.346  1.00  0.00     0.054 A 
BRANCH  82  83
ATOM     83  S   UNL A   1      44.038  21.887  25.086  1.00  0.00     0.124 S 
ATOM     84  O   UNL A   1      43.751  22.606  23.849  1.00  0.00    -0.237 OA
ATOM     85  O   UNL A   1      45.451  21.641  25.363  1.00  0.00    -0.237 OA
ATOM     86  O   UNL A   1      43.148  20.765  25.380  1.00  0.00    -0.744 OA
ENDBRANCH  82  83
ENDBRANCH  54  77
BRANCH  66  87
ATOM     87  C   UNL A   1      45.831  26.954  34.357  1.00  0.00    -0.014 A 
ATOM     88  C   UNL A   1      47.102  27.534  34.194  1.00  0.00     0.010 A 
ATOM     89  C   UNL A   1      45.662  25.926  35.303  1.00  0.00     0.010 A 
ATOM     90  C   UNL A   1      48.188  27.073  34.942  1.00  0.00     0.020 A 
ATOM     91  C   UNL A   1      46.739  25.484  36.074  1.00  0.00     0.020 A 
ATOM     92  C   UNL A   1      48.000  26.051  35.879  1.00  0.00     0.054 A 
BRANCH  92  93
ATOM     93  S   UNL A   1      49.416  25.505  36.870  1.00  0.00     0.124 S 
ATOM     94  O   UNL A   1      48.785  25.168  38.143  1.00  0.00    -0.237 OA
ATOM     95  O   UNL A   1      49.928  24.372  36.103  1.00  0.00    -0.237 OA
ATOM     96  O   UNL A   1      50.291  26.676  36.900  1.00  0.00    -0.744 OA
ENDBRANCH  92  93
ENDBRANCH  66  87
ENDBRANCH  40  41
ENDBRANCH  33  35
ENDBRANCH  32  33
ENDBRANCH  31  32
ENDBRANCH  30  31
ENDBRANCH  29  30
ENDBRANCH   1  29
TORSDOF 22
ENDMDL
MODEL 2
REMARK VINA RESULT:     -10.0      4.388      6.954
REMARK SMILES COc1ccc(CNC(=O)[C@H]2CC(C)=C(C)C[C@@H]2C(=O)OCCOCCOC(=O)c2ccc(-c3c4nc(c(-c5ccc(S(=O)(=O)[O-])cc5)c5ccc([nH]5)c(-c5ccc(S(=O)(=O)[O-])cc5)c5nc(c(-c6ccc(S(=O)(=O)[O-])cc6)c6ccc3[nH]6)C=C5)C=C4)cc2)cc1OC
REMARK SMILES IDX 23 1 22 2 21 3 19 4 20 5 18 6 11 7 12 8 13 9 17 10 14 11
REMARK SMILES IDX 15 12 16 13 9 14 8 15 10 17 7 18 6 19 3 20 4 21 91 22 5 23
REMARK SMILES IDX 90 24 2 25 1 26 92 27 93 28 24 29 25 30 26 31 27 32 28 33
REMARK SMILES IDX 29 34 30 35 31 36 89 37 32 38 88 39 33 40 34 41 35 42 82 43
REMARK SMILES IDX 36 44 87 45 81 46 83 47 37 48 86 49 80 50 79 51 38 53 68 54
REMARK SMILES IDX 49 55 67 56 50 57 53 58 66 59 84 60 51 61 52 62 65 64 85 65
REMARK SMILES IDX 54 66 39 67 40 68 48 69 41 70 47 71 42 72 43 73 44 74 45 75
REMARK SMILES IDX 46 76 69 77 70 78 78 79 71 80 77 81 72 82 73 83 74 84 75 85
REMARK SMILES IDX 76 86 55 87 56 88 64 89 57 90 63 91 58 92 59 93 60 94 61 95
REMARK SMILES IDX 62 96
REMARK H PARENT 8 16 83 52 53 63
REMARK Flexibility Score: inf
ROOT
ATOM      1  C   UNL A   1      33.772  20.383  25.125  1.00  0.00     0.202 C 
ENDROOT
BRANCH   1   2
ATOM      2  C   UNL A   1      32.691  21.169  25.875  1.00  0.00     0.261 C 
BRANCH   2   3
ATOM      3  O   UNL A   1      32.550  22.496  25.328  1.00  0.00    -0.463 OA
BRANCH   3   4
ATOM      4  C   UNL A   1      32.331  23.515  26.200  1.00  0.00     0.310 C 
ATOM      5  O   UNL A   1      32.174  23.376  27.408  1.00  0.00    -0.252 OA
BRANCH   4   6
ATOM      6  C   UNL A   1      32.445  24.898  25.548  1.00  0.00     0.116 C 
ATOM      7  C   UNL A   1      33.906  25.366  25.326  1.00  0.00     0.097 C 
ATOM      8  C   UNL A   1      34.047  26.874  25.395  1.00  0.00     0.045 C 
ATOM      9  C   UNL A   1      33.332  27.565  26.516  1.00  0.00    -0.074 C 
ATOM     10  C   UNL A   1      31.510  25.884  26.289  1.00  0.00     0.046 C 
ATOM     11  C   UNL A   1      33.997  28.833  26.988  1.00  0.00     0.039 C 
ATOM     12  C   UNL A   1      32.124  27.120  26.905  1.00  0.00    -0.073 C 
ATOM     13  C   UNL A   1      31.253  27.887  27.864  1.00  0.00     0.039 C 
BRANCH   7  14
ATOM     14  C   UNL A   1      34.389  24.701  24.029  1.00  0.00     0.224 C 
ATOM     15  N   UNL A   1      33.654  24.477  22.921  1.00  0.00    -0.352 N 
ATOM     16  H   UNL A   1      34.200  24.123  22.184  1.00  0.00     0.163 HD
ATOM     17  O   UNL A   1      35.574  24.349  23.946  1.00  0.00    -0.275 OA
BRANCH  15  18
ATOM     18  C   UNL A   1      32.264  24.624  22.540  1.00  0.00     0.151 C 
BRANCH  18  19
ATOM     19  C   UNL A   1      31.792  26.050  22.573  1.00  0.00    -0.025 A 
ATOM     20  C   UNL A   1      30.772  28.666  22.644  1.00  0.00     0.160 A 
ATOM     21  C   UNL A   1      32.126  28.439  22.360  1.00  0.00     0.051 A 
ATOM     22  C   UNL A   1      29.925  27.589  22.929  1.00  0.00     0.161 A 
ATOM     23  C   UNL A   1      32.639  27.138  22.342  1.00  0.00     0.009 A 
ATOM     24  C   UNL A   1      30.452  26.295  22.899  1.00  0.00     0.056 A 
BRANCH  20  25
ATOM     25  O   UNL A   1      30.269  29.928  22.496  1.00  0.00    -0.493 OA
ATOM     26  C   UNL A   1      29.802  30.485  23.722  1.00  0.00     0.278 C 
ENDBRANCH  20  25
BRANCH  22  27
ATOM     27  O   UNL A   1      28.589  27.601  23.219  1.00  0.00    -0.493 OA
ATOM     28  C   UNL A   1      28.078  26.554  24.026  1.00  0.00     0.278 C 
ENDBRANCH  22  27
ENDBRANCH  18  19
ENDBRANCH  15  18
ENDBRANCH   7  14
ENDBRANCH   4   6
ENDBRANCH   3   4
ENDBRANCH   2   3
ENDBRANCH   1   2
BRANCH   1  29
ATOM     29  O   UNL A   1      34.890  21.163  24.689  1.00  0.00    -0.374 OA
BRANCH  29  30
ATOM     30  C   UNL A   1      36.158  20.748  25.191  1.00  0.00     0.202 C 
BRANCH  30  31
ATOM     31  C   UNL A   1      37.335  21.639  24.791  1.00  0.00     0.261 C 
BRANCH  31  32
ATOM     32  O   UNL A   1      37.605  22.601  25.824  1.00  0.00    -0.460 OA
BRANCH  32  33
ATOM     33  C   UNL A   1      38.857  22.538  26.326  1.00  0.00     0.338 C 
ATOM     34  O   UNL A   1      39.617  21.576  26.297  1.00  0.00    -0.246 OA
BRANCH  33  35
ATOM     35  C   UNL A   1      39.281  23.869  26.797  1.00  0.00     0.060 A 
ATOM     36  C   UNL A   1      39.867  24.721  25.853  1.00  0.00     0.016 A 
ATOM     37  C   UNL A   1      39.171  24.258  28.135  1.00  0.00     0.016 A 
ATOM     38  C   UNL A   1      40.415  25.934  26.256  1.00  0.00     0.010 A 
ATOM     39  C   UNL A   1      39.723  25.478  28.538  1.00  0.00     0.010 A 
ATOM     40  C   UNL A   1      40.386  26.297  27.608  1.00  0.00    -0.014 A 
BRANCH  40  41
ATOM     41  C   UNL A   1      41.192  27.454  28.063  1.00  0.00     0.031 A 
ATOM     42  C   UNL A   1      40.487  28.637  28.672  1.00  0.00     0.074 A 
ATOM     43  C   UNL A   1      42.534  27.432  27.975  1.00  0.00     0.049 A 
ATOM     44  N   UNL A   1      40.988  29.754  29.127  1.00  0.00    -0.248 NA
ATOM     45  C   UNL A   1      39.021  28.546  28.780  1.00  0.00     0.031 C 
ATOM     46  C   UNL A   1      43.330  26.323  27.447  1.00  0.00     0.029 A 
ATOM     47  N   UNL A   1      43.465  28.375  28.330  1.00  0.00    -0.354 N 
ATOM     48  C   UNL A   1      39.903  30.507  29.563  1.00  0.00     0.074 A 
ATOM     49  C   UNL A   1      38.713  29.729  29.293  1.00  0.00     0.031 C 
ATOM     50  C   UNL A   1      44.631  26.652  27.510  1.00  0.00     0.029 A 
ATOM     51  C   UNL A   1      44.759  28.006  28.047  1.00  0.00     0.049 A 
ATOM     52  H   UNL A   1      43.230  29.235  28.747  1.00  0.00     0.167 HD
ATOM     53  C   UNL A   1      39.898  31.731  30.139  1.00  0.00     0.031 A 
ATOM     54  C   UNL A   1      45.910  28.690  28.189  1.00  0.00     0.031 A 
ATOM     55  C   UNL A   1      41.086  32.499  30.402  1.00  0.00     0.049 A 
ATOM     56  C   UNL A   1      45.873  30.079  28.771  1.00  0.00     0.074 A 
ATOM     57  C   UNL A   1      41.191  33.739  31.008  1.00  0.00     0.029 A 
ATOM     58  N   UNL A   1      42.373  32.106  30.068  1.00  0.00    -0.354 N 
ATOM     59  N   UNL A   1      44.841  30.762  29.208  1.00  0.00    -0.248 NA
ATOM     60  C   UNL A   1      47.156  30.786  28.886  1.00  0.00     0.031 C 
ATOM     61  C   UNL A   1      42.535  34.124  30.982  1.00  0.00     0.029 A 
ATOM     62  C   UNL A   1      43.275  33.095  30.422  1.00  0.00     0.049 A 
ATOM     63  H   UNL A   1      42.610  31.250  29.643  1.00  0.00     0.167 HD
ATOM     64  C   UNL A   1      45.356  31.968  29.676  1.00  0.00     0.074 A 
ATOM     65  C   UNL A   1      46.789  31.914  29.481  1.00  0.00     0.031 C 
ATOM     66  C   UNL A   1      44.701  33.024  30.220  1.00  0.00     0.031 A 
BRANCH  53  67
ATOM     67  C   UNL A   1      38.564  32.338  30.486  1.00  0.00    -0.014 A 
ATOM     68  C   UNL A   1      37.864  33.148  29.574  1.00  0.00     0.010 A 
ATOM     69  C   UNL A   1      37.979  32.051  31.734  1.00  0.00     0.010 A 
ATOM     70  C   UNL A   1      36.621  33.688  29.917  1.00  0.00     0.020 A 
ATOM     71  C   UNL A   1      36.724  32.567  32.070  1.00  0.00     0.020 A 
ATOM     72  C   UNL A   1      36.059  33.394  31.163  1.00  0.00     0.054 A 
BRANCH  72  73
ATOM     73  S   UNL A   1      34.432  34.085  31.571  1.00  0.00     0.124 S 
ATOM     74  O   UNL A   1      33.897  33.078  32.484  1.00  0.00    -0.237 OA
ATOM     75  O   UNL A   1      34.773  35.368  32.179  1.00  0.00    -0.237 OA
ATOM     76  O   UNL A   1      33.758  34.172  30.277  1.00  0.00    -0.744 OA
ENDBRANCH  72  73
ENDBRANCH  53  67
BRANCH  54  77
ATOM     77  C   UNL A   1      47.196  28.083  27.745  1.00  0.00    -0.014 A 
ATOM     78  C   UNL A   1      47.954  27.281  28.615  1.00  0.00     0.010 A 
ATOM     79  C   UNL A   1      47.672  28.317  26.441  1.00  0.00     0.010 A 
ATOM     80  C   UNL A   1      49.176  26.743  28.198  1.00  0.00     0.020 A 
ATOM     81  C   UNL A   1      48.877  27.757  26.010  1.00  0.00     0.020 A 
ATOM     82  C   UNL A   1      49.629  26.985  26.897  1.00  0.00     0.054 A 
BRANCH  82  83
ATOM     83  S   UNL A   1      51.199  26.249  26.367  1.00  0.00     0.124 S 
ATOM     84  O   UNL A   1      52.175  27.161  26.956  1.00  0.00    -0.237 OA
ATOM     85  O   UNL A   1      51.139  24.916  26.958  1.00  0.00    -0.237 OA
ATOM     86  O   UNL A   1      51.114  26.281  24.908  1.00  0.00    -0.744 OA
ENDBRANCH  82  83
ENDBRANCH  54  77
BRANCH  66  87
ATOM     87  C   UNL A   1      45.529  34.196  30.676  1.00  0.00    -0.014 A 
ATOM     88  C   UNL A   1      46.079  34.243  31.970  1.00  0.00     0.010 A 
ATOM     89  C   UNL A   1      45.810  35.238  29.774  1.00  0.00     0.010 A 
ATOM     90  C   UNL A   1      46.870  35.325  32.361  1.00  0.00     0.020 A 
ATOM     91  C   UNL A   1      46.626  36.307  30.152  1.00  0.00     0.020 A 
ATOM     92  C   UNL A   1      47.140  36.351  31.450  1.00  0.00     0.054 A 
BRANCH  92  93
ATOM     93  S   UNL A   1      48.209  37.720  31.968  1.00  0.00     0.124 S 
ATOM     94  O   UNL A   1      48.703  37.249  33.259  1.00  0.00    -0.237 OA
ATOM     95  O   UNL A   1      49.202  37.776  30.897  1.00  0.00    -0.237 OA
ATOM     96  O   UNL A   1      47.302  38.865  32.029  1.00  0.00    -0.744 OA
ENDBRANCH  92  93
ENDBRANCH  66  87
ENDBRANCH  40  41
ENDBRANCH  33  35
ENDBRANCH  32  33
ENDBRANCH  31  32
ENDBRANCH  30  31
ENDBRANCH  29  30
ENDBRANCH   1  29
TORSDOF 22
ENDMDL
MODEL 3
REMARK VINA RESULT:     -10.0      5.294      8.213
REMARK SMILES COc1ccc(CNC(=O)[C@H]2CC(C)=C(C)C[C@@H]2C(=O)OCCOCCOC(=O)c2ccc(-c3c4nc(c(-c5ccc(S(=O)(=O)[O-])cc5)c5ccc([nH]5)c(-c5ccc(S(=O)(=O)[O-])cc5)c5nc(c(-c6ccc(S(=O)(=O)[O-])cc6)c6ccc3[nH]6)C=C5)C=C4)cc2)cc1OC
REMARK SMILES IDX 23 1 22 2 21 3 19 4 20 5 18 6 11 7 12 8 13 9 17 10 14 11
REMARK SMILES IDX 15 12 16 13 9 14 8 15 10 17 7 18 6 19 3 20 4 21 91 22 5 23
REMARK SMILES IDX 90 24 2 25 1 26 92 27 93 28 24 29 25 30 26 31 27 32 28 33
REMARK SMILES IDX 29 34 30 35 31 36 89 37 32 38 88 39 33 40 34 41 35 42 82 43
REMARK SMILES IDX 36 44 87 45 81 46 83 47 37 48 86 49 80 50 79 51 38 53 68 54
REMARK SMILES IDX 49 55 67 56 50 57 53 58 66 59 84 60 51 61 52 62 65 64 85 65
REMARK SMILES IDX 54 66 39 67 40 68 48 69 41 70 47 71 42 72 43 73 44 74 45 75
REMARK SMILES IDX 46 76 69 77 70 78 78 79 71 80 77 81 72 82 73 83 74 84 75 85
REMARK SMILES IDX 76 86 55 87 56 88 64 89 57 90 63 91 58 92 59 93 60 94 61 95
REMARK SMILES IDX 62 96
REMARK H PARENT 8 16 83 52 53 63
REMARK Flexibility Score: inf
ROOT
ATOM      1  C   UNL A   1      36.310  20.028  24.953  1.00  0.00     0.202 C 
ENDROOT
BRANCH   1   2
ATOM      2  C   UNL A   1      34.841  20.464  24.972  1.00  0.00     0.261 C 
BRANCH   2   3
ATOM      3  O   UNL A   1      34.667  21.709  24.265  1.00  0.00    -0.463 OA
BRANCH   3   4
ATOM      4  C   UNL A   1      34.117  22.748  24.948  1.00  0.00     0.310 C 
ATOM      5  O   UNL A   1      34.693  23.392  25.819  1.00  0.00    -0.252 OA
BRANCH   4   6
ATOM      6  C   UNL A   1      32.735  23.149  24.419  1.00  0.00     0.116 C 
ATOM      7  C   UNL A   1      32.580  24.671  24.168  1.00  0.00     0.097 C 
ATOM      8  C   UNL A   1      31.154  25.148  24.365  1.00  0.00     0.045 C 
ATOM      9  C   UNL A   1      30.438  24.638  25.579  1.00  0.00    -0.074 C 
ATOM     10  C   UNL A   1      31.646  22.480  25.292  1.00  0.00     0.046 C 
ATOM     11  C   UNL A   1      29.400  25.582  26.130  1.00  0.00     0.039 C 
ATOM     12  C   UNL A   1      30.643  23.373  25.987  1.00  0.00    -0.073 C 
ATOM     13  C   UNL A   1      29.804  22.722  27.054  1.00  0.00     0.039 C 
BRANCH   7  14
ATOM     14  C   UNL A   1      33.203  24.956  22.793  1.00  0.00     0.224 C 
ATOM     15  N   UNL A   1      33.739  26.123  22.382  1.00  0.00    -0.352 N 
ATOM     16  H   UNL A   1      34.161  26.041  21.497  1.00  0.00     0.163 HD
ATOM     17  O   UNL A   1      33.262  24.037  21.965  1.00  0.00    -0.275 OA
BRANCH  15  18
ATOM     18  C   UNL A   1      33.853  27.467  22.912  1.00  0.00     0.151 C 
BRANCH  18  19
ATOM     19  C   UNL A   1      32.527  28.161  23.047  1.00  0.00    -0.025 A 
ATOM     20  C   UNL A   1      30.090  29.503  23.432  1.00  0.00     0.160 A 
ATOM     21  C   UNL A   1      30.273  28.667  22.321  1.00  0.00     0.051 A 
ATOM     22  C   UNL A   1      31.136  29.701  24.340  1.00  0.00     0.161 A 
ATOM     23  C   UNL A   1      31.491  28.013  22.118  1.00  0.00     0.009 A 
ATOM     24  C   UNL A   1      32.345  29.034  24.127  1.00  0.00     0.056 A 
BRANCH  20  25
ATOM     25  O   UNL A   1      28.841  29.997  23.688  1.00  0.00    -0.493 OA
ATOM     26  C   UNL A   1      27.868  29.563  22.741  1.00  0.00     0.278 C 
ENDBRANCH  20  25
BRANCH  22  27
ATOM     27  O   UNL A   1      31.153  30.461  25.476  1.00  0.00    -0.493 OA
ATOM     28  C   UNL A   1      32.093  30.125  26.483  1.00  0.00     0.278 C 
ENDBRANCH  22  27
ENDBRANCH  18  19
ENDBRANCH  15  18
ENDBRANCH   7  14
ENDBRANCH   4   6
ENDBRANCH   3   4
ENDBRANCH   2   3
ENDBRANCH   1   2
BRANCH   1  29
ATOM     29  O   UNL A   1      37.212  20.924  25.612  1.00  0.00    -0.374 OA
BRANCH  29  30
ATOM     30  C   UNL A   1      38.588  20.763  25.275  1.00  0.00     0.202 C 
BRANCH  30  31
ATOM     31  C   UNL A   1      39.575  21.311  26.307  1.00  0.00     0.261 C 
BRANCH  31  32
ATOM     32  O   UNL A   1      40.305  20.235  26.918  1.00  0.00    -0.460 OA
BRANCH  32  33
ATOM     33  C   UNL A   1      41.503  19.983  26.347  1.00  0.00     0.338 C 
ATOM     34  O   UNL A   1      41.813  18.999  25.685  1.00  0.00    -0.246 OA
BRANCH  33  35
ATOM     35  C   UNL A   1      42.387  21.154  26.489  1.00  0.00     0.060 A 
ATOM     36  C   UNL A   1      42.681  21.575  27.792  1.00  0.00     0.016 A 
ATOM     37  C   UNL A   1      42.870  21.864  25.386  1.00  0.00     0.016 A 
ATOM     38  C   UNL A   1      43.394  22.751  27.999  1.00  0.00     0.010 A 
ATOM     39  C   UNL A   1      43.585  23.047  25.596  1.00  0.00     0.010 A 
ATOM     40  C   UNL A   1      43.809  23.517  26.902  1.00  0.00    -0.014 A 
BRANCH  40  41
ATOM     41  C   UNL A   1      44.333  24.884  27.132  1.00  0.00     0.031 A 
ATOM     42  C   UNL A   1      43.386  25.954  27.607  1.00  0.00     0.074 A 
ATOM     43  C   UNL A   1      45.639  25.155  26.963  1.00  0.00     0.049 A 
ATOM     44  N   UNL A   1      43.623  27.214  27.862  1.00  0.00    -0.248 NA
ATOM     45  C   UNL A   1      41.986  25.550  27.820  1.00  0.00     0.031 C 
ATOM     46  C   UNL A   1      46.658  24.189  26.551  1.00  0.00     0.029 A 
ATOM     47  N   UNL A   1      46.331  26.330  27.117  1.00  0.00    -0.354 N 
ATOM     48  C   UNL A   1      42.404  27.757  28.252  1.00  0.00     0.074 A 
ATOM     49  C   UNL A   1      41.423  26.696  28.175  1.00  0.00     0.031 C 
ATOM     50  C   UNL A   1      47.846  24.812  26.483  1.00  0.00     0.029 A 
ATOM     51  C   UNL A   1      47.667  26.226  26.809  1.00  0.00     0.049 A 
ATOM     52  H   UNL A   1      45.912  27.167  27.419  1.00  0.00     0.167 HD
ATOM     53  C   UNL A   1      42.127  29.022  28.644  1.00  0.00     0.031 A 
ATOM     54  C   UNL A   1      48.629  27.168  26.776  1.00  0.00     0.031 A 
ATOM     55  C   UNL A   1      43.108  30.073  28.716  1.00  0.00     0.049 A 
ATOM     56  C   UNL A   1      48.282  28.585  27.152  1.00  0.00     0.074 A 
ATOM     57  C   UNL A   1      42.935  31.383  29.128  1.00  0.00     0.029 A 
ATOM     58  N   UNL A   1      44.441  29.936  28.362  1.00  0.00    -0.354 N 
ATOM     59  N   UNL A   1      47.131  29.074  27.550  1.00  0.00    -0.248 NA
ATOM     60  C   UNL A   1      49.366  29.576  27.081  1.00  0.00     0.031 C 
ATOM     61  C   UNL A   1      44.149  32.055  28.961  1.00  0.00     0.029 A 
ATOM     62  C   UNL A   1      45.095  31.148  28.510  1.00  0.00     0.049 A 
ATOM     63  H   UNL A   1      44.861  29.102  28.051  1.00  0.00     0.167 HD
ATOM     64  C   UNL A   1      47.361  30.423  27.804  1.00  0.00     0.074 A 
ATOM     65  C   UNL A   1      48.760  30.669  27.528  1.00  0.00     0.031 C 
ATOM     66  C   UNL A   1      46.491  31.374  28.230  1.00  0.00     0.031 A 
BRANCH  53  67
ATOM     67  C   UNL A   1      40.698  29.355  28.984  1.00  0.00    -0.014 A 
ATOM     68  C   UNL A   1      40.303  29.636  30.304  1.00  0.00     0.010 A 
ATOM     69  C   UNL A   1      39.742  29.434  27.953  1.00  0.00     0.010 A 
ATOM     70  C   UNL A   1      38.972  29.956  30.591  1.00  0.00     0.020 A 
ATOM     71  C   UNL A   1      38.417  29.779  28.232  1.00  0.00     0.020 A 
ATOM     72  C   UNL A   1      38.038  30.024  29.553  1.00  0.00     0.054 A 
BRANCH  72  73
ATOM     73  S   UNL A   1      36.324  30.468  29.950  1.00  0.00     0.124 S 
ATOM     74  O   UNL A   1      36.331  31.914  29.742  1.00  0.00    -0.237 OA
ATOM     75  O   UNL A   1      35.560  29.696  28.975  1.00  0.00    -0.237 OA
ATOM     76  O   UNL A   1      36.168  30.041  31.339  1.00  0.00    -0.744 OA
ENDBRANCH  72  73
ENDBRANCH  53  67
BRANCH  54  77
ATOM     77  C   UNL A   1      50.008  26.809  26.344  1.00  0.00    -0.014 A 
ATOM     78  C   UNL A   1      51.004  26.505  27.288  1.00  0.00     0.010 A 
ATOM     79  C   UNL A   1      50.332  26.781  24.975  1.00  0.00     0.010 A 
ATOM     80  C   UNL A   1      52.304  26.201  26.872  1.00  0.00     0.020 A 
ATOM     81  C   UNL A   1      51.622  26.448  24.553  1.00  0.00     0.020 A 
ATOM     82  C   UNL A   1      52.604  26.174  25.506  1.00  0.00     0.054 A 
BRANCH  82  83
ATOM     83  S   UNL A   1      54.288  25.744  24.988  1.00  0.00     0.124 S 
ATOM     84  O   UNL A   1      55.096  26.415  26.001  1.00  0.00    -0.237 OA
ATOM     85  O   UNL A   1      54.274  24.286  25.050  1.00  0.00    -0.237 OA
ATOM     86  O   UNL A   1      54.382  26.304  23.640  1.00  0.00    -0.744 OA
ENDBRANCH  82  83
ENDBRANCH  54  77
BRANCH  66  87
ATOM     87  C   UNL A   1      47.032  32.761  28.458  1.00  0.00    -0.014 A 
ATOM     88  C   UNL A   1      47.000  33.734  27.443  1.00  0.00     0.010 A 
ATOM     89  C   UNL A   1      47.524  33.111  29.729  1.00  0.00     0.010 A 
ATOM     90  C   UNL A   1      47.479  35.023  27.688  1.00  0.00     0.020 A 
ATOM     91  C   UNL A   1      47.975  34.408  29.985  1.00  0.00     0.020 A 
ATOM     92  C   UNL A   1      47.962  35.354  28.958  1.00  0.00     0.054 A 
BRANCH  92  93
ATOM     93  S   UNL A   1      48.532  37.047  29.261  1.00  0.00     0.124 S 
ATOM     94  O   UNL A   1      47.351  37.833  28.916  1.00  0.00    -0.237 OA
ATOM     95  O   UNL A   1      48.876  37.021  30.681  1.00  0.00    -0.237 OA
ATOM     96  O   UNL A   1      49.668  37.199  28.354  1.00  0.00    -0.744 OA
ENDBRANCH  92  93
ENDBRANCH  66  87
ENDBRANCH  40  41
ENDBRANCH  33  35
ENDBRANCH  32  33
ENDBRANCH  31  32
ENDBRANCH  30  31
ENDBRANCH  29  30
ENDBRANCH   1  29
TORSDOF 22
ENDMDL
