MODEL 1
REMARK VINA RESULT:     -10.4      0.000      0.000
REMARK SMILES C#Cc1ccc2c(c1)C=C(C(=O)OCCOCCOC(=O)c1ccc(-c3c4nc(c(-c5ccc(S(=O)(=O)[O-])cc5)c5ccc([nH]5)c(-c5ccc(S(=O)(=O)[O-])cc5)c5nc(c(-c6ccc(S(=O)(=O)[O-])cc6)c6ccc3[nH]6)C=C5)C=C4)cc1)[C@@H](C(F)(F)F)O2
REMARK SMILES IDX 17 1 16 2 15 3 14 4 13 5 11 6 12 7 10 8 3 9 4 10 8 11 5 12
REMARK SMILES IDX 7 13 6 14 9 15 87 16 82 17 2 18 1 19 83 20 84 21 85 22 86 23
REMARK SMILES IDX 18 24 19 25 20 26 21 27 22 28 23 29 81 30 24 31 80 32 25 33
REMARK SMILES IDX 26 34 27 35 74 36 28 37 79 38 73 39 75 40 29 41 78 42 72 43
REMARK SMILES IDX 71 44 30 46 60 47 41 48 59 49 42 50 45 51 58 52 76 53 43 54
REMARK SMILES IDX 44 55 57 57 77 58 46 59 31 60 32 61 40 62 33 63 39 64 34 65
REMARK SMILES IDX 35 66 36 67 37 68 38 69 61 70 62 71 70 72 63 73 69 74 64 75
REMARK SMILES IDX 65 76 66 77 67 78 68 79 47 80 48 81 56 82 49 83 55 84 50 85
REMARK SMILES IDX 51 86 52 87 53 88 54 89
REMARK H PARENT 75 45 45 56
REMARK Flexibility Score: inf
ROOT
ATOM      1  C   UNL A   1      35.826  21.748  24.654  1.00  0.00     0.202 C 
ENDROOT
BRANCH   1   2
ATOM      2  O   UNL A   1      35.154  20.524  24.937  1.00  0.00    -0.374 OA
BRANCH   2   3
ATOM      3  C   UNL A   1      33.758  20.548  25.217  1.00  0.00     0.202 C 
BRANCH   3   4
ATOM      4  C   UNL A   1      33.198  21.662  26.107  1.00  0.00     0.261 C 
BRANCH   4   5
ATOM      5  O   UNL A   1      31.883  22.072  25.713  1.00  0.00    -0.460 OA
BRANCH   5   6
ATOM      6  C   UNL A   1      31.479  23.238  26.269  1.00  0.00     0.338 C 
ATOM      7  O   UNL A   1      30.757  23.375  27.244  1.00  0.00    -0.246 OA
BRANCH   6   8
ATOM      8  C   UNL A   1      32.166  24.367  25.612  1.00  0.00     0.087 C 
ATOM      9  C   UNL A   1      33.894  28.819  26.064  1.00  0.00     0.025 A 
ATOM     10  C   UNL A   1      33.965  28.927  24.674  1.00  0.00     0.021 A 
ATOM     11  C   UNL A   1      33.503  27.613  26.648  1.00  0.00     0.029 A 
ATOM     12  C   UNL A   1      33.666  27.824  23.870  1.00  0.00     0.048 A 
ATOM     13  C   UNL A   1      33.160  26.524  25.840  1.00  0.00     0.018 A 
ATOM     14  C   UNL A   1      33.261  26.624  24.453  1.00  0.00     0.128 A 
ATOM     15  C   UNL A   1      32.618  25.320  26.437  1.00  0.00     0.027 C 
ATOM     16  O   UNL A   1      32.983  25.595  23.598  1.00  0.00    -0.475 OA
ATOM     17  C   UNL A   1      32.297  24.417  24.115  1.00  0.00     0.316 C 
BRANCH   9  18
ATOM     18  C   UNL A   1      34.181  29.945  26.896  1.00  0.00    -0.070 C 
ATOM     19  C   UNL A   1      34.440  30.879  27.609  1.00  0.00     0.010 C 
ENDBRANCH   9  18
BRANCH  17  20
ATOM     20  C   UNL A   1      30.942  24.291  23.402  1.00  0.00     0.430 C 
ATOM     21  F   UNL A   1      30.952  24.938  22.213  1.00  0.00    -0.167 F 
ATOM     22  F   UNL A   1      30.629  23.001  23.143  1.00  0.00    -0.167 F 
ATOM     23  F   UNL A   1      29.938  24.812  24.144  1.00  0.00    -0.167 F 
ENDBRANCH  17  20
ENDBRANCH   6   8
ENDBRANCH   5   6
ENDBRANCH   4   5
ENDBRANCH   3   4
ENDBRANCH   2   3
ENDBRANCH   1   2
BRANCH   1  24
ATOM     24  C   UNL A   1      37.336  21.868  24.903  1.00  0.00     0.261 C 
BRANCH  24  25
ATOM     25  O   UNL A   1      37.682  22.762  25.970  1.00  0.00    -0.460 OA
BRANCH  25  26
ATOM     26  C   UNL A   1      39.010  22.814  26.256  1.00  0.00     0.338 C 
ATOM     27  O   UNL A   1      39.869  22.024  25.907  1.00  0.00    -0.246 OA
BRANCH  26  28
ATOM     28  C   UNL A   1      39.310  24.108  26.895  1.00  0.00     0.060 A 
ATOM     29  C   UNL A   1      38.885  24.377  28.196  1.00  0.00     0.016 A 
ATOM     30  C   UNL A   1      40.061  25.052  26.179  1.00  0.00     0.016 A 
ATOM     31  C   UNL A   1      39.229  25.595  28.786  1.00  0.00     0.010 A 
ATOM     32  C   UNL A   1      40.404  26.266  26.773  1.00  0.00     0.010 A 
ATOM     33  C   UNL A   1      40.004  26.541  28.087  1.00  0.00    -0.014 A 
BRANCH  33  34
ATOM     34  C   UNL A   1      40.490  27.762  28.782  1.00  0.00     0.031 A 
ATOM     35  C   UNL A   1      41.897  27.865  29.290  1.00  0.00     0.074 A 
ATOM     36  C   UNL A   1      39.631  28.787  28.951  1.00  0.00     0.049 A 
ATOM     37  N   UNL A   1      42.490  28.891  29.846  1.00  0.00    -0.248 NA
ATOM     38  C   UNL A   1      42.751  26.674  29.164  1.00  0.00     0.031 C 
ATOM     39  C   UNL A   1      38.232  28.785  28.518  1.00  0.00     0.029 A 
ATOM     40  N   UNL A   1      39.804  30.031  29.507  1.00  0.00    -0.354 N 
ATOM     41  C   UNL A   1      43.787  28.480  30.121  1.00  0.00     0.074 A 
ATOM     42  C   UNL A   1      43.882  27.093  29.719  1.00  0.00     0.031 C 
ATOM     43  C   UNL A   1      37.690  29.983  28.777  1.00  0.00     0.029 A 
ATOM     44  C   UNL A   1      38.682  30.826  29.442  1.00  0.00     0.049 A 
ATOM     45  H   UNL A   1      40.651  30.326  29.914  1.00  0.00     0.167 HD
ATOM     46  C   UNL A   1      44.808  29.206  30.635  1.00  0.00     0.031 A 
ATOM     47  C   UNL A   1      38.467  32.090  29.862  1.00  0.00     0.031 A 
ATOM     48  C   UNL A   1      44.693  30.588  31.034  1.00  0.00     0.049 A 
ATOM     49  C   UNL A   1      39.607  32.856  30.477  1.00  0.00     0.074 A 
ATOM     50  C   UNL A   1      45.686  31.417  31.529  1.00  0.00     0.029 A 
ATOM     51  N   UNL A   1      43.530  31.344  30.994  1.00  0.00    -0.354 N 
ATOM     52  N   UNL A   1      40.851  32.479  30.649  1.00  0.00    -0.248 NA
ATOM     53  C   UNL A   1      39.324  34.223  30.939  1.00  0.00     0.031 C 
ATOM     54  C   UNL A   1      45.106  32.637  31.875  1.00  0.00     0.029 A 
ATOM     55  C   UNL A   1      43.774  32.614  31.496  1.00  0.00     0.049 A 
ATOM     56  H   UNL A   1      42.662  31.027  30.658  1.00  0.00     0.167 HD
ATOM     57  C   UNL A   1      41.505  33.570  31.213  1.00  0.00     0.074 A 
ATOM     58  C   UNL A   1      40.525  34.629  31.332  1.00  0.00     0.031 C 
ATOM     59  C   UNL A   1      42.799  33.675  31.603  1.00  0.00     0.031 A 
BRANCH  46  60
ATOM     60  C   UNL A   1      46.163  28.555  30.782  1.00  0.00    -0.014 A 
ATOM     61  C   UNL A   1      47.066  28.560  29.702  1.00  0.00     0.010 A 
ATOM     62  C   UNL A   1      46.472  27.789  31.922  1.00  0.00     0.010 A 
ATOM     63  C   UNL A   1      48.218  27.769  29.733  1.00  0.00     0.020 A 
ATOM     64  C   UNL A   1      47.642  27.025  31.971  1.00  0.00     0.020 A 
ATOM     65  C   UNL A   1      48.491  26.994  30.862  1.00  0.00     0.054 A 
BRANCH  65  66
ATOM     66  S   UNL A   1      49.947  25.912  30.849  1.00  0.00     0.124 S 
ATOM     67  O   UNL A   1      49.840  25.267  29.544  1.00  0.00    -0.237 OA
ATOM     68  O   UNL A   1      51.047  26.862  30.997  1.00  0.00    -0.237 OA
ATOM     69  O   UNL A   1      49.734  25.035  31.998  1.00  0.00    -0.744 OA
ENDBRANCH  65  66
ENDBRANCH  46  60
BRANCH  47  70
ATOM     70  C   UNL A   1      37.125  32.710  29.658  1.00  0.00    -0.014 A 
ATOM     71  C   UNL A   1      36.883  33.535  28.543  1.00  0.00     0.010 A 
ATOM     72  C   UNL A   1      36.109  32.550  30.616  1.00  0.00     0.010 A 
ATOM     73  C   UNL A   1      35.684  34.242  28.427  1.00  0.00     0.020 A 
ATOM     74  C   UNL A   1      34.890  33.223  30.481  1.00  0.00     0.020 A 
ATOM     75  C   UNL A   1      34.699  34.092  29.405  1.00  0.00     0.054 A 
BRANCH  75  76
ATOM     76  S   UNL A   1      33.184  35.077  29.268  1.00  0.00     0.124 S 
ATOM     77  O   UNL A   1      32.696  35.070  30.645  1.00  0.00    -0.237 OA
ATOM     78  O   UNL A   1      33.684  36.361  28.784  1.00  0.00    -0.237 OA
ATOM     79  O   UNL A   1      32.370  34.328  28.314  1.00  0.00    -0.744 OA
ENDBRANCH  75  76
ENDBRANCH  47  70
BRANCH  59  80
ATOM     80  C   UNL A   1      43.272  34.981  32.199  1.00  0.00    -0.014 A 
ATOM     81  C   UNL A   1      43.071  35.236  33.571  1.00  0.00     0.010 A 
ATOM     82  C   UNL A   1      43.765  36.015  31.382  1.00  0.00     0.010 A 
ATOM     83  C   UNL A   1      43.291  36.510  34.099  1.00  0.00     0.020 A 
ATOM     84  C   UNL A   1      44.029  37.280  31.917  1.00  0.00     0.020 A 
ATOM     85  C   UNL A   1      43.756  37.528  33.264  1.00  0.00     0.054 A 
BRANCH  85  86
ATOM     86  S   UNL A   1      43.964  39.193  33.954  1.00  0.00     0.124 S 
ATOM     87  O   UNL A   1      45.205  39.634  33.323  1.00  0.00    -0.237 OA
ATOM     88  O   UNL A   1      42.753  39.877  33.508  1.00  0.00    -0.237 OA
ATOM     89  O   UNL A   1      44.047  38.963  35.395  1.00  0.00    -0.744 OA
ENDBRANCH  85  86
ENDBRANCH  59  80
ENDBRANCH  33  34
ENDBRANCH  26  28
ENDBRANCH  25  26
ENDBRANCH  24  25
ENDBRANCH   1  24
TORSDOF 19
ENDMDL
MODEL 2
REMARK VINA RESULT:     -10.3      2.815      9.793
REMARK SMILES C#Cc1ccc2c(c1)C=C(C(=O)OCCOCCOC(=O)c1ccc(-c3c4nc(c(-c5ccc(S(=O)(=O)[O-])cc5)c5ccc([nH]5)c(-c5ccc(S(=O)(=O)[O-])cc5)c5nc(c(-c6ccc(S(=O)(=O)[O-])cc6)c6ccc3[nH]6)C=C5)C=C4)cc1)[C@@H](C(F)(F)F)O2
REMARK SMILES IDX 17 1 16 2 15 3 14 4 13 5 11 6 12 7 10 8 3 9 4 10 8 11 5 12
REMARK SMILES IDX 7 13 6 14 9 15 87 16 82 17 2 18 1 19 83 20 84 21 85 22 86 23
REMARK SMILES IDX 18 24 19 25 20 26 21 27 22 28 23 29 81 30 24 31 80 32 25 33
REMARK SMILES IDX 26 34 27 35 74 36 28 37 79 38 73 39 75 40 29 41 78 42 72 43
REMARK SMILES IDX 71 44 30 46 60 47 41 48 59 49 42 50 45 51 58 52 76 53 43 54
REMARK SMILES IDX 44 55 57 57 77 58 46 59 31 60 32 61 40 62 33 63 39 64 34 65
REMARK SMILES IDX 35 66 36 67 37 68 38 69 61 70 62 71 70 72 63 73 69 74 64 75
REMARK SMILES IDX 65 76 66 77 67 78 68 79 47 80 48 81 56 82 49 83 55 84 50 85
REMARK SMILES IDX 51 86 52 87 53 88 54 89
REMARK H PARENT 75 45 45 56
REMARK Flexibility Score: inf
ROOT
ATOM      1  C   UNL A   1      32.622  29.113  25.380  1.00  0.00     0.202 C 
ENDROOT
BRANCH   1   2
ATOM      2  O   UNL A   1      31.642  28.116  25.107  1.00  0.00    -0.374 OA
BRANCH   2   3
ATOM      3  C   UNL A   1      32.054  26.761  24.959  1.00  0.00     0.202 C 
BRANCH   3   4
ATOM      4  C   UNL A   1      31.186  25.650  25.560  1.00  0.00     0.261 C 
BRANCH   4   5
ATOM      5  O   UNL A   1      31.531  24.352  25.063  1.00  0.00    -0.460 OA
BRANCH   5   6
ATOM      6  C   UNL A   1      31.776  23.438  26.031  1.00  0.00     0.338 C 
ATOM      7  O   UNL A   1      31.280  23.399  27.145  1.00  0.00    -0.246 OA
BRANCH   6   8
ATOM      8  C   UNL A   1      32.643  22.370  25.497  1.00  0.00     0.087 C 
ATOM      9  C   UNL A   1      33.382  17.649  25.065  1.00  0.00     0.025 A 
ATOM     10  C   UNL A   1      34.702  17.896  24.682  1.00  0.00     0.021 A 
ATOM     11  C   UNL A   1      32.511  18.718  25.283  1.00  0.00     0.029 A 
ATOM     12  C   UNL A   1      35.143  19.209  24.498  1.00  0.00     0.048 A 
ATOM     13  C   UNL A   1      32.968  20.033  25.143  1.00  0.00     0.018 A 
ATOM     14  C   UNL A   1      34.278  20.277  24.731  1.00  0.00     0.128 A 
ATOM     15  C   UNL A   1      32.109  21.141  25.507  1.00  0.00     0.027 C 
ATOM     16  O   UNL A   1      34.786  21.529  24.532  1.00  0.00    -0.475 OA
ATOM     17  C   UNL A   1      34.034  22.679  25.018  1.00  0.00     0.316 C 
BRANCH   9  18
ATOM     18  C   UNL A   1      32.925  16.312  25.272  1.00  0.00    -0.070 C 
ATOM     19  C   UNL A   1      32.550  15.186  25.471  1.00  0.00     0.010 C 
ENDBRANCH   9  18
BRANCH  17  20
ATOM     20  C   UNL A   1      34.877  23.396  26.084  1.00  0.00     0.430 C 
ATOM     21  F   UNL A   1      34.443  24.664  26.280  1.00  0.00    -0.167 F 
ATOM     22  F   UNL A   1      34.811  22.771  27.281  1.00  0.00    -0.167 F 
ATOM     23  F   UNL A   1      36.180  23.461  25.729  1.00  0.00    -0.167 F 
ENDBRANCH  17  20
ENDBRANCH   6   8
ENDBRANCH   5   6
ENDBRANCH   4   5
ENDBRANCH   3   4
ENDBRANCH   2   3
ENDBRANCH   1   2
BRANCH   1  24
ATOM     24  C   UNL A   1      32.512  29.968  26.650  1.00  0.00     0.261 C 
BRANCH  24  25
ATOM     25  O   UNL A   1      33.546  29.717  27.613  1.00  0.00    -0.460 OA
BRANCH  25  26
ATOM     26  C   UNL A   1      34.424  30.741  27.778  1.00  0.00     0.338 C 
ATOM     27  O   UNL A   1      34.165  31.930  27.841  1.00  0.00    -0.246 OA
BRANCH  26  28
ATOM     28  C   UNL A   1      35.753  30.183  28.086  1.00  0.00     0.060 A 
ATOM     29  C   UNL A   1      36.774  30.204  27.137  1.00  0.00     0.016 A 
ATOM     30  C   UNL A   1      35.981  29.661  29.368  1.00  0.00     0.016 A 
ATOM     31  C   UNL A   1      38.033  29.710  27.480  1.00  0.00     0.010 A 
ATOM     32  C   UNL A   1      37.241  29.171  29.708  1.00  0.00     0.010 A 
ATOM     33  C   UNL A   1      38.283  29.206  28.772  1.00  0.00    -0.014 A 
BRANCH  33  34
ATOM     34  C   UNL A   1      39.665  28.828  29.168  1.00  0.00     0.031 A 
ATOM     35  C   UNL A   1      40.524  29.749  29.983  1.00  0.00     0.074 A 
ATOM     36  C   UNL A   1      40.139  27.629  28.775  1.00  0.00     0.049 A 
ATOM     37  N   UNL A   1      41.718  29.530  30.470  1.00  0.00    -0.248 NA
ATOM     38  C   UNL A   1      39.984  31.082  30.291  1.00  0.00     0.031 C 
ATOM     39  C   UNL A   1      39.398  26.665  27.959  1.00  0.00     0.029 A 
ATOM     40  N   UNL A   1      41.337  27.004  29.021  1.00  0.00    -0.354 N 
ATOM     41  C   UNL A   1      42.068  30.685  31.157  1.00  0.00     0.074 A 
ATOM     42  C   UNL A   1      40.982  31.625  30.979  1.00  0.00     0.031 C 
ATOM     43  C   UNL A   1      40.135  25.554  27.814  1.00  0.00     0.029 A 
ATOM     44  C   UNL A   1      41.422  25.741  28.480  1.00  0.00     0.049 A 
ATOM     45  H   UNL A   1      42.067  27.421  29.534  1.00  0.00     0.167 HD
ATOM     46  C   UNL A   1      43.182  30.923  31.890  1.00  0.00     0.031 A 
ATOM     47  C   UNL A   1      42.415  24.828  28.515  1.00  0.00     0.031 A 
ATOM     48  C   UNL A   1      44.257  29.974  32.052  1.00  0.00     0.049 A 
ATOM     49  C   UNL A   1      43.663  25.140  29.295  1.00  0.00     0.074 A 
ATOM     50  C   UNL A   1      45.409  30.114  32.810  1.00  0.00     0.029 A 
ATOM     51  N   UNL A   1      44.326  28.725  31.454  1.00  0.00    -0.354 N 
ATOM     52  N   UNL A   1      43.940  26.204  30.011  1.00  0.00    -0.248 NA
ATOM     53  C   UNL A   1      44.728  24.127  29.291  1.00  0.00     0.031 C 
ATOM     54  C   UNL A   1      46.212  28.995  32.595  1.00  0.00     0.029 A 
ATOM     55  C   UNL A   1      45.520  28.104  31.792  1.00  0.00     0.049 A 
ATOM     56  H   UNL A   1      43.631  28.335  30.877  1.00  0.00     0.167 HD
ATOM     57  C   UNL A   1      45.196  25.976  30.563  1.00  0.00     0.074 A 
ATOM     58  C   UNL A   1      45.616  24.664  30.118  1.00  0.00     0.031 C 
ATOM     59  C   UNL A   1      45.934  26.789  31.359  1.00  0.00     0.031 A 
BRANCH  46  60
ATOM     60  C   UNL A   1      43.312  32.245  32.608  1.00  0.00    -0.014 A 
ATOM     61  C   UNL A   1      42.699  32.425  33.863  1.00  0.00     0.010 A 
ATOM     62  C   UNL A   1      43.887  33.358  31.967  1.00  0.00     0.010 A 
ATOM     63  C   UNL A   1      42.606  33.698  34.434  1.00  0.00     0.020 A 
ATOM     64  C   UNL A   1      43.827  34.627  32.552  1.00  0.00     0.020 A 
ATOM     65  C   UNL A   1      43.158  34.793  33.767  1.00  0.00     0.054 A 
BRANCH  65  66
ATOM     66  S   UNL A   1      42.954  36.447  34.484  1.00  0.00     0.124 S 
ATOM     67  O   UNL A   1      41.624  36.363  35.082  1.00  0.00    -0.237 OA
ATOM     68  O   UNL A   1      44.067  36.521  35.427  1.00  0.00    -0.237 OA
ATOM     69  O   UNL A   1      43.065  37.339  33.332  1.00  0.00    -0.744 OA
ENDBRANCH  65  66
ENDBRANCH  46  60
BRANCH  47  70
ATOM     70  C   UNL A   1      42.228  23.517  27.827  1.00  0.00    -0.014 A 
ATOM     71  C   UNL A   1      41.643  22.432  28.508  1.00  0.00     0.010 A 
ATOM     72  C   UNL A   1      42.707  23.319  26.520  1.00  0.00     0.010 A 
ATOM     73  C   UNL A   1      41.607  21.162  27.926  1.00  0.00     0.020 A 
ATOM     74  C   UNL A   1      42.633  22.059  25.918  1.00  0.00     0.020 A 
ATOM     75  C   UNL A   1      42.115  20.981  26.638  1.00  0.00     0.054 A 
BRANCH  75  76
ATOM     76  S   UNL A   1      42.121  19.309  25.937  1.00  0.00     0.124 S 
ATOM     77  O   UNL A   1      42.667  18.523  27.040  1.00  0.00    -0.237 OA
ATOM     78  O   UNL A   1      40.709  19.084  25.643  1.00  0.00    -0.237 OA
ATOM     79  O   UNL A   1      42.988  19.429  24.768  1.00  0.00    -0.744 OA
ENDBRANCH  75  76
ENDBRANCH  47  70
BRANCH  59  80
ATOM     80  C   UNL A   1      47.287  26.308  31.829  1.00  0.00    -0.014 A 
ATOM     81  C   UNL A   1      48.404  26.421  30.977  1.00  0.00     0.010 A 
ATOM     82  C   UNL A   1      47.426  25.603  33.038  1.00  0.00     0.010 A 
ATOM     83  C   UNL A   1      49.609  25.788  31.292  1.00  0.00     0.020 A 
ATOM     84  C   UNL A   1      48.643  25.005  33.378  1.00  0.00     0.020 A 
ATOM     85  C   UNL A   1      49.715  25.071  32.485  1.00  0.00     0.054 A 
BRANCH  85  86
ATOM     86  S   UNL A   1      51.264  24.196  32.840  1.00  0.00     0.124 S 
ATOM     87  O   UNL A   1      51.116  22.977  32.050  1.00  0.00    -0.237 OA
ATOM     88  O   UNL A   1      52.277  25.135  32.366  1.00  0.00    -0.237 OA
ATOM     89  O   UNL A   1      51.230  24.006  34.288  1.00  0.00    -0.744 OA
ENDBRANCH  85  86
ENDBRANCH  59  80
ENDBRANCH  33  34
ENDBRANCH  26  28
ENDBRANCH  25  26
ENDBRANCH  24  25
ENDBRANCH   1  24
TORSDOF 19
ENDMDL
MODEL 3
REMARK VINA RESULT:     -10.3      2.076      2.769
REMARK SMILES C#Cc1ccc2c(c1)C=C(C(=O)OCCOCCOC(=O)c1ccc(-c3c4nc(c(-c5ccc(S(=O)(=O)[O-])cc5)c5ccc([nH]5)c(-c5ccc(S(=O)(=O)[O-])cc5)c5nc(c(-c6ccc(S(=O)(=O)[O-])cc6)c6ccc3[nH]6)C=C5)C=C4)cc1)[C@@H](C(F)(F)F)O2
REMARK SMILES IDX 17 1 16 2 15 3 14 4 13 5 11 6 12 7 10 8 3 9 4 10 8 11 5 12
REMARK SMILES IDX 7 13 6 14 9 15 87 16 82 17 2 18 1 19 83 20 84 21 85 22 86 23
REMARK SMILES IDX 18 24 19 25 20 26 21 27 22 28 23 29 81 30 24 31 80 32 25 33
REMARK SMILES IDX 26 34 27 35 74 36 28 37 79 38 73 39 75 40 29 41 78 42 72 43
REMARK SMILES IDX 71 44 30 46 60 47 41 48 59 49 42 50 45 51 58 52 76 53 43 54
REMARK SMILES IDX 44 55 57 57 77 58 46 59 31 60 32 61 40 62 33 63 39 64 34 65
REMARK SMILES IDX 35 66 36 67 37 68 38 69 61 70 62 71 70 72 63 73 69 74 64 75
REMARK SMILES IDX 65 76 66 77 67 78 68 79 47 80 48 81 56 82 49 83 55 84 50 85
REMARK SMILES IDX 51 86 52 87 53 88 54 89
REMARK H PARENT 75 45 45 56
REMARK Flexibility Score: inf
ROOT
ATOM      1  C   UNL A   1      35.729  23.027  25.882  1.00  0.00     0.202 C 
ENDROOT
BRANCH   1   2
ATOM      2  O   UNL A   1      34.602  23.133  25.016  1.00  0.00    -0.374 OA
BRANCH   2   3
ATOM      3  C   UNL A   1      34.632  24.079  23.952  1.00  0.00     0.202 C 
BRANCH   3   4
ATOM      4  C   UNL A   1      33.340  24.369  23.180  1.00  0.00     0.261 C 
BRANCH   4   5
ATOM      5  O   UNL A   1      33.301  25.700  22.653  1.00  0.00    -0.460 OA
BRANCH   5   6
ATOM      6  C   UNL A   1      32.967  26.644  23.564  1.00  0.00     0.338 C 
ATOM      7  O   UNL A   1      33.720  27.221  24.332  1.00  0.00    -0.246 OA
BRANCH   6   8
ATOM      8  C   UNL A   1      31.546  27.007  23.405  1.00  0.00     0.087 C 
ATOM      9  C   UNL A   1      28.392  30.292  21.894  1.00  0.00     0.025 A 
ATOM     10  C   UNL A   1      27.385  29.648  22.614  1.00  0.00     0.021 A 
ATOM     11  C   UNL A   1      29.673  29.738  21.846  1.00  0.00     0.029 A 
ATOM     12  C   UNL A   1      27.652  28.443  23.268  1.00  0.00     0.048 A 
ATOM     13  C   UNL A   1      29.950  28.555  22.537  1.00  0.00     0.018 A 
ATOM     14  C   UNL A   1      28.935  27.897  23.232  1.00  0.00     0.128 A 
ATOM     15  C   UNL A   1      31.309  28.057  22.607  1.00  0.00     0.027 C 
ATOM     16  O   UNL A   1      29.116  26.719  23.898  1.00  0.00    -0.475 OA
ATOM     17  C   UNL A   1      30.474  26.245  24.133  1.00  0.00     0.316 C 
BRANCH   9  18
ATOM     18  C   UNL A   1      28.134  31.534  21.236  1.00  0.00    -0.070 C 
ATOM     19  C   UNL A   1      27.941  32.579  20.672  1.00  0.00     0.010 C 
ENDBRANCH   9  18
BRANCH  17  20
ATOM     20  C   UNL A   1      30.716  26.193  25.648  1.00  0.00     0.430 C 
ATOM     21  F   UNL A   1      29.625  25.733  26.304  1.00  0.00    -0.167 F 
ATOM     22  F   UNL A   1      31.739  25.367  25.966  1.00  0.00    -0.167 F 
ATOM     23  F   UNL A   1      31.009  27.415  26.149  1.00  0.00    -0.167 F 
ENDBRANCH  17  20
ENDBRANCH   6   8
ENDBRANCH   5   6
ENDBRANCH   4   5
ENDBRANCH   3   4
ENDBRANCH   2   3
ENDBRANCH   1   2
BRANCH   1  24
ATOM     24  C   UNL A   1      36.932  22.167  25.472  1.00  0.00     0.261 C 
BRANCH  24  25
ATOM     25  O   UNL A   1      38.143  22.912  25.282  1.00  0.00    -0.460 OA
BRANCH  25  26
ATOM     26  C   UNL A   1      39.073  22.737  26.258  1.00  0.00     0.338 C 
ATOM     27  O   UNL A   1      39.700  21.721  26.504  1.00  0.00    -0.246 OA
BRANCH  26  28
ATOM     28  C   UNL A   1      39.376  24.045  26.867  1.00  0.00     0.060 A 
ATOM     29  C   UNL A   1      38.986  24.330  28.175  1.00  0.00     0.016 A 
ATOM     30  C   UNL A   1      40.095  24.984  26.115  1.00  0.00     0.016 A 
ATOM     31  C   UNL A   1      39.332  25.561  28.735  1.00  0.00     0.010 A 
ATOM     32  C   UNL A   1      40.441  26.212  26.679  1.00  0.00     0.010 A 
ATOM     33  C   UNL A   1      40.076  26.505  28.000  1.00  0.00    -0.014 A 
BRANCH  33  34
ATOM     34  C   UNL A   1      40.568  27.742  28.660  1.00  0.00     0.031 A 
ATOM     35  C   UNL A   1      41.988  27.870  29.123  1.00  0.00     0.074 A 
ATOM     36  C   UNL A   1      39.702  28.759  28.840  1.00  0.00     0.049 A 
ATOM     37  N   UNL A   1      42.584  28.911  29.646  1.00  0.00    -0.248 NA
ATOM     38  C   UNL A   1      42.853  26.687  28.990  1.00  0.00     0.031 C 
ATOM     39  C   UNL A   1      38.290  28.733  28.450  1.00  0.00     0.029 A 
ATOM     40  N   UNL A   1      39.876  30.014  29.370  1.00  0.00    -0.354 N 
ATOM     41  C   UNL A   1      43.895  28.521  29.886  1.00  0.00     0.074 A 
ATOM     42  C   UNL A   1      43.995  27.128  29.504  1.00  0.00     0.031 C 
ATOM     43  C   UNL A   1      37.742  29.929  28.707  1.00  0.00     0.029 A 
ATOM     44  C   UNL A   1      38.742  30.794  29.328  1.00  0.00     0.049 A 
ATOM     45  H   UNL A   1      40.731  30.326  29.747  1.00  0.00     0.167 HD
ATOM     46  C   UNL A   1      44.922  29.266  30.358  1.00  0.00     0.031 A 
ATOM     47  C   UNL A   1      38.525  32.062  29.735  1.00  0.00     0.031 A 
ATOM     48  C   UNL A   1      44.801  30.654  30.739  1.00  0.00     0.049 A 
ATOM     49  C   UNL A   1      39.673  32.851  30.302  1.00  0.00     0.074 A 
ATOM     50  C   UNL A   1      45.799  31.502  31.190  1.00  0.00     0.029 A 
ATOM     51  N   UNL A   1      43.629  31.395  30.723  1.00  0.00    -0.354 N 
ATOM     52  N   UNL A   1      40.927  32.492  30.442  1.00  0.00    -0.248 NA
ATOM     53  C   UNL A   1      39.387  34.222  30.751  1.00  0.00     0.031 C 
ATOM     54  C   UNL A   1      45.214  32.720  31.535  1.00  0.00     0.029 A 
ATOM     55  C   UNL A   1      43.871  32.675  31.197  1.00  0.00     0.049 A 
ATOM     56  H   UNL A   1      42.754  31.062  30.418  1.00  0.00     0.167 HD
ATOM     57  C   UNL A   1      41.584  33.600  30.969  1.00  0.00     0.074 A 
ATOM     58  C   UNL A   1      40.595  34.649  31.101  1.00  0.00     0.031 C 
ATOM     59  C   UNL A   1      42.888  33.726  31.318  1.00  0.00     0.031 A 
BRANCH  46  60
ATOM     60  C   UNL A   1      46.288  28.634  30.474  1.00  0.00    -0.014 A 
ATOM     61  C   UNL A   1      47.119  28.544  29.340  1.00  0.00     0.010 A 
ATOM     62  C   UNL A   1      46.677  27.975  31.655  1.00  0.00     0.010 A 
ATOM     63  C   UNL A   1      48.276  27.761  29.367  1.00  0.00     0.020 A 
ATOM     64  C   UNL A   1      47.853  27.220  31.696  1.00  0.00     0.020 A 
ATOM     65  C   UNL A   1      48.629  27.092  30.540  1.00  0.00     0.054 A 
BRANCH  65  66
ATOM     66  S   UNL A   1      50.090  26.016  30.529  1.00  0.00     0.124 S 
ATOM     67  O   UNL A   1      51.161  26.947  30.868  1.00  0.00    -0.237 OA
ATOM     68  O   UNL A   1      49.762  25.029  31.555  1.00  0.00    -0.237 OA
ATOM     69  O   UNL A   1      50.123  25.495  29.164  1.00  0.00    -0.744 OA
ENDBRANCH  65  66
ENDBRANCH  46  60
BRANCH  47  70
ATOM     70  C   UNL A   1      37.170  32.662  29.562  1.00  0.00    -0.014 A 
ATOM     71  C   UNL A   1      36.844  33.360  28.383  1.00  0.00     0.010 A 
ATOM     72  C   UNL A   1      36.227  32.615  30.604  1.00  0.00     0.010 A 
ATOM     73  C   UNL A   1      35.637  34.057  28.278  1.00  0.00     0.020 A 
ATOM     74  C   UNL A   1      34.999  33.275  30.485  1.00  0.00     0.020 A 
ATOM     75  C   UNL A   1      34.728  34.021  29.336  1.00  0.00     0.054 A 
BRANCH  75  76
ATOM     76  S   UNL A   1      33.203  34.993  29.202  1.00  0.00     0.124 S 
ATOM     77  O   UNL A   1      32.434  34.212  28.236  1.00  0.00    -0.237 OA
ATOM     78  O   UNL A   1      32.695  34.976  30.571  1.00  0.00    -0.237 OA
ATOM     79  O   UNL A   1      33.664  36.294  28.726  1.00  0.00    -0.744 OA
ENDBRANCH  75  76
ENDBRANCH  47  70
BRANCH  59  80
ATOM     80  C   UNL A   1      43.362  35.047  31.879  1.00  0.00    -0.014 A 
ATOM     81  C   UNL A   1      43.131  35.353  33.235  1.00  0.00     0.010 A 
ATOM     82  C   UNL A   1      43.887  36.045  31.039  1.00  0.00     0.010 A 
ATOM     83  C   UNL A   1      43.354  36.642  33.724  1.00  0.00     0.020 A 
ATOM     84  C   UNL A   1      44.153  37.325  31.535  1.00  0.00     0.020 A 
ATOM     85  C   UNL A   1      43.851  37.624  32.865  1.00  0.00     0.054 A 
BRANCH  85  86
ATOM     86  S   UNL A   1      44.064  39.310  33.500  1.00  0.00     0.124 S 
ATOM     87  O   UNL A   1      44.836  39.945  32.436  1.00  0.00    -0.237 OA
ATOM     88  O   UNL A   1      42.686  39.774  33.642  1.00  0.00    -0.237 OA
ATOM     89  O   UNL A   1      44.781  39.118  34.759  1.00  0.00    -0.744 OA
ENDBRANCH  85  86
ENDBRANCH  59  80
ENDBRANCH  33  34
ENDBRANCH  26  28
ENDBRANCH  25  26
ENDBRANCH  24  25
ENDBRANCH   1  24
TORSDOF 19
ENDMDL
