MODEL 1
REMARK VINA RESULT:     -10.8      0.000      0.000
REMARK SMILES C[NH+]1CCC(NC(=O)N[C@H]2C=C[C@H](C(=O)OCCOCCOC(=O)c3ccc(-c4c5nc(c(-c6ccc(S(=O)(=O)[O-])cc6)c6ccc([nH]6)c(-c6ccc(S(=O)(=O)[O-])cc6)c6nc(c(-c7ccc(S(=O)(=O)[O-])cc7)c7ccc4[nH]7)C=C6)C=C5)cc3)C2)CC1
REMARK SMILES IDX 20 1 19 2 18 3 17 4 16 5 14 6 15 7 13 8 10 9 11 10 85 11
REMARK SMILES IDX 12 12 9 13 6 14 7 15 8 17 5 19 1 20 2 21 3 22 87 23 4 25
REMARK SMILES IDX 86 26 21 27 22 28 23 29 24 30 25 31 26 32 84 33 27 34 83 35
REMARK SMILES IDX 28 36 29 37 30 38 77 39 31 40 82 41 76 42 78 43 32 44 81 45
REMARK SMILES IDX 75 46 74 47 33 49 63 50 44 51 62 52 45 53 48 54 61 55 79 56
REMARK SMILES IDX 46 57 47 58 60 60 80 61 49 62 34 63 35 64 43 65 36 66 42 67
REMARK SMILES IDX 37 68 38 69 39 70 40 71 41 72 64 73 65 74 73 75 66 76 72 77
REMARK SMILES IDX 67 78 68 79 69 80 70 81 71 82 50 83 51 84 59 85 52 86 58 87
REMARK SMILES IDX 53 88 54 89 55 90 56 91 57 92
REMARK H PARENT 6 16 9 18 2 24 78 48 48 59
REMARK Flexibility Score: inf
ROOT
ATOM      1  C   UNL A   1      39.943  22.447  26.908  1.00  0.00     0.202 C 
ENDROOT
BRANCH   1   2
ATOM      2  O   UNL A   1      38.650  22.463  26.300  1.00  0.00    -0.374 OA
BRANCH   2   3
ATOM      3  C   UNL A   1      38.394  21.401  25.378  1.00  0.00     0.202 C 
BRANCH   3   4
ATOM      4  C   UNL A   1      36.918  21.237  25.007  1.00  0.00     0.261 C 
BRANCH   4   5
ATOM      5  O   UNL A   1      36.257  22.506  25.059  1.00  0.00    -0.463 OA
BRANCH   5   6
ATOM      6  C   UNL A   1      35.515  22.877  23.971  1.00  0.00     0.312 C 
ATOM      7  O   UNL A   1      35.934  23.086  22.844  1.00  0.00    -0.252 OA
BRANCH   6   8
ATOM      8  C   UNL A   1      34.060  22.916  24.403  1.00  0.00     0.124 C 
ATOM      9  C   UNL A   1      32.709  21.871  26.166  1.00  0.00     0.107 C 
ATOM     10  C   UNL A   1      32.426  21.283  24.829  1.00  0.00    -0.006 C 
ATOM     11  C   UNL A   1      33.841  22.875  25.931  1.00  0.00     0.048 C 
ATOM     12  C   UNL A   1      33.207  21.806  23.876  1.00  0.00    -0.014 C 
BRANCH   9  13
ATOM     13  N   UNL A   1      31.501  22.290  26.866  1.00  0.00    -0.332 N 
ATOM     14  N   UNL A   1      30.280  24.103  25.907  1.00  0.00    -0.335 N 
ATOM     15  C   UNL A   1      30.460  23.122  26.793  1.00  0.00     0.315 C 
ATOM     16  H   UNL A   1      29.375  24.492  25.927  1.00  0.00     0.165 HD
ATOM     17  O   UNL A   1      29.570  22.956  27.634  1.00  0.00    -0.249 OA
ATOM     18  H   UNL A   1      31.427  21.770  27.698  1.00  0.00     0.165 HD
BRANCH  14  19
ATOM     19  C   UNL A   1      31.149  24.706  24.928  1.00  0.00     0.095 C 
ATOM     20  C   UNL A   1      33.297  26.805  21.976  1.00  0.00     0.332 C 
ATOM     21  N   UNL A   1      32.156  26.453  22.833  1.00  0.00    -0.337 N 
ATOM     22  C   UNL A   1      32.502  26.684  24.240  1.00  0.00     0.264 C 
ATOM     23  C   UNL A   1      31.707  25.087  22.523  1.00  0.00     0.264 C 
ATOM     24  H   UNL A   1      31.354  27.055  22.644  1.00  0.00     0.347 HD
ATOM     25  C   UNL A   1      31.435  26.176  25.212  1.00  0.00     0.086 C 
ATOM     26  C   UNL A   1      30.653  24.551  23.498  1.00  0.00     0.086 C 
ENDBRANCH  14  19
ENDBRANCH   9  13
ENDBRANCH   6   8
ENDBRANCH   5   6
ENDBRANCH   4   5
ENDBRANCH   3   4
ENDBRANCH   2   3
ENDBRANCH   1   2
BRANCH   1  27
ATOM     27  C   UNL A   1      40.704  23.774  26.867  1.00  0.00     0.261 C 
BRANCH  27  28
ATOM     28  O   UNL A   1      39.794  24.882  26.799  1.00  0.00    -0.460 OA
BRANCH  28  29
ATOM     29  C   UNL A   1      40.399  26.080  26.607  1.00  0.00     0.338 C 
ATOM     30  O   UNL A   1      40.975  26.463  25.606  1.00  0.00    -0.246 OA
BRANCH  29  31
ATOM     31  C   UNL A   1      40.105  26.963  27.749  1.00  0.00     0.060 A 
ATOM     32  C   UNL A   1      40.695  28.232  27.745  1.00  0.00     0.016 A 
ATOM     33  C   UNL A   1      39.324  26.541  28.828  1.00  0.00     0.016 A 
ATOM     34  C   UNL A   1      40.563  29.063  28.852  1.00  0.00     0.010 A 
ATOM     35  C   UNL A   1      39.194  27.377  29.940  1.00  0.00     0.010 A 
ATOM     36  C   UNL A   1      39.849  28.621  29.973  1.00  0.00    -0.014 A 
BRANCH  36  37
ATOM     37  C   UNL A   1      39.918  29.400  31.231  1.00  0.00     0.031 A 
ATOM     38  C   UNL A   1      41.045  29.132  32.192  1.00  0.00     0.074 A 
ATOM     39  C   UNL A   1      39.012  30.358  31.492  1.00  0.00     0.049 A 
ATOM     40  N   UNL A   1      41.291  29.682  33.352  1.00  0.00    -0.248 NA
ATOM     41  C   UNL A   1      42.026  28.109  31.792  1.00  0.00     0.031 C 
ATOM     42  C   UNL A   1      37.905  30.736  30.612  1.00  0.00     0.029 A 
ATOM     43  N   UNL A   1      38.882  31.190  32.574  1.00  0.00    -0.354 N 
ATOM     44  C   UNL A   1      42.444  29.068  33.826  1.00  0.00     0.074 A 
ATOM     45  C   UNL A   1      42.830  28.078  32.844  1.00  0.00     0.031 C 
ATOM     46  C   UNL A   1      37.209  31.729  31.192  1.00  0.00     0.029 A 
ATOM     47  C   UNL A   1      37.796  32.027  32.497  1.00  0.00     0.049 A 
ATOM     48  H   UNL A   1      39.509  31.188  33.334  1.00  0.00     0.167 HD
ATOM     49  C   UNL A   1      43.124  29.311  34.971  1.00  0.00     0.031 A 
ATOM     50  C   UNL A   1      37.318  32.918  33.388  1.00  0.00     0.031 A 
ATOM     51  C   UNL A   1      42.725  30.289  35.949  1.00  0.00     0.049 A 
ATOM     52  C   UNL A   1      38.047  33.115  34.691  1.00  0.00     0.074 A 
ATOM     53  C   UNL A   1      43.350  30.622  37.138  1.00  0.00     0.029 A 
ATOM     54  N   UNL A   1      41.593  31.086  35.856  1.00  0.00    -0.354 N 
ATOM     55  N   UNL A   1      39.148  32.540  35.115  1.00  0.00    -0.248 NA
ATOM     56  C   UNL A   1      37.474  34.089  35.630  1.00  0.00     0.031 C 
ATOM     57  C   UNL A   1      42.561  31.572  37.794  1.00  0.00     0.029 A 
ATOM     58  C   UNL A   1      41.486  31.888  36.980  1.00  0.00     0.049 A 
ATOM     59  H   UNL A   1      40.959  31.081  35.102  1.00  0.00     0.167 HD
ATOM     60  C   UNL A   1      39.416  33.106  36.358  1.00  0.00     0.074 A 
ATOM     61  C   UNL A   1      38.370  34.078  36.606  1.00  0.00     0.031 C 
ATOM     62  C   UNL A   1      40.435  32.848  37.214  1.00  0.00     0.031 A 
BRANCH  49  63
ATOM     63  C   UNL A   1      44.351  28.480  35.246  1.00  0.00    -0.014 A 
ATOM     64  C   UNL A   1      44.268  27.254  35.931  1.00  0.00     0.010 A 
ATOM     65  C   UNL A   1      45.605  28.914  34.775  1.00  0.00     0.010 A 
ATOM     66  C   UNL A   1      45.420  26.498  36.173  1.00  0.00     0.020 A 
ATOM     67  C   UNL A   1      46.754  28.147  34.988  1.00  0.00     0.020 A 
ATOM     68  C   UNL A   1      46.655  26.950  35.700  1.00  0.00     0.054 A 
BRANCH  68  69
ATOM     69  S   UNL A   1      48.127  25.936  36.008  1.00  0.00     0.124 S 
ATOM     70  O   UNL A   1      49.041  26.411  34.972  1.00  0.00    -0.237 OA
ATOM     71  O   UNL A   1      48.484  26.299  37.376  1.00  0.00    -0.237 OA
ATOM     72  O   UNL A   1      47.649  24.566  35.833  1.00  0.00    -0.744 OA
ENDBRANCH  68  69
ENDBRANCH  49  63
BRANCH  50  73
ATOM     73  C   UNL A   1      36.077  33.680  33.081  1.00  0.00    -0.014 A 
ATOM     74  C   UNL A   1      34.812  33.145  33.381  1.00  0.00     0.010 A 
ATOM     75  C   UNL A   1      36.156  34.954  32.487  1.00  0.00     0.010 A 
ATOM     76  C   UNL A   1      33.650  33.863  33.079  1.00  0.00     0.020 A 
ATOM     77  C   UNL A   1      34.999  35.688  32.214  1.00  0.00     0.020 A 
ATOM     78  C   UNL A   1      33.752  35.132  32.502  1.00  0.00     0.054 A 
BRANCH  78  79
ATOM     79  S   UNL A   1      32.233  36.067  32.171  1.00  0.00     0.124 S 
ATOM     80  O   UNL A   1      31.199  35.095  32.511  1.00  0.00    -0.237 OA
ATOM     81  O   UNL A   1      32.361  37.202  33.082  1.00  0.00    -0.237 OA
ATOM     82  O   UNL A   1      32.339  36.402  30.753  1.00  0.00    -0.744 OA
ENDBRANCH  78  79
ENDBRANCH  50  73
BRANCH  62  83
ATOM     83  C   UNL A   1      40.497  33.657  38.485  1.00  0.00    -0.014 A 
ATOM     84  C   UNL A   1      39.915  33.196  39.679  1.00  0.00     0.010 A 
ATOM     85  C   UNL A   1      41.193  34.880  38.492  1.00  0.00     0.010 A 
ATOM     86  C   UNL A   1      39.996  33.960  40.846  1.00  0.00     0.020 A 
ATOM     87  C   UNL A   1      41.305  35.632  39.665  1.00  0.00     0.020 A 
ATOM     88  C   UNL A   1      40.691  35.175  40.832  1.00  0.00     0.054 A 
BRANCH  88  89
ATOM     89  S   UNL A   1      40.810  36.130  42.368  1.00  0.00     0.124 S 
ATOM     90  O   UNL A   1      41.964  36.986  42.105  1.00  0.00    -0.237 OA
ATOM     91  O   UNL A   1      39.520  36.813  42.421  1.00  0.00    -0.237 OA
ATOM     92  O   UNL A   1      41.011  35.111  43.395  1.00  0.00    -0.744 OA
ENDBRANCH  88  89
ENDBRANCH  62  83
ENDBRANCH  36  37
ENDBRANCH  29  31
ENDBRANCH  28  29
ENDBRANCH  27  28
ENDBRANCH   1  27
TORSDOF 19
ENDMDL
MODEL 2
REMARK VINA RESULT:     -10.4      6.837     12.679
REMARK SMILES C[NH+]1CCC(NC(=O)N[C@H]2C=C[C@H](C(=O)OCCOCCOC(=O)c3ccc(-c4c5nc(c(-c6ccc(S(=O)(=O)[O-])cc6)c6ccc([nH]6)c(-c6ccc(S(=O)(=O)[O-])cc6)c6nc(c(-c7ccc(S(=O)(=O)[O-])cc7)c7ccc4[nH]7)C=C6)C=C5)cc3)C2)CC1
REMARK SMILES IDX 20 1 19 2 18 3 17 4 16 5 14 6 15 7 13 8 10 9 11 10 85 11
REMARK SMILES IDX 12 12 9 13 6 14 7 15 8 17 5 19 1 20 2 21 3 22 87 23 4 25
REMARK SMILES IDX 86 26 21 27 22 28 23 29 24 30 25 31 26 32 84 33 27 34 83 35
REMARK SMILES IDX 28 36 29 37 30 38 77 39 31 40 82 41 76 42 78 43 32 44 81 45
REMARK SMILES IDX 75 46 74 47 33 49 63 50 44 51 62 52 45 53 48 54 61 55 79 56
REMARK SMILES IDX 46 57 47 58 60 60 80 61 49 62 34 63 35 64 43 65 36 66 42 67
REMARK SMILES IDX 37 68 38 69 39 70 40 71 41 72 64 73 65 74 73 75 66 76 72 77
REMARK SMILES IDX 67 78 68 79 69 80 70 81 71 82 50 83 51 84 59 85 52 86 58 87
REMARK SMILES IDX 53 88 54 89 55 90 56 91 57 92
REMARK H PARENT 6 16 9 18 2 24 78 48 48 59
REMARK Flexibility Score: inf
ROOT
ATOM      1  C   UNL A   1      35.161  32.070  28.364  1.00  0.00     0.202 C 
ENDROOT
BRANCH   1   2
ATOM      2  O   UNL A   1      33.880  31.780  27.802  1.00  0.00    -0.374 OA
BRANCH   2   3
ATOM      3  C   UNL A   1      33.838  30.652  26.924  1.00  0.00     0.202 C 
BRANCH   3   4
ATOM      4  C   UNL A   1      32.855  29.561  27.353  1.00  0.00     0.261 C 
BRANCH   4   5
ATOM      5  O   UNL A   1      32.842  28.506  26.384  1.00  0.00    -0.463 OA
BRANCH   5   6
ATOM      6  C   UNL A   1      31.798  27.624  26.424  1.00  0.00     0.312 C 
ATOM      7  O   UNL A   1      31.013  27.470  27.345  1.00  0.00    -0.252 OA
BRANCH   6   8
ATOM      8  C   UNL A   1      31.749  26.915  25.082  1.00  0.00     0.124 C 
ATOM      9  C   UNL A   1      32.013  27.561  22.729  1.00  0.00     0.107 C 
ATOM     10  C   UNL A   1      30.593  27.280  23.070  1.00  0.00    -0.006 C 
ATOM     11  C   UNL A   1      32.778  27.422  24.049  1.00  0.00     0.048 C 
ATOM     12  C   UNL A   1      30.437  26.990  24.367  1.00  0.00    -0.014 C 
BRANCH   9  13
ATOM     13  N   UNL A   1      32.466  26.835  21.548  1.00  0.00    -0.332 N 
ATOM     14  N   UNL A   1      32.593  24.459  21.734  1.00  0.00    -0.335 N 
ATOM     15  C   UNL A   1      32.662  25.609  21.060  1.00  0.00     0.315 C 
ATOM     16  H   UNL A   1      32.613  23.661  21.157  1.00  0.00     0.165 HD
ATOM     17  O   UNL A   1      32.931  25.537  19.856  1.00  0.00    -0.249 OA
ATOM     18  H   UNL A   1      32.721  27.489  20.859  1.00  0.00     0.165 HD
BRANCH  14  19
ATOM     19  C   UNL A   1      32.495  24.155  23.139  1.00  0.00     0.095 C 
ATOM     20  C   UNL A   1      32.257  22.763  27.107  1.00  0.00     0.332 C 
ATOM     21  N   UNL A   1      32.355  22.682  25.643  1.00  0.00    -0.337 N 
ATOM     22  C   UNL A   1      33.612  23.293  25.195  1.00  0.00     0.264 C 
ATOM     23  C   UNL A   1      31.142  23.247  25.033  1.00  0.00     0.264 C 
ATOM     24  H   UNL A   1      32.393  21.712  25.330  1.00  0.00     0.347 HD
ATOM     25  C   UNL A   1      33.713  23.410  23.673  1.00  0.00     0.086 C 
ATOM     26  C   UNL A   1      31.231  23.393  23.511  1.00  0.00     0.086 C 
ENDBRANCH  14  19
ENDBRANCH   9  13
ENDBRANCH   6   8
ENDBRANCH   5   6
ENDBRANCH   4   5
ENDBRANCH   3   4
ENDBRANCH   2   3
ENDBRANCH   1   2
BRANCH   1  27
ATOM     27  C   UNL A   1      35.606  31.142  29.496  1.00  0.00     0.261 C 
BRANCH  27  28
ATOM     28  O   UNL A   1      36.412  30.068  28.990  1.00  0.00    -0.460 OA
BRANCH  28  29
ATOM     29  C   UNL A   1      37.120  29.413  29.943  1.00  0.00     0.338 C 
ATOM     30  O   UNL A   1      36.733  29.077  31.046  1.00  0.00    -0.246 OA
BRANCH  29  31
ATOM     31  C   UNL A   1      38.414  28.986  29.383  1.00  0.00     0.060 A 
ATOM     32  C   UNL A   1      39.337  28.417  30.268  1.00  0.00     0.016 A 
ATOM     33  C   UNL A   1      38.743  29.193  28.041  1.00  0.00     0.016 A 
ATOM     34  C   UNL A   1      40.621  28.113  29.830  1.00  0.00     0.010 A 
ATOM     35  C   UNL A   1      40.035  28.889  27.604  1.00  0.00     0.010 A 
ATOM     36  C   UNL A   1      40.990  28.389  28.507  1.00  0.00    -0.014 A 
BRANCH  36  37
ATOM     37  C   UNL A   1      42.416  28.295  28.117  1.00  0.00     0.031 A 
ATOM     38  C   UNL A   1      43.315  29.478  28.353  1.00  0.00     0.074 A 
ATOM     39  C   UNL A   1      42.907  27.157  27.596  1.00  0.00     0.049 A 
ATOM     40  N   UNL A   1      44.585  29.620  28.076  1.00  0.00    -0.248 NA
ATOM     41  C   UNL A   1      42.703  30.658  28.986  1.00  0.00     0.031 C 
ATOM     42  C   UNL A   1      42.140  25.933  27.366  1.00  0.00     0.029 A 
ATOM     43  N   UNL A   1      44.173  26.848  27.169  1.00  0.00    -0.354 N 
ATOM     44  C   UNL A   1      44.921  30.904  28.489  1.00  0.00     0.074 A 
ATOM     45  C   UNL A   1      43.715  31.513  29.004  1.00  0.00     0.031 C 
ATOM     46  C   UNL A   1      42.954  25.002  26.840  1.00  0.00     0.029 A 
ATOM     47  C   UNL A   1      44.285  25.577  26.659  1.00  0.00     0.049 A 
ATOM     48  H   UNL A   1      44.929  27.476  27.223  1.00  0.00     0.167 HD
ATOM     49  C   UNL A   1      46.128  31.517  28.450  1.00  0.00     0.031 A 
ATOM     50  C   UNL A   1      45.338  24.956  26.092  1.00  0.00     0.031 A 
ATOM     51  C   UNL A   1      47.321  30.908  27.924  1.00  0.00     0.049 A 
ATOM     52  C   UNL A   1      46.651  25.687  25.988  1.00  0.00     0.074 A 
ATOM     53  C   UNL A   1      48.597  31.439  27.848  1.00  0.00     0.029 A 
ATOM     54  N   UNL A   1      47.385  29.635  27.375  1.00  0.00    -0.354 N 
ATOM     55  N   UNL A   1      46.959  26.894  26.401  1.00  0.00    -0.248 NA
ATOM     56  C   UNL A   1      47.761  24.967  25.349  1.00  0.00     0.031 C 
ATOM     57  C   UNL A   1      49.417  30.513  27.195  1.00  0.00     0.029 A 
ATOM     58  C   UNL A   1      48.671  29.375  26.931  1.00  0.00     0.049 A 
ATOM     59  H   UNL A   1      46.627  29.010  27.310  1.00  0.00     0.167 HD
ATOM     60  C   UNL A   1      48.307  27.066  26.100  1.00  0.00     0.074 A 
ATOM     61  C   UNL A   1      48.755  25.833  25.486  1.00  0.00     0.031 C 
ATOM     62  C   UNL A   1      49.101  28.143  26.317  1.00  0.00     0.031 A 
BRANCH  49  63
ATOM     63  C   UNL A   1      46.209  32.933  28.959  1.00  0.00    -0.014 A 
ATOM     64  C   UNL A   1      46.522  33.214  30.302  1.00  0.00     0.010 A 
ATOM     65  C   UNL A   1      46.007  34.005  28.068  1.00  0.00     0.010 A 
ATOM     66  C   UNL A   1      46.593  34.536  30.752  1.00  0.00     0.020 A 
ATOM     67  C   UNL A   1      46.107  35.328  28.507  1.00  0.00     0.020 A 
ATOM     68  C   UNL A   1      46.385  35.585  29.851  1.00  0.00     0.054 A 
BRANCH  68  69
ATOM     69  S   UNL A   1      46.508  37.289  30.459  1.00  0.00     0.124 S 
ATOM     70  O   UNL A   1      45.277  37.882  29.942  1.00  0.00    -0.237 OA
ATOM     71  O   UNL A   1      46.560  37.108  31.906  1.00  0.00    -0.237 OA
ATOM     72  O   UNL A   1      47.740  37.787  29.851  1.00  0.00    -0.744 OA
ENDBRANCH  68  69
ENDBRANCH  49  63
BRANCH  50  73
ATOM     73  C   UNL A   1      45.189  23.571  25.568  1.00  0.00    -0.014 A 
ATOM     74  C   UNL A   1      45.484  22.460  26.378  1.00  0.00     0.010 A 
ATOM     75  C   UNL A   1      44.743  23.356  24.250  1.00  0.00     0.010 A 
ATOM     76  C   UNL A   1      45.352  21.162  25.875  1.00  0.00     0.020 A 
ATOM     77  C   UNL A   1      44.578  22.061  23.755  1.00  0.00     0.020 A 
ATOM     78  C   UNL A   1      44.895  20.971  24.567  1.00  0.00     0.054 A 
BRANCH  78  79
ATOM     79  S   UNL A   1      44.677  19.277  23.956  1.00  0.00     0.124 S 
ATOM     80  O   UNL A   1      44.453  19.496  22.530  1.00  0.00    -0.237 OA
ATOM     81  O   UNL A   1      45.950  18.652  24.309  1.00  0.00    -0.237 OA
ATOM     82  O   UNL A   1      43.523  18.788  24.706  1.00  0.00    -0.744 OA
ENDBRANCH  78  79
ENDBRANCH  50  73
BRANCH  62  83
ATOM     83  C   UNL A   1      50.552  28.027  25.923  1.00  0.00    -0.014 A 
ATOM     84  C   UNL A   1      51.519  27.537  26.818  1.00  0.00     0.010 A 
ATOM     85  C   UNL A   1      50.943  28.373  24.615  1.00  0.00     0.010 A 
ATOM     86  C   UNL A   1      52.856  27.430  26.425  1.00  0.00     0.020 A 
ATOM     87  C   UNL A   1      52.272  28.236  24.207  1.00  0.00     0.020 A 
ATOM     88  C   UNL A   1      53.224  27.781  25.121  1.00  0.00     0.054 A 
BRANCH  88  89
ATOM     89  S   UNL A   1      54.959  27.599  24.626  1.00  0.00     0.124 S 
ATOM     90  O   UNL A   1      55.065  26.158  24.411  1.00  0.00    -0.237 OA
ATOM     91  O   UNL A   1      55.036  28.422  23.422  1.00  0.00    -0.237 OA
ATOM     92  O   UNL A   1      55.703  28.113  25.774  1.00  0.00    -0.744 OA
ENDBRANCH  88  89
ENDBRANCH  62  83
ENDBRANCH  36  37
ENDBRANCH  29  31
ENDBRANCH  28  29
ENDBRANCH  27  28
ENDBRANCH   1  27
TORSDOF 19
ENDMDL
MODEL 3
REMARK VINA RESULT:     -10.4      1.820      2.767
REMARK SMILES C[NH+]1CCC(NC(=O)N[C@H]2C=C[C@H](C(=O)OCCOCCOC(=O)c3ccc(-c4c5nc(c(-c6ccc(S(=O)(=O)[O-])cc6)c6ccc([nH]6)c(-c6ccc(S(=O)(=O)[O-])cc6)c6nc(c(-c7ccc(S(=O)(=O)[O-])cc7)c7ccc4[nH]7)C=C6)C=C5)cc3)C2)CC1
REMARK SMILES IDX 20 1 19 2 18 3 17 4 16 5 14 6 15 7 13 8 10 9 11 10 85 11
REMARK SMILES IDX 12 12 9 13 6 14 7 15 8 17 5 19 1 20 2 21 3 22 87 23 4 25
REMARK SMILES IDX 86 26 21 27 22 28 23 29 24 30 25 31 26 32 84 33 27 34 83 35
REMARK SMILES IDX 28 36 29 37 30 38 77 39 31 40 82 41 76 42 78 43 32 44 81 45
REMARK SMILES IDX 75 46 74 47 33 49 63 50 44 51 62 52 45 53 48 54 61 55 79 56
REMARK SMILES IDX 46 57 47 58 60 60 80 61 49 62 34 63 35 64 43 65 36 66 42 67
REMARK SMILES IDX 37 68 38 69 39 70 40 71 41 72 64 73 65 74 73 75 66 76 72 77
REMARK SMILES IDX 67 78 68 79 69 80 70 81 71 82 50 83 51 84 59 85 52 86 58 87
REMARK SMILES IDX 53 88 54 89 55 90 56 91 57 92
REMARK H PARENT 6 16 9 18 2 24 78 48 48 59
REMARK Flexibility Score: inf
ROOT
ATOM      1  C   UNL A   1      39.795  21.486  26.504  1.00  0.00     0.202 C 
ENDROOT
BRANCH   1   2
ATOM      2  O   UNL A   1      38.776  20.856  25.727  1.00  0.00    -0.374 OA
BRANCH   2   3
ATOM      3  C   UNL A   1      37.818  21.741  25.141  1.00  0.00     0.202 C 
BRANCH   3   4
ATOM      4  C   UNL A   1      36.426  21.666  25.772  1.00  0.00     0.261 C 
BRANCH   4   5
ATOM      5  O   UNL A   1      35.522  20.999  24.884  1.00  0.00    -0.463 OA
BRANCH   5   6
ATOM      6  C   UNL A   1      34.182  21.179  25.094  1.00  0.00     0.312 C 
ATOM      7  O   UNL A   1      33.583  21.006  26.143  1.00  0.00    -0.252 OA
BRANCH   6   8
ATOM      8  C   UNL A   1      33.583  21.699  23.799  1.00  0.00     0.124 C 
ATOM      9  C   UNL A   1      32.823  23.872  22.949  1.00  0.00     0.107 C 
ATOM     10  C   UNL A   1      31.683  22.969  23.260  1.00  0.00    -0.006 C 
ATOM     11  C   UNL A   1      34.074  23.101  23.382  1.00  0.00     0.048 C 
ATOM     12  C   UNL A   1      32.091  21.808  23.784  1.00  0.00    -0.014 C 
BRANCH   9  13
ATOM     13  N   UNL A   1      32.747  24.437  21.607  1.00  0.00    -0.332 N 
ATOM     14  N   UNL A   1      32.903  26.813  21.433  1.00  0.00    -0.335 N 
ATOM     15  C   UNL A   1      32.831  25.581  20.925  1.00  0.00     0.315 C 
ATOM     16  H   UNL A   1      33.120  27.504  20.766  1.00  0.00     0.165 HD
ATOM     17  O   UNL A   1      32.850  25.481  19.693  1.00  0.00    -0.249 OA
ATOM     18  H   UNL A   1      32.566  23.708  20.971  1.00  0.00     0.165 HD
BRANCH  14  19
ATOM     19  C   UNL A   1      32.726  27.330  22.766  1.00  0.00     0.095 C 
ATOM     20  C   UNL A   1      31.868  29.182  26.450  1.00  0.00     0.332 C 
ATOM     21  N   UNL A   1      31.813  28.954  24.999  1.00  0.00    -0.337 N 
ATOM     22  C   UNL A   1      31.215  27.642  24.726  1.00  0.00     0.264 C 
ATOM     23  C   UNL A   1      33.146  29.159  24.415  1.00  0.00     0.264 C 
ATOM     24  H   UNL A   1      31.205  29.634  24.543  1.00  0.00     0.347 HD
ATOM     25  C   UNL A   1      31.281  27.249  23.248  1.00  0.00     0.086 C 
ATOM     26  C   UNL A   1      33.240  28.752  22.941  1.00  0.00     0.086 C 
ENDBRANCH  14  19
ENDBRANCH   9  13
ENDBRANCH   6   8
ENDBRANCH   5   6
ENDBRANCH   4   5
ENDBRANCH   3   4
ENDBRANCH   2   3
ENDBRANCH   1   2
BRANCH   1  27
ATOM     27  C   UNL A   1      39.863  23.010  26.386  1.00  0.00     0.261 C 
BRANCH  27  28
ATOM     28  O   UNL A   1      40.783  23.556  27.343  1.00  0.00    -0.460 OA
BRANCH  28  29
ATOM     29  C   UNL A   1      41.400  24.691  26.929  1.00  0.00     0.338 C 
ATOM     30  O   UNL A   1      42.068  24.841  25.924  1.00  0.00    -0.246 OA
BRANCH  29  31
ATOM     31  C   UNL A   1      40.995  25.811  27.797  1.00  0.00     0.060 A 
ATOM     32  C   UNL A   1      41.825  26.937  27.817  1.00  0.00     0.016 A 
ATOM     33  C   UNL A   1      39.866  25.739  28.616  1.00  0.00     0.016 A 
ATOM     34  C   UNL A   1      41.568  27.972  28.709  1.00  0.00     0.010 A 
ATOM     35  C   UNL A   1      39.611  26.780  29.514  1.00  0.00     0.010 A 
ATOM     36  C   UNL A   1      40.486  27.878  29.593  1.00  0.00    -0.014 A 
BRANCH  36  37
ATOM     37  C   UNL A   1      40.363  28.857  30.698  1.00  0.00     0.031 A 
ATOM     38  C   UNL A   1      41.282  28.736  31.883  1.00  0.00     0.074 A 
ATOM     39  C   UNL A   1      39.472  29.861  30.624  1.00  0.00     0.049 A 
ATOM     40  N   UNL A   1      41.339  29.471  32.963  1.00  0.00    -0.248 NA
ATOM     41  C   UNL A   1      42.268  27.643  31.846  1.00  0.00     0.031 C 
ATOM     42  C   UNL A   1      38.564  30.104  29.503  1.00  0.00     0.029 A 
ATOM     43  N   UNL A   1      39.189  30.867  31.512  1.00  0.00    -0.354 N 
ATOM     44  C   UNL A   1      42.356  28.925  33.738  1.00  0.00     0.074 A 
ATOM     45  C   UNL A   1      42.866  27.777  33.021  1.00  0.00     0.031 C 
ATOM     46  C   UNL A   1      37.823  31.193  29.772  1.00  0.00     0.029 A 
ATOM     47  C   UNL A   1      38.177  31.697  31.097  1.00  0.00     0.049 A 
ATOM     48  H   UNL A   1      39.666  30.982  32.366  1.00  0.00     0.167 HD
ATOM     49  C   UNL A   1      42.828  29.347  34.936  1.00  0.00     0.031 A 
ATOM     50  C   UNL A   1      37.588  32.735  31.725  1.00  0.00     0.031 A 
ATOM     51  C   UNL A   1      42.305  30.483  35.648  1.00  0.00     0.049 A 
ATOM     52  C   UNL A   1      38.077  33.136  33.092  1.00  0.00     0.074 A 
ATOM     53  C   UNL A   1      42.720  31.001  36.863  1.00  0.00     0.029 A 
ATOM     54  N   UNL A   1      41.250  31.273  35.216  1.00  0.00    -0.354 N 
ATOM     55  N   UNL A   1      39.053  32.623  33.803  1.00  0.00    -0.248 NA
ATOM     56  C   UNL A   1      37.391  34.265  33.735  1.00  0.00     0.031 C 
ATOM     57  C   UNL A   1      41.872  32.063  37.196  1.00  0.00     0.029 A 
ATOM     58  C   UNL A   1      40.979  32.255  36.154  1.00  0.00     0.049 A 
ATOM     59  H   UNL A   1      40.764  31.151  34.368  1.00  0.00     0.167 HD
ATOM     60  C   UNL A   1      39.118  33.387  34.965  1.00  0.00     0.074 A 
ATOM     61  C   UNL A   1      38.094  34.404  34.851  1.00  0.00     0.031 C 
ATOM     62  C   UNL A   1      39.951  33.259  36.028  1.00  0.00     0.031 A 
BRANCH  49  63
ATOM     63  C   UNL A   1      43.942  28.552  35.567  1.00  0.00    -0.014 A 
ATOM     64  C   UNL A   1      45.293  28.865  35.327  1.00  0.00     0.010 A 
ATOM     65  C   UNL A   1      43.632  27.498  36.448  1.00  0.00     0.010 A 
ATOM     66  C   UNL A   1      46.311  28.115  35.925  1.00  0.00     0.020 A 
ATOM     67  C   UNL A   1      44.647  26.766  37.072  1.00  0.00     0.020 A 
ATOM     68  C   UNL A   1      45.981  27.070  36.793  1.00  0.00     0.054 A 
BRANCH  68  69
ATOM     69  S   UNL A   1      47.323  26.132  37.573  1.00  0.00     0.124 S 
ATOM     70  O   UNL A   1      47.122  26.440  38.987  1.00  0.00    -0.237 OA
ATOM     71  O   UNL A   1      47.022  24.759  37.180  1.00  0.00    -0.237 OA
ATOM     72  O   UNL A   1      48.533  26.697  36.981  1.00  0.00    -0.744 OA
ENDBRANCH  68  69
ENDBRANCH  49  63
BRANCH  50  73
ATOM     73  C   UNL A   1      36.463  33.456  31.071  1.00  0.00    -0.014 A 
ATOM     74  C   UNL A   1      35.289  33.754  31.785  1.00  0.00     0.010 A 
ATOM     75  C   UNL A   1      36.563  33.853  29.724  1.00  0.00     0.010 A 
ATOM     76  C   UNL A   1      34.231  34.422  31.160  1.00  0.00     0.020 A 
ATOM     77  C   UNL A   1      35.521  34.549  29.106  1.00  0.00     0.020 A 
ATOM     78  C   UNL A   1      34.356  34.820  29.826  1.00  0.00     0.054 A 
BRANCH  78  79
ATOM     79  S   UNL A   1      32.994  35.734  29.054  1.00  0.00     0.124 S 
ATOM     80  O   UNL A   1      32.193  36.121  30.212  1.00  0.00    -0.237 OA
ATOM     81  O   UNL A   1      33.692  36.822  28.374  1.00  0.00    -0.237 OA
ATOM     82  O   UNL A   1      32.379  34.749  28.167  1.00  0.00    -0.744 OA
ENDBRANCH  78  79
ENDBRANCH  50  73
BRANCH  62  83
ATOM     83  C   UNL A   1      39.821  34.270  37.139  1.00  0.00    -0.014 A 
ATOM     84  C   UNL A   1      40.448  35.527  37.066  1.00  0.00     0.010 A 
ATOM     85  C   UNL A   1      39.015  33.971  38.254  1.00  0.00     0.010 A 
ATOM     86  C   UNL A   1      40.303  36.450  38.105  1.00  0.00     0.020 A 
ATOM     87  C   UNL A   1      38.840  34.904  39.279  1.00  0.00     0.020 A 
ATOM     88  C   UNL A   1      39.499  36.133  39.206  1.00  0.00     0.054 A 
BRANCH  88  89
ATOM     89  S   UNL A   1      39.300  37.362  40.523  1.00  0.00     0.124 S 
ATOM     90  O   UNL A   1      38.229  38.203  39.995  1.00  0.00    -0.237 OA
ATOM     91  O   UNL A   1      38.943  36.540  41.677  1.00  0.00    -0.237 OA
ATOM     92  O   UNL A   1      40.611  38.001  40.603  1.00  0.00    -0.744 OA
ENDBRANCH  88  89
ENDBRANCH  62  83
ENDBRANCH  36  37
ENDBRANCH  29  31
ENDBRANCH  28  29
ENDBRANCH  27  28
ENDBRANCH   1  27
TORSDOF 19
ENDMDL
