MODEL 1
REMARK VINA RESULT:     -12.0      0.000      0.000
REMARK SMILES O=C(OCCOCCOC(=O)[C@@H]1CC2(CC[NH2+]CC2)C[N@@H+]1Cc1cccc2nonc12)c1ccc(-c2c3nc(c(-c4ccc(S(=O)(=O)[O-])cc4)c4ccc([nH]4)c(-c4ccc(S(=O)(=O)[O-])cc4)c4nc(c(-c5ccc(S(=O)(=O)[O-])cc5)c5ccc2[nH]5)C=C4)C=C3)cc1
REMARK SMILES IDX 5 1 4 2 3 3 2 4 1 5 32 6 33 7 91 8 34 9 90 10 35 11 36 12
REMARK SMILES IDX 37 13 84 14 38 15 89 16 83 17 85 18 39 19 88 20 82 21 81 22
REMARK SMILES IDX 40 24 70 25 51 26 69 27 52 28 55 29 68 30 86 31 53 32 54 33
REMARK SMILES IDX 67 35 87 36 56 37 41 38 42 39 50 40 43 41 49 42 44 43 45 44
REMARK SMILES IDX 46 45 47 46 48 47 71 48 72 49 80 50 73 51 79 52 74 53 75 54
REMARK SMILES IDX 76 55 77 56 78 57 57 58 58 59 66 60 59 61 65 62 60 63 61 64
REMARK SMILES IDX 62 65 63 66 64 67 6 68 7 69 8 70 9 71 10 72 11 73 12 74
REMARK SMILES IDX 13 75 21 76 14 77 20 78 15 80 19 81 16 82 18 83 17 84 22 87
REMARK SMILES IDX 23 88 24 89 31 90 25 91 27 92 30 93 26 94 28 95 29 96
REMARK H PARENT 85 23 55 34 21 79 17 85 17 86
REMARK Flexibility Score: inf
ROOT
ATOM      1  C   UNL A   1      31.845  28.262  24.097  1.00  0.00     0.202 C 
ENDROOT
BRANCH   1   2
ATOM      2  C   UNL A   1      32.994  29.264  24.214  1.00  0.00     0.261 C 
BRANCH   2   3
ATOM      3  O   UNL A   1      33.707  29.218  25.456  1.00  0.00    -0.460 OA
BRANCH   3   4
ATOM      4  C   UNL A   1      33.389  30.084  26.459  1.00  0.00     0.338 C 
ATOM      5  O   UNL A   1      32.445  30.858  26.356  1.00  0.00    -0.246 OA
BRANCH   4   6
ATOM      6  C   UNL A   1      34.450  30.305  27.484  1.00  0.00     0.060 A 
ATOM      7  C   UNL A   1      34.481  31.520  28.180  1.00  0.00     0.016 A 
ATOM      8  C   UNL A   1      35.452  29.375  27.730  1.00  0.00     0.016 A 
ATOM      9  C   UNL A   1      35.549  31.822  29.045  1.00  0.00     0.010 A 
ATOM     10  C   UNL A   1      36.560  29.721  28.504  1.00  0.00     0.010 A 
ATOM     11  C   UNL A   1      36.631  30.938  29.193  1.00  0.00    -0.014 A 
BRANCH  11  12
ATOM     12  C   UNL A   1      37.733  31.173  30.177  1.00  0.00     0.031 A 
ATOM     13  C   UNL A   1      38.912  30.216  30.103  1.00  0.00     0.074 A 
ATOM     14  C   UNL A   1      37.920  32.391  30.734  1.00  0.00     0.049 A 
ATOM     15  N   UNL A   1      40.020  30.359  29.425  1.00  0.00    -0.248 NA
ATOM     16  C   UNL A   1      38.717  28.849  30.612  1.00  0.00     0.031 C 
ATOM     17  C   UNL A   1      38.358  33.562  29.970  1.00  0.00     0.029 A 
ATOM     18  N   UNL A   1      38.157  32.732  32.054  1.00  0.00    -0.354 N 
ATOM     19  C   UNL A   1      40.656  29.113  29.402  1.00  0.00     0.074 A 
ATOM     20  C   UNL A   1      39.779  28.207  30.112  1.00  0.00     0.031 C 
ATOM     21  C   UNL A   1      38.927  34.444  30.816  1.00  0.00     0.029 A 
ATOM     22  C   UNL A   1      38.850  33.936  32.189  1.00  0.00     0.049 A 
ATOM     23  H   UNL A   1      37.867  32.184  32.819  1.00  0.00     0.167 HD
ATOM     24  C   UNL A   1      41.876  28.848  28.847  1.00  0.00     0.031 A 
ATOM     25  C   UNL A   1      39.745  34.208  33.188  1.00  0.00     0.031 A 
ATOM     26  C   UNL A   1      42.630  29.976  28.390  1.00  0.00     0.049 A 
ATOM     27  C   UNL A   1      41.003  33.636  32.588  1.00  0.00     0.074 A 
ATOM     28  C   UNL A   1      43.212  30.479  27.247  1.00  0.00     0.029 A 
ATOM     29  N   UNL A   1      43.150  30.799  29.355  1.00  0.00    -0.354 N 
ATOM     30  N   UNL A   1      41.768  34.180  31.682  1.00  0.00    -0.248 NA
ATOM     31  C   UNL A   1      41.178  32.192  32.758  1.00  0.00     0.031 C 
ATOM     32  C   UNL A   1      43.464  31.864  27.536  1.00  0.00     0.029 A 
ATOM     33  C   UNL A   1      43.137  32.074  28.873  1.00  0.00     0.049 A 
ATOM     34  H   UNL A   1      43.476  30.518  30.241  1.00  0.00     0.167 HD
ATOM     35  C   UNL A   1      42.295  33.110  30.958  1.00  0.00     0.074 A 
ATOM     36  C   UNL A   1      41.901  31.918  31.686  1.00  0.00     0.031 C 
ATOM     37  C   UNL A   1      42.849  33.216  29.715  1.00  0.00     0.031 A 
BRANCH  24  38
ATOM     38  C   UNL A   1      42.559  27.527  28.927  1.00  0.00    -0.014 A 
ATOM     39  C   UNL A   1      43.253  27.076  30.062  1.00  0.00     0.010 A 
ATOM     40  C   UNL A   1      42.350  26.631  27.861  1.00  0.00     0.010 A 
ATOM     41  C   UNL A   1      43.704  25.747  30.128  1.00  0.00     0.020 A 
ATOM     42  C   UNL A   1      42.787  25.310  27.925  1.00  0.00     0.020 A 
ATOM     43  C   UNL A   1      43.458  24.872  29.061  1.00  0.00     0.054 A 
BRANCH  43  44
ATOM     44  S   UNL A   1      43.981  23.137  29.184  1.00  0.00     0.124 S 
ATOM     45  O   UNL A   1      44.337  23.026  30.596  1.00  0.00    -0.237 OA
ATOM     46  O   UNL A   1      42.778  22.416  28.776  1.00  0.00    -0.237 OA
ATOM     47  O   UNL A   1      45.103  23.045  28.252  1.00  0.00    -0.744 OA
ENDBRANCH  43  44
ENDBRANCH  24  38
BRANCH  25  48
ATOM     48  C   UNL A   1      39.318  33.905  34.595  1.00  0.00    -0.014 A 
ATOM     49  C   UNL A   1      40.129  33.311  35.579  1.00  0.00     0.010 A 
ATOM     50  C   UNL A   1      37.980  34.185  34.941  1.00  0.00     0.010 A 
ATOM     51  C   UNL A   1      39.571  32.795  36.755  1.00  0.00     0.020 A 
ATOM     52  C   UNL A   1      37.423  33.713  36.133  1.00  0.00     0.020 A 
ATOM     53  C   UNL A   1      38.208  32.953  36.996  1.00  0.00     0.054 A 
BRANCH  53  54
ATOM     54  S   UNL A   1      37.458  32.065  38.386  1.00  0.00     0.124 S 
ATOM     55  O   UNL A   1      36.187  32.769  38.532  1.00  0.00    -0.237 OA
ATOM     56  O   UNL A   1      37.370  30.698  37.881  1.00  0.00    -0.237 OA
ATOM     57  O   UNL A   1      38.409  32.266  39.477  1.00  0.00    -0.744 OA
ENDBRANCH  53  54
ENDBRANCH  25  48
BRANCH  37  58
ATOM     58  C   UNL A   1      42.973  34.587  29.128  1.00  0.00    -0.014 A 
ATOM     59  C   UNL A   1      44.060  35.406  29.482  1.00  0.00     0.010 A 
ATOM     60  C   UNL A   1      41.961  35.119  28.320  1.00  0.00     0.010 A 
ATOM     61  C   UNL A   1      44.093  36.755  29.129  1.00  0.00     0.020 A 
ATOM     62  C   UNL A   1      41.993  36.466  27.946  1.00  0.00     0.020 A 
ATOM     63  C   UNL A   1      43.038  37.284  28.385  1.00  0.00     0.054 A 
BRANCH  63  64
ATOM     64  S   UNL A   1      43.012  39.068  28.065  1.00  0.00     0.124 S 
ATOM     65  O   UNL A   1      41.941  39.526  28.949  1.00  0.00    -0.237 OA
ATOM     66  O   UNL A   1      44.359  39.486  28.444  1.00  0.00    -0.237 OA
ATOM     67  O   UNL A   1      42.714  39.164  26.637  1.00  0.00    -0.744 OA
ENDBRANCH  63  64
ENDBRANCH  37  58
ENDBRANCH  11  12
ENDBRANCH   4   6
ENDBRANCH   3   4
ENDBRANCH   2   3
ENDBRANCH   1   2
BRANCH   1  68
ATOM     68  O   UNL A   1      31.250  28.101  22.826  1.00  0.00    -0.374 OA
BRANCH  68  69
ATOM     69  C   UNL A   1      31.041  26.806  22.286  1.00  0.00     0.202 C 
BRANCH  69  70
ATOM     70  C   UNL A   1      32.208  25.835  22.045  1.00  0.00     0.261 C 
BRANCH  70  71
ATOM     71  O   UNL A   1      32.315  24.624  22.796  1.00  0.00    -0.459 OA
BRANCH  71  72
ATOM     72  C   UNL A   1      33.600  24.251  23.021  1.00  0.00     0.365 C 
ATOM     73  O   UNL A   1      34.562  24.816  22.525  1.00  0.00    -0.245 OA
BRANCH  72  74
ATOM     74  C   UNL A   1      33.713  23.102  23.996  1.00  0.00     0.296 C 
ATOM     75  C   UNL A   1      32.350  22.875  24.664  1.00  0.00     0.091 C 
ATOM     76  N   UNL A   1      34.636  23.350  25.112  1.00  0.00    -0.319 N 
ATOM     77  C   UNL A   1      32.417  23.590  26.034  1.00  0.00     0.036 C 
ATOM     78  C   UNL A   1      33.925  23.544  26.363  1.00  0.00     0.270 C 
ATOM     79  H   UNL A   1      35.144  22.469  25.194  1.00  0.00     0.349 HD
ATOM     80  C   UNL A   1      31.603  22.838  27.107  1.00  0.00     0.074 C 
ATOM     81  C   UNL A   1      31.880  25.048  25.999  1.00  0.00     0.074 C 
ATOM     82  C   UNL A   1      30.094  22.984  26.913  1.00  0.00     0.261 C 
ATOM     83  C   UNL A   1      30.359  25.137  25.864  1.00  0.00     0.261 C 
ATOM     84  N   UNL A   1      29.673  24.383  26.914  1.00  0.00    -0.346 N 
ATOM     85  H   UNL A   1      29.892  24.796  27.820  1.00  0.00     0.346 HD
ATOM     86  H   UNL A   1      28.669  24.420  26.738  1.00  0.00     0.346 HD
BRANCH  76  87
ATOM     87  C   UNL A   1      35.958  23.967  24.909  1.00  0.00     0.302 C 
BRANCH  87  88
ATOM     88  C   UNL A   1      37.119  23.374  25.673  1.00  0.00     0.038 A 
ATOM     89  C   UNL A   1      37.946  24.150  26.523  1.00  0.00     0.012 A 
ATOM     90  C   UNL A   1      37.630  22.062  25.478  1.00  0.00     0.144 A 
ATOM     91  C   UNL A   1      39.249  23.759  26.922  1.00  0.00     0.003 A 
ATOM     92  C   UNL A   1      38.953  21.648  25.952  1.00  0.00     0.135 A 
ATOM     93  N   UNL A   1      37.100  21.033  24.799  1.00  0.00    -0.049 NA
ATOM     94  C   UNL A   1      39.812  22.506  26.649  1.00  0.00     0.034 A 
ATOM     95  N   UNL A   1      39.171  20.389  25.549  1.00  0.00    -0.050 NA
ATOM     96  O   UNL A   1      38.010  19.994  24.909  1.00  0.00    -0.243 OA
ENDBRANCH  87  88
ENDBRANCH  76  87
ENDBRANCH  72  74
ENDBRANCH  71  72
ENDBRANCH  70  71
ENDBRANCH  69  70
ENDBRANCH  68  69
ENDBRANCH   1  68
TORSDOF 19
ENDMDL
MODEL 2
REMARK VINA RESULT:     -11.6      2.525      5.022
REMARK SMILES O=C(OCCOCCOC(=O)[C@@H]1CC2(CC[NH2+]CC2)C[N@@H+]1Cc1cccc2nonc12)c1ccc(-c2c3nc(c(-c4ccc(S(=O)(=O)[O-])cc4)c4ccc([nH]4)c(-c4ccc(S(=O)(=O)[O-])cc4)c4nc(c(-c5ccc(S(=O)(=O)[O-])cc5)c5ccc2[nH]5)C=C4)C=C3)cc1
REMARK SMILES IDX 5 1 4 2 3 3 2 4 1 5 32 6 33 7 91 8 34 9 90 10 35 11 36 12
REMARK SMILES IDX 37 13 84 14 38 15 89 16 83 17 85 18 39 19 88 20 82 21 81 22
REMARK SMILES IDX 40 24 70 25 51 26 69 27 52 28 55 29 68 30 86 31 53 32 54 33
REMARK SMILES IDX 67 35 87 36 56 37 41 38 42 39 50 40 43 41 49 42 44 43 45 44
REMARK SMILES IDX 46 45 47 46 48 47 71 48 72 49 80 50 73 51 79 52 74 53 75 54
REMARK SMILES IDX 76 55 77 56 78 57 57 58 58 59 66 60 59 61 65 62 60 63 61 64
REMARK SMILES IDX 62 65 63 66 64 67 6 68 7 69 8 70 9 71 10 72 11 73 12 74
REMARK SMILES IDX 13 75 21 76 14 77 20 78 15 80 19 81 16 82 18 83 17 84 22 87
REMARK SMILES IDX 23 88 24 89 31 90 25 91 27 92 30 93 26 94 28 95 29 96
REMARK H PARENT 85 23 55 34 21 79 17 85 17 86
REMARK Flexibility Score: inf
ROOT
ATOM      1  C   UNL A   1      33.146  30.408  27.062  1.00  0.00     0.202 C 
ENDROOT
BRANCH   1   2
ATOM      2  C   UNL A   1      32.307  31.671  27.257  1.00  0.00     0.261 C 
BRANCH   2   3
ATOM      3  O   UNL A   1      33.046  32.897  27.204  1.00  0.00    -0.460 OA
BRANCH   3   4
ATOM      4  C   UNL A   1      33.389  33.538  28.357  1.00  0.00     0.338 C 
ATOM      5  O   UNL A   1      32.855  34.590  28.685  1.00  0.00    -0.246 OA
BRANCH   4   6
ATOM      6  C   UNL A   1      34.678  33.111  28.975  1.00  0.00     0.060 A 
ATOM      7  C   UNL A   1      35.791  32.903  28.150  1.00  0.00     0.016 A 
ATOM      8  C   UNL A   1      34.802  32.847  30.333  1.00  0.00     0.016 A 
ATOM      9  C   UNL A   1      36.979  32.360  28.675  1.00  0.00     0.010 A 
ATOM     10  C   UNL A   1      35.941  32.212  30.828  1.00  0.00     0.010 A 
ATOM     11  C   UNL A   1      37.060  31.968  30.023  1.00  0.00    -0.014 A 
BRANCH  11  12
ATOM     12  C   UNL A   1      38.333  31.485  30.644  1.00  0.00     0.031 A 
ATOM     13  C   UNL A   1      38.815  30.113  30.199  1.00  0.00     0.074 A 
ATOM     14  C   UNL A   1      39.233  32.356  31.152  1.00  0.00     0.049 A 
ATOM     15  N   UNL A   1      39.643  29.830  29.228  1.00  0.00    -0.248 NA
ATOM     16  C   UNL A   1      38.093  28.936  30.707  1.00  0.00     0.031 C 
ATOM     17  C   UNL A   1      39.998  33.293  30.324  1.00  0.00     0.029 A 
ATOM     18  N   UNL A   1      39.922  32.315  32.352  1.00  0.00    -0.354 N 
ATOM     19  C   UNL A   1      39.542  28.456  28.985  1.00  0.00     0.074 A 
ATOM     20  C   UNL A   1      38.533  27.965  29.898  1.00  0.00     0.031 C 
ATOM     21  C   UNL A   1      41.118  33.644  30.987  1.00  0.00     0.029 A 
ATOM     22  C   UNL A   1      41.134  33.008  32.307  1.00  0.00     0.049 A 
ATOM     23  H   UNL A   1      39.593  31.848  33.153  1.00  0.00     0.167 HD
ATOM     24  C   UNL A   1      40.288  27.745  28.088  1.00  0.00     0.031 A 
ATOM     25  C   UNL A   1      42.256  32.651  33.004  1.00  0.00     0.031 A 
ATOM     26  C   UNL A   1      41.367  28.443  27.459  1.00  0.00     0.049 A 
ATOM     27  C   UNL A   1      42.870  31.664  32.045  1.00  0.00     0.074 A 
ATOM     28  C   UNL A   1      41.825  28.798  26.207  1.00  0.00     0.029 A 
ATOM     29  N   UNL A   1      42.447  28.746  28.248  1.00  0.00    -0.354 N 
ATOM     30  N   UNL A   1      43.556  31.928  30.968  1.00  0.00    -0.248 NA
ATOM     31  C   UNL A   1      42.333  30.304  32.117  1.00  0.00     0.031 C 
ATOM     32  C   UNL A   1      42.798  29.829  26.446  1.00  0.00     0.029 A 
ATOM     33  C   UNL A   1      42.956  29.938  27.825  1.00  0.00     0.049 A 
ATOM     34  H   UNL A   1      42.792  28.198  28.991  1.00  0.00     0.167 HD
ATOM     35  C   UNL A   1      43.282  30.877  30.092  1.00  0.00     0.074 A 
ATOM     36  C   UNL A   1      42.535  29.907  30.872  1.00  0.00     0.031 C 
ATOM     37  C   UNL A   1      43.494  30.918  28.745  1.00  0.00     0.031 A 
BRANCH  24  38
ATOM     38  C   UNL A   1      40.213  26.266  27.928  1.00  0.00    -0.014 A 
ATOM     39  C   UNL A   1      39.122  25.599  27.348  1.00  0.00     0.010 A 
ATOM     40  C   UNL A   1      41.375  25.530  28.230  1.00  0.00     0.010 A 
ATOM     41  C   UNL A   1      39.210  24.227  27.060  1.00  0.00     0.020 A 
ATOM     42  C   UNL A   1      41.471  24.172  27.938  1.00  0.00     0.020 A 
ATOM     43  C   UNL A   1      40.389  23.526  27.349  1.00  0.00     0.054 A 
BRANCH  43  44
ATOM     44  S   UNL A   1      40.521  21.770  26.907  1.00  0.00     0.124 S 
ATOM     45  O   UNL A   1      39.243  21.526  26.244  1.00  0.00    -0.237 OA
ATOM     46  O   UNL A   1      41.696  21.749  26.041  1.00  0.00    -0.237 OA
ATOM     47  O   UNL A   1      40.690  21.099  28.195  1.00  0.00    -0.744 OA
ENDBRANCH  43  44
ENDBRANCH  24  38
BRANCH  25  48
ATOM     48  C   UNL A   1      42.092  32.351  34.467  1.00  0.00    -0.014 A 
ATOM     49  C   UNL A   1      40.865  32.314  35.154  1.00  0.00     0.010 A 
ATOM     50  C   UNL A   1      43.265  32.150  35.223  1.00  0.00     0.010 A 
ATOM     51  C   UNL A   1      40.825  32.326  36.554  1.00  0.00     0.020 A 
ATOM     52  C   UNL A   1      43.233  32.117  36.620  1.00  0.00     0.020 A 
ATOM     53  C   UNL A   1      42.016  32.283  37.276  1.00  0.00     0.054 A 
BRANCH  53  54
ATOM     54  S   UNL A   1      41.963  32.556  39.066  1.00  0.00     0.124 S 
ATOM     55  O   UNL A   1      42.892  31.537  39.546  1.00  0.00    -0.237 OA
ATOM     56  O   UNL A   1      42.418  33.937  39.193  1.00  0.00    -0.237 OA
ATOM     57  O   UNL A   1      40.560  32.328  39.408  1.00  0.00    -0.744 OA
ENDBRANCH  53  54
ENDBRANCH  25  48
BRANCH  37  58
ATOM     58  C   UNL A   1      44.141  32.146  28.184  1.00  0.00    -0.014 A 
ATOM     59  C   UNL A   1      45.438  32.072  27.646  1.00  0.00     0.010 A 
ATOM     60  C   UNL A   1      43.523  33.398  28.291  1.00  0.00     0.010 A 
ATOM     61  C   UNL A   1      46.149  33.226  27.317  1.00  0.00     0.020 A 
ATOM     62  C   UNL A   1      44.221  34.560  27.947  1.00  0.00     0.020 A 
ATOM     63  C   UNL A   1      45.543  34.469  27.500  1.00  0.00     0.054 A 
BRANCH  63  64
ATOM     64  S   UNL A   1      46.528  35.964  27.218  1.00  0.00     0.124 S 
ATOM     65  O   UNL A   1      45.653  37.015  27.735  1.00  0.00    -0.237 OA
ATOM     66  O   UNL A   1      47.734  35.711  28.003  1.00  0.00    -0.237 OA
ATOM     67  O   UNL A   1      46.726  35.986  25.770  1.00  0.00    -0.744 OA
ENDBRANCH  63  64
ENDBRANCH  37  58
ENDBRANCH  11  12
ENDBRANCH   4   6
ENDBRANCH   3   4
ENDBRANCH   2   3
ENDBRANCH   1   2
BRANCH   1  68
ATOM     68  O   UNL A   1      33.263  29.901  25.748  1.00  0.00    -0.374 OA
BRANCH  68  69
ATOM     69  C   UNL A   1      32.526  28.757  25.348  1.00  0.00     0.202 C 
BRANCH  69  70
ATOM     70  C   UNL A   1      32.478  27.486  26.210  1.00  0.00     0.261 C 
BRANCH  70  71
ATOM     71  O   UNL A   1      33.587  26.586  26.242  1.00  0.00    -0.459 OA
BRANCH  71  72
ATOM     72  C   UNL A   1      33.519  25.626  25.285  1.00  0.00     0.365 C 
ATOM     73  O   UNL A   1      34.403  25.425  24.469  1.00  0.00    -0.245 OA
BRANCH  72  74
ATOM     74  C   UNL A   1      32.259  24.796  25.380  1.00  0.00     0.296 C 
ATOM     75  C   UNL A   1      32.622  23.386  25.865  1.00  0.00     0.091 C 
ATOM     76  N   UNL A   1      31.582  24.583  24.093  1.00  0.00    -0.319 N 
ATOM     77  C   UNL A   1      32.695  22.501  24.599  1.00  0.00     0.036 C 
ATOM     78  C   UNL A   1      31.722  23.213  23.635  1.00  0.00     0.270 C 
ATOM     79  H   UNL A   1      30.598  24.718  24.323  1.00  0.00     0.349 HD
ATOM     80  C   UNL A   1      32.221  21.060  24.885  1.00  0.00     0.074 C 
ATOM     81  C   UNL A   1      34.125  22.394  23.999  1.00  0.00     0.074 C 
ATOM     82  C   UNL A   1      33.228  20.260  25.711  1.00  0.00     0.261 C 
ATOM     83  C   UNL A   1      35.076  21.533  24.833  1.00  0.00     0.261 C 
ATOM     84  N   UNL A   1      34.537  20.192  25.066  1.00  0.00    -0.346 N 
ATOM     85  H   UNL A   1      34.443  19.710  24.172  1.00  0.00     0.346 HD
ATOM     86  H   UNL A   1      35.176  19.687  25.679  1.00  0.00     0.346 HD
BRANCH  76  87
ATOM     87  C   UNL A   1      31.393  25.673  23.121  1.00  0.00     0.302 C 
BRANCH  87  88
ATOM     88  C   UNL A   1      30.227  26.605  23.350  1.00  0.00     0.038 A 
ATOM     89  C   UNL A   1      29.081  26.222  24.090  1.00  0.00     0.012 A 
ATOM     90  C   UNL A   1      30.054  27.859  22.702  1.00  0.00     0.144 A 
ATOM     91  C   UNL A   1      27.826  26.876  23.991  1.00  0.00     0.003 A 
ATOM     92  C   UNL A   1      28.768  28.559  22.661  1.00  0.00     0.135 A 
ATOM     93  N   UNL A   1      30.928  28.569  21.974  1.00  0.00    -0.049 NA
ATOM     94  C   UNL A   1      27.611  28.058  23.270  1.00  0.00     0.034 A 
ATOM     95  N   UNL A   1      28.912  29.664  21.917  1.00  0.00    -0.050 NA
ATOM     96  O   UNL A   1      30.248  29.703  21.561  1.00  0.00    -0.243 OA
ENDBRANCH  87  88
ENDBRANCH  76  87
ENDBRANCH  72  74
ENDBRANCH  71  72
ENDBRANCH  70  71
ENDBRANCH  69  70
ENDBRANCH  68  69
ENDBRANCH   1  68
TORSDOF 19
ENDMDL
MODEL 3
REMARK VINA RESULT:     -11.4      3.836      9.474
REMARK SMILES O=C(OCCOCCOC(=O)[C@@H]1CC2(CC[NH2+]CC2)C[N@@H+]1Cc1cccc2nonc12)c1ccc(-c2c3nc(c(-c4ccc(S(=O)(=O)[O-])cc4)c4ccc([nH]4)c(-c4ccc(S(=O)(=O)[O-])cc4)c4nc(c(-c5ccc(S(=O)(=O)[O-])cc5)c5ccc2[nH]5)C=C4)C=C3)cc1
REMARK SMILES IDX 5 1 4 2 3 3 2 4 1 5 32 6 33 7 91 8 34 9 90 10 35 11 36 12
REMARK SMILES IDX 37 13 84 14 38 15 89 16 83 17 85 18 39 19 88 20 82 21 81 22
REMARK SMILES IDX 40 24 70 25 51 26 69 27 52 28 55 29 68 30 86 31 53 32 54 33
REMARK SMILES IDX 67 35 87 36 56 37 41 38 42 39 50 40 43 41 49 42 44 43 45 44
REMARK SMILES IDX 46 45 47 46 48 47 71 48 72 49 80 50 73 51 79 52 74 53 75 54
REMARK SMILES IDX 76 55 77 56 78 57 57 58 58 59 66 60 59 61 65 62 60 63 61 64
REMARK SMILES IDX 62 65 63 66 64 67 6 68 7 69 8 70 9 71 10 72 11 73 12 74
REMARK SMILES IDX 13 75 21 76 14 77 20 78 15 80 19 81 16 82 18 83 17 84 22 87
REMARK SMILES IDX 23 88 24 89 31 90 25 91 27 92 30 93 26 94 28 95 29 96
REMARK H PARENT 85 23 55 34 21 79 17 85 17 86
REMARK Flexibility Score: inf
ROOT
ATOM      1  C   UNL A   1      40.287  21.540  26.679  1.00  0.00     0.202 C 
ENDROOT
BRANCH   1   2
ATOM      2  C   UNL A   1      41.391  20.713  26.018  1.00  0.00     0.261 C 
BRANCH   2   3
ATOM      3  O   UNL A   1      42.718  21.209  26.227  1.00  0.00    -0.460 OA
BRANCH   3   4
ATOM      4  C   UNL A   1      43.221  22.178  25.412  1.00  0.00     0.338 C 
ATOM      5  O   UNL A   1      43.767  21.899  24.351  1.00  0.00    -0.246 OA
BRANCH   4   6
ATOM      6  C   UNL A   1      43.416  23.517  26.042  1.00  0.00     0.060 A 
ATOM      7  C   UNL A   1      42.977  23.719  27.356  1.00  0.00     0.016 A 
ATOM      8  C   UNL A   1      43.959  24.593  25.352  1.00  0.00     0.016 A 
ATOM      9  C   UNL A   1      43.010  25.003  27.932  1.00  0.00     0.010 A 
ATOM     10  C   UNL A   1      43.890  25.880  25.885  1.00  0.00     0.010 A 
ATOM     11  C   UNL A   1      43.434  26.117  27.188  1.00  0.00    -0.014 A 
BRANCH  11  12
ATOM     12  C   UNL A   1      43.581  27.479  27.791  1.00  0.00     0.031 A 
ATOM     13  C   UNL A   1      42.298  28.276  27.964  1.00  0.00     0.074 A 
ATOM     14  C   UNL A   1      44.644  27.783  28.570  1.00  0.00     0.049 A 
ATOM     15  N   UNL A   1      41.520  28.326  29.013  1.00  0.00    -0.248 NA
ATOM     16  C   UNL A   1      41.683  28.852  26.758  1.00  0.00     0.031 C 
ATOM     17  C   UNL A   1      44.873  27.178  29.885  1.00  0.00     0.029 A 
ATOM     18  N   UNL A   1      45.454  28.905  28.561  1.00  0.00    -0.354 N 
ATOM     19  C   UNL A   1      40.318  28.918  28.609  1.00  0.00     0.074 A 
ATOM     20  C   UNL A   1      40.460  29.178  27.193  1.00  0.00     0.031 C 
ATOM     21  C   UNL A   1      45.663  27.998  30.607  1.00  0.00     0.029 A 
ATOM     22  C   UNL A   1      46.047  29.158  29.799  1.00  0.00     0.049 A 
ATOM     23  H   UNL A   1      45.598  29.466  27.765  1.00  0.00     0.167 HD
ATOM     24  C   UNL A   1      39.260  29.213  29.421  1.00  0.00     0.031 A 
ATOM     25  C   UNL A   1      46.327  30.407  30.283  1.00  0.00     0.031 A 
ATOM     26  C   UNL A   1      39.465  29.041  30.827  1.00  0.00     0.049 A 
ATOM     27  C   UNL A   1      45.009  30.750  30.928  1.00  0.00     0.074 A 
ATOM     28  C   UNL A   1      38.954  28.349  31.905  1.00  0.00     0.029 A 
ATOM     29  N   UNL A   1      40.298  29.940  31.441  1.00  0.00    -0.354 N 
ATOM     30  N   UNL A   1      44.562  30.343  32.083  1.00  0.00    -0.248 NA
ATOM     31  C   UNL A   1      43.987  31.277  30.022  1.00  0.00     0.031 C 
ATOM     32  C   UNL A   1      39.966  28.441  32.920  1.00  0.00     0.029 A 
ATOM     33  C   UNL A   1      40.962  29.287  32.437  1.00  0.00     0.049 A 
ATOM     34  H   UNL A   1      40.399  30.891  31.204  1.00  0.00     0.167 HD
ATOM     35  C   UNL A   1      43.176  30.275  31.937  1.00  0.00     0.074 A 
ATOM     36  C   UNL A   1      42.892  30.879  30.648  1.00  0.00     0.031 C 
ATOM     37  C   UNL A   1      42.345  29.569  32.757  1.00  0.00     0.031 A 
BRANCH  24  38
ATOM     38  C   UNL A   1      38.035  29.929  28.967  1.00  0.00    -0.014 A 
ATOM     39  C   UNL A   1      36.792  29.304  28.778  1.00  0.00     0.010 A 
ATOM     40  C   UNL A   1      38.108  31.333  28.886  1.00  0.00     0.010 A 
ATOM     41  C   UNL A   1      35.645  30.080  28.536  1.00  0.00     0.020 A 
ATOM     42  C   UNL A   1      36.973  32.107  28.655  1.00  0.00     0.020 A 
ATOM     43  C   UNL A   1      35.744  31.477  28.486  1.00  0.00     0.054 A 
BRANCH  43  44
ATOM     44  S   UNL A   1      34.247  32.476  28.244  1.00  0.00     0.124 S 
ATOM     45  O   UNL A   1      33.828  32.734  29.619  1.00  0.00    -0.237 OA
ATOM     46  O   UNL A   1      34.754  33.632  27.510  1.00  0.00    -0.237 OA
ATOM     47  O   UNL A   1      33.364  31.597  27.480  1.00  0.00    -0.744 OA
ENDBRANCH  43  44
ENDBRANCH  24  38
BRANCH  25  48
ATOM     48  C   UNL A   1      47.042  31.357  29.366  1.00  0.00    -0.014 A 
ATOM     49  C   UNL A   1      47.297  32.713  29.642  1.00  0.00     0.010 A 
ATOM     50  C   UNL A   1      47.437  30.866  28.104  1.00  0.00     0.010 A 
ATOM     51  C   UNL A   1      47.695  33.589  28.625  1.00  0.00     0.020 A 
ATOM     52  C   UNL A   1      47.876  31.728  27.094  1.00  0.00     0.020 A 
ATOM     53  C   UNL A   1      47.928  33.096  27.343  1.00  0.00     0.054 A 
BRANCH  53  54
ATOM     54  S   UNL A   1      48.189  34.271  25.989  1.00  0.00     0.124 S 
ATOM     55  O   UNL A   1      46.900  34.223  25.305  1.00  0.00    -0.237 OA
ATOM     56  O   UNL A   1      48.484  35.514  26.697  1.00  0.00    -0.237 OA
ATOM     57  O   UNL A   1      49.309  33.697  25.246  1.00  0.00    -0.744 OA
ENDBRANCH  53  54
ENDBRANCH  25  48
BRANCH  37  58
ATOM     58  C   UNL A   1      42.958  28.890  33.942  1.00  0.00    -0.014 A 
ATOM     59  C   UNL A   1      43.219  27.509  33.902  1.00  0.00     0.010 A 
ATOM     60  C   UNL A   1      43.169  29.583  35.140  1.00  0.00     0.010 A 
ATOM     61  C   UNL A   1      43.584  26.809  35.052  1.00  0.00     0.020 A 
ATOM     62  C   UNL A   1      43.552  28.894  36.295  1.00  0.00     0.020 A 
ATOM     63  C   UNL A   1      43.718  27.507  36.253  1.00  0.00     0.054 A 
BRANCH  63  64
ATOM     64  S   UNL A   1      44.038  26.568  37.770  1.00  0.00     0.124 S 
ATOM     65  O   UNL A   1      44.684  27.565  38.622  1.00  0.00    -0.237 OA
ATOM     66  O   UNL A   1      42.699  26.160  38.187  1.00  0.00    -0.237 OA
ATOM     67  O   UNL A   1      44.907  25.478  37.331  1.00  0.00    -0.744 OA
ENDBRANCH  63  64
ENDBRANCH  37  58
ENDBRANCH  11  12
ENDBRANCH   4   6
ENDBRANCH   3   4
ENDBRANCH   2   3
ENDBRANCH   1   2
BRANCH   1  68
ATOM     68  O   UNL A   1      39.169  21.885  25.886  1.00  0.00    -0.374 OA
BRANCH  68  69
ATOM     69  C   UNL A   1      38.536  23.144  26.041  1.00  0.00     0.202 C 
BRANCH  69  70
ATOM     70  C   UNL A   1      37.293  23.528  25.223  1.00  0.00     0.261 C 
BRANCH  70  71
ATOM     71  O   UNL A   1      36.854  22.709  24.137  1.00  0.00    -0.459 OA
BRANCH  71  72
ATOM     72  C   UNL A   1      35.573  22.284  24.278  1.00  0.00     0.365 C 
ATOM     73  O   UNL A   1      34.660  22.646  23.553  1.00  0.00    -0.245 OA
BRANCH  72  74
ATOM     74  C   UNL A   1      35.413  21.270  25.387  1.00  0.00     0.296 C 
ATOM     75  C   UNL A   1      34.831  19.975  24.805  1.00  0.00     0.091 C 
ATOM     76  N   UNL A   1      34.458  21.669  26.431  1.00  0.00    -0.319 N 
ATOM     77  C   UNL A   1      33.312  20.017  25.094  1.00  0.00     0.036 C 
ATOM     78  C   UNL A   1      33.237  20.887  26.368  1.00  0.00     0.270 C 
ATOM     79  H   UNL A   1      34.934  21.404  27.294  1.00  0.00     0.349 HD
ATOM     80  C   UNL A   1      32.746  18.607  25.364  1.00  0.00     0.074 C 
ATOM     81  C   UNL A   1      32.476  20.623  23.933  1.00  0.00     0.074 C 
ATOM     82  C   UNL A   1      32.655  17.755  24.098  1.00  0.00     0.261 C 
ATOM     83  C   UNL A   1      32.366  19.706  22.713  1.00  0.00     0.261 C 
ATOM     84  N   UNL A   1      31.836  18.388  23.068  1.00  0.00    -0.346 N 
ATOM     85  H   UNL A   1      30.883  18.495  23.418  1.00  0.00     0.346 HD
ATOM     86  H   UNL A   1      31.846  17.799  22.236  1.00  0.00     0.346 HD
BRANCH  76  87
ATOM     87  C   UNL A   1      34.437  23.031  26.990  1.00  0.00     0.302 C 
BRANCH  87  88
ATOM     88  C   UNL A   1      33.463  24.011  26.379  1.00  0.00     0.038 A 
ATOM     89  C   UNL A   1      33.888  25.155  25.658  1.00  0.00     0.012 A 
ATOM     90  C   UNL A   1      32.062  24.018  26.620  1.00  0.00     0.144 A 
ATOM     91  C   UNL A   1      33.068  26.289  25.429  1.00  0.00     0.003 A 
ATOM     92  C   UNL A   1      31.211  25.172  26.320  1.00  0.00     0.135 A 
ATOM     93  N   UNL A   1      31.295  23.087  27.207  1.00  0.00    -0.049 NA
ATOM     94  C   UNL A   1      31.707  26.354  25.756  1.00  0.00     0.034 A 
ATOM     95  N   UNL A   1      29.966  24.896  26.730  1.00  0.00    -0.050 NA
ATOM     96  O   UNL A   1      30.007  23.597  27.203  1.00  0.00    -0.243 OA
ENDBRANCH  87  88
ENDBRANCH  76  87
ENDBRANCH  72  74
ENDBRANCH  71  72
ENDBRANCH  70  71
ENDBRANCH  69  70
ENDBRANCH  68  69
ENDBRANCH   1  68
TORSDOF 19
ENDMDL
