MODEL 1
REMARK VINA RESULT:      -9.6      0.000      0.000
REMARK SMILES O=C(N[C@@H](Cc1ccc(O)cc1)C(=O)N[C@@H](Cc1c[nH]c2ccccc12)C(=O)N[C@@H](CO)C(=O)OCCOCCOC(=O)c1ccc(-c2c3nc(c(-c4ccc(S(=O)(=O)[O-])cc4)c4ccc([nH]4)c(-c4ccc(S(=O)(=O)[O-])cc4)c4nc(c(-c5ccc(S(=O)(=O)[O-])cc5)c5ccc2[nH]5)C=C4)C=C3)cc1)c1ccc(F)cc1
REMARK SMILES IDX 36 1 35 2 33 3 34 4 30 5 29 6 27 7 28 8 16 10 15 11 13 12
REMARK SMILES IDX 14 13 4 15 3 16 1 17 2 18 104 20 105 21 110 22 106 23 109 24
REMARK SMILES IDX 107 25 108 26 5 27 6 28 7 29 12 30 8 31 11 32 9 33 10 34
REMARK SMILES IDX 17 36 18 37 19 38 26 39 20 40 21 41 25 42 22 44 24 45 23 46
REMARK SMILES IDX 31 47 32 48 37 50 38 51 39 52 40 53 41 54 42 55 43 56 44 57
REMARK SMILES IDX 45 58 103 59 46 60 102 61 47 62 48 63 49 64 96 65 50 66
REMARK SMILES IDX 101 67 95 68 97 69 51 70 100 71 94 72 93 73 52 75 82 76
REMARK SMILES IDX 63 77 81 78 64 79 67 80 80 81 98 82 65 83 66 84 79 86 99 87
REMARK SMILES IDX 68 88 53 89 54 90 62 91 55 92 61 93 56 94 57 95 58 96 59 97
REMARK SMILES IDX 60 98 83 99 84 100 92 101 85 102 91 103 86 104 87 105 88 106
REMARK SMILES IDX 89 107 90 108 69 109 70 110 78 111 71 112 77 113 72 114
REMARK SMILES IDX 73 115 74 116 75 117 76 118
REMARK H PARENT 29 9 15 14 3 19 10 35 20 43 32 49 97 74 67 85
REMARK Flexibility Score: inf
ROOT
ATOM      1  C   UNL A   1      34.800  29.424  27.984  1.00  0.00     0.261 C 
ENDROOT
BRANCH   1   2
ATOM      2  O   UNL A   1      33.830  28.471  27.514  1.00  0.00    -0.462 OA
BRANCH   2   3
ATOM      3  C   UNL A   1      32.728  28.989  26.906  1.00  0.00     0.331 C 
ATOM      4  O   UNL A   1      31.577  28.849  27.305  1.00  0.00    -0.250 OA
BRANCH   3   5
ATOM      5  C   UNL A   1      33.093  29.613  25.548  1.00  0.00     0.218 C 
BRANCH   5   6
ATOM      6  N   UNL A   1      33.890  28.700  24.717  1.00  0.00    -0.339 N 
ATOM      7  C   UNL A   1      33.629  28.122  23.517  1.00  0.00     0.243 C 
ATOM      8  O   UNL A   1      34.566  28.009  22.723  1.00  0.00    -0.273 OA
ATOM      9  H   UNL A   1      34.768  28.467  25.099  1.00  0.00     0.164 HD
BRANCH   7  10
ATOM     10  C   UNL A   1      32.241  27.640  23.072  1.00  0.00     0.175 C 
BRANCH  10  11
ATOM     11  N   UNL A   1      32.156  27.109  21.715  1.00  0.00    -0.342 N 
ATOM     12  C   UNL A   1      32.308  25.828  21.274  1.00  0.00     0.243 C 
ATOM     13  O   UNL A   1      31.824  25.568  20.166  1.00  0.00    -0.273 OA
ATOM     14  H   UNL A   1      31.959  27.774  21.015  1.00  0.00     0.164 HD
BRANCH  12  15
ATOM     15  C   UNL A   1      32.999  24.708  22.095  1.00  0.00     0.176 C 
BRANCH  15  16
ATOM     16  N   UNL A   1      32.617  23.346  21.700  1.00  0.00    -0.340 N 
ATOM     17  O   UNL A   1      31.885  21.233  21.908  1.00  0.00    -0.269 OA
ATOM     18  C   UNL A   1      32.176  22.291  22.458  1.00  0.00     0.251 C 
ATOM     19  H   UNL A   1      32.690  23.159  20.736  1.00  0.00     0.164 HD
BRANCH  18  20
ATOM     20  C   UNL A   1      32.149  22.368  23.934  1.00  0.00     0.040 A 
ATOM     21  C   UNL A   1      31.449  23.364  24.627  1.00  0.00     0.017 A 
ATOM     22  C   UNL A   1      32.856  21.384  24.639  1.00  0.00     0.017 A 
ATOM     23  C   UNL A   1      31.530  23.419  26.020  1.00  0.00     0.040 A 
ATOM     24  C   UNL A   1      32.920  21.434  26.032  1.00  0.00     0.040 A 
ATOM     25  C   UNL A   1      32.269  22.460  26.708  1.00  0.00     0.123 A 
ATOM     26  F   UNL A   1      32.353  22.524  28.043  1.00  0.00    -0.207 F 
ENDBRANCH  18  20
ENDBRANCH  15  16
BRANCH  15  27
ATOM     27  C   UNL A   1      34.503  24.898  22.361  1.00  0.00     0.070 C 
BRANCH  27  28
ATOM     28  C   UNL A   1      35.174  24.095  23.444  1.00  0.00    -0.045 A 
ATOM     29  C   UNL A   1      35.915  22.941  23.142  1.00  0.00     0.007 A 
ATOM     30  C   UNL A   1      34.994  24.452  24.789  1.00  0.00     0.007 A 
ATOM     31  C   UNL A   1      36.482  22.174  24.166  1.00  0.00     0.046 A 
ATOM     32  C   UNL A   1      35.544  23.676  25.810  1.00  0.00     0.046 A 
ATOM     33  C   UNL A   1      36.293  22.552  25.493  1.00  0.00     0.115 A 
BRANCH  33  34
ATOM     34  O   UNL A   1      36.850  21.850  26.520  1.00  0.00    -0.508 OA
ATOM     35  H   UNL A   1      36.538  20.991  26.725  1.00  0.00     0.293 HD
ENDBRANCH  33  34
ENDBRANCH  27  28
ENDBRANCH  15  27
ENDBRANCH  12  15
ENDBRANCH  10  11
BRANCH  10  36
ATOM     36  C   UNL A   1      31.500  26.811  24.135  1.00  0.00     0.072 C 
BRANCH  36  37
ATOM     37  C   UNL A   1      30.008  26.811  24.033  1.00  0.00    -0.020 A 
ATOM     38  C   UNL A   1      29.144  25.825  24.467  1.00  0.00     0.087 A 
ATOM     39  C   UNL A   1      29.199  27.840  23.444  1.00  0.00     0.003 A 
ATOM     40  N   UNL A   1      27.860  26.262  24.268  1.00  0.00    -0.361 N 
ATOM     41  C   UNL A   1      27.865  27.492  23.655  1.00  0.00     0.046 A 
ATOM     42  C   UNL A   1      29.474  29.056  22.782  1.00  0.00     0.010 A 
ATOM     43  H   UNL A   1      27.050  25.766  24.526  1.00  0.00     0.166 HD
ATOM     44  C   UNL A   1      26.796  28.319  23.286  1.00  0.00     0.026 A 
ATOM     45  C   UNL A   1      28.417  29.889  22.395  1.00  0.00     0.001 A 
ATOM     46  C   UNL A   1      27.098  29.530  22.660  1.00  0.00     0.002 A 
ENDBRANCH  36  37
ENDBRANCH  10  36
ENDBRANCH   7  10
ENDBRANCH   5   6
BRANCH   5  47
ATOM     47  C   UNL A   1      31.772  29.971  24.856  1.00  0.00     0.193 C 
BRANCH  47  48
ATOM     48  O   UNL A   1      31.202  31.173  25.385  1.00  0.00    -0.394 OA
ATOM     49  H   UNL A   1      30.853  31.001  26.274  1.00  0.00     0.210 HD
ENDBRANCH  47  48
ENDBRANCH   5  47
ENDBRANCH   3   5
ENDBRANCH   2   3
ENDBRANCH   1   2
BRANCH   1  50
ATOM     50  C   UNL A   1      34.143  30.803  28.100  1.00  0.00     0.202 C 
BRANCH  50  51
ATOM     51  O   UNL A   1      35.076  31.886  28.181  1.00  0.00    -0.374 OA
BRANCH  51  52
ATOM     52  C   UNL A   1      36.378  31.495  28.639  1.00  0.00     0.202 C 
BRANCH  52  53
ATOM     53  C   UNL A   1      36.723  32.160  29.972  1.00  0.00     0.261 C 
BRANCH  53  54
ATOM     54  O   UNL A   1      35.816  31.646  30.953  1.00  0.00    -0.460 OA
BRANCH  54  55
ATOM     55  C   UNL A   1      36.319  30.561  31.589  1.00  0.00     0.338 C 
ATOM     56  O   UNL A   1      36.434  29.443  31.127  1.00  0.00    -0.246 OA
BRANCH  55  57
ATOM     57  C   UNL A   1      36.898  31.000  32.879  1.00  0.00     0.060 A 
ATOM     58  C   UNL A   1      36.437  32.215  33.395  1.00  0.00     0.016 A 
ATOM     59  C   UNL A   1      37.831  30.234  33.590  1.00  0.00     0.016 A 
ATOM     60  C   UNL A   1      36.968  32.708  34.580  1.00  0.00     0.010 A 
ATOM     61  C   UNL A   1      38.355  30.722  34.786  1.00  0.00     0.010 A 
ATOM     62  C   UNL A   1      37.962  31.984  35.251  1.00  0.00    -0.014 A 
BRANCH  62  63
ATOM     63  C   UNL A   1      38.712  32.659  36.329  1.00  0.00     0.031 A 
ATOM     64  C   UNL A   1      39.846  33.565  35.939  1.00  0.00     0.074 A 
ATOM     65  C   UNL A   1      38.325  32.531  37.608  1.00  0.00     0.049 A 
ATOM     66  N   UNL A   1      40.558  34.366  36.687  1.00  0.00    -0.248 NA
ATOM     67  C   UNL A   1      40.224  33.575  34.514  1.00  0.00     0.031 C 
ATOM     68  C   UNL A   1      37.225  31.688  38.079  1.00  0.00     0.029 A 
ATOM     69  N   UNL A   1      38.803  33.128  38.744  1.00  0.00    -0.354 N 
ATOM     70  C   UNL A   1      41.456  34.983  35.823  1.00  0.00     0.074 A 
ATOM     71  C   UNL A   1      41.233  34.433  34.506  1.00  0.00     0.031 C 
ATOM     72  C   UNL A   1      37.101  31.835  39.409  1.00  0.00     0.029 A 
ATOM     73  C   UNL A   1      38.118  32.773  39.881  1.00  0.00     0.049 A 
ATOM     74  H   UNL A   1      39.563  33.753  38.746  1.00  0.00     0.167 HD
ATOM     75  C   UNL A   1      42.377  35.934  36.103  1.00  0.00     0.031 A 
ATOM     76  C   UNL A   1      38.293  33.170  41.156  1.00  0.00     0.031 A 
ATOM     77  C   UNL A   1      42.606  36.450  37.425  1.00  0.00     0.049 A 
ATOM     78  C   UNL A   1      39.352  34.199  41.451  1.00  0.00     0.074 A 
ATOM     79  C   UNL A   1      43.511  37.412  37.832  1.00  0.00     0.029 A 
ATOM     80  N   UNL A   1      41.923  36.033  38.559  1.00  0.00    -0.354 N 
ATOM     81  N   UNL A   1      40.168  34.804  40.617  1.00  0.00    -0.248 NA
ATOM     82  C   UNL A   1      39.502  34.611  42.852  1.00  0.00     0.031 C 
ATOM     83  C   UNL A   1      43.407  37.542  39.223  1.00  0.00     0.029 A 
ATOM     84  C   UNL A   1      42.402  36.698  39.672  1.00  0.00     0.049 A 
ATOM     85  H   UNL A   1      41.203  35.361  38.569  1.00  0.00     0.167 HD
ATOM     86  C   UNL A   1      40.921  35.678  41.392  1.00  0.00     0.074 A 
ATOM     87  C   UNL A   1      40.444  35.540  42.755  1.00  0.00     0.031 C 
ATOM     88  C   UNL A   1      41.917  36.520  41.017  1.00  0.00     0.031 A 
BRANCH  75  89
ATOM     89  C   UNL A   1      43.214  36.441  34.960  1.00  0.00    -0.014 A 
ATOM     90  C   UNL A   1      44.416  35.803  34.598  1.00  0.00     0.010 A 
ATOM     91  C   UNL A   1      42.798  37.573  34.238  1.00  0.00     0.010 A 
ATOM     92  C   UNL A   1      45.205  36.313  33.563  1.00  0.00     0.020 A 
ATOM     93  C   UNL A   1      43.572  38.073  33.187  1.00  0.00     0.020 A 
ATOM     94  C   UNL A   1      44.781  37.450  32.868  1.00  0.00     0.054 A 
BRANCH  94  95
ATOM     95  S   UNL A   1      45.819  38.088  31.524  1.00  0.00     0.124 S 
ATOM     96  O   UNL A   1      47.136  38.131  32.156  1.00  0.00    -0.237 OA
ATOM     97  O   UNL A   1      45.655  37.077  30.483  1.00  0.00    -0.237 OA
ATOM     98  O   UNL A   1      45.231  39.391  31.220  1.00  0.00    -0.744 OA
ENDBRANCH  94  95
ENDBRANCH  75  89
BRANCH  76  99
ATOM     99  C   UNL A   1      37.441  32.601  42.234  1.00  0.00    -0.014 A 
ATOM    100  C   UNL A   1      37.847  31.464  42.954  1.00  0.00     0.010 A 
ATOM    101  C   UNL A   1      36.219  33.217  42.565  1.00  0.00     0.010 A 
ATOM    102  C   UNL A   1      37.044  30.949  43.978  1.00  0.00     0.020 A 
ATOM    103  C   UNL A   1      35.427  32.721  43.603  1.00  0.00     0.020 A 
ATOM    104  C   UNL A   1      35.841  31.583  44.299  1.00  0.00     0.054 A 
BRANCH 104 105
ATOM    105  S   UNL A   1      34.850  30.944  45.678  1.00  0.00     0.124 S 
ATOM    106  O   UNL A   1      33.964  29.999  45.005  1.00  0.00    -0.237 OA
ATOM    107  O   UNL A   1      35.863  30.354  46.549  1.00  0.00    -0.237 OA
ATOM    108  O   UNL A   1      34.201  32.140  46.214  1.00  0.00    -0.744 OA
ENDBRANCH 104 105
ENDBRANCH  76  99
BRANCH  88 109
ATOM    109  C   UNL A   1      42.546  37.350  42.101  1.00  0.00    -0.014 A 
ATOM    110  C   UNL A   1      43.507  36.799  42.967  1.00  0.00     0.010 A 
ATOM    111  C   UNL A   1      42.195  38.706  42.232  1.00  0.00     0.010 A 
ATOM    112  C   UNL A   1      44.072  37.578  43.978  1.00  0.00     0.020 A 
ATOM    113  C   UNL A   1      42.779  39.495  43.225  1.00  0.00     0.020 A 
ATOM    114  C   UNL A   1      43.699  38.921  44.105  1.00  0.00     0.054 A 
BRANCH 114 115
ATOM    115  S   UNL A   1      44.456  39.919  45.415  1.00  0.00     0.124 S 
ATOM    116  O   UNL A   1      44.173  39.121  46.604  1.00  0.00    -0.237 OA
ATOM    117  O   UNL A   1      45.859  39.970  45.011  1.00  0.00    -0.237 OA
ATOM    118  O   UNL A   1      43.744  41.192  45.333  1.00  0.00    -0.744 OA
ENDBRANCH 114 115
ENDBRANCH  88 109
ENDBRANCH  62  63
ENDBRANCH  55  57
ENDBRANCH  54  55
ENDBRANCH  53  54
ENDBRANCH  52  53
ENDBRANCH  51  52
ENDBRANCH  50  51
ENDBRANCH   1  50
TORSDOF 30
ENDMDL
MODEL 2
REMARK VINA RESULT:      -9.3      4.197      5.937
REMARK SMILES O=C(N[C@@H](Cc1ccc(O)cc1)C(=O)N[C@@H](Cc1c[nH]c2ccccc12)C(=O)N[C@@H](CO)C(=O)OCCOCCOC(=O)c1ccc(-c2c3nc(c(-c4ccc(S(=O)(=O)[O-])cc4)c4ccc([nH]4)c(-c4ccc(S(=O)(=O)[O-])cc4)c4nc(c(-c5ccc(S(=O)(=O)[O-])cc5)c5ccc2[nH]5)C=C4)C=C3)cc1)c1ccc(F)cc1
REMARK SMILES IDX 36 1 35 2 33 3 34 4 30 5 29 6 27 7 28 8 16 10 15 11 13 12
REMARK SMILES IDX 14 13 4 15 3 16 1 17 2 18 104 20 105 21 110 22 106 23 109 24
REMARK SMILES IDX 107 25 108 26 5 27 6 28 7 29 12 30 8 31 11 32 9 33 10 34
REMARK SMILES IDX 17 36 18 37 19 38 26 39 20 40 21 41 25 42 22 44 24 45 23 46
REMARK SMILES IDX 31 47 32 48 37 50 38 51 39 52 40 53 41 54 42 55 43 56 44 57
REMARK SMILES IDX 45 58 103 59 46 60 102 61 47 62 48 63 49 64 96 65 50 66
REMARK SMILES IDX 101 67 95 68 97 69 51 70 100 71 94 72 93 73 52 75 82 76
REMARK SMILES IDX 63 77 81 78 64 79 67 80 80 81 98 82 65 83 66 84 79 86 99 87
REMARK SMILES IDX 68 88 53 89 54 90 62 91 55 92 61 93 56 94 57 95 58 96 59 97
REMARK SMILES IDX 60 98 83 99 84 100 92 101 85 102 91 103 86 104 87 105 88 106
REMARK SMILES IDX 89 107 90 108 69 109 70 110 78 111 71 112 77 113 72 114
REMARK SMILES IDX 73 115 74 116 75 117 76 118
REMARK H PARENT 29 9 15 14 3 19 10 35 20 43 32 49 97 74 67 85
REMARK Flexibility Score: inf
ROOT
ATOM      1  C   UNL A   1      34.984  29.390  27.762  1.00  0.00     0.261 C 
ENDROOT
BRANCH   1   2
ATOM      2  O   UNL A   1      33.941  28.454  27.436  1.00  0.00    -0.462 OA
BRANCH   2   3
ATOM      3  C   UNL A   1      32.848  28.969  26.808  1.00  0.00     0.331 C 
ATOM      4  O   UNL A   1      31.691  28.823  27.185  1.00  0.00    -0.250 OA
BRANCH   3   5
ATOM      5  C   UNL A   1      33.237  29.600  25.460  1.00  0.00     0.218 C 
BRANCH   5   6
ATOM      6  N   UNL A   1      34.000  28.669  24.615  1.00  0.00    -0.339 N 
ATOM      7  C   UNL A   1      33.705  28.098  23.420  1.00  0.00     0.243 C 
ATOM      8  O   UNL A   1      34.626  27.964  22.610  1.00  0.00    -0.273 OA
ATOM      9  H   UNL A   1      34.879  28.417  24.981  1.00  0.00     0.164 HD
BRANCH   7  10
ATOM     10  C   UNL A   1      32.300  27.646  22.999  1.00  0.00     0.175 C 
BRANCH  10  11
ATOM     11  N   UNL A   1      32.186  27.086  21.656  1.00  0.00    -0.342 N 
ATOM     12  C   UNL A   1      32.319  25.794  21.242  1.00  0.00     0.243 C 
ATOM     13  O   UNL A   1      31.812  25.514  20.149  1.00  0.00    -0.273 OA
ATOM     14  H   UNL A   1      31.983  27.736  20.946  1.00  0.00     0.164 HD
BRANCH  12  15
ATOM     15  C   UNL A   1      33.014  24.685  22.076  1.00  0.00     0.176 C 
BRANCH  15  16
ATOM     16  N   UNL A   1      32.655  23.317  21.680  1.00  0.00    -0.340 N 
ATOM     17  O   UNL A   1      31.985  21.185  21.893  1.00  0.00    -0.269 OA
ATOM     18  C   UNL A   1      32.265  22.246  22.443  1.00  0.00     0.251 C 
ATOM     19  H   UNL A   1      32.701  23.141  20.713  1.00  0.00     0.164 HD
BRANCH  18  20
ATOM     20  C   UNL A   1      32.283  22.309  23.919  1.00  0.00     0.040 A 
ATOM     21  C   UNL A   1      32.913  21.340  24.711  1.00  0.00     0.017 A 
ATOM     22  C   UNL A   1      31.641  23.401  24.521  1.00  0.00     0.017 A 
ATOM     23  C   UNL A   1      32.824  21.424  26.102  1.00  0.00     0.040 A 
ATOM     24  C   UNL A   1      31.571  23.489  25.911  1.00  0.00     0.040 A 
ATOM     25  C   UNL A   1      32.149  22.492  26.688  1.00  0.00     0.123 A 
ATOM     26  F   UNL A   1      32.057  22.562  28.022  1.00  0.00    -0.207 F 
ENDBRANCH  18  20
ENDBRANCH  15  16
BRANCH  15  27
ATOM     27  C   UNL A   1      34.511  24.897  22.361  1.00  0.00     0.070 C 
BRANCH  27  28
ATOM     28  C   UNL A   1      35.188  24.076  23.426  1.00  0.00    -0.045 A 
ATOM     29  C   UNL A   1      35.861  22.885  23.110  1.00  0.00     0.007 A 
ATOM     30  C   UNL A   1      35.080  24.457  24.773  1.00  0.00     0.007 A 
ATOM     31  C   UNL A   1      36.434  22.105  24.121  1.00  0.00     0.046 A 
ATOM     32  C   UNL A   1      35.635  23.667  25.781  1.00  0.00     0.046 A 
ATOM     33  C   UNL A   1      36.318  22.506  25.449  1.00  0.00     0.115 A 
BRANCH  33  34
ATOM     34  O   UNL A   1      36.884  21.791  26.462  1.00  0.00    -0.508 OA
ATOM     35  H   UNL A   1      36.349  21.453  27.153  1.00  0.00     0.293 HD
ENDBRANCH  33  34
ENDBRANCH  27  28
ENDBRANCH  15  27
ENDBRANCH  12  15
ENDBRANCH  10  11
BRANCH  10  36
ATOM     36  C   UNL A   1      31.546  26.865  24.089  1.00  0.00     0.072 C 
BRANCH  36  37
ATOM     37  C   UNL A   1      30.055  26.866  23.972  1.00  0.00    -0.020 A 
ATOM     38  C   UNL A   1      29.194  25.837  24.300  1.00  0.00     0.087 A 
ATOM     39  C   UNL A   1      29.243  27.942  23.478  1.00  0.00     0.003 A 
ATOM     40  N   UNL A   1      27.909  26.283  24.132  1.00  0.00    -0.361 N 
ATOM     41  C   UNL A   1      27.910  27.567  23.641  1.00  0.00     0.046 A 
ATOM     42  C   UNL A   1      29.516  29.218  22.940  1.00  0.00     0.010 A 
ATOM     43  H   UNL A   1      27.100  25.759  24.332  1.00  0.00     0.166 HD
ATOM     44  C   UNL A   1      26.839  28.419  23.343  1.00  0.00     0.026 A 
ATOM     45  C   UNL A   1      28.457  30.078  22.625  1.00  0.00     0.001 A 
ATOM     46  C   UNL A   1      27.138  29.687  22.840  1.00  0.00     0.002 A 
ENDBRANCH  36  37
ENDBRANCH  10  36
ENDBRANCH   7  10
ENDBRANCH   5   6
BRANCH   5  47
ATOM     47  C   UNL A   1      31.931  30.018  24.774  1.00  0.00     0.193 C 
BRANCH  47  48
ATOM     48  O   UNL A   1      31.253  31.047  25.500  1.00  0.00    -0.394 OA
ATOM     49  H   UNL A   1      30.513  31.383  24.972  1.00  0.00     0.210 HD
ENDBRANCH  47  48
ENDBRANCH   5  47
ENDBRANCH   3   5
ENDBRANCH   2   3
ENDBRANCH   1   2
BRANCH   1  50
ATOM     50  C   UNL A   1      34.383  30.792  27.900  1.00  0.00     0.202 C 
BRANCH  50  51
ATOM     51  O   UNL A   1      35.360  31.833  28.014  1.00  0.00    -0.374 OA
BRANCH  51  52
ATOM     52  C   UNL A   1      36.707  31.354  28.119  1.00  0.00     0.202 C 
BRANCH  52  53
ATOM     53  C   UNL A   1      37.195  31.375  29.568  1.00  0.00     0.261 C 
BRANCH  53  54
ATOM     54  O   UNL A   1      36.877  32.662  30.108  1.00  0.00    -0.460 OA
BRANCH  54  55
ATOM     55  C   UNL A   1      36.075  32.571  31.196  1.00  0.00     0.338 C 
ATOM     56  O   UNL A   1      34.889  32.303  31.198  1.00  0.00    -0.246 OA
BRANCH  55  57
ATOM     57  C   UNL A   1      36.920  32.651  32.409  1.00  0.00     0.060 A 
ATOM     58  C   UNL A   1      38.130  33.342  32.289  1.00  0.00     0.016 A 
ATOM     59  C   UNL A   1      36.529  32.110  33.641  1.00  0.00     0.016 A 
ATOM     60  C   UNL A   1      38.991  33.419  33.376  1.00  0.00     0.010 A 
ATOM     61  C   UNL A   1      37.388  32.199  34.736  1.00  0.00     0.010 A 
ATOM     62  C   UNL A   1      38.642  32.807  34.587  1.00  0.00    -0.014 A 
BRANCH  62  63
ATOM     63  C   UNL A   1      39.686  32.649  35.618  1.00  0.00     0.031 A 
ATOM     64  C   UNL A   1      40.582  31.446  35.536  1.00  0.00     0.074 A 
ATOM     65  C   UNL A   1      39.877  33.604  36.542  1.00  0.00     0.049 A 
ATOM     66  N   UNL A   1      41.648  31.160  36.236  1.00  0.00    -0.248 NA
ATOM     67  C   UNL A   1      40.236  30.431  34.523  1.00  0.00     0.031 C 
ATOM     68  C   UNL A   1      39.067  34.815  36.688  1.00  0.00     0.029 A 
ATOM     69  N   UNL A   1      40.829  33.714  37.521  1.00  0.00    -0.354 N 
ATOM     70  C   UNL A   1      42.105  29.943  35.741  1.00  0.00     0.074 A 
ATOM     71  C   UNL A   1      41.179  29.522  34.714  1.00  0.00     0.031 C 
ATOM     72  C   UNL A   1      39.569  35.557  37.690  1.00  0.00     0.029 A 
ATOM     73  C   UNL A   1      40.725  34.868  38.260  1.00  0.00     0.049 A 
ATOM     74  H   UNL A   1      41.521  33.033  37.679  1.00  0.00     0.167 HD
ATOM     75  C   UNL A   1      43.206  29.247  36.103  1.00  0.00     0.031 A 
ATOM     76  C   UNL A   1      41.488  35.315  39.276  1.00  0.00     0.031 A 
ATOM     77  C   UNL A   1      44.102  29.666  37.146  1.00  0.00     0.049 A 
ATOM     78  C   UNL A   1      42.685  34.503  39.690  1.00  0.00     0.074 A 
ATOM     79  C   UNL A   1      45.249  29.044  37.603  1.00  0.00     0.029 A 
ATOM     80  N   UNL A   1      43.939  30.818  37.903  1.00  0.00    -0.354 N 
ATOM     81  N   UNL A   1      43.129  33.373  39.185  1.00  0.00    -0.248 NA
ATOM     82  C   UNL A   1      43.494  35.032  40.795  1.00  0.00     0.031 C 
ATOM     83  C   UNL A   1      45.753  29.798  38.670  1.00  0.00     0.029 A 
ATOM     84  C   UNL A   1      44.949  30.915  38.842  1.00  0.00     0.049 A 
ATOM     85  H   UNL A   1      43.211  31.471  37.788  1.00  0.00     0.167 HD
ATOM     86  C   UNL A   1      44.277  33.062  39.905  1.00  0.00     0.074 A 
ATOM     87  C   UNL A   1      44.471  34.137  40.860  1.00  0.00     0.031 C 
ATOM     88  C   UNL A   1      45.099  31.989  39.791  1.00  0.00     0.031 A 
BRANCH  75  89
ATOM     89  C   UNL A   1      43.471  27.953  35.382  1.00  0.00    -0.014 A 
ATOM     90  C   UNL A   1      42.863  26.752  35.793  1.00  0.00     0.010 A 
ATOM     91  C   UNL A   1      44.344  27.934  34.280  1.00  0.00     0.010 A 
ATOM     92  C   UNL A   1      43.155  25.550  35.141  1.00  0.00     0.020 A 
ATOM     93  C   UNL A   1      44.621  26.739  33.609  1.00  0.00     0.020 A 
ATOM     94  C   UNL A   1      44.038  25.550  34.056  1.00  0.00     0.054 A 
BRANCH  94  95
ATOM     95  S   UNL A   1      44.395  23.979  33.223  1.00  0.00     0.124 S 
ATOM     96  O   UNL A   1      45.727  23.663  33.734  1.00  0.00    -0.237 OA
ATOM     97  O   UNL A   1      43.319  23.113  33.695  1.00  0.00    -0.237 OA
ATOM     98  O   UNL A   1      44.338  24.320  31.803  1.00  0.00    -0.744 OA
ENDBRANCH  94  95
ENDBRANCH  75  89
BRANCH  76  99
ATOM     99  C   UNL A   1      41.143  36.593  39.956  1.00  0.00    -0.014 A 
ATOM    100  C   UNL A   1      40.293  36.611  41.075  1.00  0.00     0.010 A 
ATOM    101  C   UNL A   1      41.691  37.805  39.496  1.00  0.00     0.010 A 
ATOM    102  C   UNL A   1      39.990  37.817  41.716  1.00  0.00     0.020 A 
ATOM    103  C   UNL A   1      41.412  39.008  40.148  1.00  0.00     0.020 A 
ATOM    104  C   UNL A   1      40.555  39.008  41.251  1.00  0.00     0.054 A 
BRANCH 104 105
ATOM    105  S   UNL A   1      40.210  40.552  42.140  1.00  0.00     0.124 S 
ATOM    106  O   UNL A   1      39.228  40.121  43.130  1.00  0.00    -0.237 OA
ATOM    107  O   UNL A   1      41.524  40.915  42.665  1.00  0.00    -0.237 OA
ATOM    108  O   UNL A   1      39.700  41.439  41.095  1.00  0.00    -0.744 OA
ENDBRANCH 104 105
ENDBRANCH  76  99
BRANCH  88 109
ATOM    109  C   UNL A   1      46.277  31.935  40.724  1.00  0.00    -0.014 A 
ATOM    110  C   UNL A   1      46.173  31.322  41.984  1.00  0.00     0.010 A 
ATOM    111  C   UNL A   1      47.511  32.477  40.319  1.00  0.00     0.010 A 
ATOM    112  C   UNL A   1      47.271  31.293  42.846  1.00  0.00     0.020 A 
ATOM    113  C   UNL A   1      48.618  32.425  41.167  1.00  0.00     0.020 A 
ATOM    114  C   UNL A   1      48.486  31.852  42.434  1.00  0.00     0.054 A 
BRANCH 114 115
ATOM    115  S   UNL A   1      49.904  31.790  43.561  1.00  0.00     0.124 S 
ATOM    116  O   UNL A   1      49.918  30.383  43.953  1.00  0.00    -0.237 OA
ATOM    117  O   UNL A   1      51.012  32.215  42.709  1.00  0.00    -0.237 OA
ATOM    118  O   UNL A   1      49.545  32.730  44.620  1.00  0.00    -0.744 OA
ENDBRANCH 114 115
ENDBRANCH  88 109
ENDBRANCH  62  63
ENDBRANCH  55  57
ENDBRANCH  54  55
ENDBRANCH  53  54
ENDBRANCH  52  53
ENDBRANCH  51  52
ENDBRANCH  50  51
ENDBRANCH   1  50
TORSDOF 30
ENDMDL
MODEL 3
REMARK VINA RESULT:      -8.4      7.907     16.146
REMARK SMILES O=C(N[C@@H](Cc1ccc(O)cc1)C(=O)N[C@@H](Cc1c[nH]c2ccccc12)C(=O)N[C@@H](CO)C(=O)OCCOCCOC(=O)c1ccc(-c2c3nc(c(-c4ccc(S(=O)(=O)[O-])cc4)c4ccc([nH]4)c(-c4ccc(S(=O)(=O)[O-])cc4)c4nc(c(-c5ccc(S(=O)(=O)[O-])cc5)c5ccc2[nH]5)C=C4)C=C3)cc1)c1ccc(F)cc1
REMARK SMILES IDX 36 1 35 2 33 3 34 4 30 5 29 6 27 7 28 8 16 10 15 11 13 12
REMARK SMILES IDX 14 13 4 15 3 16 1 17 2 18 104 20 105 21 110 22 106 23 109 24
REMARK SMILES IDX 107 25 108 26 5 27 6 28 7 29 12 30 8 31 11 32 9 33 10 34
REMARK SMILES IDX 17 36 18 37 19 38 26 39 20 40 21 41 25 42 22 44 24 45 23 46
REMARK SMILES IDX 31 47 32 48 37 50 38 51 39 52 40 53 41 54 42 55 43 56 44 57
REMARK SMILES IDX 45 58 103 59 46 60 102 61 47 62 48 63 49 64 96 65 50 66
REMARK SMILES IDX 101 67 95 68 97 69 51 70 100 71 94 72 93 73 52 75 82 76
REMARK SMILES IDX 63 77 81 78 64 79 67 80 80 81 98 82 65 83 66 84 79 86 99 87
REMARK SMILES IDX 68 88 53 89 54 90 62 91 55 92 61 93 56 94 57 95 58 96 59 97
REMARK SMILES IDX 60 98 83 99 84 100 92 101 85 102 91 103 86 104 87 105 88 106
REMARK SMILES IDX 89 107 90 108 69 109 70 110 78 111 71 112 77 113 72 114
REMARK SMILES IDX 73 115 74 116 75 117 76 118
REMARK H PARENT 29 9 15 14 3 19 10 35 20 43 32 49 97 74 67 85
REMARK Flexibility Score: inf
ROOT
ATOM      1  C   UNL A   1      44.547  43.012  31.175  1.00  0.00     0.261 C 
ENDROOT
BRANCH   1   2
ATOM      2  O   UNL A   1      44.522  41.869  32.048  1.00  0.00    -0.462 OA
BRANCH   2   3
ATOM      3  C   UNL A   1      43.369  41.675  32.746  1.00  0.00     0.331 C 
ATOM      4  O   UNL A   1      42.268  42.097  32.412  1.00  0.00    -0.250 OA
BRANCH   3   5
ATOM      5  C   UNL A   1      43.657  41.019  34.108  1.00  0.00     0.218 C 
BRANCH   5   6
ATOM      6  N   UNL A   1      44.830  40.133  34.057  1.00  0.00    -0.339 N 
ATOM      7  C   UNL A   1      44.944  38.790  34.218  1.00  0.00     0.243 C 
ATOM      8  O   UNL A   1      45.755  38.198  33.501  1.00  0.00    -0.273 OA
ATOM      9  H   UNL A   1      45.679  40.596  33.874  1.00  0.00     0.164 HD
BRANCH   7  10
ATOM     10  C   UNL A   1      44.107  37.961  35.202  1.00  0.00     0.175 C 
BRANCH  10  11
ATOM     11  N   UNL A   1      44.268  38.294  36.614  1.00  0.00    -0.342 N 
ATOM     12  C   UNL A   1      44.515  37.474  37.675  1.00  0.00     0.243 C 
ATOM     13  O   UNL A   1      44.981  38.011  38.687  1.00  0.00    -0.273 OA
ATOM     14  H   UNL A   1      44.187  39.250  36.832  1.00  0.00     0.164 HD
BRANCH  12  15
ATOM     15  C   UNL A   1      44.289  35.939  37.653  1.00  0.00     0.176 C 
BRANCH  15  16
ATOM     16  N   UNL A   1      42.885  35.533  37.797  1.00  0.00    -0.340 N 
ATOM     17  O   UNL A   1      41.122  34.232  38.285  1.00  0.00    -0.269 OA
ATOM     18  C   UNL A   1      42.342  34.346  38.217  1.00  0.00     0.251 C 
ATOM     19  H   UNL A   1      42.227  36.224  37.551  1.00  0.00     0.164 HD
BRANCH  18  20
ATOM     20  C   UNL A   1      43.192  33.167  38.485  1.00  0.00     0.040 A 
ATOM     21  C   UNL A   1      43.989  33.054  39.632  1.00  0.00     0.017 A 
ATOM     22  C   UNL A   1      43.172  32.134  37.537  1.00  0.00     0.017 A 
ATOM     23  C   UNL A   1      44.825  31.946  39.781  1.00  0.00     0.040 A 
ATOM     24  C   UNL A   1      43.996  31.021  37.701  1.00  0.00     0.040 A 
ATOM     25  C   UNL A   1      44.827  30.945  38.813  1.00  0.00     0.123 A 
ATOM     26  F   UNL A   1      45.638  29.889  38.955  1.00  0.00    -0.207 F 
ENDBRANCH  18  20
ENDBRANCH  15  16
BRANCH  15  27
ATOM     27  C   UNL A   1      45.074  35.159  36.584  1.00  0.00     0.070 C 
BRANCH  27  28
ATOM     28  C   UNL A   1      46.237  34.296  36.999  1.00  0.00    -0.045 A 
ATOM     29  C   UNL A   1      46.536  33.103  36.322  1.00  0.00     0.007 A 
ATOM     30  C   UNL A   1      46.990  34.640  38.131  1.00  0.00     0.007 A 
ATOM     31  C   UNL A   1      47.584  32.284  36.757  1.00  0.00     0.046 A 
ATOM     32  C   UNL A   1      48.023  33.812  38.576  1.00  0.00     0.046 A 
ATOM     33  C   UNL A   1      48.321  32.649  37.880  1.00  0.00     0.115 A 
BRANCH  33  34
ATOM     34  O   UNL A   1      49.366  31.895  38.323  1.00  0.00    -0.508 OA
ATOM     35  H   UNL A   1      49.733  32.054  39.171  1.00  0.00     0.293 HD
ENDBRANCH  33  34
ENDBRANCH  27  28
ENDBRANCH  15  27
ENDBRANCH  12  15
ENDBRANCH  10  11
BRANCH  10  36
ATOM     36  C   UNL A   1      42.652  37.747  34.752  1.00  0.00     0.072 C 
BRANCH  36  37
ATOM     37  C   UNL A   1      42.288  36.344  34.382  1.00  0.00    -0.020 A 
ATOM     38  C   UNL A   1      43.000  35.488  33.566  1.00  0.00     0.087 A 
ATOM     39  C   UNL A   1      41.112  35.634  34.801  1.00  0.00     0.003 A 
ATOM     40  N   UNL A   1      42.369  34.271  33.566  1.00  0.00    -0.361 N 
ATOM     41  C   UNL A   1      41.220  34.330  34.319  1.00  0.00     0.046 A 
ATOM     42  C   UNL A   1      39.981  35.967  35.576  1.00  0.00     0.010 A 
ATOM     43  H   UNL A   1      42.690  33.470  33.093  1.00  0.00     0.166 HD
ATOM     44  C   UNL A   1      40.285  33.331  34.615  1.00  0.00     0.026 A 
ATOM     45  C   UNL A   1      39.029  34.983  35.871  1.00  0.00     0.001 A 
ATOM     46  C   UNL A   1      39.191  33.680  35.409  1.00  0.00     0.002 A 
ENDBRANCH  36  37
ENDBRANCH  10  36
ENDBRANCH   7  10
ENDBRANCH   5   6
BRANCH   5  47
ATOM     47  C   UNL A   1      43.875  42.159  35.111  1.00  0.00     0.193 C 
BRANCH  47  48
ATOM     48  O   UNL A   1      45.042  42.926  34.800  1.00  0.00    -0.394 OA
ATOM     49  H   UNL A   1      44.778  43.771  34.404  1.00  0.00     0.210 HD
ENDBRANCH  47  48
ENDBRANCH   5  47
ENDBRANCH   3   5
ENDBRANCH   2   3
ENDBRANCH   1   2
BRANCH   1  50
ATOM     50  C   UNL A   1      44.345  42.551  29.729  1.00  0.00     0.202 C 
BRANCH  50  51
ATOM     51  O   UNL A   1      45.520  42.654  28.917  1.00  0.00    -0.374 OA
BRANCH  51  52
ATOM     52  C   UNL A   1      45.277  43.204  27.614  1.00  0.00     0.202 C 
BRANCH  52  53
ATOM     53  C   UNL A   1      45.727  42.245  26.511  1.00  0.00     0.261 C 
BRANCH  53  54
ATOM     54  O   UNL A   1      44.873  41.098  26.567  1.00  0.00    -0.460 OA
BRANCH  54  55
ATOM     55  C   UNL A   1      45.491  39.983  26.108  1.00  0.00     0.338 C 
ATOM     56  O   UNL A   1      46.424  39.944  25.330  1.00  0.00    -0.246 OA
BRANCH  55  57
ATOM     57  C   UNL A   1      44.979  38.818  26.865  1.00  0.00     0.060 A 
ATOM     58  C   UNL A   1      44.305  39.090  28.060  1.00  0.00     0.016 A 
ATOM     59  C   UNL A   1      45.110  37.500  26.407  1.00  0.00     0.016 A 
ATOM     60  C   UNL A   1      43.836  38.043  28.842  1.00  0.00     0.010 A 
ATOM     61  C   UNL A   1      44.627  36.449  27.185  1.00  0.00     0.010 A 
ATOM     62  C   UNL A   1      44.038  36.720  28.427  1.00  0.00    -0.014 A 
BRANCH  62  63
ATOM     63  C   UNL A   1      43.801  35.637  29.402  1.00  0.00     0.031 A 
ATOM     64  C   UNL A   1      42.406  35.091  29.526  1.00  0.00     0.074 A 
ATOM     65  C   UNL A   1      44.827  35.102  30.085  1.00  0.00     0.049 A 
ATOM     66  N   UNL A   1      41.980  34.059  30.205  1.00  0.00    -0.248 NA
ATOM     67  C   UNL A   1      41.351  35.800  28.780  1.00  0.00     0.031 C 
ATOM     68  C   UNL A   1      46.217  35.554  30.015  1.00  0.00     0.029 A 
ATOM     69  N   UNL A   1      44.858  34.045  30.956  1.00  0.00    -0.354 N 
ATOM     70  C   UNL A   1      40.614  33.988  29.956  1.00  0.00     0.074 A 
ATOM     71  C   UNL A   1      40.273  35.103  29.104  1.00  0.00     0.031 C 
ATOM     72  C   UNL A   1      46.971  34.766  30.801  1.00  0.00     0.029 A 
ATOM     73  C   UNL A   1      46.115  33.765  31.433  1.00  0.00     0.049 A 
ATOM     74  H   UNL A   1      44.057  33.535  31.214  1.00  0.00     0.167 HD
ATOM     75  C   UNL A   1      39.726  33.064  30.391  1.00  0.00     0.031 A 
ATOM     76  C   UNL A   1      46.523  32.800  32.280  1.00  0.00     0.031 A 
ATOM     77  C   UNL A   1      40.077  31.976  31.261  1.00  0.00     0.049 A 
ATOM     78  C   UNL A   1      45.510  31.808  32.784  1.00  0.00     0.074 A 
ATOM     79  C   UNL A   1      39.264  30.979  31.770  1.00  0.00     0.029 A 
ATOM     80  N   UNL A   1      41.352  31.751  31.760  1.00  0.00    -0.354 N 
ATOM     81  N   UNL A   1      44.227  31.729  32.509  1.00  0.00    -0.248 NA
ATOM     82  C   UNL A   1      45.999  30.768  33.697  1.00  0.00     0.031 C 
ATOM     83  C   UNL A   1      40.041  30.178  32.616  1.00  0.00     0.029 A 
ATOM     84  C   UNL A   1      41.347  30.646  32.592  1.00  0.00     0.049 A 
ATOM     85  H   UNL A   1      42.144  32.297  31.553  1.00  0.00     0.167 HD
ATOM     86  C   UNL A   1      43.759  30.621  33.206  1.00  0.00     0.074 A 
ATOM     87  C   UNL A   1      44.901  30.049  33.893  1.00  0.00     0.031 C 
ATOM     88  C   UNL A   1      42.500  30.118  33.276  1.00  0.00     0.031 A 
BRANCH  75  89
ATOM     89  C   UNL A   1      38.295  33.223  29.951  1.00  0.00    -0.014 A 
ATOM     90  C   UNL A   1      37.814  32.583  28.794  1.00  0.00     0.010 A 
ATOM     91  C   UNL A   1      37.420  34.029  30.701  1.00  0.00     0.010 A 
ATOM     92  C   UNL A   1      36.495  32.777  28.374  1.00  0.00     0.020 A 
ATOM     93  C   UNL A   1      36.093  34.207  30.297  1.00  0.00     0.020 A 
ATOM     94  C   UNL A   1      35.644  33.594  29.125  1.00  0.00     0.054 A 
BRANCH  94  95
ATOM     95  S   UNL A   1      33.935  33.825  28.561  1.00  0.00     0.124 S 
ATOM     96  O   UNL A   1      33.618  32.509  28.013  1.00  0.00    -0.237 OA
ATOM     97  O   UNL A   1      33.236  34.177  29.794  1.00  0.00    -0.237 OA
ATOM     98  O   UNL A   1      34.037  34.901  27.578  1.00  0.00    -0.744 OA
ENDBRANCH  94  95
ENDBRANCH  75  89
BRANCH  76  99
ATOM     99  C   UNL A   1      47.952  32.726  32.688  1.00  0.00    -0.014 A 
ATOM    100  C   UNL A   1      48.790  31.706  32.206  1.00  0.00     0.010 A 
ATOM    101  C   UNL A   1      48.490  33.702  33.548  1.00  0.00     0.010 A 
ATOM    102  C   UNL A   1      50.137  31.658  32.582  1.00  0.00     0.020 A 
ATOM    103  C   UNL A   1      49.840  33.671  33.907  1.00  0.00     0.020 A 
ATOM    104  C   UNL A   1      50.654  32.644  33.428  1.00  0.00     0.054 A 
BRANCH 104 105
ATOM    105  S   UNL A   1      52.420  32.606  33.846  1.00  0.00     0.124 S 
ATOM    106  O   UNL A   1      52.440  33.274  35.143  1.00  0.00    -0.237 OA
ATOM    107  O   UNL A   1      52.710  31.174  33.864  1.00  0.00    -0.237 OA
ATOM    108  O   UNL A   1      53.045  33.344  32.750  1.00  0.00    -0.744 OA
ENDBRANCH 104 105
ENDBRANCH  76  99
BRANCH  88 109
ATOM    109  C   UNL A   1      42.307  28.891  34.124  1.00  0.00    -0.014 A 
ATOM    110  C   UNL A   1      42.627  27.615  33.631  1.00  0.00     0.010 A 
ATOM    111  C   UNL A   1      41.829  29.023  35.441  1.00  0.00     0.010 A 
ATOM    112  C   UNL A   1      42.429  26.483  34.424  1.00  0.00     0.020 A 
ATOM    113  C   UNL A   1      41.655  27.897  36.246  1.00  0.00     0.020 A 
ATOM    114  C   UNL A   1      41.937  26.632  35.726  1.00  0.00     0.054 A 
BRANCH 114 115
ATOM    115  S   UNL A   1      41.700  25.151  36.745  1.00  0.00     0.124 S 
ATOM    116  O   UNL A   1      42.934  25.122  37.526  1.00  0.00    -0.237 OA
ATOM    117  O   UNL A   1      40.489  25.468  37.498  1.00  0.00    -0.237 OA
ATOM    118  O   UNL A   1      41.555  24.077  35.766  1.00  0.00    -0.744 OA
ENDBRANCH 114 115
ENDBRANCH  88 109
ENDBRANCH  62  63
ENDBRANCH  55  57
ENDBRANCH  54  55
ENDBRANCH  53  54
ENDBRANCH  52  53
ENDBRANCH  51  52
ENDBRANCH  50  51
ENDBRANCH   1  50
TORSDOF 30
ENDMDL
