MODEL 1
REMARK VINA RESULT:     -12.0      0.000      0.000
REMARK SMILES O=C(OCCOCCOC(=O)[C@H]1[C@H]2CC[C@H](C2)[C@@H]1C(=O)Nc1sc2c(c1C(=O)NC1CCCCC1)CCCC2)c1ccc(-c2c3nc(c(-c4ccc(S(=O)(=O)[O-])cc4)c4ccc([nH]4)c(-c4ccc(S(=O)(=O)[O-])cc4)c4nc(c(-c5ccc(S(=O)(=O)[O-])cc5)c5ccc2[nH]5)C=C4)C=C3)cc1
REMARK SMILES IDX 7 1 6 2 5 3 4 4 3 5 2 6 1 7 40 8 41 9 99 10 42 11 98 12
REMARK SMILES IDX 43 13 44 14 45 15 92 16 46 17 97 18 91 19 93 20 47 21 96 22
REMARK SMILES IDX 90 23 89 24 48 26 78 27 59 28 77 29 60 30 63 31 76 32 94 33
REMARK SMILES IDX 61 34 62 35 75 37 95 38 64 39 49 40 50 41 58 42 51 43 57 44
REMARK SMILES IDX 52 45 53 46 54 47 55 48 56 49 79 50 80 51 88 52 81 53 87 54
REMARK SMILES IDX 82 55 83 56 84 57 85 58 86 59 65 60 66 61 74 62 67 63 73 64
REMARK SMILES IDX 68 65 69 66 70 67 71 68 72 69 8 70 9 71 10 72 11 73 12 74
REMARK SMILES IDX 13 75 18 76 14 77 17 78 16 79 15 80 19 81 20 82 21 83 22 85
REMARK SMILES IDX 23 86 26 87 24 88 25 89 39 90 36 91 38 92 37 93 27 94 28 95
REMARK SMILES IDX 29 96 30 98 31 99 35 100 32 101 34 102 33 103
REMARK H PARENT 93 25 63 36 21 84 29 97
REMARK Flexibility Score: inf
ROOT
ATOM      1  C   UNL A   1      38.076  21.923  25.363  1.00  0.00     0.202 C 
ENDROOT
BRANCH   1   2
ATOM      2  O   UNL A   1      39.040  21.747  26.398  1.00  0.00    -0.374 OA
BRANCH   2   3
ATOM      3  C   UNL A   1      39.808  22.907  26.723  1.00  0.00     0.202 C 
BRANCH   3   4
ATOM      4  C   UNL A   1      41.263  22.888  26.249  1.00  0.00     0.261 C 
BRANCH   4   5
ATOM      5  O   UNL A   1      41.971  24.041  26.717  1.00  0.00    -0.460 OA
BRANCH   5   6
ATOM      6  C   UNL A   1      41.651  25.330  26.450  1.00  0.00     0.338 C 
ATOM      7  O   UNL A   1      41.478  25.663  25.277  1.00  0.00    -0.246 OA
BRANCH   6   8
ATOM      8  C   UNL A   1      41.427  26.358  27.512  1.00  0.00     0.060 A 
ATOM      9  C   UNL A   1      42.126  27.561  27.643  1.00  0.00     0.016 A 
ATOM     10  C   UNL A   1      40.384  26.105  28.418  1.00  0.00     0.016 A 
ATOM     11  C   UNL A   1      41.853  28.461  28.648  1.00  0.00     0.010 A 
ATOM     12  C   UNL A   1      40.086  27.015  29.435  1.00  0.00     0.010 A 
ATOM     13  C   UNL A   1      40.845  28.183  29.556  1.00  0.00    -0.014 A 
BRANCH  13  14
ATOM     14  C   UNL A   1      40.790  29.057  30.731  1.00  0.00     0.031 A 
ATOM     15  C   UNL A   1      39.675  30.052  30.787  1.00  0.00     0.074 A 
ATOM     16  C   UNL A   1      41.581  28.787  31.782  1.00  0.00     0.049 A 
ATOM     17  N   UNL A   1      39.394  30.923  31.713  1.00  0.00    -0.248 NA
ATOM     18  C   UNL A   1      38.731  30.050  29.651  1.00  0.00     0.031 C 
ATOM     19  C   UNL A   1      42.553  27.688  31.850  1.00  0.00     0.029 A 
ATOM     20  N   UNL A   1      41.652  29.369  33.015  1.00  0.00    -0.354 N 
ATOM     21  C   UNL A   1      38.276  31.606  31.250  1.00  0.00     0.074 A 
ATOM     22  C   UNL A   1      37.920  31.046  29.968  1.00  0.00     0.031 C 
ATOM     23  C   UNL A   1      43.100  27.662  33.075  1.00  0.00     0.029 A 
ATOM     24  C   UNL A   1      42.578  28.784  33.845  1.00  0.00     0.049 A 
ATOM     25  H   UNL A   1      41.094  30.135  33.283  1.00  0.00     0.167 HD
ATOM     26  C   UNL A   1      37.626  32.628  31.849  1.00  0.00     0.031 A 
ATOM     27  C   UNL A   1      42.972  29.151  35.077  1.00  0.00     0.031 A 
ATOM     28  C   UNL A   1      38.027  33.148  33.125  1.00  0.00     0.049 A 
ATOM     29  C   UNL A   1      42.308  30.363  35.673  1.00  0.00     0.074 A 
ATOM     30  C   UNL A   1      37.517  34.226  33.821  1.00  0.00     0.029 A 
ATOM     31  N   UNL A   1      39.050  32.611  33.899  1.00  0.00    -0.354 N 
ATOM     32  N   UNL A   1      41.320  31.083  35.187  1.00  0.00    -0.248 NA
ATOM     33  C   UNL A   1      42.811  30.821  36.970  1.00  0.00     0.031 C 
ATOM     34  C   UNL A   1      38.274  34.376  34.990  1.00  0.00     0.029 A 
ATOM     35  C   UNL A   1      39.203  33.345  35.058  1.00  0.00     0.049 A 
ATOM     36  H   UNL A   1      39.588  31.822  33.656  1.00  0.00     0.167 HD
ATOM     37  C   UNL A   1      41.062  32.063  36.135  1.00  0.00     0.074 A 
ATOM     38  C   UNL A   1      41.991  31.831  37.227  1.00  0.00     0.031 C 
ATOM     39  C   UNL A   1      40.144  33.062  36.116  1.00  0.00     0.031 A 
BRANCH  26  40
ATOM     40  C   UNL A   1      36.527  33.295  31.068  1.00  0.00    -0.014 A 
ATOM     41  C   UNL A   1      36.777  34.012  29.884  1.00  0.00     0.010 A 
ATOM     42  C   UNL A   1      35.214  33.240  31.568  1.00  0.00     0.010 A 
ATOM     43  C   UNL A   1      35.740  34.699  29.242  1.00  0.00     0.020 A 
ATOM     44  C   UNL A   1      34.170  33.900  30.915  1.00  0.00     0.020 A 
ATOM     45  C   UNL A   1      34.444  34.641  29.765  1.00  0.00     0.054 A 
BRANCH  45  46
ATOM     46  S   UNL A   1      33.116  35.537  28.914  1.00  0.00     0.124 S 
ATOM     47  O   UNL A   1      32.450  34.465  28.177  1.00  0.00    -0.237 OA
ATOM     48  O   UNL A   1      32.352  36.104  30.022  1.00  0.00    -0.237 OA
ATOM     49  O   UNL A   1      33.826  36.510  28.088  1.00  0.00    -0.744 OA
ENDBRANCH  45  46
ENDBRANCH  26  40
BRANCH  27  50
ATOM     50  C   UNL A   1      44.063  28.417  35.776  1.00  0.00    -0.014 A 
ATOM     51  C   UNL A   1      45.407  28.801  35.633  1.00  0.00     0.010 A 
ATOM     52  C   UNL A   1      43.759  27.314  36.599  1.00  0.00     0.010 A 
ATOM     53  C   UNL A   1      46.424  28.086  36.277  1.00  0.00     0.020 A 
ATOM     54  C   UNL A   1      44.768  26.617  37.270  1.00  0.00     0.020 A 
ATOM     55  C   UNL A   1      46.096  26.999  37.092  1.00  0.00     0.054 A 
BRANCH  55  56
ATOM     56  S   UNL A   1      47.429  26.100  37.935  1.00  0.00     0.124 S 
ATOM     57  O   UNL A   1      48.117  27.172  38.647  1.00  0.00    -0.237 OA
ATOM     58  O   UNL A   1      46.693  25.156  38.771  1.00  0.00    -0.237 OA
ATOM     59  O   UNL A   1      48.182  25.494  36.839  1.00  0.00    -0.744 OA
ENDBRANCH  55  56
ENDBRANCH  27  50
BRANCH  39  60
ATOM     60  C   UNL A   1      40.066  33.928  37.340  1.00  0.00    -0.014 A 
ATOM     61  C   UNL A   1      39.195  33.626  38.399  1.00  0.00     0.010 A 
ATOM     62  C   UNL A   1      40.928  35.035  37.442  1.00  0.00     0.010 A 
ATOM     63  C   UNL A   1      39.156  34.448  39.526  1.00  0.00     0.020 A 
ATOM     64  C   UNL A   1      40.918  35.835  38.582  1.00  0.00     0.020 A 
ATOM     65  C   UNL A   1      40.018  35.547  39.610  1.00  0.00     0.054 A 
BRANCH  65  66
ATOM     66  S   UNL A   1      39.973  36.577  41.099  1.00  0.00     0.124 S 
ATOM     67  O   UNL A   1      41.301  37.183  41.087  1.00  0.00    -0.237 OA
ATOM     68  O   UNL A   1      38.862  37.486  40.827  1.00  0.00    -0.237 OA
ATOM     69  O   UNL A   1      39.735  35.618  42.176  1.00  0.00    -0.744 OA
ENDBRANCH  65  66
ENDBRANCH  39  60
ENDBRANCH  13  14
ENDBRANCH   6   8
ENDBRANCH   5   6
ENDBRANCH   4   5
ENDBRANCH   3   4
ENDBRANCH   2   3
ENDBRANCH   1   2
BRANCH   1  70
ATOM     70  C   UNL A   1      37.361  23.262  25.505  1.00  0.00     0.261 C 
BRANCH  70  71
ATOM     71  O   UNL A   1      36.678  23.593  24.279  1.00  0.00    -0.463 OA
BRANCH  71  72
ATOM     72  C   UNL A   1      35.428  24.104  24.470  1.00  0.00     0.310 C 
ATOM     73  O   UNL A   1      35.141  24.900  25.358  1.00  0.00    -0.252 OA
BRANCH  72  74
ATOM     74  C   UNL A   1      34.430  23.497  23.503  1.00  0.00     0.115 C 
ATOM     75  C   UNL A   1      33.897  22.158  24.108  1.00  0.00     0.004 C 
ATOM     76  C   UNL A   1      33.113  24.255  23.226  1.00  0.00     0.096 C 
ATOM     77  C   UNL A   1      33.022  22.317  25.373  1.00  0.00     0.005 C 
ATOM     78  C   UNL A   1      32.806  21.847  23.112  1.00  0.00     0.009 C 
ATOM     79  C   UNL A   1      32.039  23.145  23.349  1.00  0.00     0.003 C 
ATOM     80  C   UNL A   1      31.730  22.966  24.848  1.00  0.00     0.005 C 
BRANCH  76  81
ATOM     81  C   UNL A   1      32.945  25.223  22.028  1.00  0.00     0.229 C 
ATOM     82  O   UNL A   1      33.031  24.737  20.887  1.00  0.00    -0.274 OA
ATOM     83  N   UNL A   1      32.713  26.566  22.067  1.00  0.00    -0.317 N 
ATOM     84  H   UNL A   1      32.746  27.055  21.214  1.00  0.00     0.170 HD
BRANCH  83  85
ATOM     85  C   UNL A   1      32.437  27.286  23.191  1.00  0.00     0.108 A 
ATOM     86  S   UNL A   1      33.393  28.680  23.449  1.00  0.00    -0.122 S 
ATOM     87  C   UNL A   1      31.291  27.370  23.973  1.00  0.00     0.078 A 
ATOM     88  C   UNL A   1      32.914  28.631  25.088  1.00  0.00     0.011 A 
ATOM     89  C   UNL A   1      31.785  27.830  25.263  1.00  0.00    -0.019 A 
ATOM     90  C   UNL A   1      33.756  29.256  26.162  1.00  0.00     0.047 C 
ATOM     91  C   UNL A   1      31.384  27.454  26.665  1.00  0.00     0.037 C 
ATOM     92  C   UNL A   1      33.404  28.674  27.538  1.00  0.00     0.006 C 
ATOM     93  C   UNL A   1      31.894  28.484  27.686  1.00  0.00     0.005 C 
BRANCH  87  94
ATOM     94  C   UNL A   1      30.023  26.813  23.476  1.00  0.00     0.254 C 
ATOM     95  O   UNL A   1      29.864  25.597  23.341  1.00  0.00    -0.269 OA
ATOM     96  N   UNL A   1      29.030  27.619  22.962  1.00  0.00    -0.349 N 
ATOM     97  H   UNL A   1      28.338  27.151  22.442  1.00  0.00     0.164 HD
BRANCH  96  98
ATOM     98  C   UNL A   1      28.859  29.045  23.074  1.00  0.00     0.082 C 
ATOM     99  C   UNL A   1      29.594  29.875  22.024  1.00  0.00     0.025 C 
ATOM    100  C   UNL A   1      27.395  29.489  23.140  1.00  0.00     0.025 C 
ATOM    101  C   UNL A   1      29.597  31.337  22.469  1.00  0.00     0.002 C 
ATOM    102  C   UNL A   1      27.350  30.947  23.612  1.00  0.00     0.002 C 
ATOM    103  C   UNL A   1      28.188  31.870  22.724  1.00  0.00     0.000 C 
ENDBRANCH  96  98
ENDBRANCH  87  94
ENDBRANCH  83  85
ENDBRANCH  76  81
ENDBRANCH  72  74
ENDBRANCH  71  72
ENDBRANCH  70  71
ENDBRANCH   1  70
TORSDOF 21
ENDMDL
MODEL 2
REMARK VINA RESULT:     -11.9      1.149      2.459
REMARK SMILES O=C(OCCOCCOC(=O)[C@H]1[C@H]2CC[C@H](C2)[C@@H]1C(=O)Nc1sc2c(c1C(=O)NC1CCCCC1)CCCC2)c1ccc(-c2c3nc(c(-c4ccc(S(=O)(=O)[O-])cc4)c4ccc([nH]4)c(-c4ccc(S(=O)(=O)[O-])cc4)c4nc(c(-c5ccc(S(=O)(=O)[O-])cc5)c5ccc2[nH]5)C=C4)C=C3)cc1
REMARK SMILES IDX 7 1 6 2 5 3 4 4 3 5 2 6 1 7 40 8 41 9 99 10 42 11 98 12
REMARK SMILES IDX 43 13 44 14 45 15 92 16 46 17 97 18 91 19 93 20 47 21 96 22
REMARK SMILES IDX 90 23 89 24 48 26 78 27 59 28 77 29 60 30 63 31 76 32 94 33
REMARK SMILES IDX 61 34 62 35 75 37 95 38 64 39 49 40 50 41 58 42 51 43 57 44
REMARK SMILES IDX 52 45 53 46 54 47 55 48 56 49 79 50 80 51 88 52 81 53 87 54
REMARK SMILES IDX 82 55 83 56 84 57 85 58 86 59 65 60 66 61 74 62 67 63 73 64
REMARK SMILES IDX 68 65 69 66 70 67 71 68 72 69 8 70 9 71 10 72 11 73 12 74
REMARK SMILES IDX 13 75 18 76 14 77 17 78 16 79 15 80 19 81 20 82 21 83 22 85
REMARK SMILES IDX 23 86 26 87 24 88 25 89 39 90 36 91 38 92 37 93 27 94 28 95
REMARK SMILES IDX 29 96 30 98 31 99 35 100 32 101 34 102 33 103
REMARK H PARENT 93 25 63 36 21 84 29 97
REMARK Flexibility Score: inf
ROOT
ATOM      1  C   UNL A   1      37.397  21.799  25.630  1.00  0.00     0.202 C 
ENDROOT
BRANCH   1   2
ATOM      2  O   UNL A   1      38.738  21.353  25.449  1.00  0.00    -0.374 OA
BRANCH   2   3
ATOM      3  C   UNL A   1      39.698  21.914  26.346  1.00  0.00     0.202 C 
BRANCH   3   4
ATOM      4  C   UNL A   1      39.543  23.411  26.625  1.00  0.00     0.261 C 
BRANCH   4   5
ATOM      5  O   UNL A   1      40.820  24.047  26.739  1.00  0.00    -0.460 OA
BRANCH   5   6
ATOM      6  C   UNL A   1      41.070  25.363  26.540  1.00  0.00     0.338 C 
ATOM      7  O   UNL A   1      41.409  25.735  25.416  1.00  0.00    -0.246 OA
BRANCH   6   8
ATOM      8  C   UNL A   1      40.889  26.403  27.599  1.00  0.00     0.060 A 
ATOM      9  C   UNL A   1      41.599  27.602  27.695  1.00  0.00     0.016 A 
ATOM     10  C   UNL A   1      39.875  26.167  28.542  1.00  0.00     0.016 A 
ATOM     11  C   UNL A   1      41.367  28.513  28.699  1.00  0.00     0.010 A 
ATOM     12  C   UNL A   1      39.617  27.088  29.559  1.00  0.00     0.010 A 
ATOM     13  C   UNL A   1      40.388  28.251  29.644  1.00  0.00    -0.014 A 
BRANCH  13  14
ATOM     14  C   UNL A   1      40.378  29.138  30.810  1.00  0.00     0.031 A 
ATOM     15  C   UNL A   1      39.293  30.165  30.875  1.00  0.00     0.074 A 
ATOM     16  C   UNL A   1      41.178  28.853  31.852  1.00  0.00     0.049 A 
ATOM     17  N   UNL A   1      39.054  31.053  31.797  1.00  0.00    -0.248 NA
ATOM     18  C   UNL A   1      38.332  30.181  29.755  1.00  0.00     0.031 C 
ATOM     19  C   UNL A   1      42.118  27.727  31.914  1.00  0.00     0.029 A 
ATOM     20  N   UNL A   1      41.286  29.444  33.078  1.00  0.00    -0.354 N 
ATOM     21  C   UNL A   1      37.950  31.764  31.346  1.00  0.00     0.074 A 
ATOM     22  C   UNL A   1      37.556  31.204  30.075  1.00  0.00     0.031 C 
ATOM     23  C   UNL A   1      42.684  27.696  33.130  1.00  0.00     0.029 A 
ATOM     24  C   UNL A   1      42.208  28.839  33.898  1.00  0.00     0.049 A 
ATOM     25  H   UNL A   1      40.756  30.229  33.347  1.00  0.00     0.167 HD
ATOM     26  C   UNL A   1      37.340  32.810  31.946  1.00  0.00     0.031 A 
ATOM     27  C   UNL A   1      42.633  29.205  35.119  1.00  0.00     0.031 A 
ATOM     28  C   UNL A   1      37.777  33.330  33.211  1.00  0.00     0.049 A 
ATOM     29  C   UNL A   1      42.015  30.441  35.715  1.00  0.00     0.074 A 
ATOM     30  C   UNL A   1      37.311  34.429  33.905  1.00  0.00     0.029 A 
ATOM     31  N   UNL A   1      38.796  32.770  33.973  1.00  0.00    -0.354 N 
ATOM     32  N   UNL A   1      41.041  31.186  35.239  1.00  0.00    -0.248 NA
ATOM     33  C   UNL A   1      42.553  30.896  37.000  1.00  0.00     0.031 C 
ATOM     34  C   UNL A   1      38.091  34.566  35.060  1.00  0.00     0.029 A 
ATOM     35  C   UNL A   1      38.990  33.509  35.123  1.00  0.00     0.049 A 
ATOM     36  H   UNL A   1      39.306  31.963  33.729  1.00  0.00     0.167 HD
ATOM     37  C   UNL A   1      40.828  32.182  36.182  1.00  0.00     0.074 A 
ATOM     38  C   UNL A   1      41.767  31.932  37.260  1.00  0.00     0.031 C 
ATOM     39  C   UNL A   1      39.940  33.208  36.167  1.00  0.00     0.031 A 
BRANCH  26  40
ATOM     40  C   UNL A   1      36.248  33.502  31.177  1.00  0.00    -0.014 A 
ATOM     41  C   UNL A   1      36.395  33.862  29.825  1.00  0.00     0.010 A 
ATOM     42  C   UNL A   1      35.061  33.846  31.849  1.00  0.00     0.010 A 
ATOM     43  C   UNL A   1      35.393  34.591  29.175  1.00  0.00     0.020 A 
ATOM     44  C   UNL A   1      34.046  34.548  31.196  1.00  0.00     0.020 A 
ATOM     45  C   UNL A   1      34.226  34.933  29.867  1.00  0.00     0.054 A 
BRANCH  45  46
ATOM     46  S   UNL A   1      32.940  35.876  29.003  1.00  0.00     0.124 S 
ATOM     47  O   UNL A   1      32.084  36.305  30.107  1.00  0.00    -0.237 OA
ATOM     48  O   UNL A   1      33.704  36.937  28.353  1.00  0.00    -0.237 OA
ATOM     49  O   UNL A   1      32.342  34.899  28.097  1.00  0.00    -0.744 OA
ENDBRANCH  45  46
ENDBRANCH  26  40
BRANCH  27  50
ATOM     50  C   UNL A   1      43.713  28.445  35.808  1.00  0.00    -0.014 A 
ATOM     51  C   UNL A   1      45.068  28.748  35.590  1.00  0.00     0.010 A 
ATOM     52  C   UNL A   1      43.388  27.401  36.696  1.00  0.00     0.010 A 
ATOM     53  C   UNL A   1      46.073  28.008  36.225  1.00  0.00     0.020 A 
ATOM     54  C   UNL A   1      44.387  26.681  37.358  1.00  0.00     0.020 A 
ATOM     55  C   UNL A   1      45.725  26.980  37.106  1.00  0.00     0.054 A 
BRANCH  55  56
ATOM     56  S   UNL A   1      47.043  26.049  37.935  1.00  0.00     0.124 S 
ATOM     57  O   UNL A   1      47.916  25.698  36.820  1.00  0.00    -0.237 OA
ATOM     58  O   UNL A   1      47.580  27.030  38.874  1.00  0.00    -0.237 OA
ATOM     59  O   UNL A   1      46.337  24.928  38.553  1.00  0.00    -0.744 OA
ENDBRANCH  55  56
ENDBRANCH  27  50
BRANCH  39  60
ATOM     60  C   UNL A   1      39.908  34.087  37.385  1.00  0.00    -0.014 A 
ATOM     61  C   UNL A   1      40.745  35.208  37.503  1.00  0.00     0.010 A 
ATOM     62  C   UNL A   1      38.977  33.803  38.401  1.00  0.00     0.010 A 
ATOM     63  C   UNL A   1      40.681  36.008  38.645  1.00  0.00     0.020 A 
ATOM     64  C   UNL A   1      38.885  34.622  39.523  1.00  0.00     0.020 A 
ATOM     65  C   UNL A   1      39.752  35.709  39.647  1.00  0.00     0.054 A 
BRANCH  65  66
ATOM     66  S   UNL A   1      39.664  36.784  41.101  1.00  0.00     0.124 S 
ATOM     67  O   UNL A   1      38.890  37.914  40.597  1.00  0.00    -0.237 OA
ATOM     68  O   UNL A   1      38.985  35.942  42.083  1.00  0.00    -0.237 OA
ATOM     69  O   UNL A   1      41.065  37.074  41.403  1.00  0.00    -0.744 OA
ENDBRANCH  65  66
ENDBRANCH  39  60
ENDBRANCH  13  14
ENDBRANCH   6   8
ENDBRANCH   5   6
ENDBRANCH   4   5
ENDBRANCH   3   4
ENDBRANCH   2   3
ENDBRANCH   1   2
BRANCH   1  70
ATOM     70  C   UNL A   1      36.728  22.071  24.288  1.00  0.00     0.261 C 
BRANCH  70  71
ATOM     71  O   UNL A   1      36.428  23.477  24.158  1.00  0.00    -0.463 OA
BRANCH  71  72
ATOM     72  C   UNL A   1      35.341  23.872  24.881  1.00  0.00     0.310 C 
ATOM     73  O   UNL A   1      35.320  24.864  25.602  1.00  0.00    -0.252 OA
BRANCH  72  74
ATOM     74  C   UNL A   1      34.199  22.883  24.746  1.00  0.00     0.115 C 
ATOM     75  C   UNL A   1      33.860  22.312  26.160  1.00  0.00     0.004 C 
ATOM     76  C   UNL A   1      32.819  23.403  24.284  1.00  0.00     0.096 C 
ATOM     77  C   UNL A   1      33.247  23.336  27.145  1.00  0.00     0.005 C 
ATOM     78  C   UNL A   1      32.607  21.537  25.827  1.00  0.00     0.009 C 
ATOM     79  C   UNL A   1      31.844  22.746  25.292  1.00  0.00     0.003 C 
ATOM     80  C   UNL A   1      31.847  23.610  26.568  1.00  0.00     0.005 C 
BRANCH  76  81
ATOM     81  C   UNL A   1      32.373  23.376  22.801  1.00  0.00     0.229 C 
ATOM     82  O   UNL A   1      32.615  22.344  22.152  1.00  0.00    -0.274 OA
ATOM     83  N   UNL A   1      31.737  24.360  22.103  1.00  0.00    -0.317 N 
ATOM     84  H   UNL A   1      31.626  24.226  21.135  1.00  0.00     0.170 HD
BRANCH  83  85
ATOM     85  C   UNL A   1      31.243  25.512  22.637  1.00  0.00     0.108 A 
ATOM     86  S   UNL A   1      29.868  25.352  23.640  1.00  0.00    -0.122 S 
ATOM     87  C   UNL A   1      31.837  26.746  22.873  1.00  0.00     0.078 A 
ATOM     88  C   UNL A   1      29.575  27.018  23.402  1.00  0.00     0.011 A 
ATOM     89  C   UNL A   1      30.711  27.669  22.919  1.00  0.00    -0.019 A 
ATOM     90  C   UNL A   1      28.197  27.594  23.552  1.00  0.00     0.047 C 
ATOM     91  C   UNL A   1      30.564  29.074  22.399  1.00  0.00     0.037 C 
ATOM     92  C   UNL A   1      28.089  28.944  22.830  1.00  0.00     0.006 C 
ATOM     93  C   UNL A   1      29.354  29.780  23.031  1.00  0.00     0.005 C 
BRANCH  87  94
ATOM     94  C   UNL A   1      33.300  26.883  22.789  1.00  0.00     0.254 C 
ATOM     95  O   UNL A   1      33.930  26.458  21.819  1.00  0.00    -0.269 OA
ATOM     96  N   UNL A   1      34.048  27.315  23.863  1.00  0.00    -0.349 N 
ATOM     97  H   UNL A   1      35.016  27.146  23.794  1.00  0.00     0.164 HD
BRANCH  96  98
ATOM     98  C   UNL A   1      33.623  27.978  25.069  1.00  0.00     0.082 C 
ATOM     99  C   UNL A   1      33.120  29.409  24.885  1.00  0.00     0.025 C 
ATOM    100  C   UNL A   1      32.603  27.181  25.887  1.00  0.00     0.025 C 
ATOM    101  C   UNL A   1      33.035  30.078  26.256  1.00  0.00     0.002 C 
ATOM    102  C   UNL A   1      32.506  27.804  27.284  1.00  0.00     0.002 C 
ATOM    103  C   UNL A   1      32.159  29.294  27.232  1.00  0.00     0.000 C 
ENDBRANCH  96  98
ENDBRANCH  87  94
ENDBRANCH  83  85
ENDBRANCH  76  81
ENDBRANCH  72  74
ENDBRANCH  71  72
ENDBRANCH  70  71
ENDBRANCH   1  70
TORSDOF 21
ENDMDL
MODEL 3
REMARK VINA RESULT:     -11.7      6.106     10.452
REMARK SMILES O=C(OCCOCCOC(=O)[C@H]1[C@H]2CC[C@H](C2)[C@@H]1C(=O)Nc1sc2c(c1C(=O)NC1CCCCC1)CCCC2)c1ccc(-c2c3nc(c(-c4ccc(S(=O)(=O)[O-])cc4)c4ccc([nH]4)c(-c4ccc(S(=O)(=O)[O-])cc4)c4nc(c(-c5ccc(S(=O)(=O)[O-])cc5)c5ccc2[nH]5)C=C4)C=C3)cc1
REMARK SMILES IDX 7 1 6 2 5 3 4 4 3 5 2 6 1 7 40 8 41 9 99 10 42 11 98 12
REMARK SMILES IDX 43 13 44 14 45 15 92 16 46 17 97 18 91 19 93 20 47 21 96 22
REMARK SMILES IDX 90 23 89 24 48 26 78 27 59 28 77 29 60 30 63 31 76 32 94 33
REMARK SMILES IDX 61 34 62 35 75 37 95 38 64 39 49 40 50 41 58 42 51 43 57 44
REMARK SMILES IDX 52 45 53 46 54 47 55 48 56 49 79 50 80 51 88 52 81 53 87 54
REMARK SMILES IDX 82 55 83 56 84 57 85 58 86 59 65 60 66 61 74 62 67 63 73 64
REMARK SMILES IDX 68 65 69 66 70 67 71 68 72 69 8 70 9 71 10 72 11 73 12 74
REMARK SMILES IDX 13 75 18 76 14 77 17 78 16 79 15 80 19 81 20 82 21 83 22 85
REMARK SMILES IDX 23 86 26 87 24 88 25 89 39 90 36 91 38 92 37 93 27 94 28 95
REMARK SMILES IDX 29 96 30 98 31 99 35 100 32 101 34 102 33 103
REMARK H PARENT 93 25 63 36 21 84 29 97
REMARK Flexibility Score: inf
ROOT
ATOM      1  C   UNL A   1      38.327  22.970  26.263  1.00  0.00     0.202 C 
ENDROOT
BRANCH   1   2
ATOM      2  O   UNL A   1      38.611  21.696  25.694  1.00  0.00    -0.374 OA
BRANCH   2   3
ATOM      3  C   UNL A   1      39.687  20.978  26.301  1.00  0.00     0.202 C 
BRANCH   3   4
ATOM      4  C   UNL A   1      39.936  19.573  25.750  1.00  0.00     0.261 C 
BRANCH   4   5
ATOM      5  O   UNL A   1      41.203  19.068  26.183  1.00  0.00    -0.460 OA
BRANCH   5   6
ATOM      6  C   UNL A   1      42.415  19.500  25.760  1.00  0.00     0.338 C 
ATOM      7  O   UNL A   1      43.058  18.788  24.988  1.00  0.00    -0.246 OA
BRANCH   6   8
ATOM      8  C   UNL A   1      42.985  20.833  26.126  1.00  0.00     0.060 A 
ATOM      9  C   UNL A   1      43.096  21.345  27.421  1.00  0.00     0.016 A 
ATOM     10  C   UNL A   1      43.501  21.604  25.072  1.00  0.00     0.016 A 
ATOM     11  C   UNL A   1      43.643  22.582  27.676  1.00  0.00     0.010 A 
ATOM     12  C   UNL A   1      44.071  22.856  25.315  1.00  0.00     0.010 A 
ATOM     13  C   UNL A   1      44.115  23.348  26.623  1.00  0.00    -0.014 A 
BRANCH  13  14
ATOM     14  C   UNL A   1      44.441  24.739  26.947  1.00  0.00     0.031 A 
ATOM     15  C   UNL A   1      45.840  25.192  26.671  1.00  0.00     0.074 A 
ATOM     16  C   UNL A   1      43.446  25.588  27.253  1.00  0.00     0.049 A 
ATOM     17  N   UNL A   1      46.376  26.365  26.851  1.00  0.00    -0.248 NA
ATOM     18  C   UNL A   1      46.755  24.190  26.091  1.00  0.00     0.031 C 
ATOM     19  C   UNL A   1      42.024  25.230  27.337  1.00  0.00     0.029 A 
ATOM     20  N   UNL A   1      43.464  26.932  27.490  1.00  0.00    -0.354 N 
ATOM     21  C   UNL A   1      47.701  26.228  26.457  1.00  0.00     0.074 A 
ATOM     22  C   UNL A   1      47.890  24.866  26.018  1.00  0.00     0.031 C 
ATOM     23  C   UNL A   1      41.307  26.338  27.577  1.00  0.00     0.029 A 
ATOM     24  C   UNL A   1      42.221  27.461  27.742  1.00  0.00     0.049 A 
ATOM     25  H   UNL A   1      44.289  27.471  27.481  1.00  0.00     0.167 HD
ATOM     26  C   UNL A   1      48.672  27.167  26.485  1.00  0.00     0.031 A 
ATOM     27  C   UNL A   1      41.883  28.712  28.100  1.00  0.00     0.031 A 
ATOM     28  C   UNL A   1      48.428  28.509  26.936  1.00  0.00     0.049 A 
ATOM     29  C   UNL A   1      43.001  29.710  28.233  1.00  0.00     0.074 A 
ATOM     30  C   UNL A   1      49.324  29.547  27.095  1.00  0.00     0.029 A 
ATOM     31  N   UNL A   1      47.176  28.993  27.301  1.00  0.00    -0.354 N 
ATOM     32  N   UNL A   1      44.280  29.554  27.967  1.00  0.00    -0.248 NA
ATOM     33  C   UNL A   1      42.642  31.043  28.723  1.00  0.00     0.031 C 
ATOM     34  C   UNL A   1      48.622  30.641  27.613  1.00  0.00     0.029 A 
ATOM     35  C   UNL A   1      47.276  30.309  27.704  1.00  0.00     0.049 A 
ATOM     36  H   UNL A   1      46.340  28.472  27.276  1.00  0.00     0.167 HD
ATOM     37  C   UNL A   1      44.875  30.780  28.227  1.00  0.00     0.074 A 
ATOM     38  C   UNL A   1      43.811  31.668  28.660  1.00  0.00     0.031 C 
ATOM     39  C   UNL A   1      46.177  31.148  28.120  1.00  0.00     0.031 A 
BRANCH  26  40
ATOM     40  C   UNL A   1      50.067  26.725  26.141  1.00  0.00    -0.014 A 
ATOM     41  C   UNL A   1      50.957  26.225  27.110  1.00  0.00     0.010 A 
ATOM     42  C   UNL A   1      50.512  26.863  24.814  1.00  0.00     0.010 A 
ATOM     43  C   UNL A   1      52.277  25.916  26.765  1.00  0.00     0.020 A 
ATOM     44  C   UNL A   1      51.820  26.527  24.458  1.00  0.00     0.020 A 
ATOM     45  C   UNL A   1      52.701  26.073  25.440  1.00  0.00     0.054 A 
BRANCH  45  46
ATOM     46  S   UNL A   1      54.416  25.663  25.016  1.00  0.00     0.124 S 
ATOM     47  O   UNL A   1      55.156  26.271  26.120  1.00  0.00    -0.237 OA
ATOM     48  O   UNL A   1      54.401  24.202  25.001  1.00  0.00    -0.237 OA
ATOM     49  O   UNL A   1      54.613  26.295  23.714  1.00  0.00    -0.744 OA
ENDBRANCH  45  46
ENDBRANCH  26  40
BRANCH  27  50
ATOM     50  C   UNL A   1      40.468  29.058  28.409  1.00  0.00    -0.014 A 
ATOM     51  C   UNL A   1      40.007  29.123  29.735  1.00  0.00     0.010 A 
ATOM     52  C   UNL A   1      39.560  29.326  27.365  1.00  0.00     0.010 A 
ATOM     53  C   UNL A   1      38.668  29.425  30.009  1.00  0.00     0.020 A 
ATOM     54  C   UNL A   1      38.230  29.660  27.634  1.00  0.00     0.020 A 
ATOM     55  C   UNL A   1      37.788  29.692  28.955  1.00  0.00     0.054 A 
BRANCH  55  56
ATOM     56  S   UNL A   1      36.062  30.103  29.335  1.00  0.00     0.124 S 
ATOM     57  O   UNL A   1      35.338  29.336  28.326  1.00  0.00    -0.237 OA
ATOM     58  O   UNL A   1      35.920  29.632  30.710  1.00  0.00    -0.237 OA
ATOM     59  O   UNL A   1      36.010  31.554  29.173  1.00  0.00    -0.744 OA
ENDBRANCH  55  56
ENDBRANCH  27  50
BRANCH  39  60
ATOM     60  C   UNL A   1      46.496  32.585  28.413  1.00  0.00    -0.014 A 
ATOM     61  C   UNL A   1      46.803  33.019  29.713  1.00  0.00     0.010 A 
ATOM     62  C   UNL A   1      46.539  33.501  27.346  1.00  0.00     0.010 A 
ATOM     63  C   UNL A   1      47.105  34.361  29.948  1.00  0.00     0.020 A 
ATOM     64  C   UNL A   1      46.876  34.833  27.572  1.00  0.00     0.020 A 
ATOM     65  C   UNL A   1      47.139  35.259  28.876  1.00  0.00     0.054 A 
BRANCH  65  66
ATOM     66  S   UNL A   1      47.569  36.988  29.201  1.00  0.00     0.124 S 
ATOM     67  O   UNL A   1      47.862  36.962  30.631  1.00  0.00    -0.237 OA
ATOM     68  O   UNL A   1      48.718  37.203  28.326  1.00  0.00    -0.237 OA
ATOM     69  O   UNL A   1      46.362  37.721  28.825  1.00  0.00    -0.744 OA
ENDBRANCH  65  66
ENDBRANCH  39  60
ENDBRANCH  13  14
ENDBRANCH   6   8
ENDBRANCH   5   6
ENDBRANCH   4   5
ENDBRANCH   3   4
ENDBRANCH   2   3
ENDBRANCH   1   2
BRANCH   1  70
ATOM     70  C   UNL A   1      37.246  23.694  25.468  1.00  0.00     0.261 C 
BRANCH  70  71
ATOM     71  O   UNL A   1      35.959  23.501  26.091  1.00  0.00    -0.463 OA
BRANCH  71  72
ATOM     72  C   UNL A   1      34.928  24.066  25.399  1.00  0.00     0.310 C 
ATOM     73  O   UNL A   1      34.806  25.272  25.211  1.00  0.00    -0.252 OA
BRANCH  72  74
ATOM     74  C   UNL A   1      33.914  23.022  24.971  1.00  0.00     0.115 C 
ATOM     75  C   UNL A   1      33.390  22.281  26.243  1.00  0.00     0.004 C 
ATOM     76  C   UNL A   1      32.593  23.495  24.323  1.00  0.00     0.096 C 
ATOM     77  C   UNL A   1      32.534  23.149  27.196  1.00  0.00     0.005 C 
ATOM     78  C   UNL A   1      32.283  21.463  25.622  1.00  0.00     0.009 C 
ATOM     79  C   UNL A   1      31.520  22.669  25.077  1.00  0.00     0.003 C 
ATOM     80  C   UNL A   1      31.234  23.389  26.408  1.00  0.00     0.005 C 
BRANCH  76  81
ATOM     81  C   UNL A   1      32.408  23.597  22.789  1.00  0.00     0.229 C 
ATOM     82  O   UNL A   1      32.780  22.629  22.104  1.00  0.00    -0.274 OA
ATOM     83  N   UNL A   1      31.878  24.634  22.080  1.00  0.00    -0.317 N 
ATOM     84  H   UNL A   1      31.938  24.588  21.100  1.00  0.00     0.170 HD
BRANCH  83  85
ATOM     85  C   UNL A   1      31.273  25.731  22.619  1.00  0.00     0.108 A 
ATOM     86  S   UNL A   1      29.899  25.435  23.591  1.00  0.00    -0.122 S 
ATOM     87  C   UNL A   1      31.751  27.009  22.883  1.00  0.00     0.078 A 
ATOM     88  C   UNL A   1      29.465  27.072  23.370  1.00  0.00     0.011 A 
ATOM     89  C   UNL A   1      30.547  27.828  22.918  1.00  0.00    -0.019 A 
ATOM     90  C   UNL A   1      28.038  27.521  23.499  1.00  0.00     0.047 C 
ATOM     91  C   UNL A   1      30.286  29.222  22.413  1.00  0.00     0.037 C 
ATOM     92  C   UNL A   1      27.825  28.867  22.792  1.00  0.00     0.006 C 
ATOM     93  C   UNL A   1      29.006  29.809  23.029  1.00  0.00     0.005 C 
BRANCH  87  94
ATOM     94  C   UNL A   1      33.197  27.276  22.830  1.00  0.00     0.254 C 
ATOM     95  O   UNL A   1      33.878  26.941  21.858  1.00  0.00    -0.269 OA
ATOM     96  N   UNL A   1      33.889  27.734  23.931  1.00  0.00    -0.349 N 
ATOM     97  H   UNL A   1      34.868  27.652  23.875  1.00  0.00     0.164 HD
BRANCH  96  98
ATOM     98  C   UNL A   1      33.388  28.315  25.151  1.00  0.00     0.082 C 
ATOM     99  C   UNL A   1      32.765  29.702  25.005  1.00  0.00     0.025 C 
ATOM    100  C   UNL A   1      32.430  27.404  25.922  1.00  0.00     0.025 C 
ATOM    101  C   UNL A   1      32.600  30.313  26.396  1.00  0.00     0.002 C 
ATOM    102  C   UNL A   1      32.258  27.967  27.338  1.00  0.00     0.002 C 
ATOM    103  C   UNL A   1      31.782  29.422  27.330  1.00  0.00     0.000 C 
ENDBRANCH  96  98
ENDBRANCH  87  94
ENDBRANCH  83  85
ENDBRANCH  76  81
ENDBRANCH  72  74
ENDBRANCH  71  72
ENDBRANCH  70  71
ENDBRANCH   1  70
TORSDOF 21
ENDMDL
