MODEL 1
REMARK VINA RESULT:     -10.2      0.000      0.000
REMARK SMILES CCOC(=O)C1=NN(c2ccc([N+](=O)[O-])cc2C(F)(F)F)[C@@](C)(C(=O)OCCOCCOC(=O)c2ccc(-c3c4nc(c(-c5ccc(S(=O)(=O)[O-])cc5)c5ccc([nH]5)c(-c5ccc(S(=O)(=O)[O-])cc5)c5nc(c(-c6ccc(S(=O)(=O)[O-])cc6)c6ccc3[nH]6)C=C5)C=C4)cc2)C1
REMARK SMILES IDX 29 1 28 2 27 3 26 4 24 5 25 6 22 7 6 8 7 9 95 10 8 11 23 12
REMARK SMILES IDX 4 13 5 14 3 15 2 16 1 17 9 18 10 19 17 20 11 21 16 22 12 23
REMARK SMILES IDX 18 24 19 25 20 26 21 27 13 28 14 29 15 30 30 31 31 32 32 33
REMARK SMILES IDX 33 34 34 35 35 36 36 37 94 38 37 39 93 40 38 41 39 42 40 43
REMARK SMILES IDX 87 44 41 45 92 46 86 47 88 48 42 49 91 50 85 51 84 52 43 54
REMARK SMILES IDX 73 55 54 56 72 57 55 58 58 59 71 60 89 61 56 62 57 63 70 65
REMARK SMILES IDX 90 66 59 67 44 68 45 69 53 70 46 71 52 72 47 73 48 74 49 75
REMARK SMILES IDX 50 76 51 77 74 78 75 79 83 80 76 81 82 82 77 83 78 84 79 85
REMARK SMILES IDX 80 86 81 87 60 88 61 89 69 90 62 91 68 92 63 93 64 94 65 95
REMARK SMILES IDX 66 96 67 97
REMARK H PARENT 88 53 58 64
REMARK Flexibility Score: inf
ROOT
ATOM      1  O   UNL A   1      38.610  22.210  26.128  1.00  0.00    -0.374 OA
ENDROOT
BRANCH   1   2
ATOM      2  C   UNL A   1      37.808  23.337  25.786  1.00  0.00     0.202 C 
BRANCH   2   3
ATOM      3  C   UNL A   1      36.359  23.055  25.380  1.00  0.00     0.261 C 
BRANCH   3   4
ATOM      4  O   UNL A   1      35.808  24.056  24.502  1.00  0.00    -0.461 OA
BRANCH   4   5
ATOM      5  C   UNL A   1      35.140  23.554  23.429  1.00  0.00     0.334 C 
ATOM      6  O   UNL A   1      35.696  23.072  22.445  1.00  0.00    -0.249 OA
BRANCH   5   7
ATOM      7  C   UNL A   1      33.610  23.725  23.494  1.00  0.00     0.163 C 
ATOM      8  C   UNL A   1      32.901  22.198  25.053  1.00  0.00     0.149 C 
ATOM      9  N   UNL A   1      32.878  23.319  25.710  1.00  0.00    -0.169 NA
ATOM     10  C   UNL A   1      33.007  22.304  23.567  1.00  0.00     0.108 C 
ATOM     11  N   UNL A   1      33.088  24.296  24.769  1.00  0.00    -0.247 N 
ATOM     12  C   UNL A   1      33.224  24.457  22.218  1.00  0.00     0.050 C 
BRANCH   8  13
ATOM     13  C   UNL A   1      32.857  20.853  25.714  1.00  0.00     0.354 C 
ATOM     14  O   UNL A   1      33.533  20.621  26.704  1.00  0.00    -0.245 OA
BRANCH  13  15
ATOM     15  O   UNL A   1      32.004  20.033  25.080  1.00  0.00    -0.461 OA
BRANCH  15  16
ATOM     16  C   UNL A   1      32.601  18.846  24.538  1.00  0.00     0.230 C 
ATOM     17  C   UNL A   1      32.584  17.718  25.554  1.00  0.00     0.049 C 
ENDBRANCH  15  16
ENDBRANCH  13  15
ENDBRANCH   8  13
BRANCH  11  18
ATOM     18  C   UNL A   1      32.856  25.606  25.158  1.00  0.00     0.073 A 
ATOM     19  C   UNL A   1      33.944  26.358  25.652  1.00  0.00     0.036 A 
ATOM     20  C   UNL A   1      31.579  26.199  25.236  1.00  0.00     0.088 A 
ATOM     21  C   UNL A   1      33.807  27.668  26.128  1.00  0.00     0.088 A 
ATOM     22  C   UNL A   1      31.447  27.548  25.652  1.00  0.00     0.101 A 
ATOM     23  C   UNL A   1      32.555  28.271  26.099  1.00  0.00     0.270 A 
BRANCH  20  24
ATOM     24  C   UNL A   1      30.289  25.454  24.996  1.00  0.00     0.418 C 
ATOM     25  F   UNL A   1      29.208  26.288  24.948  1.00  0.00    -0.166 F 
ATOM     26  F   UNL A   1      30.285  24.801  23.799  1.00  0.00    -0.166 F 
ATOM     27  F   UNL A   1      29.968  24.523  25.937  1.00  0.00    -0.166 F 
ENDBRANCH  20  24
BRANCH  23  28
ATOM     28  N   UNL A   1      32.384  29.642  26.600  1.00  0.00     0.062 N 
ATOM     29  O   UNL A   1      33.138  30.516  26.151  1.00  0.00    -0.258 OA
ATOM     30  O   UNL A   1      31.509  29.832  27.456  1.00  0.00    -0.258 OA
ENDBRANCH  23  28
ENDBRANCH  11  18
ENDBRANCH   5   7
ENDBRANCH   4   5
ENDBRANCH   3   4
ENDBRANCH   2   3
ENDBRANCH   1   2
BRANCH   1  31
ATOM     31  C   UNL A   1      38.308  20.978  25.471  1.00  0.00     0.202 C 
BRANCH  31  32
ATOM     32  C   UNL A   1      39.360  19.868  25.572  1.00  0.00     0.261 C 
BRANCH  32  33
ATOM     33  O   UNL A   1      40.343  20.161  26.584  1.00  0.00    -0.460 OA
BRANCH  33  34
ATOM     34  C   UNL A   1      41.617  19.834  26.261  1.00  0.00     0.338 C 
ATOM     35  O   UNL A   1      42.005  18.782  25.775  1.00  0.00    -0.246 OA
BRANCH  34  36
ATOM     36  C   UNL A   1      42.483  21.025  26.382  1.00  0.00     0.060 A 
ATOM     37  C   UNL A   1      42.789  21.470  27.673  1.00  0.00     0.016 A 
ATOM     38  C   UNL A   1      42.944  21.724  25.264  1.00  0.00     0.016 A 
ATOM     39  C   UNL A   1      43.508  22.650  27.853  1.00  0.00     0.010 A 
ATOM     40  C   UNL A   1      43.665  22.910  25.446  1.00  0.00     0.010 A 
ATOM     41  C   UNL A   1      43.912  23.399  26.741  1.00  0.00    -0.014 A 
BRANCH  41  42
ATOM     42  C   UNL A   1      44.425  24.777  26.941  1.00  0.00     0.031 A 
ATOM     43  C   UNL A   1      43.456  25.851  27.363  1.00  0.00     0.074 A 
ATOM     44  C   UNL A   1      45.733  25.060  26.807  1.00  0.00     0.049 A 
ATOM     45  N   UNL A   1      43.674  27.120  27.587  1.00  0.00    -0.248 NA
ATOM     46  C   UNL A   1      42.058  25.435  27.565  1.00  0.00     0.031 C 
ATOM     47  C   UNL A   1      46.779  24.096  26.466  1.00  0.00     0.029 A 
ATOM     48  N   UNL A   1      46.404  26.249  26.947  1.00  0.00    -0.354 N 
ATOM     49  C   UNL A   1      42.446  27.655  27.956  1.00  0.00     0.074 A 
ATOM     50  C   UNL A   1      41.480  26.581  27.897  1.00  0.00     0.031 C 
ATOM     51  C   UNL A   1      47.962  24.735  26.420  1.00  0.00     0.029 A 
ATOM     52  C   UNL A   1      47.752  26.155  26.695  1.00  0.00     0.049 A 
ATOM     53  H   UNL A   1      45.962  27.090  27.204  1.00  0.00     0.167 HD
ATOM     54  C   UNL A   1      42.146  28.924  28.321  1.00  0.00     0.031 A 
ATOM     55  C   UNL A   1      48.704  27.110  26.671  1.00  0.00     0.031 A 
ATOM     56  C   UNL A   1      43.101  29.998  28.362  1.00  0.00     0.049 A 
ATOM     57  C   UNL A   1      48.326  28.536  26.977  1.00  0.00     0.074 A 
ATOM     58  C   UNL A   1      42.895  31.321  28.710  1.00  0.00     0.029 A 
ATOM     59  N   UNL A   1      44.443  29.873  28.037  1.00  0.00    -0.354 N 
ATOM     60  N   UNL A   1      47.161  29.023  27.330  1.00  0.00    -0.248 NA
ATOM     61  C   UNL A   1      49.395  29.543  26.880  1.00  0.00     0.031 C 
ATOM     62  C   UNL A   1      44.103  32.007  28.549  1.00  0.00     0.029 A 
ATOM     63  C   UNL A   1      45.073  31.101  28.152  1.00  0.00     0.049 A 
ATOM     64  H   UNL A   1      44.883  29.036  27.763  1.00  0.00     0.167 HD
ATOM     65  C   UNL A   1      47.362  30.387  27.523  1.00  0.00     0.074 A 
ATOM     66  C   UNL A   1      48.762  30.646  27.257  1.00  0.00     0.031 C 
ATOM     67  C   UNL A   1      46.468  31.339  27.888  1.00  0.00     0.031 A 
BRANCH  54  68
ATOM     68  C   UNL A   1      40.716  29.223  28.678  1.00  0.00    -0.014 A 
ATOM     69  C   UNL A   1      40.327  29.400  30.018  1.00  0.00     0.010 A 
ATOM     70  C   UNL A   1      39.755  29.360  27.661  1.00  0.00     0.010 A 
ATOM     71  C   UNL A   1      38.994  29.674  30.337  1.00  0.00     0.020 A 
ATOM     72  C   UNL A   1      38.425  29.657  27.973  1.00  0.00     0.020 A 
ATOM     73  C   UNL A   1      38.050  29.797  29.312  1.00  0.00     0.054 A 
BRANCH  73  74
ATOM     74  S   UNL A   1      36.330  30.173  29.751  1.00  0.00     0.124 S 
ATOM     75  O   UNL A   1      36.379  31.621  29.941  1.00  0.00    -0.237 OA
ATOM     76  O   UNL A   1      35.592  29.718  28.575  1.00  0.00    -0.237 OA
ATOM     77  O   UNL A   1      36.103  29.393  30.965  1.00  0.00    -0.744 OA
ENDBRANCH  73  74
ENDBRANCH  54  68
BRANCH  55  78
ATOM     78  C   UNL A   1      50.105  26.759  26.316  1.00  0.00    -0.014 A 
ATOM     79  C   UNL A   1      50.524  26.739  24.974  1.00  0.00     0.010 A 
ATOM     80  C   UNL A   1      51.029  26.425  27.325  1.00  0.00     0.010 A 
ATOM     81  C   UNL A   1      51.834  26.376  24.646  1.00  0.00     0.020 A 
ATOM     82  C   UNL A   1      52.345  26.085  27.002  1.00  0.00     0.020 A 
ATOM     83  C   UNL A   1      52.736  26.051  25.662  1.00  0.00     0.054 A 
BRANCH  83  84
ATOM     84  S   UNL A   1      54.444  25.624  25.219  1.00  0.00     0.124 S 
ATOM     85  O   UNL A   1      54.388  24.167  25.164  1.00  0.00    -0.237 OA
ATOM     86  O   UNL A   1      54.616  26.301  23.935  1.00  0.00    -0.237 OA
ATOM     87  O   UNL A   1      55.230  26.182  26.318  1.00  0.00    -0.744 OA
ENDBRANCH  83  84
ENDBRANCH  55  78
BRANCH  67  88
ATOM     88  C   UNL A   1      46.977  32.746  28.055  1.00  0.00    -0.014 A 
ATOM     89  C   UNL A   1      47.518  33.182  29.277  1.00  0.00     0.010 A 
ATOM     90  C   UNL A   1      46.980  33.618  26.951  1.00  0.00     0.010 A 
ATOM     91  C   UNL A   1      48.035  34.475  29.397  1.00  0.00     0.020 A 
ATOM     92  C   UNL A   1      47.519  34.902  27.061  1.00  0.00     0.020 A 
ATOM     93  C   UNL A   1      48.033  35.327  28.287  1.00  0.00     0.054 A 
BRANCH  93  94
ATOM     94  S   UNL A   1      48.765  36.979  28.453  1.00  0.00     0.124 S 
ATOM     95  O   UNL A   1      47.769  37.673  29.264  1.00  0.00    -0.237 OA
ATOM     96  O   UNL A   1      50.036  36.704  29.117  1.00  0.00    -0.237 OA
ATOM     97  O   UNL A   1      48.879  37.446  27.073  1.00  0.00    -0.744 OA
ENDBRANCH  93  94
ENDBRANCH  67  88
ENDBRANCH  41  42
ENDBRANCH  34  36
ENDBRANCH  33  34
ENDBRANCH  32  33
ENDBRANCH  31  32
ENDBRANCH   1  31
TORSDOF 23
ENDMDL
MODEL 2
REMARK VINA RESULT:      -9.5      6.979     11.577
REMARK SMILES CCOC(=O)C1=NN(c2ccc([N+](=O)[O-])cc2C(F)(F)F)[C@@](C)(C(=O)OCCOCCOC(=O)c2ccc(-c3c4nc(c(-c5ccc(S(=O)(=O)[O-])cc5)c5ccc([nH]5)c(-c5ccc(S(=O)(=O)[O-])cc5)c5nc(c(-c6ccc(S(=O)(=O)[O-])cc6)c6ccc3[nH]6)C=C5)C=C4)cc2)C1
REMARK SMILES IDX 29 1 28 2 27 3 26 4 24 5 25 6 22 7 6 8 7 9 95 10 8 11 23 12
REMARK SMILES IDX 4 13 5 14 3 15 2 16 1 17 9 18 10 19 17 20 11 21 16 22 12 23
REMARK SMILES IDX 18 24 19 25 20 26 21 27 13 28 14 29 15 30 30 31 31 32 32 33
REMARK SMILES IDX 33 34 34 35 35 36 36 37 94 38 37 39 93 40 38 41 39 42 40 43
REMARK SMILES IDX 87 44 41 45 92 46 86 47 88 48 42 49 91 50 85 51 84 52 43 54
REMARK SMILES IDX 73 55 54 56 72 57 55 58 58 59 71 60 89 61 56 62 57 63 70 65
REMARK SMILES IDX 90 66 59 67 44 68 45 69 53 70 46 71 52 72 47 73 48 74 49 75
REMARK SMILES IDX 50 76 51 77 74 78 75 79 83 80 76 81 82 82 77 83 78 84 79 85
REMARK SMILES IDX 80 86 81 87 60 88 61 89 69 90 62 91 68 92 63 93 64 94 65 95
REMARK SMILES IDX 66 96 67 97
REMARK H PARENT 88 53 58 64
REMARK Flexibility Score: inf
ROOT
ATOM      1  O   UNL A   1      36.993  24.014  25.239  1.00  0.00    -0.374 OA
ENDROOT
BRANCH   1   2
ATOM      2  C   UNL A   1      35.591  24.025  25.497  1.00  0.00     0.202 C 
BRANCH   2   3
ATOM      3  C   UNL A   1      34.700  24.673  24.433  1.00  0.00     0.261 C 
BRANCH   3   4
ATOM      4  O   UNL A   1      34.270  26.002  24.784  1.00  0.00    -0.461 OA
BRANCH   4   5
ATOM      5  C   UNL A   1      33.668  26.682  23.772  1.00  0.00     0.334 C 
ATOM      6  O   UNL A   1      33.919  26.498  22.583  1.00  0.00    -0.249 OA
BRANCH   5   7
ATOM      7  C   UNL A   1      32.702  27.790  24.234  1.00  0.00     0.163 C 
ATOM      8  C   UNL A   1      31.237  26.750  25.662  1.00  0.00     0.149 C 
ATOM      9  N   UNL A   1      32.048  27.363  26.471  1.00  0.00    -0.169 NA
ATOM     10  C   UNL A   1      31.285  27.173  24.230  1.00  0.00     0.108 C 
ATOM     11  N   UNL A   1      32.815  28.173  25.671  1.00  0.00    -0.247 N 
ATOM     12  C   UNL A   1      32.851  28.914  23.222  1.00  0.00     0.050 C 
BRANCH   8  13
ATOM     13  C   UNL A   1      30.311  25.654  26.096  1.00  0.00     0.354 C 
ATOM     14  O   UNL A   1      29.137  25.657  25.757  1.00  0.00    -0.245 OA
BRANCH  13  15
ATOM     15  O   UNL A   1      30.956  24.746  26.845  1.00  0.00    -0.461 OA
BRANCH  15  16
ATOM     16  C   UNL A   1      30.767  23.384  26.437  1.00  0.00     0.230 C 
ATOM     17  C   UNL A   1      29.651  22.730  27.231  1.00  0.00     0.049 C 
ENDBRANCH  15  16
ENDBRANCH  13  15
ENDBRANCH   8  13
BRANCH  11  18
ATOM     18  C   UNL A   1      33.591  29.131  26.304  1.00  0.00     0.073 A 
ATOM     19  C   UNL A   1      34.878  28.759  26.752  1.00  0.00     0.036 A 
ATOM     20  C   UNL A   1      33.132  30.414  26.668  1.00  0.00     0.088 A 
ATOM     21  C   UNL A   1      35.718  29.631  27.455  1.00  0.00     0.088 A 
ATOM     22  C   UNL A   1      34.005  31.322  27.320  1.00  0.00     0.101 A 
ATOM     23  C   UNL A   1      35.285  30.927  27.713  1.00  0.00     0.270 A 
BRANCH  20  24
ATOM     24  C   UNL A   1      31.705  30.877  26.500  1.00  0.00     0.418 C 
ATOM     25  F   UNL A   1      31.551  32.202  26.791  1.00  0.00    -0.166 F 
ATOM     26  F   UNL A   1      31.268  30.743  25.217  1.00  0.00    -0.166 F 
ATOM     27  F   UNL A   1      30.789  30.241  27.282  1.00  0.00    -0.166 F 
ENDBRANCH  20  24
BRANCH  23  28
ATOM     28  N   UNL A   1      36.145  31.858  28.456  1.00  0.00     0.062 N 
ATOM     29  O   UNL A   1      37.371  31.703  28.368  1.00  0.00    -0.258 OA
ATOM     30  O   UNL A   1      35.588  32.728  29.141  1.00  0.00    -0.258 OA
ENDBRANCH  23  28
ENDBRANCH  11  18
ENDBRANCH   5   7
ENDBRANCH   4   5
ENDBRANCH   3   4
ENDBRANCH   2   3
ENDBRANCH   1   2
BRANCH   1  31
ATOM     31  C   UNL A   1      37.836  23.503  26.274  1.00  0.00     0.202 C 
BRANCH  31  32
ATOM     32  C   UNL A   1      39.184  24.205  26.473  1.00  0.00     0.261 C 
BRANCH  32  33
ATOM     33  O   UNL A   1      39.069  25.325  27.374  1.00  0.00    -0.460 OA
BRANCH  33  34
ATOM     34  C   UNL A   1      40.056  26.245  27.276  1.00  0.00     0.338 C 
ATOM     35  O   UNL A   1      40.597  26.638  26.252  1.00  0.00    -0.246 OA
BRANCH  34  36
ATOM     36  C   UNL A   1      40.267  26.892  28.587  1.00  0.00     0.060 A 
ATOM     37  C   UNL A   1      39.270  26.726  29.555  1.00  0.00     0.016 A 
ATOM     38  C   UNL A   1      41.385  27.686  28.853  1.00  0.00     0.016 A 
ATOM     39  C   UNL A   1      39.357  27.400  30.772  1.00  0.00     0.010 A 
ATOM     40  C   UNL A   1      41.471  28.364  30.074  1.00  0.00     0.010 A 
ATOM     41  C   UNL A   1      40.436  28.257  31.020  1.00  0.00    -0.014 A 
BRANCH  41  42
ATOM     42  C   UNL A   1      40.381  29.174  32.184  1.00  0.00     0.031 A 
ATOM     43  C   UNL A   1      41.444  29.055  33.246  1.00  0.00     0.074 A 
ATOM     44  C   UNL A   1      39.441  30.132  32.274  1.00  0.00     0.049 A 
ATOM     45  N   UNL A   1      41.591  29.740  34.349  1.00  0.00    -0.248 NA
ATOM     46  C   UNL A   1      42.481  28.033  33.027  1.00  0.00     0.031 C 
ATOM     47  C   UNL A   1      38.396  30.390  31.282  1.00  0.00     0.029 A 
ATOM     48  N   UNL A   1      39.217  31.070  33.250  1.00  0.00    -0.354 N 
ATOM     49  C   UNL A   1      42.735  29.234  34.957  1.00  0.00     0.074 A 
ATOM     50  C   UNL A   1      43.225  28.166  34.116  1.00  0.00     0.031 C 
ATOM     51  C   UNL A   1      37.640  31.419  31.704  1.00  0.00     0.029 A 
ATOM     52  C   UNL A   1      38.125  31.869  33.008  1.00  0.00     0.049 A 
ATOM     53  H   UNL A   1      39.784  31.162  34.048  1.00  0.00     0.167 HD
ATOM     54  C   UNL A   1      43.331  29.628  36.108  1.00  0.00     0.031 A 
ATOM     55  C   UNL A   1      37.570  32.840  33.761  1.00  0.00     0.031 A 
ATOM     56  C   UNL A   1      42.833  30.677  36.955  1.00  0.00     0.049 A 
ATOM     57  C   UNL A   1      38.189  33.189  35.089  1.00  0.00     0.074 A 
ATOM     58  C   UNL A   1      43.360  31.145  38.146  1.00  0.00     0.029 A 
ATOM     59  N   UNL A   1      41.688  31.417  36.705  1.00  0.00    -0.354 N 
ATOM     60  N   UNL A   1      39.274  32.705  35.646  1.00  0.00    -0.248 NA
ATOM     61  C   UNL A   1      37.507  34.216  35.892  1.00  0.00     0.031 C 
ATOM     62  C   UNL A   1      42.506  32.136  38.640  1.00  0.00     0.029 A 
ATOM     63  C   UNL A   1      41.477  32.322  37.731  1.00  0.00     0.049 A 
ATOM     64  H   UNL A   1      41.110  31.314  35.915  1.00  0.00     0.167 HD
ATOM     65  C   UNL A   1      39.419  33.387  36.851  1.00  0.00     0.074 A 
ATOM     66  C   UNL A   1      38.318  34.323  36.937  1.00  0.00     0.031 C 
ATOM     67  C   UNL A   1      40.378  33.250  37.799  1.00  0.00     0.031 A 
BRANCH  54  68
ATOM     68  C   UNL A   1      44.576  28.896  36.529  1.00  0.00    -0.014 A 
ATOM     69  C   UNL A   1      44.498  27.670  37.212  1.00  0.00     0.010 A 
ATOM     70  C   UNL A   1      45.839  29.426  36.210  1.00  0.00     0.010 A 
ATOM     71  C   UNL A   1      45.664  27.002  37.601  1.00  0.00     0.020 A 
ATOM     72  C   UNL A   1      47.007  28.750  36.575  1.00  0.00     0.020 A 
ATOM     73  C   UNL A   1      46.911  27.549  37.283  1.00  0.00     0.054 A 
BRANCH  73  74
ATOM     74  S   UNL A   1      48.408  26.653  37.780  1.00  0.00     0.124 S 
ATOM     75  O   UNL A   1      47.847  25.474  38.437  1.00  0.00    -0.237 OA
ATOM     76  O   UNL A   1      49.073  26.404  36.503  1.00  0.00    -0.237 OA
ATOM     77  O   UNL A   1      49.096  27.590  38.665  1.00  0.00    -0.744 OA
ENDBRANCH  73  74
ENDBRANCH  54  68
BRANCH  55  78
ATOM     78  C   UNL A   1      36.340  33.536  33.294  1.00  0.00    -0.014 A 
ATOM     79  C   UNL A   1      35.199  32.806  32.920  1.00  0.00     0.010 A 
ATOM     80  C   UNL A   1      36.311  34.941  33.207  1.00  0.00     0.010 A 
ATOM     81  C   UNL A   1      34.058  33.466  32.450  1.00  0.00     0.020 A 
ATOM     82  C   UNL A   1      35.165  35.604  32.762  1.00  0.00     0.020 A 
ATOM     83  C   UNL A   1      34.049  34.861  32.374  1.00  0.00     0.054 A 
BRANCH  83  84
ATOM     84  S   UNL A   1      32.545  35.701  31.804  1.00  0.00     0.124 S 
ATOM     85  O   UNL A   1      32.916  37.106  31.930  1.00  0.00    -0.237 OA
ATOM     86  O   UNL A   1      32.402  35.202  30.438  1.00  0.00    -0.237 OA
ATOM     87  O   UNL A   1      31.521  35.236  32.738  1.00  0.00    -0.744 OA
ENDBRANCH  83  84
ENDBRANCH  55  78
BRANCH  67  88
ATOM     88  C   UNL A   1      40.304  34.154  39.000  1.00  0.00    -0.014 A 
ATOM     89  C   UNL A   1      39.611  33.766  40.160  1.00  0.00     0.010 A 
ATOM     90  C   UNL A   1      41.000  35.377  38.992  1.00  0.00     0.010 A 
ATOM     91  C   UNL A   1      39.599  34.596  41.285  1.00  0.00     0.020 A 
ATOM     92  C   UNL A   1      41.010  36.197  40.123  1.00  0.00     0.020 A 
ATOM     93  C   UNL A   1      40.300  35.806  41.259  1.00  0.00     0.054 A 
BRANCH  93  94
ATOM     94  S   UNL A   1      40.318  36.837  42.752  1.00  0.00     0.124 S 
ATOM     95  O   UNL A   1      39.690  38.067  42.280  1.00  0.00    -0.237 OA
ATOM     96  O   UNL A   1      39.529  36.050  43.696  1.00  0.00    -0.237 OA
ATOM     97  O   UNL A   1      41.738  36.947  43.079  1.00  0.00    -0.744 OA
ENDBRANCH  93  94
ENDBRANCH  67  88
ENDBRANCH  41  42
ENDBRANCH  34  36
ENDBRANCH  33  34
ENDBRANCH  32  33
ENDBRANCH  31  32
ENDBRANCH   1  31
TORSDOF 23
ENDMDL
MODEL 3
REMARK VINA RESULT:      -9.4      7.163      9.234
REMARK SMILES CCOC(=O)C1=NN(c2ccc([N+](=O)[O-])cc2C(F)(F)F)[C@@](C)(C(=O)OCCOCCOC(=O)c2ccc(-c3c4nc(c(-c5ccc(S(=O)(=O)[O-])cc5)c5ccc([nH]5)c(-c5ccc(S(=O)(=O)[O-])cc5)c5nc(c(-c6ccc(S(=O)(=O)[O-])cc6)c6ccc3[nH]6)C=C5)C=C4)cc2)C1
REMARK SMILES IDX 29 1 28 2 27 3 26 4 24 5 25 6 22 7 6 8 7 9 95 10 8 11 23 12
REMARK SMILES IDX 4 13 5 14 3 15 2 16 1 17 9 18 10 19 17 20 11 21 16 22 12 23
REMARK SMILES IDX 18 24 19 25 20 26 21 27 13 28 14 29 15 30 30 31 31 32 32 33
REMARK SMILES IDX 33 34 34 35 35 36 36 37 94 38 37 39 93 40 38 41 39 42 40 43
REMARK SMILES IDX 87 44 41 45 92 46 86 47 88 48 42 49 91 50 85 51 84 52 43 54
REMARK SMILES IDX 73 55 54 56 72 57 55 58 58 59 71 60 89 61 56 62 57 63 70 65
REMARK SMILES IDX 90 66 59 67 44 68 45 69 53 70 46 71 52 72 47 73 48 74 49 75
REMARK SMILES IDX 50 76 51 77 74 78 75 79 83 80 76 81 82 82 77 83 78 84 79 85
REMARK SMILES IDX 80 86 81 87 60 88 61 89 69 90 62 91 68 92 63 93 64 94 65 95
REMARK SMILES IDX 66 96 67 97
REMARK H PARENT 88 53 58 64
REMARK Flexibility Score: inf
ROOT
ATOM      1  O   UNL A   1      37.006  23.901  25.297  1.00  0.00    -0.374 OA
ENDROOT
BRANCH   1   2
ATOM      2  C   UNL A   1      35.625  24.077  25.599  1.00  0.00     0.202 C 
BRANCH   2   3
ATOM      3  C   UNL A   1      34.748  24.675  24.495  1.00  0.00     0.261 C 
BRANCH   3   4
ATOM      4  O   UNL A   1      34.275  26.001  24.800  1.00  0.00    -0.461 OA
BRANCH   4   5
ATOM      5  C   UNL A   1      33.655  26.628  23.765  1.00  0.00     0.334 C 
ATOM      6  O   UNL A   1      33.849  26.347  22.584  1.00  0.00    -0.249 OA
BRANCH   5   7
ATOM      7  C   UNL A   1      32.750  27.803  24.180  1.00  0.00     0.163 C 
ATOM      8  C   UNL A   1      31.137  26.873  25.521  1.00  0.00     0.149 C 
ATOM      9  N   UNL A   1      31.946  27.423  26.375  1.00  0.00    -0.169 NA
ATOM     10  C   UNL A   1      31.294  27.293  24.096  1.00  0.00     0.108 C 
ATOM     11  N   UNL A   1      32.813  28.175  25.623  1.00  0.00    -0.247 N 
ATOM     12  C   UNL A   1      33.037  28.915  23.183  1.00  0.00     0.050 C 
BRANCH   8  13
ATOM     13  C   UNL A   1      30.110  25.848  25.898  1.00  0.00     0.354 C 
ATOM     14  O   UNL A   1      28.995  25.867  25.399  1.00  0.00    -0.245 OA
BRANCH  13  15
ATOM     15  O   UNL A   1      30.604  24.978  26.794  1.00  0.00    -0.461 OA
BRANCH  15  16
ATOM     16  C   UNL A   1      31.517  24.012  26.254  1.00  0.00     0.230 C 
ATOM     17  C   UNL A   1      30.838  22.667  26.071  1.00  0.00     0.049 C 
ENDBRANCH  15  16
ENDBRANCH  13  15
ENDBRANCH   8  13
BRANCH  11  18
ATOM     18  C   UNL A   1      33.623  29.072  26.302  1.00  0.00     0.073 A 
ATOM     19  C   UNL A   1      34.888  28.627  26.743  1.00  0.00     0.036 A 
ATOM     20  C   UNL A   1      33.214  30.356  26.717  1.00  0.00     0.088 A 
ATOM     21  C   UNL A   1      35.757  29.433  27.489  1.00  0.00     0.088 A 
ATOM     22  C   UNL A   1      34.118  31.199  27.413  1.00  0.00     0.101 A 
ATOM     23  C   UNL A   1      35.377  30.734  27.800  1.00  0.00     0.270 A 
BRANCH  20  24
ATOM     24  C   UNL A   1      31.810  30.886  26.557  1.00  0.00     0.418 C 
ATOM     25  F   UNL A   1      30.920  30.253  27.378  1.00  0.00    -0.166 F 
ATOM     26  F   UNL A   1      31.716  32.205  26.884  1.00  0.00    -0.166 F 
ATOM     27  F   UNL A   1      31.279  30.765  25.309  1.00  0.00    -0.166 F 
ENDBRANCH  20  24
BRANCH  23  28
ATOM     28  N   UNL A   1      36.268  31.596  28.588  1.00  0.00     0.062 N 
ATOM     29  O   UNL A   1      37.471  31.305  28.616  1.00  0.00    -0.258 OA
ATOM     30  O   UNL A   1      35.754  32.548  29.193  1.00  0.00    -0.258 OA
ENDBRANCH  23  28
ENDBRANCH  11  18
ENDBRANCH   5   7
ENDBRANCH   4   5
ENDBRANCH   3   4
ENDBRANCH   2   3
ENDBRANCH   1   2
BRANCH   1  31
ATOM     31  C   UNL A   1      37.890  23.700  26.401  1.00  0.00     0.202 C 
BRANCH  31  32
ATOM     32  C   UNL A   1      39.153  24.566  26.440  1.00  0.00     0.261 C 
BRANCH  32  33
ATOM     33  O   UNL A   1      39.100  25.531  27.510  1.00  0.00    -0.460 OA
BRANCH  33  34
ATOM     34  C   UNL A   1      39.985  26.551  27.409  1.00  0.00     0.338 C 
ATOM     35  O   UNL A   1      40.362  27.099  26.384  1.00  0.00    -0.246 OA
BRANCH  34  36
ATOM     36  C   UNL A   1      40.296  27.076  28.755  1.00  0.00     0.060 A 
ATOM     37  C   UNL A   1      39.285  27.011  29.721  1.00  0.00     0.016 A 
ATOM     38  C   UNL A   1      41.526  27.665  29.056  1.00  0.00     0.016 A 
ATOM     39  C   UNL A   1      39.477  27.589  30.974  1.00  0.00     0.010 A 
ATOM     40  C   UNL A   1      41.718  28.247  30.314  1.00  0.00     0.010 A 
ATOM     41  C   UNL A   1      40.679  28.248  31.262  1.00  0.00    -0.014 A 
BRANCH  41  42
ATOM     42  C   UNL A   1      40.770  29.091  32.479  1.00  0.00     0.031 A 
ATOM     43  C   UNL A   1      39.742  30.174  32.684  1.00  0.00     0.074 A 
ATOM     44  C   UNL A   1      41.711  28.868  33.414  1.00  0.00     0.049 A 
ATOM     45  N   UNL A   1      39.629  31.034  33.662  1.00  0.00    -0.248 NA
ATOM     46  C   UNL A   1      38.700  30.296  31.650  1.00  0.00     0.031 C 
ATOM     47  C   UNL A   1      42.722  27.812  33.363  1.00  0.00     0.029 A 
ATOM     48  N   UNL A   1      41.964  29.520  34.594  1.00  0.00    -0.354 N 
ATOM     49  C   UNL A   1      38.507  31.798  33.365  1.00  0.00     0.074 A 
ATOM     50  C   UNL A   1      37.991  31.321  32.101  1.00  0.00     0.031 C 
ATOM     51  C   UNL A   1      43.490  27.891  34.465  1.00  0.00     0.029 A 
ATOM     52  C   UNL A   1      43.046  29.021  35.279  1.00  0.00     0.049 A 
ATOM     53  H   UNL A   1      41.423  30.274  34.920  1.00  0.00     0.167 HD
ATOM     54  C   UNL A   1      37.947  32.802  34.081  1.00  0.00     0.031 A 
ATOM     55  C   UNL A   1      43.624  29.440  36.424  1.00  0.00     0.031 A 
ATOM     56  C   UNL A   1      38.470  33.289  35.329  1.00  0.00     0.049 A 
ATOM     57  C   UNL A   1      43.047  30.627  37.150  1.00  0.00     0.074 A 
ATOM     58  C   UNL A   1      37.981  34.308  36.128  1.00  0.00     0.029 A 
ATOM     59  N   UNL A   1      39.605  32.798  35.955  1.00  0.00    -0.354 N 
ATOM     60  N   UNL A   1      41.982  31.334  36.858  1.00  0.00    -0.248 NA
ATOM     61  C   UNL A   1      43.752  31.073  38.361  1.00  0.00     0.031 C 
ATOM     62  C   UNL A   1      38.848  34.464  37.214  1.00  0.00     0.029 A 
ATOM     63  C   UNL A   1      39.847  33.508  37.118  1.00  0.00     0.049 A 
ATOM     64  H   UNL A   1      40.158  32.055  35.621  1.00  0.00     0.167 HD
ATOM     65  C   UNL A   1      41.874  32.291  37.863  1.00  0.00     0.074 A 
ATOM     66  C   UNL A   1      42.976  32.066  38.776  1.00  0.00     0.031 C 
ATOM     67  C   UNL A   1      40.946  33.268  38.017  1.00  0.00     0.031 A 
BRANCH  54  68
ATOM     68  C   UNL A   1      36.718  33.457  33.514  1.00  0.00    -0.014 A 
ATOM     69  C   UNL A   1      35.433  32.992  33.845  1.00  0.00     0.010 A 
ATOM     70  C   UNL A   1      36.848  34.570  32.665  1.00  0.00     0.010 A 
ATOM     71  C   UNL A   1      34.298  33.608  33.308  1.00  0.00     0.020 A 
ATOM     72  C   UNL A   1      35.716  35.204  32.144  1.00  0.00     0.020 A 
ATOM     73  C   UNL A   1      34.447  34.708  32.458  1.00  0.00     0.054 A 
BRANCH  73  74
ATOM     74  S   UNL A   1      32.959  35.502  31.790  1.00  0.00     0.124 S 
ATOM     75  O   UNL A   1      33.262  36.918  31.982  1.00  0.00    -0.237 OA
ATOM     76  O   UNL A   1      32.946  35.044  30.403  1.00  0.00    -0.237 OA
ATOM     77  O   UNL A   1      31.881  34.978  32.626  1.00  0.00    -0.744 OA
ENDBRANCH  73  74
ENDBRANCH  54  68
BRANCH  55  78
ATOM     78  C   UNL A   1      44.836  28.752  36.944  1.00  0.00    -0.014 A 
ATOM     79  C   UNL A   1      46.121  29.151  36.535  1.00  0.00     0.010 A 
ATOM     80  C   UNL A   1      44.710  27.677  37.844  1.00  0.00     0.010 A 
ATOM     81  C   UNL A   1      47.254  28.478  37.002  1.00  0.00     0.020 A 
ATOM     82  C   UNL A   1      45.842  27.018  38.332  1.00  0.00     0.020 A 
ATOM     83  C   UNL A   1      47.107  27.416  37.898  1.00  0.00     0.054 A 
BRANCH  83  84
ATOM     84  S   UNL A   1      48.592  26.584  38.528  1.00  0.00     0.124 S 
ATOM     85  O   UNL A   1      48.554  25.313  37.812  1.00  0.00    -0.237 OA
ATOM     86  O   UNL A   1      49.660  27.501  38.135  1.00  0.00    -0.237 OA
ATOM     87  O   UNL A   1      48.352  26.501  39.967  1.00  0.00    -0.744 OA
ENDBRANCH  83  84
ENDBRANCH  55  78
BRANCH  67  88
ATOM     88  C   UNL A   1      41.058  34.150  39.232  1.00  0.00    -0.014 A 
ATOM     89  C   UNL A   1      40.468  33.782  40.453  1.00  0.00     0.010 A 
ATOM     90  C   UNL A   1      41.826  35.327  39.165  1.00  0.00     0.010 A 
ATOM     91  C   UNL A   1      40.627  34.589  41.584  1.00  0.00     0.020 A 
ATOM     92  C   UNL A   1      42.009  36.122  40.300  1.00  0.00     0.020 A 
ATOM     93  C   UNL A   1      41.399  35.753  41.500  1.00  0.00     0.054 A 
BRANCH  93  94
ATOM     94  S   UNL A   1      41.640  36.750  42.996  1.00  0.00     0.124 S 
ATOM     95  O   UNL A   1      41.244  38.080  42.543  1.00  0.00    -0.237 OA
ATOM     96  O   UNL A   1      40.738  36.117  43.955  1.00  0.00    -0.237 OA
ATOM     97  O   UNL A   1      43.063  36.590  43.292  1.00  0.00    -0.744 OA
ENDBRANCH  93  94
ENDBRANCH  67  88
ENDBRANCH  41  42
ENDBRANCH  34  36
ENDBRANCH  33  34
ENDBRANCH  32  33
ENDBRANCH  31  32
ENDBRANCH   1  31
TORSDOF 23
ENDMDL
