MODEL 1
REMARK VINA RESULT:     -11.5      0.000      0.000
REMARK SMILES Cc1ccc(NC(=O)C[C@@H](C(=O)OCCOCCOC(=O)c2ccc(-c3c4nc(c(-c5ccc(S(=O)(=O)[O-])cc5)c5ccc([nH]5)c(-c5ccc(S(=O)(=O)[O-])cc5)c5nc(c(-c6ccc(S(=O)(=O)[O-])cc6)c6ccc3[nH]6)C=C5)C=C4)cc2)[C@@H](C)c2ccccc2)cc1Br
REMARK SMILES IDX 16 1 15 2 14 3 13 4 11 5 12 6 10 7 9 8 7 9 6 10 8 12 5 13
REMARK SMILES IDX 1 14 2 15 3 16 91 17 4 18 90 19 92 20 82 21 83 22 84 23
REMARK SMILES IDX 85 24 89 25 86 26 88 27 87 28 17 29 18 30 19 31 20 32 21 33
REMARK SMILES IDX 22 34 23 35 81 36 24 37 80 38 25 39 26 40 27 41 74 42 28 43
REMARK SMILES IDX 79 44 73 45 75 46 29 47 78 48 72 49 71 50 30 52 60 53 41 54
REMARK SMILES IDX 59 55 42 56 45 57 58 58 76 59 43 60 44 61 57 63 77 64 46 65
REMARK SMILES IDX 31 66 32 67 40 68 33 69 39 70 34 71 35 72 36 73 37 74 38 75
REMARK SMILES IDX 61 76 62 77 70 78 63 79 69 80 64 81 65 82 66 83 67 84 68 85
REMARK SMILES IDX 47 86 48 87 56 88 49 89 55 90 50 91 51 92 52 93 53 94 54 95
REMARK H PARENT 6 11 75 51 45 62
REMARK Flexibility Score: inf
ROOT
ATOM      1  O   UNL A   1      38.536  21.896  26.529  1.00  0.00    -0.374 OA
ENDROOT
BRANCH   1   2
ATOM      2  C   UNL A   1      37.838  21.396  25.218  1.00  0.00     0.202 C 
BRANCH   2   3
ATOM      3  C   UNL A   1      36.076  20.145  24.887  1.00  0.00     0.261 C 
BRANCH   3   4
ATOM      4  O   UNL A   1      34.584  20.414  25.569  1.00  0.00    -0.463 OA
BRANCH   4   5
ATOM      5  C   UNL A   1      33.406  20.621  24.962  1.00  0.00     0.310 C 
ATOM      6  O   UNL A   1      32.754  19.680  24.528  1.00  0.00    -0.252 OA
BRANCH   5   7
ATOM      7  C   UNL A   1      33.013  22.116  24.724  1.00  0.00     0.116 C 
BRANCH   7   8
ATOM      8  C   UNL A   1      34.081  23.249  24.684  1.00  0.00     0.116 C 
BRANCH   8   9
ATOM      9  C   UNL A   1      34.720  23.744  23.410  1.00  0.00     0.225 C 
ATOM     10  N   UNL A   1      34.417  24.952  22.873  1.00  0.00    -0.326 N 
ATOM     11  H   UNL A   1      34.779  25.114  21.971  1.00  0.00     0.169 HD
ATOM     12  O   UNL A   1      35.499  23.013  22.791  1.00  0.00    -0.275 OA
BRANCH  10  13
ATOM     13  C   UNL A   1      33.668  25.999  23.411  1.00  0.00     0.042 A 
ATOM     14  C   UNL A   1      31.006  30.082  24.847  1.00  0.00     0.045 C 
ATOM     15  C   UNL A   1      32.004  29.059  24.380  1.00  0.00    -0.037 A 
ATOM     16  C   UNL A   1      31.912  28.483  22.680  1.00  0.00     0.007 A 
ATOM     17  C   UNL A   1      32.935  28.143  25.608  1.00  0.00     0.022 A 
ATOM     18  C   UNL A   1      32.743  26.968  22.199  1.00  0.00     0.026 A 
ATOM     19  C   UNL A   1      33.787  26.619  25.116  1.00  0.00     0.042 A 
ATOM     20  Br  UNL A   1      32.804  28.640  27.442  1.00  0.00    -0.050 Br
ENDBRANCH  10  13
ENDBRANCH   8   9
ENDBRANCH   7   8
BRANCH   7  21
ATOM     21  C   UNL A   1      31.820  22.603  25.647  1.00  0.00     0.031 C 
ATOM     22  C   UNL A   1      32.214  22.660  27.136  1.00  0.00     0.013 C 
BRANCH  21  23
ATOM     23  C   UNL A   1      31.129  23.868  25.170  1.00  0.00    -0.044 A 
ATOM     24  C   UNL A   1      30.708  24.091  23.862  1.00  0.00     0.004 A 
ATOM     25  C   UNL A   1      30.816  24.839  26.134  1.00  0.00     0.004 A 
ATOM     26  C   UNL A   1      29.954  25.229  23.552  1.00  0.00     0.000 A 
ATOM     27  C   UNL A   1      30.049  25.959  25.842  1.00  0.00     0.000 A 
ATOM     28  C   UNL A   1      29.609  26.151  24.543  1.00  0.00     0.000 A 
ENDBRANCH  21  23
ENDBRANCH   7  21
ENDBRANCH   5   7
ENDBRANCH   4   5
ENDBRANCH   3   4
ENDBRANCH   2   3
ENDBRANCH   1   2
BRANCH   1  29
ATOM     29  C   UNL A   1      39.946  21.950  26.752  1.00  0.00     0.202 C 
BRANCH  29  30
ATOM     30  C   UNL A   1      40.784  23.217  26.532  1.00  0.00     0.261 C 
BRANCH  30  31
ATOM     31  O   UNL A   1      40.080  24.439  26.390  1.00  0.00    -0.460 OA
BRANCH  31  32
ATOM     32  C   UNL A   1      40.873  25.526  26.218  1.00  0.00     0.338 C 
ATOM     33  O   UNL A   1      41.362  25.925  25.177  1.00  0.00    -0.246 OA
BRANCH  32  34
ATOM     34  C   UNL A   1      40.911  26.256  27.503  1.00  0.00     0.060 A 
ATOM     35  C   UNL A   1      39.819  26.147  28.372  1.00  0.00     0.016 A 
ATOM     36  C   UNL A   1      42.021  27.033  27.847  1.00  0.00     0.016 A 
ATOM     37  C   UNL A   1      39.806  26.868  29.566  1.00  0.00     0.010 A 
ATOM     38  C   UNL A   1      42.000  27.768  29.031  1.00  0.00     0.010 A 
ATOM     39  C   UNL A   1      40.872  27.727  29.867  1.00  0.00    -0.014 A 
BRANCH  39  40
ATOM     40  C   UNL A   1      40.701  28.789  30.884  1.00  0.00     0.031 A 
ATOM     41  C   UNL A   1      41.573  28.721  32.110  1.00  0.00     0.074 A 
ATOM     42  C   UNL A   1      39.790  29.769  30.749  1.00  0.00     0.049 A 
ATOM     43  N   UNL A   1      41.586  29.494  33.164  1.00  0.00    -0.248 NA
ATOM     44  C   UNL A   1      42.559  27.627  32.150  1.00  0.00     0.031 C 
ATOM     45  C   UNL A   1      38.915  29.963  29.596  1.00  0.00     0.029 A 
ATOM     46  N   UNL A   1      39.449  30.783  31.609  1.00  0.00    -0.354 N 
ATOM     47  C   UNL A   1      42.572  28.975  33.995  1.00  0.00     0.074 A 
ATOM     48  C   UNL A   1      43.112  27.805  33.339  1.00  0.00     0.031 C 
ATOM     49  C   UNL A   1      38.129  31.030  29.824  1.00  0.00     0.029 A 
ATOM     50  C   UNL A   1      38.420  31.571  31.152  1.00  0.00     0.049 A 
ATOM     51  H   UNL A   1      39.899  30.931  32.472  1.00  0.00     0.167 HD
ATOM     52  C   UNL A   1      42.994  29.431  35.197  1.00  0.00     0.031 A 
ATOM     53  C   UNL A   1      37.778  32.597  31.749  1.00  0.00     0.031 A 
ATOM     54  C   UNL A   1      42.426  30.571  35.864  1.00  0.00     0.049 A 
ATOM     55  C   UNL A   1      38.204  33.033  33.130  1.00  0.00     0.074 A 
ATOM     56  C   UNL A   1      42.792  31.124  37.078  1.00  0.00     0.029 A 
ATOM     57  N   UNL A   1      41.361  31.319  35.387  1.00  0.00    -0.354 N 
ATOM     58  N   UNL A   1      39.172  32.566  33.884  1.00  0.00    -0.248 NA
ATOM     59  C   UNL A   1      37.456  34.144  33.736  1.00  0.00     0.031 C 
ATOM     60  C   UNL A   1      41.897  32.156  37.371  1.00  0.00     0.029 A 
ATOM     61  C   UNL A   1      41.030  32.305  36.300  1.00  0.00     0.049 A 
ATOM     62  H   UNL A   1      40.907  31.171  34.525  1.00  0.00     0.167 HD
ATOM     63  C   UNL A   1      39.171  33.350  35.035  1.00  0.00     0.074 A 
ATOM     64  C   UNL A   1      38.115  34.328  34.872  1.00  0.00     0.031 C 
ATOM     65  C   UNL A   1      39.975  33.274  36.126  1.00  0.00     0.031 A 
BRANCH  52  66
ATOM     66  C   UNL A   1      44.087  28.658  35.887  1.00  0.00    -0.014 A 
ATOM     67  C   UNL A   1      43.811  27.485  36.614  1.00  0.00     0.010 A 
ATOM     68  C   UNL A   1      45.417  29.105  35.791  1.00  0.00     0.010 A 
ATOM     69  C   UNL A   1      44.839  26.801  37.269  1.00  0.00     0.020 A 
ATOM     70  C   UNL A   1      46.452  28.405  36.414  1.00  0.00     0.020 A 
ATOM     71  C   UNL A   1      46.154  27.267  37.165  1.00  0.00     0.054 A 
BRANCH  71  72
ATOM     72  S   UNL A   1      47.468  26.349  38.013  1.00  0.00     0.124 S 
ATOM     73  O   UNL A   1      47.531  27.034  39.301  1.00  0.00    -0.237 OA
ATOM     74  O   UNL A   1      46.933  24.990  38.049  1.00  0.00    -0.237 OA
ATOM     75  O   UNL A   1      48.633  26.534  37.152  1.00  0.00    -0.744 OA
ENDBRANCH  71  72
ENDBRANCH  52  66
BRANCH  53  76
ATOM     76  C   UNL A   1      36.658  33.287  31.048  1.00  0.00    -0.014 A 
ATOM     77  C   UNL A   1      36.903  34.087  29.919  1.00  0.00     0.010 A 
ATOM     78  C   UNL A   1      35.336  33.155  31.514  1.00  0.00     0.010 A 
ATOM     79  C   UNL A   1      35.854  34.752  29.276  1.00  0.00     0.020 A 
ATOM     80  C   UNL A   1      34.279  33.792  30.855  1.00  0.00     0.020 A 
ATOM     81  C   UNL A   1      34.547  34.594  29.744  1.00  0.00     0.054 A 
BRANCH  81  82
ATOM     82  S   UNL A   1      33.197  35.418  28.855  1.00  0.00     0.124 S 
ATOM     83  O   UNL A   1      33.920  36.356  28.004  1.00  0.00    -0.237 OA
ATOM     84  O   UNL A   1      32.553  34.302  28.166  1.00  0.00    -0.237 OA
ATOM     85  O   UNL A   1      32.403  36.024  29.922  1.00  0.00    -0.744 OA
ENDBRANCH  81  82
ENDBRANCH  53  76
BRANCH  65  86
ATOM     86  C   UNL A   1      39.786  34.299  37.217  1.00  0.00    -0.014 A 
ATOM     87  C   UNL A   1      38.889  34.092  38.279  1.00  0.00     0.010 A 
ATOM     88  C   UNL A   1      40.577  35.465  37.211  1.00  0.00     0.010 A 
ATOM     89  C   UNL A   1      38.764  35.045  39.296  1.00  0.00     0.020 A 
ATOM     90  C   UNL A   1      40.481  36.402  38.242  1.00  0.00     0.020 A 
ATOM     91  C   UNL A   1      39.564  36.192  39.273  1.00  0.00     0.054 A 
BRANCH  91  92
ATOM     92  S   UNL A   1      39.415  37.388  40.628  1.00  0.00     0.124 S 
ATOM     93  O   UNL A   1      39.121  36.522  41.768  1.00  0.00    -0.237 OA
ATOM     94  O   UNL A   1      40.733  38.018  40.642  1.00  0.00    -0.237 OA
ATOM     95  O   UNL A   1      38.319  38.257  40.207  1.00  0.00    -0.744 OA
ENDBRANCH  91  92
ENDBRANCH  65  86
ENDBRANCH  39  40
ENDBRANCH  32  34
ENDBRANCH  31  32
ENDBRANCH  30  31
ENDBRANCH  29  30
ENDBRANCH   1  29
TORSDOF 22
ENDMDL
MODEL 2
REMARK VINA RESULT:     -11.2      1.123      8.086
REMARK SMILES Cc1ccc(NC(=O)C[C@@H](C(=O)OCCOCCOC(=O)c2ccc(-c3c4nc(c(-c5ccc(S(=O)(=O)[O-])cc5)c5ccc([nH]5)c(-c5ccc(S(=O)(=O)[O-])cc5)c5nc(c(-c6ccc(S(=O)(=O)[O-])cc6)c6ccc3[nH]6)C=C5)C=C4)cc2)[C@@H](C)c2ccccc2)cc1Br
REMARK SMILES IDX 16 1 15 2 14 3 13 4 11 5 12 6 10 7 9 8 7 9 6 10 8 12 5 13
REMARK SMILES IDX 1 14 2 15 3 16 91 17 4 18 90 19 92 20 82 21 83 22 84 23
REMARK SMILES IDX 85 24 89 25 86 26 88 27 87 28 17 29 18 30 19 31 20 32 21 33
REMARK SMILES IDX 22 34 23 35 81 36 24 37 80 38 25 39 26 40 27 41 74 42 28 43
REMARK SMILES IDX 79 44 73 45 75 46 29 47 78 48 72 49 71 50 30 52 60 53 41 54
REMARK SMILES IDX 59 55 42 56 45 57 58 58 76 59 43 60 44 61 57 63 77 64 46 65
REMARK SMILES IDX 31 66 32 67 40 68 33 69 39 70 34 71 35 72 36 73 37 74 38 75
REMARK SMILES IDX 61 76 62 77 70 78 63 79 69 80 64 81 65 82 66 83 67 84 68 85
REMARK SMILES IDX 47 86 48 87 56 88 49 89 55 90 50 91 51 92 52 93 53 94 54 95
REMARK H PARENT 6 11 75 51 45 62
REMARK Flexibility Score: inf
ROOT
ATOM      1  O   UNL A   1      38.000  22.002  25.578  1.00  0.00    -0.374 OA
ENDROOT
BRANCH   1   2
ATOM      2  C   UNL A   1      37.398  20.908  24.632  1.00  0.00     0.202 C 
BRANCH   2   3
ATOM      3  C   UNL A   1      35.915  19.338  24.971  1.00  0.00     0.261 C 
BRANCH   3   4
ATOM      4  O   UNL A   1      34.304  19.459  24.577  1.00  0.00    -0.463 OA
BRANCH   4   5
ATOM      5  C   UNL A   1      33.267  19.781  25.364  1.00  0.00     0.310 C 
ATOM      6  O   UNL A   1      32.699  18.922  26.028  1.00  0.00    -0.252 OA
BRANCH   5   7
ATOM      7  C   UNL A   1      32.759  21.255  25.257  1.00  0.00     0.116 C 
BRANCH   7   8
ATOM      8  C   UNL A   1      33.062  22.139  24.010  1.00  0.00     0.116 C 
BRANCH   8   9
ATOM      9  C   UNL A   1      32.235  22.110  22.749  1.00  0.00     0.225 C 
ATOM     10  N   UNL A   1      31.530  23.187  22.322  1.00  0.00    -0.326 N 
ATOM     11  H   UNL A   1      30.914  23.017  21.573  1.00  0.00     0.169 HD
ATOM     12  O   UNL A   1      32.135  21.060  22.107  1.00  0.00    -0.275 OA
BRANCH  10  13
ATOM     13  C   UNL A   1      31.551  24.502  22.790  1.00  0.00     0.042 A 
ATOM     14  C   UNL A   1      31.037  29.285  24.425  1.00  0.00     0.045 C 
ATOM     15  C   UNL A   1      31.069  27.967  23.703  1.00  0.00    -0.037 A 
ATOM     16  C   UNL A   1      29.799  26.750  24.079  1.00  0.00     0.007 A 
ATOM     17  C   UNL A   1      32.573  27.486  22.855  1.00  0.00     0.022 A 
ATOM     18  C   UNL A   1      30.037  25.033  23.620  1.00  0.00     0.026 A 
ATOM     19  C   UNL A   1      32.805  25.752  22.378  1.00  0.00     0.042 A 
ATOM     20  Br  UNL A   1      33.997  28.741  22.699  1.00  0.00    -0.050 Br
ENDBRANCH  10  13
ENDBRANCH   8   9
ENDBRANCH   7   8
BRANCH   7  21
ATOM     21  C   UNL A   1      33.064  22.117  26.552  1.00  0.00     0.031 C 
ATOM     22  C   UNL A   1      34.339  21.651  27.282  1.00  0.00     0.013 C 
BRANCH  21  23
ATOM     23  C   UNL A   1      33.024  23.619  26.334  1.00  0.00    -0.044 A 
ATOM     24  C   UNL A   1      31.955  24.438  26.689  1.00  0.00     0.004 A 
ATOM     25  C   UNL A   1      34.179  24.232  25.824  1.00  0.00     0.004 A 
ATOM     26  C   UNL A   1      32.072  25.830  26.577  1.00  0.00     0.000 A 
ATOM     27  C   UNL A   1      34.312  25.611  25.732  1.00  0.00     0.000 A 
ATOM     28  C   UNL A   1      33.254  26.415  26.119  1.00  0.00     0.000 A 
ENDBRANCH  21  23
ENDBRANCH   7  21
ENDBRANCH   5   7
ENDBRANCH   4   5
ENDBRANCH   3   4
ENDBRANCH   2   3
ENDBRANCH   1   2
BRANCH   1  29
ATOM     29  C   UNL A   1      39.110  21.820  26.460  1.00  0.00     0.202 C 
BRANCH  29  30
ATOM     30  C   UNL A   1      40.328  22.752  26.481  1.00  0.00     0.261 C 
BRANCH  30  31
ATOM     31  O   UNL A   1      40.074  24.147  26.466  1.00  0.00    -0.460 OA
BRANCH  31  32
ATOM     32  C   UNL A   1      41.178  24.920  26.625  1.00  0.00     0.338 C 
ATOM     33  O   UNL A   1      42.215  24.863  25.991  1.00  0.00    -0.246 OA
BRANCH  32  34
ATOM     34  C   UNL A   1      40.845  25.975  27.606  1.00  0.00     0.060 A 
ATOM     35  C   UNL A   1      41.615  27.144  27.624  1.00  0.00     0.016 A 
ATOM     36  C   UNL A   1      39.775  25.812  28.490  1.00  0.00     0.016 A 
ATOM     37  C   UNL A   1      41.355  28.131  28.576  1.00  0.00     0.010 A 
ATOM     38  C   UNL A   1      39.527  26.790  29.452  1.00  0.00     0.010 A 
ATOM     39  C   UNL A   1      40.348  27.927  29.528  1.00  0.00    -0.014 A 
BRANCH  39  40
ATOM     40  C   UNL A   1      40.329  28.736  30.768  1.00  0.00     0.031 A 
ATOM     41  C   UNL A   1      39.339  29.869  30.840  1.00  0.00     0.074 A 
ATOM     42  C   UNL A   1      41.170  28.501  31.789  1.00  0.00     0.049 A 
ATOM     43  N   UNL A   1      39.155  30.753  31.784  1.00  0.00    -0.248 NA
ATOM     44  C   UNL A   1      38.441  30.026  29.682  1.00  0.00     0.031 C 
ATOM     45  C   UNL A   1      42.145  27.416  31.856  1.00  0.00     0.029 A 
ATOM     46  N   UNL A   1      41.339  29.182  32.970  1.00  0.00    -0.354 N 
ATOM     47  C   UNL A   1      38.129  31.575  31.332  1.00  0.00     0.074 A 
ATOM     48  C   UNL A   1      37.753  31.105  30.017  1.00  0.00     0.031 C 
ATOM     49  C   UNL A   1      42.819  27.508  33.016  1.00  0.00     0.029 A 
ATOM     50  C   UNL A   1      42.348  28.679  33.757  1.00  0.00     0.049 A 
ATOM     51  H   UNL A   1      40.791  29.957  33.227  1.00  0.00     0.167 HD
ATOM     52  C   UNL A   1      37.548  32.626  31.956  1.00  0.00     0.031 A 
ATOM     53  C   UNL A   1      42.842  29.127  34.930  1.00  0.00     0.031 A 
ATOM     54  C   UNL A   1      37.953  33.115  33.245  1.00  0.00     0.049 A 
ATOM     55  C   UNL A   1      42.239  30.356  35.565  1.00  0.00     0.074 A 
ATOM     56  C   UNL A   1      37.419  34.165  33.970  1.00  0.00     0.029 A 
ATOM     57  N   UNL A   1      39.002  32.603  33.993  1.00  0.00    -0.354 N 
ATOM     58  N   UNL A   1      41.235  31.095  35.151  1.00  0.00    -0.248 NA
ATOM     59  C   UNL A   1      42.832  30.807  36.833  1.00  0.00     0.031 C 
ATOM     60  C   UNL A   1      38.196  34.337  35.119  1.00  0.00     0.029 A 
ATOM     61  C   UNL A   1      39.158  33.340  35.154  1.00  0.00     0.049 A 
ATOM     62  H   UNL A   1      39.555  31.829  33.736  1.00  0.00     0.167 HD
ATOM     63  C   UNL A   1      41.054  32.073  36.127  1.00  0.00     0.074 A 
ATOM     64  C   UNL A   1      42.044  31.824  37.155  1.00  0.00     0.031 C 
ATOM     65  C   UNL A   1      40.148  33.082  36.172  1.00  0.00     0.031 A 
BRANCH  52  66
ATOM     66  C   UNL A   1      36.450  33.348  31.218  1.00  0.00    -0.014 A 
ATOM     67  C   UNL A   1      36.647  33.855  29.920  1.00  0.00     0.010 A 
ATOM     68  C   UNL A   1      35.194  33.506  31.830  1.00  0.00     0.010 A 
ATOM     69  C   UNL A   1      35.622  34.547  29.269  1.00  0.00     0.020 A 
ATOM     70  C   UNL A   1      34.156  34.165  31.168  1.00  0.00     0.020 A 
ATOM     71  C   UNL A   1      34.383  34.697  29.898  1.00  0.00     0.054 A 
BRANCH  71  72
ATOM     72  S   UNL A   1      33.067  35.585  29.021  1.00  0.00     0.124 S 
ATOM     73  O   UNL A   1      32.285  36.134  30.126  1.00  0.00    -0.237 OA
ATOM     74  O   UNL A   1      33.815  36.563  28.234  1.00  0.00    -0.237 OA
ATOM     75  O   UNL A   1      32.402  34.542  28.244  1.00  0.00    -0.744 OA
ENDBRANCH  71  72
ENDBRANCH  52  66
BRANCH  53  76
ATOM     76  C   UNL A   1      43.974  28.412  35.586  1.00  0.00    -0.014 A 
ATOM     77  C   UNL A   1      45.302  28.670  35.203  1.00  0.00     0.010 A 
ATOM     78  C   UNL A   1      43.729  27.459  36.592  1.00  0.00     0.010 A 
ATOM     79  C   UNL A   1      46.362  27.982  35.803  1.00  0.00     0.020 A 
ATOM     80  C   UNL A   1      44.787  26.791  37.217  1.00  0.00     0.020 A 
ATOM     81  C   UNL A   1      46.098  27.052  36.812  1.00  0.00     0.054 A 
BRANCH  81  82
ATOM     82  S   UNL A   1      47.494  26.219  37.617  1.00  0.00     0.124 S 
ATOM     83  O   UNL A   1      48.468  26.141  36.534  1.00  0.00    -0.237 OA
ATOM     84  O   UNL A   1      47.823  27.142  38.701  1.00  0.00    -0.237 OA
ATOM     85  O   UNL A   1      46.930  24.941  38.044  1.00  0.00    -0.744 OA
ENDBRANCH  81  82
ENDBRANCH  53  76
BRANCH  65  86
ATOM     86  C   UNL A   1      40.140  33.972  37.390  1.00  0.00    -0.014 A 
ATOM     87  C   UNL A   1      39.360  33.672  38.520  1.00  0.00     0.010 A 
ATOM     88  C   UNL A   1      40.987  35.097  37.427  1.00  0.00     0.010 A 
ATOM     89  C   UNL A   1      39.403  34.496  39.650  1.00  0.00     0.020 A 
ATOM     90  C   UNL A   1      41.060  35.903  38.565  1.00  0.00     0.020 A 
ATOM     91  C   UNL A   1      40.256  35.605  39.666  1.00  0.00     0.054 A 
BRANCH  91  92
ATOM     92  S   UNL A   1      40.327  36.630  41.160  1.00  0.00     0.124 S 
ATOM     93  O   UNL A   1      41.570  37.371  40.962  1.00  0.00    -0.237 OA
ATOM     94  O   UNL A   1      39.102  37.420  41.063  1.00  0.00    -0.237 OA
ATOM     95  O   UNL A   1      40.350  35.657  42.250  1.00  0.00    -0.744 OA
ENDBRANCH  91  92
ENDBRANCH  65  86
ENDBRANCH  39  40
ENDBRANCH  32  34
ENDBRANCH  31  32
ENDBRANCH  30  31
ENDBRANCH  29  30
ENDBRANCH   1  29
TORSDOF 22
ENDMDL
MODEL 3
REMARK VINA RESULT:     -11.2      2.241      3.315
REMARK SMILES Cc1ccc(NC(=O)C[C@@H](C(=O)OCCOCCOC(=O)c2ccc(-c3c4nc(c(-c5ccc(S(=O)(=O)[O-])cc5)c5ccc([nH]5)c(-c5ccc(S(=O)(=O)[O-])cc5)c5nc(c(-c6ccc(S(=O)(=O)[O-])cc6)c6ccc3[nH]6)C=C5)C=C4)cc2)[C@@H](C)c2ccccc2)cc1Br
REMARK SMILES IDX 16 1 15 2 14 3 13 4 11 5 12 6 10 7 9 8 7 9 6 10 8 12 5 13
REMARK SMILES IDX 1 14 2 15 3 16 91 17 4 18 90 19 92 20 82 21 83 22 84 23
REMARK SMILES IDX 85 24 89 25 86 26 88 27 87 28 17 29 18 30 19 31 20 32 21 33
REMARK SMILES IDX 22 34 23 35 81 36 24 37 80 38 25 39 26 40 27 41 74 42 28 43
REMARK SMILES IDX 79 44 73 45 75 46 29 47 78 48 72 49 71 50 30 52 60 53 41 54
REMARK SMILES IDX 59 55 42 56 45 57 58 58 76 59 43 60 44 61 57 63 77 64 46 65
REMARK SMILES IDX 31 66 32 67 40 68 33 69 39 70 34 71 35 72 36 73 37 74 38 75
REMARK SMILES IDX 61 76 62 77 70 78 63 79 69 80 64 81 65 82 66 83 67 84 68 85
REMARK SMILES IDX 47 86 48 87 56 88 49 89 55 90 50 91 51 92 52 93 53 94 54 95
REMARK H PARENT 6 11 75 51 45 62
REMARK Flexibility Score: inf
ROOT
ATOM      1  O   UNL A   1      40.324  19.811  26.678  1.00  0.00    -0.374 OA
ENDROOT
BRANCH   1   2
ATOM      2  C   UNL A   1      39.163  19.850  25.628  1.00  0.00     0.202 C 
BRANCH   2   3
ATOM      3  C   UNL A   1      37.611  21.336  25.219  1.00  0.00     0.261 C 
BRANCH   3   4
ATOM      4  O   UNL A   1      36.025  20.975  24.875  1.00  0.00    -0.463 OA
BRANCH   4   5
ATOM      5  C   UNL A   1      35.023  21.807  24.557  1.00  0.00     0.310 C 
ATOM      6  O   UNL A   1      35.204  22.730  23.772  1.00  0.00    -0.252 OA
BRANCH   5   7
ATOM      7  C   UNL A   1      33.691  21.610  25.352  1.00  0.00     0.116 C 
BRANCH   7   8
ATOM      8  C   UNL A   1      32.303  21.634  24.645  1.00  0.00     0.116 C 
BRANCH   8   9
ATOM      9  C   UNL A   1      32.129  21.515  23.151  1.00  0.00     0.225 C 
ATOM     10  N   UNL A   1      31.797  22.577  22.376  1.00  0.00    -0.326 N 
ATOM     11  H   UNL A   1      31.568  22.362  21.443  1.00  0.00     0.169 HD
ATOM     12  O   UNL A   1      32.225  20.410  22.610  1.00  0.00    -0.275 OA
BRANCH  10  13
ATOM     13  C   UNL A   1      31.734  23.931  22.708  1.00  0.00     0.042 A 
ATOM     14  C   UNL A   1      30.920  28.826  23.805  1.00  0.00     0.045 C 
ATOM     15  C   UNL A   1      31.057  27.445  23.225  1.00  0.00    -0.037 A 
ATOM     16  C   UNL A   1      29.805  26.218  23.624  1.00  0.00     0.007 A 
ATOM     17  C   UNL A   1      32.641  26.949  22.548  1.00  0.00     0.022 A 
ATOM     18  C   UNL A   1      30.140  24.476  23.362  1.00  0.00     0.026 A 
ATOM     19  C   UNL A   1      32.972  25.188  22.269  1.00  0.00     0.042 A 
ATOM     20  Br  UNL A   1      34.028  28.243  22.375  1.00  0.00    -0.050 Br
ENDBRANCH  10  13
ENDBRANCH   8   9
ENDBRANCH   7   8
BRANCH   7  21
ATOM     21  C   UNL A   1      33.595  22.521  26.646  1.00  0.00     0.031 C 
ATOM     22  C   UNL A   1      34.835  22.387  27.553  1.00  0.00     0.013 C 
BRANCH  21  23
ATOM     23  C   UNL A   1      33.216  23.965  26.374  1.00  0.00    -0.044 A 
ATOM     24  C   UNL A   1      31.970  24.519  26.657  1.00  0.00     0.004 A 
ATOM     25  C   UNL A   1      34.218  24.819  25.890  1.00  0.00     0.004 A 
ATOM     26  C   UNL A   1      31.763  25.896  26.501  1.00  0.00     0.000 A 
ATOM     27  C   UNL A   1      34.030  26.188  25.755  1.00  0.00     0.000 A 
ATOM     28  C   UNL A   1      32.796  26.731  26.071  1.00  0.00     0.000 A 
ENDBRANCH  21  23
ENDBRANCH   7  21
ENDBRANCH   5   7
ENDBRANCH   4   5
ENDBRANCH   3   4
ENDBRANCH   2   3
ENDBRANCH   1   2
BRANCH   1  29
ATOM     29  C   UNL A   1      41.707  19.607  26.383  1.00  0.00     0.202 C 
BRANCH  29  30
ATOM     30  C   UNL A   1      42.622  20.712  25.837  1.00  0.00     0.261 C 
BRANCH  30  31
ATOM     31  O   UNL A   1      41.996  21.899  25.376  1.00  0.00    -0.460 OA
BRANCH  31  32
ATOM     32  C   UNL A   1      42.848  22.928  25.144  1.00  0.00     0.338 C 
ATOM     33  O   UNL A   1      43.725  22.983  24.302  1.00  0.00    -0.246 OA
BRANCH  32  34
ATOM     34  C   UNL A   1      42.418  24.061  25.991  1.00  0.00     0.060 A 
ATOM     35  C   UNL A   1      42.980  25.323  25.763  1.00  0.00     0.016 A 
ATOM     36  C   UNL A   1      41.462  23.877  26.993  1.00  0.00     0.016 A 
ATOM     37  C   UNL A   1      42.631  26.396  26.583  1.00  0.00     0.010 A 
ATOM     38  C   UNL A   1      41.127  24.944  27.824  1.00  0.00     0.010 A 
ATOM     39  C   UNL A   1      41.749  26.192  27.653  1.00  0.00    -0.014 A 
BRANCH  39  40
ATOM     40  C   UNL A   1      41.688  27.175  28.759  1.00  0.00     0.031 A 
ATOM     41  C   UNL A   1      42.709  27.043  29.858  1.00  0.00     0.074 A 
ATOM     42  C   UNL A   1      40.752  28.138  28.809  1.00  0.00     0.049 A 
ATOM     43  N   UNL A   1      42.840  27.739  30.956  1.00  0.00    -0.248 NA
ATOM     44  C   UNL A   1      43.710  25.974  29.696  1.00  0.00     0.031 C 
ATOM     45  C   UNL A   1      39.736  28.391  27.792  1.00  0.00     0.029 A 
ATOM     46  N   UNL A   1      40.505  29.079  29.778  1.00  0.00    -0.354 N 
ATOM     47  C   UNL A   1      43.932  27.188  31.619  1.00  0.00     0.074 A 
ATOM     48  C   UNL A   1      44.405  26.082  30.817  1.00  0.00     0.031 C 
ATOM     49  C   UNL A   1      38.966  29.419  28.193  1.00  0.00     0.029 A 
ATOM     50  C   UNL A   1      39.413  29.871  29.511  1.00  0.00     0.049 A 
ATOM     51  H   UNL A   1      41.056  29.178  30.587  1.00  0.00     0.167 HD
ATOM     52  C   UNL A   1      44.493  27.569  32.790  1.00  0.00     0.031 A 
ATOM     53  C   UNL A   1      38.833  30.835  30.257  1.00  0.00     0.031 A 
ATOM     54  C   UNL A   1      43.995  28.643  33.604  1.00  0.00     0.049 A 
ATOM     55  C   UNL A   1      39.423  31.183  31.602  1.00  0.00     0.074 A 
ATOM     56  C   UNL A   1      44.501  29.118  34.801  1.00  0.00     0.029 A 
ATOM     57  N   UNL A   1      42.866  29.396  33.319  1.00  0.00    -0.354 N 
ATOM     58  N   UNL A   1      40.485  30.689  32.195  1.00  0.00    -0.248 NA
ATOM     59  C   UNL A   1      38.738  32.229  32.377  1.00  0.00     0.031 C 
ATOM     60  C   UNL A   1      43.632  30.104  35.278  1.00  0.00     0.029 A 
ATOM     61  C   UNL A   1      42.635  30.305  34.336  1.00  0.00     0.049 A 
ATOM     62  H   UNL A   1      42.310  29.297  32.511  1.00  0.00     0.167 HD
ATOM     63  C   UNL A   1      40.616  31.390  33.392  1.00  0.00     0.074 A 
ATOM     64  C   UNL A   1      39.531  32.348  33.433  1.00  0.00     0.031 C 
ATOM     65  C   UNL A   1      41.551  31.256  34.366  1.00  0.00     0.031 A 
BRANCH  52  66
ATOM     66  C   UNL A   1      45.678  26.777  33.279  1.00  0.00    -0.014 A 
ATOM     67  C   UNL A   1      46.988  27.081  32.863  1.00  0.00     0.010 A 
ATOM     68  C   UNL A   1      45.477  25.721  34.186  1.00  0.00     0.010 A 
ATOM     69  C   UNL A   1      48.067  26.313  33.309  1.00  0.00     0.020 A 
ATOM     70  C   UNL A   1      46.557  24.974  34.662  1.00  0.00     0.020 A 
ATOM     71  C   UNL A   1      47.844  25.263  34.205  1.00  0.00     0.054 A 
BRANCH  71  72
ATOM     72  S   UNL A   1      49.266  24.295  34.778  1.00  0.00     0.124 S 
ATOM     73  O   UNL A   1      50.241  24.535  33.717  1.00  0.00    -0.237 OA
ATOM     74  O   UNL A   1      49.573  24.914  36.066  1.00  0.00    -0.237 OA
ATOM     75  O   UNL A   1      48.750  22.931  34.853  1.00  0.00    -0.744 OA
ENDBRANCH  71  72
ENDBRANCH  52  66
BRANCH  53  76
ATOM     76  C   UNL A   1      37.623  31.544  29.753  1.00  0.00    -0.014 A 
ATOM     77  C   UNL A   1      36.347  30.968  29.888  1.00  0.00     0.010 A 
ATOM     78  C   UNL A   1      37.740  32.798  29.124  1.00  0.00     0.010 A 
ATOM     79  C   UNL A   1      35.215  31.624  29.394  1.00  0.00     0.020 A 
ATOM     80  C   UNL A   1      36.607  33.471  28.657  1.00  0.00     0.020 A 
ATOM     81  C   UNL A   1      35.351  32.875  28.788  1.00  0.00     0.054 A 
BRANCH  81  82
ATOM     82  S   UNL A   1      33.859  33.732  28.212  1.00  0.00     0.124 S 
ATOM     83  O   UNL A   1      33.335  34.297  29.451  1.00  0.00    -0.237 OA
ATOM     84  O   UNL A   1      34.403  34.693  27.256  1.00  0.00    -0.237 OA
ATOM     85  O   UNL A   1      33.056  32.663  27.623  1.00  0.00    -0.744 OA
ENDBRANCH  81  82
ENDBRANCH  53  76
BRANCH  65  86
ATOM     86  C   UNL A   1      41.483  32.197  35.544  1.00  0.00    -0.014 A 
ATOM     87  C   UNL A   1      42.152  33.433  35.542  1.00  0.00     0.010 A 
ATOM     88  C   UNL A   1      40.676  31.861  36.648  1.00  0.00     0.010 A 
ATOM     89  C   UNL A   1      42.040  34.301  36.634  1.00  0.00     0.020 A 
ATOM     90  C   UNL A   1      40.533  32.738  37.726  1.00  0.00     0.020 A 
ATOM     91  C   UNL A   1      41.228  33.949  37.717  1.00  0.00     0.054 A 
BRANCH  91  92
ATOM     92  S   UNL A   1      41.062  35.112  39.099  1.00  0.00     0.124 S 
ATOM     93  O   UNL A   1      41.000  34.213  40.249  1.00  0.00    -0.237 OA
ATOM     94  O   UNL A   1      42.281  35.910  38.991  1.00  0.00    -0.237 OA
ATOM     95  O   UNL A   1      39.825  35.831  38.803  1.00  0.00    -0.744 OA
ENDBRANCH  91  92
ENDBRANCH  65  86
ENDBRANCH  39  40
ENDBRANCH  32  34
ENDBRANCH  31  32
ENDBRANCH  30  31
ENDBRANCH  29  30
ENDBRANCH   1  29
TORSDOF 22
ENDMDL
