MODEL 1
REMARK VINA RESULT:      -9.7      0.000      0.000
REMARK SMILES CC[C@](C)(NC(=O)N(C)Cc1cccc(C)c1)C(=O)OCCOCCOC(=O)c1ccc(-c2c3nc(c(-c4ccc(S(=O)(=O)[O-])cc4)c4ccc([nH]4)c(-c4ccc(S(=O)(=O)[O-])cc4)c4nc(c(-c5ccc(S(=O)(=O)[O-])cc5)c5ccc2[nH]5)C=C4)C=C3)cc1
REMARK SMILES IDX 22 1 21 2 20 3 18 4 19 5 3 6 4 7 2 8 1 9 5 10 6 11 7 13 8 14
REMARK SMILES IDX 9 15 10 16 11 17 12 18 17 19 13 20 15 21 14 22 16 23 23 24
REMARK SMILES IDX 24 25 25 26 26 27 27 28 28 29 29 30 30 31 88 32 31 33 87 34
REMARK SMILES IDX 32 35 33 36 34 37 81 38 35 39 86 40 80 41 82 42 36 43 85 44
REMARK SMILES IDX 79 45 78 46 37 48 67 49 48 50 66 51 49 52 52 53 65 54 83 55
REMARK SMILES IDX 50 56 51 57 64 59 84 60 53 61 38 62 39 63 47 64 40 65 46 66
REMARK SMILES IDX 41 67 42 68 43 69 44 70 45 71 68 72 69 73 77 74 70 75 76 76
REMARK SMILES IDX 71 77 72 78 73 79 74 80 75 81 54 82 55 83 63 84 56 85 62 86
REMARK SMILES IDX 57 87 58 88 59 89 60 90 61 91
REMARK H PARENT 5 12 82 47 52 58
REMARK Flexibility Score: inf
ROOT
ATOM      1  C   UNL A   1      36.827  22.970  25.179  1.00  0.00     0.202 C 
ENDROOT
BRANCH   1   2
ATOM      2  C   UNL A   1      35.785  23.919  25.740  1.00  0.00     0.261 C 
BRANCH   2   3
ATOM      3  O   UNL A   1      34.475  23.509  25.360  1.00  0.00    -0.462 OA
BRANCH   3   4
ATOM      4  C   UNL A   1      33.897  22.535  26.093  1.00  0.00     0.331 C 
ATOM      5  O   UNL A   1      34.168  22.238  27.250  1.00  0.00    -0.249 OA
BRANCH   4   6
ATOM      6  C   UNL A   1      32.833  21.810  25.237  1.00  0.00     0.136 C 
ATOM      7  C   UNL A   1      32.870  20.326  25.630  1.00  0.00     0.047 C 
BRANCH   6   8
ATOM      8  C   UNL A   1      33.235  22.062  23.753  1.00  0.00     0.037 C 
ATOM      9  C   UNL A   1      32.329  21.490  22.674  1.00  0.00     0.007 C 
ENDBRANCH   6   8
BRANCH   6  10
ATOM     10  N   UNL A   1      31.416  22.337  25.343  1.00  0.00    -0.322 N 
ATOM     11  C   UNL A   1      31.022  23.523  25.920  1.00  0.00     0.318 C 
ATOM     12  H   UNL A   1      30.704  21.774  24.959  1.00  0.00     0.166 HD
ATOM     13  O   UNL A   1      30.836  23.589  27.133  1.00  0.00    -0.249 OA
BRANCH  11  14
ATOM     14  N   UNL A   1      30.693  24.544  25.016  1.00  0.00    -0.324 N 
ATOM     15  C   UNL A   1      30.442  24.247  23.618  1.00  0.00     0.149 C 
BRANCH  14  16
ATOM     16  C   UNL A   1      30.520  25.931  25.526  1.00  0.00     0.156 C 
BRANCH  16  17
ATOM     17  C   UNL A   1      31.646  26.973  25.516  1.00  0.00    -0.028 A 
ATOM     18  C   UNL A   1      32.204  27.360  26.753  1.00  0.00     0.005 A 
ATOM     19  C   UNL A   1      32.135  27.641  24.381  1.00  0.00     0.009 A 
ATOM     20  C   UNL A   1      33.235  28.307  26.837  1.00  0.00     0.001 A 
ATOM     21  C   UNL A   1      33.243  28.511  24.439  1.00  0.00    -0.051 A 
ATOM     22  C   UNL A   1      33.767  28.863  25.681  1.00  0.00     0.003 A 
ATOM     23  C   UNL A   1      33.964  28.939  23.191  1.00  0.00     0.044 C 
ENDBRANCH  16  17
ENDBRANCH  14  16
ENDBRANCH  11  14
ENDBRANCH   6  10
ENDBRANCH   4   6
ENDBRANCH   3   4
ENDBRANCH   2   3
ENDBRANCH   1   2
BRANCH   1  24
ATOM     24  O   UNL A   1      38.129  23.484  25.463  1.00  0.00    -0.374 OA
BRANCH  24  25
ATOM     25  C   UNL A   1      38.925  22.690  26.331  1.00  0.00     0.202 C 
BRANCH  25  26
ATOM     26  C   UNL A   1      39.279  21.301  25.781  1.00  0.00     0.261 C 
BRANCH  26  27
ATOM     27  O   UNL A   1      40.167  20.618  26.687  1.00  0.00    -0.460 OA
BRANCH  27  28
ATOM     28  C   UNL A   1      41.407  20.360  26.181  1.00  0.00     0.338 C 
ATOM     29  O   UNL A   1      41.694  19.348  25.563  1.00  0.00    -0.246 OA
BRANCH  28  30
ATOM     30  C   UNL A   1      42.366  21.414  26.627  1.00  0.00     0.060 A 
ATOM     31  C   UNL A   1      42.373  21.846  27.966  1.00  0.00     0.016 A 
ATOM     32  C   UNL A   1      43.053  22.148  25.660  1.00  0.00     0.016 A 
ATOM     33  C   UNL A   1      42.975  23.067  28.315  1.00  0.00     0.010 A 
ATOM     34  C   UNL A   1      43.552  23.393  25.990  1.00  0.00     0.010 A 
ATOM     35  C   UNL A   1      43.514  23.867  27.315  1.00  0.00    -0.014 A 
BRANCH  35  36
ATOM     36  C   UNL A   1      44.087  25.203  27.489  1.00  0.00     0.031 A 
ATOM     37  C   UNL A   1      45.541  25.299  27.728  1.00  0.00     0.074 A 
ATOM     38  C   UNL A   1      43.469  26.310  27.007  1.00  0.00     0.049 A 
ATOM     39  N   UNL A   1      46.146  26.402  28.030  1.00  0.00    -0.248 NA
ATOM     40  C   UNL A   1      46.438  24.137  27.714  1.00  0.00     0.031 C 
ATOM     41  C   UNL A   1      44.108  27.409  26.285  1.00  0.00     0.029 A 
ATOM     42  N   UNL A   1      42.158  26.741  27.152  1.00  0.00    -0.354 N 
ATOM     43  C   UNL A   1      47.466  26.165  27.746  1.00  0.00     0.074 A 
ATOM     44  C   UNL A   1      47.624  24.736  27.839  1.00  0.00     0.031 C 
ATOM     45  C   UNL A   1      43.264  28.448  26.214  1.00  0.00     0.029 A 
ATOM     46  C   UNL A   1      42.117  28.139  27.046  1.00  0.00     0.049 A 
ATOM     47  H   UNL A   1      41.380  26.157  27.307  1.00  0.00     0.167 HD
ATOM     48  C   UNL A   1      48.215  27.149  27.180  1.00  0.00     0.031 A 
ATOM     49  C   UNL A   1      41.483  28.989  27.906  1.00  0.00     0.031 A 
ATOM     50  C   UNL A   1      47.544  28.454  27.151  1.00  0.00     0.049 A 
ATOM     51  C   UNL A   1      42.371  30.093  28.421  1.00  0.00     0.074 A 
ATOM     52  C   UNL A   1      47.222  29.348  26.145  1.00  0.00     0.029 A 
ATOM     53  N   UNL A   1      46.912  28.929  28.294  1.00  0.00    -0.354 N 
ATOM     54  N   UNL A   1      43.596  30.294  28.034  1.00  0.00    -0.248 NA
ATOM     55  C   UNL A   1      42.003  30.944  29.551  1.00  0.00     0.031 C 
ATOM     56  C   UNL A   1      46.421  30.382  26.706  1.00  0.00     0.029 A 
ATOM     57  C   UNL A   1      46.279  30.137  28.062  1.00  0.00     0.049 A 
ATOM     58  H   UNL A   1      46.914  28.464  29.162  1.00  0.00     0.167 HD
ATOM     59  C   UNL A   1      44.259  30.943  29.045  1.00  0.00     0.074 A 
ATOM     60  C   UNL A   1      43.194  31.470  29.877  1.00  0.00     0.031 C 
ATOM     61  C   UNL A   1      45.617  30.826  29.174  1.00  0.00     0.031 A 
BRANCH  48  62
ATOM     62  C   UNL A   1      49.511  26.886  26.443  1.00  0.00    -0.014 A 
ATOM     63  C   UNL A   1      49.520  26.928  25.035  1.00  0.00     0.010 A 
ATOM     64  C   UNL A   1      50.727  26.515  27.058  1.00  0.00     0.010 A 
ATOM     65  C   UNL A   1      50.675  26.643  24.291  1.00  0.00     0.020 A 
ATOM     66  C   UNL A   1      51.900  26.281  26.333  1.00  0.00     0.020 A 
ATOM     67  C   UNL A   1      51.865  26.338  24.947  1.00  0.00     0.054 A 
BRANCH  67  68
ATOM     68  S   UNL A   1      53.361  26.024  23.979  1.00  0.00     0.124 S 
ATOM     69  O   UNL A   1      53.747  24.689  24.430  1.00  0.00    -0.237 OA
ATOM     70  O   UNL A   1      52.875  26.112  22.605  1.00  0.00    -0.237 OA
ATOM     71  O   UNL A   1      54.268  27.097  24.383  1.00  0.00    -0.744 OA
ENDBRANCH  67  68
ENDBRANCH  48  62
BRANCH  49  72
ATOM     72  C   UNL A   1      40.483  28.300  28.771  1.00  0.00    -0.014 A 
ATOM     73  C   UNL A   1      40.880  27.982  30.078  1.00  0.00     0.010 A 
ATOM     74  C   UNL A   1      39.118  28.508  28.487  1.00  0.00     0.010 A 
ATOM     75  C   UNL A   1      39.965  28.143  31.117  1.00  0.00     0.020 A 
ATOM     76  C   UNL A   1      38.201  28.633  29.531  1.00  0.00     0.020 A 
ATOM     77  C   UNL A   1      38.647  28.520  30.846  1.00  0.00     0.054 A 
BRANCH  77  78
ATOM     78  S   UNL A   1      37.617  29.161  32.203  1.00  0.00     0.124 S 
ATOM     79  O   UNL A   1      38.384  30.318  32.651  1.00  0.00    -0.237 OA
ATOM     80  O   UNL A   1      36.346  29.432  31.538  1.00  0.00    -0.237 OA
ATOM     81  O   UNL A   1      37.570  28.041  33.139  1.00  0.00    -0.744 OA
ENDBRANCH  77  78
ENDBRANCH  49  72
BRANCH  61  82
ATOM     82  C   UNL A   1      46.461  31.273  30.360  1.00  0.00    -0.014 A 
ATOM     83  C   UNL A   1      46.451  30.691  31.636  1.00  0.00     0.010 A 
ATOM     84  C   UNL A   1      47.357  32.361  30.190  1.00  0.00     0.010 A 
ATOM     85  C   UNL A   1      47.225  31.198  32.691  1.00  0.00     0.020 A 
ATOM     86  C   UNL A   1      48.168  32.851  31.219  1.00  0.00     0.020 A 
ATOM     87  C   UNL A   1      48.067  32.286  32.479  1.00  0.00     0.054 A 
BRANCH  87  88
ATOM     88  S   UNL A   1      48.988  32.968  33.875  1.00  0.00     0.124 S 
ATOM     89  O   UNL A   1      48.564  34.366  33.860  1.00  0.00    -0.237 OA
ATOM     90  O   UNL A   1      48.494  32.177  35.000  1.00  0.00    -0.237 OA
ATOM     91  O   UNL A   1      50.385  32.736  33.521  1.00  0.00    -0.744 OA
ENDBRANCH  87  88
ENDBRANCH  61  82
ENDBRANCH  35  36
ENDBRANCH  28  30
ENDBRANCH  27  28
ENDBRANCH  26  27
ENDBRANCH  25  26
ENDBRANCH  24  25
ENDBRANCH   1  24
TORSDOF 22
ENDMDL
MODEL 2
REMARK VINA RESULT:      -9.4      4.711      9.870
REMARK SMILES CC[C@](C)(NC(=O)N(C)Cc1cccc(C)c1)C(=O)OCCOCCOC(=O)c1ccc(-c2c3nc(c(-c4ccc(S(=O)(=O)[O-])cc4)c4ccc([nH]4)c(-c4ccc(S(=O)(=O)[O-])cc4)c4nc(c(-c5ccc(S(=O)(=O)[O-])cc5)c5ccc2[nH]5)C=C4)C=C3)cc1
REMARK SMILES IDX 22 1 21 2 20 3 18 4 19 5 3 6 4 7 2 8 1 9 5 10 6 11 7 13 8 14
REMARK SMILES IDX 9 15 10 16 11 17 12 18 17 19 13 20 15 21 14 22 16 23 23 24
REMARK SMILES IDX 24 25 25 26 26 27 27 28 28 29 29 30 30 31 88 32 31 33 87 34
REMARK SMILES IDX 32 35 33 36 34 37 81 38 35 39 86 40 80 41 82 42 36 43 85 44
REMARK SMILES IDX 79 45 78 46 37 48 67 49 48 50 66 51 49 52 52 53 65 54 83 55
REMARK SMILES IDX 50 56 51 57 64 59 84 60 53 61 38 62 39 63 47 64 40 65 46 66
REMARK SMILES IDX 41 67 42 68 43 69 44 70 45 71 68 72 69 73 77 74 70 75 76 76
REMARK SMILES IDX 71 77 72 78 73 79 74 80 75 81 54 82 55 83 63 84 56 85 62 86
REMARK SMILES IDX 57 87 58 88 59 89 60 90 61 91
REMARK H PARENT 5 12 82 47 52 58
REMARK Flexibility Score: inf
ROOT
ATOM      1  C   UNL A   1      36.541  23.110  26.074  1.00  0.00     0.202 C 
ENDROOT
BRANCH   1   2
ATOM      2  C   UNL A   1      36.083  21.699  25.753  1.00  0.00     0.261 C 
BRANCH   2   3
ATOM      3  O   UNL A   1      34.780  21.711  25.180  1.00  0.00    -0.462 OA
BRANCH   3   4
ATOM      4  C   UNL A   1      33.733  21.623  26.026  1.00  0.00     0.331 C 
ATOM      5  O   UNL A   1      33.789  21.418  27.232  1.00  0.00    -0.249 OA
BRANCH   4   6
ATOM      6  C   UNL A   1      32.416  21.794  25.236  1.00  0.00     0.136 C 
ATOM      7  C   UNL A   1      31.384  22.399  26.199  1.00  0.00     0.047 C 
BRANCH   6   8
ATOM      8  C   UNL A   1      32.029  20.369  24.739  1.00  0.00     0.037 C 
ATOM      9  C   UNL A   1      33.162  19.420  24.380  1.00  0.00     0.007 C 
ENDBRANCH   6   8
BRANCH   6  10
ATOM     10  N   UNL A   1      32.497  22.629  23.974  1.00  0.00    -0.322 N 
ATOM     11  C   UNL A   1      32.129  23.949  23.837  1.00  0.00     0.318 C 
ATOM     12  H   UNL A   1      32.849  22.183  23.169  1.00  0.00     0.166 HD
ATOM     13  O   UNL A   1      30.957  24.245  23.619  1.00  0.00    -0.249 OA
BRANCH  11  14
ATOM     14  N   UNL A   1      33.194  24.861  23.789  1.00  0.00    -0.324 N 
ATOM     15  C   UNL A   1      33.653  25.402  22.523  1.00  0.00     0.149 C 
BRANCH  14  16
ATOM     16  C   UNL A   1      33.796  25.336  25.064  1.00  0.00     0.156 C 
BRANCH  16  17
ATOM     17  C   UNL A   1      33.250  26.533  25.852  1.00  0.00    -0.028 A 
ATOM     18  C   UNL A   1      31.970  26.418  26.434  1.00  0.00     0.005 A 
ATOM     19  C   UNL A   1      33.884  27.779  25.993  1.00  0.00     0.009 A 
ATOM     20  C   UNL A   1      31.394  27.464  27.170  1.00  0.00     0.001 A 
ATOM     21  C   UNL A   1      33.366  28.797  26.820  1.00  0.00    -0.051 A 
ATOM     22  C   UNL A   1      32.100  28.641  27.380  1.00  0.00     0.003 A 
ATOM     23  C   UNL A   1      34.211  29.970  27.234  1.00  0.00     0.044 C 
ENDBRANCH  16  17
ENDBRANCH  14  16
ENDBRANCH  11  14
ENDBRANCH   6  10
ENDBRANCH   4   6
ENDBRANCH   3   4
ENDBRANCH   2   3
ENDBRANCH   1   2
BRANCH   1  24
ATOM     24  O   UNL A   1      37.923  23.241  25.739  1.00  0.00    -0.374 OA
BRANCH  24  25
ATOM     25  C   UNL A   1      38.817  22.443  26.501  1.00  0.00     0.202 C 
BRANCH  25  26
ATOM     26  C   UNL A   1      40.058  23.186  27.013  1.00  0.00     0.261 C 
BRANCH  26  27
ATOM     27  O   UNL A   1      39.675  24.432  27.629  1.00  0.00    -0.460 OA
BRANCH  27  28
ATOM     28  C   UNL A   1      40.002  25.544  26.911  1.00  0.00     0.338 C 
ATOM     29  O   UNL A   1      40.543  25.515  25.818  1.00  0.00    -0.246 OA
BRANCH  28  30
ATOM     30  C   UNL A   1      39.737  26.769  27.724  1.00  0.00     0.060 A 
ATOM     31  C   UNL A   1      40.247  28.015  27.314  1.00  0.00     0.016 A 
ATOM     32  C   UNL A   1      39.224  26.622  29.012  1.00  0.00     0.016 A 
ATOM     33  C   UNL A   1      40.341  29.079  28.227  1.00  0.00     0.010 A 
ATOM     34  C   UNL A   1      39.414  27.635  29.931  1.00  0.00     0.010 A 
ATOM     35  C   UNL A   1      39.977  28.868  29.552  1.00  0.00    -0.014 A 
BRANCH  35  36
ATOM     36  C   UNL A   1      40.104  29.830  30.648  1.00  0.00     0.031 A 
ATOM     37  C   UNL A   1      39.455  31.147  30.482  1.00  0.00     0.074 A 
ATOM     38  C   UNL A   1      40.369  29.432  31.916  1.00  0.00     0.049 A 
ATOM     39  N   UNL A   1      39.604  32.128  31.312  1.00  0.00    -0.248 NA
ATOM     40  C   UNL A   1      38.630  31.497  29.320  1.00  0.00     0.031 C 
ATOM     41  C   UNL A   1      39.709  29.915  33.129  1.00  0.00     0.029 A 
ATOM     42  N   UNL A   1      41.359  28.591  32.404  1.00  0.00    -0.354 N 
ATOM     43  C   UNL A   1      38.550  32.965  31.055  1.00  0.00     0.074 A 
ATOM     44  C   UNL A   1      38.176  32.697  29.689  1.00  0.00     0.031 C 
ATOM     45  C   UNL A   1      40.407  29.525  34.204  1.00  0.00     0.029 A 
ATOM     46  C   UNL A   1      41.646  28.937  33.733  1.00  0.00     0.049 A 
ATOM     47  H   UNL A   1      41.792  27.866  31.897  1.00  0.00     0.167 HD
ATOM     48  C   UNL A   1      37.916  33.581  32.089  1.00  0.00     0.031 A 
ATOM     49  C   UNL A   1      42.892  29.134  34.257  1.00  0.00     0.031 A 
ATOM     50  C   UNL A   1      38.610  33.433  33.373  1.00  0.00     0.049 A 
ATOM     51  C   UNL A   1      43.038  30.451  34.976  1.00  0.00     0.074 A 
ATOM     52  C   UNL A   1      38.246  32.937  34.612  1.00  0.00     0.029 A 
ATOM     53  N   UNL A   1      39.979  33.661  33.446  1.00  0.00    -0.354 N 
ATOM     54  N   UNL A   1      42.068  31.296  35.170  1.00  0.00    -0.248 NA
ATOM     55  C   UNL A   1      44.334  31.000  35.369  1.00  0.00     0.031 C 
ATOM     56  C   UNL A   1      39.405  32.904  35.438  1.00  0.00     0.029 A 
ATOM     57  C   UNL A   1      40.471  33.409  34.714  1.00  0.00     0.049 A 
ATOM     58  H   UNL A   1      40.532  33.962  32.689  1.00  0.00     0.167 HD
ATOM     59  C   UNL A   1      42.617  32.547  35.307  1.00  0.00     0.074 A 
ATOM     60  C   UNL A   1      44.014  32.283  35.595  1.00  0.00     0.031 C 
ATOM     61  C   UNL A   1      41.887  33.663  34.999  1.00  0.00     0.031 A 
BRANCH  48  62
ATOM     62  C   UNL A   1      36.520  34.159  31.982  1.00  0.00    -0.014 A 
ATOM     63  C   UNL A   1      36.123  35.163  32.886  1.00  0.00     0.010 A 
ATOM     64  C   UNL A   1      35.530  33.710  31.081  1.00  0.00     0.010 A 
ATOM     65  C   UNL A   1      34.829  35.704  32.873  1.00  0.00     0.020 A 
ATOM     66  C   UNL A   1      34.251  34.276  31.021  1.00  0.00     0.020 A 
ATOM     67  C   UNL A   1      33.904  35.268  31.926  1.00  0.00     0.054 A 
BRANCH  67  68
ATOM     68  S   UNL A   1      32.254  36.008  31.885  1.00  0.00     0.124 S 
ATOM     69  O   UNL A   1      32.438  37.220  32.680  1.00  0.00    -0.237 OA
ATOM     70  O   UNL A   1      32.033  36.216  30.457  1.00  0.00    -0.237 OA
ATOM     71  O   UNL A   1      31.401  34.991  32.499  1.00  0.00    -0.744 OA
ENDBRANCH  67  68
ENDBRANCH  48  62
BRANCH  49  72
ATOM     72  C   UNL A   1      43.976  28.563  33.409  1.00  0.00    -0.014 A 
ATOM     73  C   UNL A   1      44.564  29.416  32.463  1.00  0.00     0.010 A 
ATOM     74  C   UNL A   1      44.717  27.484  33.930  1.00  0.00     0.010 A 
ATOM     75  C   UNL A   1      45.942  29.350  32.263  1.00  0.00     0.020 A 
ATOM     76  C   UNL A   1      46.090  27.403  33.696  1.00  0.00     0.020 A 
ATOM     77  C   UNL A   1      46.706  28.383  32.919  1.00  0.00     0.054 A 
BRANCH  77  78
ATOM     78  S   UNL A   1      48.512  28.595  33.006  1.00  0.00     0.124 S 
ATOM     79  O   UNL A   1      48.660  30.034  32.825  1.00  0.00    -0.237 OA
ATOM     80  O   UNL A   1      48.832  28.062  34.327  1.00  0.00    -0.237 OA
ATOM     81  O   UNL A   1      48.995  27.771  31.902  1.00  0.00    -0.744 OA
ENDBRANCH  77  78
ENDBRANCH  49  72
BRANCH  61  82
ATOM     82  C   UNL A   1      42.414  35.086  34.863  1.00  0.00    -0.014 A 
ATOM     83  C   UNL A   1      42.384  36.067  35.866  1.00  0.00     0.010 A 
ATOM     84  C   UNL A   1      43.003  35.483  33.635  1.00  0.00     0.010 A 
ATOM     85  C   UNL A   1      42.845  37.373  35.641  1.00  0.00     0.020 A 
ATOM     86  C   UNL A   1      43.507  36.767  33.408  1.00  0.00     0.020 A 
ATOM     87  C   UNL A   1      43.389  37.719  34.407  1.00  0.00     0.054 A 
BRANCH  87  88
ATOM     88  S   UNL A   1      43.898  39.428  34.121  1.00  0.00     0.124 S 
ATOM     89  O   UNL A   1      44.959  39.264  33.131  1.00  0.00    -0.237 OA
ATOM     90  O   UNL A   1      42.670  40.047  33.625  1.00  0.00    -0.237 OA
ATOM     91  O   UNL A   1      44.336  39.889  35.435  1.00  0.00    -0.744 OA
ENDBRANCH  87  88
ENDBRANCH  61  82
ENDBRANCH  35  36
ENDBRANCH  28  30
ENDBRANCH  27  28
ENDBRANCH  26  27
ENDBRANCH  25  26
ENDBRANCH  24  25
ENDBRANCH   1  24
TORSDOF 22
ENDMDL
MODEL 3
REMARK VINA RESULT:      -9.2      2.929      8.399
REMARK SMILES CC[C@](C)(NC(=O)N(C)Cc1cccc(C)c1)C(=O)OCCOCCOC(=O)c1ccc(-c2c3nc(c(-c4ccc(S(=O)(=O)[O-])cc4)c4ccc([nH]4)c(-c4ccc(S(=O)(=O)[O-])cc4)c4nc(c(-c5ccc(S(=O)(=O)[O-])cc5)c5ccc2[nH]5)C=C4)C=C3)cc1
REMARK SMILES IDX 22 1 21 2 20 3 18 4 19 5 3 6 4 7 2 8 1 9 5 10 6 11 7 13 8 14
REMARK SMILES IDX 9 15 10 16 11 17 12 18 17 19 13 20 15 21 14 22 16 23 23 24
REMARK SMILES IDX 24 25 25 26 26 27 27 28 28 29 29 30 30 31 88 32 31 33 87 34
REMARK SMILES IDX 32 35 33 36 34 37 81 38 35 39 86 40 80 41 82 42 36 43 85 44
REMARK SMILES IDX 79 45 78 46 37 48 67 49 48 50 66 51 49 52 52 53 65 54 83 55
REMARK SMILES IDX 50 56 51 57 64 59 84 60 53 61 38 62 39 63 47 64 40 65 46 66
REMARK SMILES IDX 41 67 42 68 43 69 44 70 45 71 68 72 69 73 77 74 70 75 76 76
REMARK SMILES IDX 71 77 72 78 73 79 74 80 75 81 54 82 55 83 63 84 56 85 62 86
REMARK SMILES IDX 57 87 58 88 59 89 60 90 61 91
REMARK H PARENT 5 12 82 47 52 58
REMARK Flexibility Score: inf
ROOT
ATOM      1  C   UNL A   1      33.539  29.872  26.428  1.00  0.00     0.202 C 
ENDROOT
BRANCH   1   2
ATOM      2  C   UNL A   1      34.263  28.713  25.768  1.00  0.00     0.261 C 
BRANCH   2   3
ATOM      3  O   UNL A   1      33.402  28.035  24.859  1.00  0.00    -0.462 OA
BRANCH   3   4
ATOM      4  C   UNL A   1      32.982  26.802  25.212  1.00  0.00     0.331 C 
ATOM      5  O   UNL A   1      33.329  26.171  26.203  1.00  0.00    -0.249 OA
BRANCH   4   6
ATOM      6  C   UNL A   1      31.993  26.270  24.149  1.00  0.00     0.136 C 
ATOM      7  C   UNL A   1      32.105  27.190  22.925  1.00  0.00     0.047 C 
BRANCH   6   8
ATOM      8  C   UNL A   1      30.586  26.309  24.818  1.00  0.00     0.037 C 
ATOM      9  C   UNL A   1      29.373  26.274  23.902  1.00  0.00     0.007 C 
ENDBRANCH   6   8
BRANCH   6  10
ATOM     10  N   UNL A   1      32.176  24.825  23.729  1.00  0.00    -0.322 N 
ATOM     11  C   UNL A   1      33.292  24.276  23.141  1.00  0.00     0.318 C 
ATOM     12  H   UNL A   1      31.418  24.217  23.893  1.00  0.00     0.166 HD
ATOM     13  O   UNL A   1      33.454  24.354  21.926  1.00  0.00    -0.249 OA
BRANCH  11  14
ATOM     14  N   UNL A   1      34.093  23.500  23.994  1.00  0.00    -0.324 N 
ATOM     15  C   UNL A   1      35.511  23.774  24.135  1.00  0.00     0.149 C 
BRANCH  14  16
ATOM     16  C   UNL A   1      33.452  22.442  24.820  1.00  0.00     0.156 C 
BRANCH  16  17
ATOM     17  C   UNL A   1      33.325  20.984  24.362  1.00  0.00    -0.028 A 
ATOM     18  C   UNL A   1      32.318  20.668  23.424  1.00  0.00     0.005 A 
ATOM     19  C   UNL A   1      34.081  19.903  24.847  1.00  0.00     0.009 A 
ATOM     20  C   UNL A   1      32.131  19.360  22.952  1.00  0.00     0.001 A 
ATOM     21  C   UNL A   1      33.976  18.608  24.301  1.00  0.00    -0.051 A 
ATOM     22  C   UNL A   1      32.972  18.338  23.374  1.00  0.00     0.003 A 
ATOM     23  C   UNL A   1      35.016  17.559  24.580  1.00  0.00     0.044 C 
ENDBRANCH  16  17
ENDBRANCH  14  16
ENDBRANCH  11  14
ENDBRANCH   6  10
ENDBRANCH   4   6
ENDBRANCH   3   4
ENDBRANCH   2   3
ENDBRANCH   1   2
BRANCH   1  24
ATOM     24  O   UNL A   1      34.447  30.564  27.286  1.00  0.00    -0.374 OA
BRANCH  24  25
ATOM     25  C   UNL A   1      35.151  29.752  28.215  1.00  0.00     0.202 C 
BRANCH  25  26
ATOM     26  C   UNL A   1      36.029  30.529  29.205  1.00  0.00     0.261 C 
BRANCH  26  27
ATOM     27  O   UNL A   1      37.170  29.736  29.589  1.00  0.00    -0.460 OA
BRANCH  27  28
ATOM     28  C   UNL A   1      38.135  30.419  30.268  1.00  0.00     0.338 C 
ATOM     29  O   UNL A   1      37.931  31.046  31.296  1.00  0.00    -0.246 OA
BRANCH  28  30
ATOM     30  C   UNL A   1      39.410  30.404  29.492  1.00  0.00     0.060 A 
ATOM     31  C   UNL A   1      39.510  29.652  28.307  1.00  0.00     0.016 A 
ATOM     32  C   UNL A   1      40.565  30.911  30.088  1.00  0.00     0.016 A 
ATOM     33  C   UNL A   1      40.769  29.318  27.781  1.00  0.00     0.010 A 
ATOM     34  C   UNL A   1      41.798  30.495  29.625  1.00  0.00     0.010 A 
ATOM     35  C   UNL A   1      41.914  29.693  28.475  1.00  0.00    -0.014 A 
BRANCH  35  36
ATOM     36  C   UNL A   1      43.292  29.345  28.124  1.00  0.00     0.031 A 
ATOM     37  C   UNL A   1      44.084  30.347  27.382  1.00  0.00     0.074 A 
ATOM     38  C   UNL A   1      43.983  28.401  28.809  1.00  0.00     0.049 A 
ATOM     39  N   UNL A   1      45.260  30.114  26.898  1.00  0.00    -0.248 NA
ATOM     40  C   UNL A   1      43.585  31.689  27.060  1.00  0.00     0.031 C 
ATOM     41  C   UNL A   1      45.367  28.508  29.268  1.00  0.00     0.029 A 
ATOM     42  N   UNL A   1      43.633  27.101  29.148  1.00  0.00    -0.354 N 
ATOM     43  C   UNL A   1      45.803  31.355  26.688  1.00  0.00     0.074 A 
ATOM     44  C   UNL A   1      44.678  32.240  26.527  1.00  0.00     0.031 C 
ATOM     45  C   UNL A   1      45.807  27.300  29.649  1.00  0.00     0.029 A 
ATOM     46  C   UNL A   1      44.796  26.329  29.279  1.00  0.00     0.049 A 
ATOM     47  H   UNL A   1      42.713  26.774  29.274  1.00  0.00     0.167 HD
ATOM     48  C   UNL A   1      47.120  31.564  26.961  1.00  0.00     0.031 A 
ATOM     49  C   UNL A   1      45.012  25.105  28.713  1.00  0.00     0.031 A 
ATOM     50  C   UNL A   1      47.863  30.331  27.244  1.00  0.00     0.049 A 
ATOM     51  C   UNL A   1      46.298  25.026  27.929  1.00  0.00     0.074 A 
ATOM     52  C   UNL A   1      48.629  29.894  28.310  1.00  0.00     0.029 A 
ATOM     53  N   UNL A   1      47.715  29.230  26.409  1.00  0.00    -0.354 N 
ATOM     54  N   UNL A   1      47.175  25.982  27.855  1.00  0.00    -0.248 NA
ATOM     55  C   UNL A   1      46.602  23.926  27.016  1.00  0.00     0.031 C 
ATOM     56  C   UNL A   1      48.967  28.529  28.085  1.00  0.00     0.029 A 
ATOM     57  C   UNL A   1      48.435  28.142  26.867  1.00  0.00     0.049 A 
ATOM     58  H   UNL A   1      47.165  29.225  25.592  1.00  0.00     0.167 HD
ATOM     59  C   UNL A   1      47.871  25.830  26.681  1.00  0.00     0.074 A 
ATOM     60  C   UNL A   1      47.599  24.459  26.292  1.00  0.00     0.031 C 
ATOM     61  C   UNL A   1      48.455  26.909  26.074  1.00  0.00     0.031 A 
BRANCH  48  62
ATOM     62  C   UNL A   1      47.713  32.940  27.183  1.00  0.00    -0.014 A 
ATOM     63  C   UNL A   1      48.755  33.380  26.343  1.00  0.00     0.010 A 
ATOM     64  C   UNL A   1      47.356  33.810  28.236  1.00  0.00     0.010 A 
ATOM     65  C   UNL A   1      49.382  34.622  26.528  1.00  0.00     0.020 A 
ATOM     66  C   UNL A   1      47.936  35.073  28.401  1.00  0.00     0.020 A 
ATOM     67  C   UNL A   1      48.954  35.470  27.547  1.00  0.00     0.054 A 
BRANCH  67  68
ATOM     68  S   UNL A   1      49.735  37.090  27.743  1.00  0.00     0.124 S 
ATOM     69  O   UNL A   1      48.587  37.994  27.714  1.00  0.00    -0.237 OA
ATOM     70  O   UNL A   1      50.408  36.965  29.033  1.00  0.00    -0.237 OA
ATOM     71  O   UNL A   1      50.628  37.188  26.589  1.00  0.00    -0.744 OA
ENDBRANCH  67  68
ENDBRANCH  48  62
BRANCH  49  72
ATOM     72  C   UNL A   1      43.756  24.447  28.255  1.00  0.00    -0.014 A 
ATOM     73  C   UNL A   1      43.483  24.478  26.879  1.00  0.00     0.010 A 
ATOM     74  C   UNL A   1      43.237  23.401  29.045  1.00  0.00     0.010 A 
ATOM     75  C   UNL A   1      42.943  23.344  26.275  1.00  0.00     0.020 A 
ATOM     76  C   UNL A   1      42.665  22.285  28.435  1.00  0.00     0.020 A 
ATOM     77  C   UNL A   1      42.587  22.235  27.045  1.00  0.00     0.054 A 
BRANCH  77  78
ATOM     78  S   UNL A   1      42.324  20.635  26.217  1.00  0.00     0.124 S 
ATOM     79  O   UNL A   1      43.479  20.555  25.330  1.00  0.00    -0.237 OA
ATOM     80  O   UNL A   1      42.289  19.698  27.336  1.00  0.00    -0.237 OA
ATOM     81  O   UNL A   1      41.036  20.814  25.554  1.00  0.00    -0.744 OA
ENDBRANCH  77  78
ENDBRANCH  49  72
BRANCH  61  82
ATOM     82  C   UNL A   1      49.044  26.956  24.670  1.00  0.00    -0.014 A 
ATOM     83  C   UNL A   1      48.313  26.878  23.475  1.00  0.00     0.010 A 
ATOM     84  C   UNL A   1      50.448  27.104  24.522  1.00  0.00     0.010 A 
ATOM     85  C   UNL A   1      48.941  26.877  22.220  1.00  0.00     0.020 A 
ATOM     86  C   UNL A   1      51.084  27.149  23.278  1.00  0.00     0.020 A 
ATOM     87  C   UNL A   1      50.325  26.996  22.130  1.00  0.00     0.054 A 
BRANCH  87  88
ATOM     88  S   UNL A   1      51.110  26.908  20.506  1.00  0.00     0.124 S 
ATOM     89  O   UNL A   1      51.370  28.317  20.221  1.00  0.00    -0.237 OA
ATOM     90  O   UNL A   1      52.295  26.094  20.768  1.00  0.00    -0.237 OA
ATOM     91  O   UNL A   1      50.099  26.277  19.661  1.00  0.00    -0.744 OA
ENDBRANCH  87  88
ENDBRANCH  61  82
ENDBRANCH  35  36
ENDBRANCH  28  30
ENDBRANCH  27  28
ENDBRANCH  26  27
ENDBRANCH  25  26
ENDBRANCH  24  25
ENDBRANCH   1  24
TORSDOF 22
ENDMDL
