MODEL 1
REMARK VINA RESULT:     -10.7      0.000      0.000
REMARK SMILES CC(C)[C@H](NC(=O)[C@H]1CC(=O)N(c2ccc(F)cc2)C1)C(=O)N1CCC[C@@H]1C(=O)OCCOCCOC(=O)c1ccc(-c2c3nc(c(-c4ccc(S(=O)(=O)[O-])cc4)c4ccc([nH]4)c(-c4ccc(S(=O)(=O)[O-])cc4)c4nc(c(-c5ccc(S(=O)(=O)[O-])cc5)c5ccc2[nH]5)C=C4)C=C3)cc1
REMARK SMILES IDX 32 1 31 2 30 3 28 4 29 5 27 6 23 7 24 8 25 9 26 10 21 11
REMARK SMILES IDX 22 12 4 13 2 14 1 15 3 16 5 17 6 18 7 20 8 21 9 22 20 23
REMARK SMILES IDX 10 24 12 25 11 26 13 27 14 28 19 29 15 30 18 31 16 32 17 33
REMARK SMILES IDX 33 34 34 35 35 36 36 37 37 38 38 39 39 40 40 41 98 42 41 43
REMARK SMILES IDX 97 44 42 45 43 46 44 47 91 48 45 49 96 50 90 51 92 52 46 53
REMARK SMILES IDX 95 54 89 55 88 56 47 58 77 59 58 60 76 61 59 62 62 63 75 64
REMARK SMILES IDX 93 65 60 66 61 67 74 69 94 70 63 71 48 72 49 73 57 74 50 75
REMARK SMILES IDX 56 76 51 77 52 78 53 79 54 80 55 81 78 82 79 83 87 84 80 85
REMARK SMILES IDX 86 86 81 87 82 88 83 89 84 90 85 91 64 92 65 93 73 94 66 95
REMARK SMILES IDX 72 96 67 97 68 98 69 99 70 100 71 101
REMARK H PARENT 5 19 92 57 62 68
REMARK Flexibility Score: inf
ROOT
ATOM      1  C   UNL A   1      41.373  22.643  26.670  1.00  0.00     0.202 C 
ENDROOT
BRANCH   1   2
ATOM      2  C   UNL A   1      40.027  21.972  26.972  1.00  0.00     0.261 C 
BRANCH   2   3
ATOM      3  O   UNL A   1      39.180  21.799  25.814  1.00  0.00    -0.462 OA
BRANCH   3   4
ATOM      4  C   UNL A   1      38.016  22.507  25.840  1.00  0.00     0.328 C 
ATOM      5  O   UNL A   1      37.914  23.660  26.247  1.00  0.00    -0.250 OA
BRANCH   4   6
ATOM      6  C   UNL A   1      36.863  21.801  25.116  1.00  0.00     0.195 C 
ATOM      7  N   UNL A   1      35.632  21.471  25.844  1.00  0.00    -0.327 N 
ATOM      8  C   UNL A   1      34.984  20.413  25.103  1.00  0.00     0.120 C 
ATOM      9  C   UNL A   1      36.138  19.489  24.809  1.00  0.00     0.024 C 
ATOM     10  C   UNL A   1      37.324  20.425  24.592  1.00  0.00     0.039 C 
BRANCH   7  11
ATOM     11  C   UNL A   1      34.913  22.482  26.445  1.00  0.00     0.246 C 
ATOM     12  O   UNL A   1      35.024  22.667  27.662  1.00  0.00    -0.272 OA
BRANCH  11  13
ATOM     13  C   UNL A   1      33.731  23.143  25.657  1.00  0.00     0.174 C 
BRANCH  13  14
ATOM     14  C   UNL A   1      32.381  22.425  25.941  1.00  0.00     0.015 C 
ATOM     15  C   UNL A   1      31.369  23.340  26.649  1.00  0.00     0.010 C 
ATOM     16  C   UNL A   1      31.712  21.928  24.652  1.00  0.00     0.010 C 
ENDBRANCH  13  14
BRANCH  13  17
ATOM     17  N   UNL A   1      33.940  23.494  24.234  1.00  0.00    -0.344 N 
ATOM     18  C   UNL A   1      33.742  24.589  23.454  1.00  0.00     0.226 C 
ATOM     19  H   UNL A   1      34.318  22.743  23.722  1.00  0.00     0.164 HD
ATOM     20  O   UNL A   1      34.152  24.529  22.293  1.00  0.00    -0.275 OA
BRANCH  18  21
ATOM     21  C   UNL A   1      32.989  25.798  23.951  1.00  0.00     0.107 C 
ATOM     22  C   UNL A   1      33.847  27.005  24.342  1.00  0.00     0.116 C 
ATOM     23  C   UNL A   1      32.161  26.399  22.815  1.00  0.00     0.139 C 
ATOM     24  C   UNL A   1      32.873  28.158  24.167  1.00  0.00     0.227 C 
ATOM     25  N   UNL A   1      31.871  27.712  23.311  1.00  0.00    -0.312 N 
ATOM     26  O   UNL A   1      32.964  29.251  24.706  1.00  0.00    -0.274 OA
BRANCH  25  27
ATOM     27  C   UNL A   1      30.711  28.412  22.974  1.00  0.00     0.044 A 
ATOM     28  C   UNL A   1      30.783  29.546  22.165  1.00  0.00     0.029 A 
ATOM     29  C   UNL A   1      29.466  27.933  23.399  1.00  0.00     0.029 A 
ATOM     30  C   UNL A   1      29.606  30.174  21.748  1.00  0.00     0.041 A 
ATOM     31  C   UNL A   1      28.291  28.552  22.974  1.00  0.00     0.041 A 
ATOM     32  C   UNL A   1      28.372  29.663  22.145  1.00  0.00     0.123 A 
ATOM     33  F   UNL A   1      27.245  30.251  21.723  1.00  0.00    -0.207 F 
ENDBRANCH  25  27
ENDBRANCH  18  21
ENDBRANCH  13  17
ENDBRANCH  11  13
ENDBRANCH   7  11
ENDBRANCH   4   6
ENDBRANCH   3   4
ENDBRANCH   2   3
ENDBRANCH   1   2
BRANCH   1  34
ATOM     34  O   UNL A   1      41.973  22.341  25.409  1.00  0.00    -0.374 OA
BRANCH  34  35
ATOM     35  C   UNL A   1      43.132  23.099  25.077  1.00  0.00     0.202 C 
BRANCH  35  36
ATOM     36  C   UNL A   1      43.479  24.264  26.010  1.00  0.00     0.261 C 
BRANCH  36  37
ATOM     37  O   UNL A   1      43.237  25.541  25.395  1.00  0.00    -0.460 OA
BRANCH  37  38
ATOM     38  C   UNL A   1      42.081  26.126  25.793  1.00  0.00     0.338 C 
ATOM     39  O   UNL A   1      40.998  26.066  25.225  1.00  0.00    -0.246 OA
BRANCH  38  40
ATOM     40  C   UNL A   1      42.229  26.726  27.131  1.00  0.00     0.060 A 
ATOM     41  C   UNL A   1      41.353  26.273  28.124  1.00  0.00     0.016 A 
ATOM     42  C   UNL A   1      43.123  27.766  27.395  1.00  0.00     0.016 A 
ATOM     43  C   UNL A   1      41.307  26.912  29.360  1.00  0.00     0.010 A 
ATOM     44  C   UNL A   1      43.072  28.413  28.637  1.00  0.00     0.010 A 
ATOM     45  C   UNL A   1      42.127  28.022  29.603  1.00  0.00    -0.014 A 
BRANCH  45  46
ATOM     46  C   UNL A   1      41.849  28.862  30.795  1.00  0.00     0.031 A 
ATOM     47  C   UNL A   1      40.657  29.786  30.769  1.00  0.00     0.074 A 
ATOM     48  C   UNL A   1      42.586  28.745  31.914  1.00  0.00     0.049 A 
ATOM     49  N   UNL A   1      40.195  30.569  31.709  1.00  0.00    -0.248 NA
ATOM     50  C   UNL A   1      39.875  29.823  29.521  1.00  0.00     0.031 C 
ATOM     51  C   UNL A   1      43.730  27.850  32.083  1.00  0.00     0.029 A 
ATOM     52  N   UNL A   1      42.472  29.378  33.126  1.00  0.00    -0.354 N 
ATOM     53  C   UNL A   1      39.074  31.190  31.170  1.00  0.00     0.074 A 
ATOM     54  C   UNL A   1      38.941  30.718  29.810  1.00  0.00     0.031 C 
ATOM     55  C   UNL A   1      44.214  27.993  33.329  1.00  0.00     0.029 A 
ATOM     56  C   UNL A   1      43.432  29.007  34.035  1.00  0.00     0.049 A 
ATOM     57  H   UNL A   1      41.768  30.037  33.326  1.00  0.00     0.167 HD
ATOM     58  C   UNL A   1      38.226  32.070  31.754  1.00  0.00     0.031 A 
ATOM     59  C   UNL A   1      43.665  29.444  35.289  1.00  0.00     0.031 A 
ATOM     60  C   UNL A   1      38.364  32.551  33.103  1.00  0.00     0.049 A 
ATOM     61  C   UNL A   1      42.752  30.484  35.890  1.00  0.00     0.074 A 
ATOM     62  C   UNL A   1      37.552  33.440  33.786  1.00  0.00     0.029 A 
ATOM     63  N   UNL A   1      39.381  32.190  33.972  1.00  0.00    -0.354 N 
ATOM     64  N   UNL A   1      41.684  31.044  35.373  1.00  0.00    -0.248 NA
ATOM     65  C   UNL A   1      43.073  30.942  37.250  1.00  0.00     0.031 C 
ATOM     66  C   UNL A   1      38.109  33.657  35.051  1.00  0.00     0.029 A 
ATOM     67  C   UNL A   1      39.233  32.856  35.176  1.00  0.00     0.049 A 
ATOM     68  H   UNL A   1      40.103  31.553  33.764  1.00  0.00     0.167 HD
ATOM     69  C   UNL A   1      41.192  31.899  36.354  1.00  0.00     0.074 A 
ATOM     70  C   UNL A   1      42.067  31.770  37.500  1.00  0.00     0.031 C 
ATOM     71  C   UNL A   1      40.111  32.718  36.310  1.00  0.00     0.031 A 
BRANCH  58  72
ATOM     72  C   UNL A   1      37.081  32.591  30.928  1.00  0.00    -0.014 A 
ATOM     73  C   UNL A   1      35.776  32.094  31.100  1.00  0.00     0.010 A 
ATOM     74  C   UNL A   1      37.302  33.630  30.005  1.00  0.00     0.010 A 
ATOM     75  C   UNL A   1      34.718  32.610  30.346  1.00  0.00     0.020 A 
ATOM     76  C   UNL A   1      36.242  34.165  29.268  1.00  0.00     0.020 A 
ATOM     77  C   UNL A   1      34.958  33.643  29.434  1.00  0.00     0.054 A 
BRANCH  77  78
ATOM     78  S   UNL A   1      33.560  34.320  28.498  1.00  0.00     0.124 S 
ATOM     79  O   UNL A   1      32.660  34.748  29.567  1.00  0.00    -0.237 OA
ATOM     80  O   UNL A   1      34.180  35.399  27.731  1.00  0.00    -0.237 OA
ATOM     81  O   UNL A   1      33.090  33.187  27.705  1.00  0.00    -0.744 OA
ENDBRANCH  77  78
ENDBRANCH  58  72
BRANCH  59  82
ATOM     82  C   UNL A   1      44.828  28.926  36.059  1.00  0.00    -0.014 A 
ATOM     83  C   UNL A   1      46.095  29.526  35.949  1.00  0.00     0.010 A 
ATOM     84  C   UNL A   1      44.676  27.801  36.891  1.00  0.00     0.010 A 
ATOM     85  C   UNL A   1      47.192  28.996  36.634  1.00  0.00     0.020 A 
ATOM     86  C   UNL A   1      45.765  27.286  37.601  1.00  0.00     0.020 A 
ATOM     87  C   UNL A   1      47.020  27.878  37.456  1.00  0.00     0.054 A 
BRANCH  87  88
ATOM     88  S   UNL A   1      48.449  27.225  38.363  1.00  0.00     0.124 S 
ATOM     89  O   UNL A   1      49.201  26.557  37.306  1.00  0.00    -0.237 OA
ATOM     90  O   UNL A   1      49.057  28.435  38.909  1.00  0.00    -0.237 OA
ATOM     91  O   UNL A   1      47.844  26.340  39.358  1.00  0.00    -0.744 OA
ENDBRANCH  87  88
ENDBRANCH  59  82
BRANCH  71  92
ATOM     92  C   UNL A   1      39.790  33.513  37.548  1.00  0.00    -0.014 A 
ATOM     93  C   UNL A   1      39.067  32.947  38.613  1.00  0.00     0.010 A 
ATOM     94  C   UNL A   1      40.266  34.832  37.669  1.00  0.00     0.010 A 
ATOM     95  C   UNL A   1      38.796  33.697  39.760  1.00  0.00     0.020 A 
ATOM     96  C   UNL A   1      40.021  35.575  38.826  1.00  0.00     0.020 A 
ATOM     97  C   UNL A   1      39.273  35.008  39.859  1.00  0.00     0.054 A 
BRANCH  97  98
ATOM     98  S   UNL A   1      38.940  35.948  41.375  1.00  0.00     0.124 S 
ATOM     99  O   UNL A   1      39.029  37.327  40.903  1.00  0.00    -0.237 OA
ATOM    100  O   UNL A   1      37.603  35.496  41.747  1.00  0.00    -0.237 OA
ATOM    101  O   UNL A   1      40.007  35.530  42.282  1.00  0.00    -0.744 OA
ENDBRANCH  97  98
ENDBRANCH  71  92
ENDBRANCH  45  46
ENDBRANCH  38  40
ENDBRANCH  37  38
ENDBRANCH  36  37
ENDBRANCH  35  36
ENDBRANCH  34  35
ENDBRANCH   1  34
TORSDOF 23
ENDMDL
MODEL 2
REMARK VINA RESULT:      -9.7      2.561      8.991
REMARK SMILES CC(C)[C@H](NC(=O)[C@H]1CC(=O)N(c2ccc(F)cc2)C1)C(=O)N1CCC[C@@H]1C(=O)OCCOCCOC(=O)c1ccc(-c2c3nc(c(-c4ccc(S(=O)(=O)[O-])cc4)c4ccc([nH]4)c(-c4ccc(S(=O)(=O)[O-])cc4)c4nc(c(-c5ccc(S(=O)(=O)[O-])cc5)c5ccc2[nH]5)C=C4)C=C3)cc1
REMARK SMILES IDX 32 1 31 2 30 3 28 4 29 5 27 6 23 7 24 8 25 9 26 10 21 11
REMARK SMILES IDX 22 12 4 13 2 14 1 15 3 16 5 17 6 18 7 20 8 21 9 22 20 23
REMARK SMILES IDX 10 24 12 25 11 26 13 27 14 28 19 29 15 30 18 31 16 32 17 33
REMARK SMILES IDX 33 34 34 35 35 36 36 37 37 38 38 39 39 40 40 41 98 42 41 43
REMARK SMILES IDX 97 44 42 45 43 46 44 47 91 48 45 49 96 50 90 51 92 52 46 53
REMARK SMILES IDX 95 54 89 55 88 56 47 58 77 59 58 60 76 61 59 62 62 63 75 64
REMARK SMILES IDX 93 65 60 66 61 67 74 69 94 70 63 71 48 72 49 73 57 74 50 75
REMARK SMILES IDX 56 76 51 77 52 78 53 79 54 80 55 81 78 82 79 83 87 84 80 85
REMARK SMILES IDX 86 86 81 87 82 88 83 89 84 90 85 91 64 92 65 93 73 94 66 95
REMARK SMILES IDX 72 96 67 97 68 98 69 99 70 100 71 101
REMARK H PARENT 5 19 92 57 62 68
REMARK Flexibility Score: inf
ROOT
ATOM      1  C   UNL A   1      34.485  30.892  27.701  1.00  0.00     0.202 C 
ENDROOT
BRANCH   1   2
ATOM      2  C   UNL A   1      34.268  29.656  26.820  1.00  0.00     0.261 C 
BRANCH   2   3
ATOM      3  O   UNL A   1      33.343  28.692  27.372  1.00  0.00    -0.462 OA
BRANCH   3   4
ATOM      4  C   UNL A   1      32.977  27.690  26.524  1.00  0.00     0.328 C 
ATOM      5  O   UNL A   1      32.325  26.705  26.856  1.00  0.00    -0.250 OA
BRANCH   4   6
ATOM      6  C   UNL A   1      33.280  28.001  25.054  1.00  0.00     0.195 C 
ATOM      7  N   UNL A   1      32.194  28.011  24.067  1.00  0.00    -0.327 N 
ATOM      8  C   UNL A   1      32.808  27.820  22.773  1.00  0.00     0.120 C 
ATOM      9  C   UNL A   1      33.771  26.694  23.050  1.00  0.00     0.024 C 
ATOM     10  C   UNL A   1      34.252  26.952  24.475  1.00  0.00     0.039 C 
BRANCH   7  11
ATOM     11  C   UNL A   1      31.128  28.867  24.246  1.00  0.00     0.246 C 
ATOM     12  O   UNL A   1      30.940  29.384  25.353  1.00  0.00    -0.272 OA
BRANCH  11  13
ATOM     13  C   UNL A   1      29.995  28.902  23.164  1.00  0.00     0.174 C 
BRANCH  13  14
ATOM     14  C   UNL A   1      29.531  30.356  22.868  1.00  0.00     0.015 C 
ATOM     15  C   UNL A   1      29.301  30.602  21.367  1.00  0.00     0.010 C 
ATOM     16  C   UNL A   1      28.218  30.698  23.586  1.00  0.00     0.010 C 
ENDBRANCH  13  14
BRANCH  13  17
ATOM     17  N   UNL A   1      28.888  27.925  23.270  1.00  0.00    -0.344 N 
ATOM     18  C   UNL A   1      28.649  26.783  23.969  1.00  0.00     0.226 C 
ATOM     19  H   UNL A   1      28.132  28.161  22.685  1.00  0.00     0.164 HD
ATOM     20  O   UNL A   1      27.525  26.288  23.863  1.00  0.00    -0.275 OA
BRANCH  18  21
ATOM     21  C   UNL A   1      29.726  26.102  24.777  1.00  0.00     0.107 C 
ATOM     22  C   UNL A   1      29.252  25.371  26.037  1.00  0.00     0.116 C 
ATOM     23  C   UNL A   1      30.316  24.938  23.982  1.00  0.00     0.139 C 
ATOM     24  C   UNL A   1      30.345  24.333  26.232  1.00  0.00     0.227 C 
ATOM     25  N   UNL A   1      30.974  24.176  25.001  1.00  0.00    -0.312 N 
ATOM     26  O   UNL A   1      30.614  23.776  27.285  1.00  0.00    -0.274 OA
BRANCH  25  27
ATOM     27  C   UNL A   1      32.113  23.405  24.757  1.00  0.00     0.044 A 
ATOM     28  C   UNL A   1      33.357  23.817  25.235  1.00  0.00     0.029 A 
ATOM     29  C   UNL A   1      31.989  22.183  24.085  1.00  0.00     0.029 A 
ATOM     30  C   UNL A   1      34.468  22.983  25.076  1.00  0.00     0.041 A 
ATOM     31  C   UNL A   1      33.096  21.347  23.937  1.00  0.00     0.041 A 
ATOM     32  C   UNL A   1      34.324  21.752  24.442  1.00  0.00     0.123 A 
ATOM     33  F   UNL A   1      35.385  20.945  24.314  1.00  0.00    -0.207 F 
ENDBRANCH  25  27
ENDBRANCH  18  21
ENDBRANCH  13  17
ENDBRANCH  11  13
ENDBRANCH   7  11
ENDBRANCH   4   6
ENDBRANCH   3   4
ENDBRANCH   2   3
ENDBRANCH   1   2
BRANCH   1  34
ATOM     34  O   UNL A   1      33.336  31.694  27.979  1.00  0.00    -0.374 OA
BRANCH  34  35
ATOM     35  C   UNL A   1      33.153  32.827  27.136  1.00  0.00     0.202 C 
BRANCH  35  36
ATOM     36  C   UNL A   1      32.265  33.952  27.682  1.00  0.00     0.261 C 
BRANCH  36  37
ATOM     37  O   UNL A   1      32.574  34.269  29.049  1.00  0.00    -0.460 OA
BRANCH  37  38
ATOM     38  C   UNL A   1      33.667  35.057  29.191  1.00  0.00     0.338 C 
ATOM     39  O   UNL A   1      33.697  36.281  29.145  1.00  0.00    -0.246 OA
BRANCH  38  40
ATOM     40  C   UNL A   1      34.841  34.262  29.594  1.00  0.00     0.060 A 
ATOM     41  C   UNL A   1      34.649  33.335  30.625  1.00  0.00     0.016 A 
ATOM     42  C   UNL A   1      36.113  34.473  29.058  1.00  0.00     0.016 A 
ATOM     43  C   UNL A   1      35.739  32.676  31.184  1.00  0.00     0.010 A 
ATOM     44  C   UNL A   1      37.211  33.814  29.626  1.00  0.00     0.010 A 
ATOM     45  C   UNL A   1      37.034  32.954  30.725  1.00  0.00    -0.014 A 
BRANCH  45  46
ATOM     46  C   UNL A   1      38.189  32.477  31.526  1.00  0.00     0.031 A 
ATOM     47  C   UNL A   1      39.054  31.375  30.968  1.00  0.00     0.074 A 
ATOM     48  C   UNL A   1      38.519  33.070  32.688  1.00  0.00     0.049 A 
ATOM     49  N   UNL A   1      40.138  30.840  31.468  1.00  0.00    -0.248 NA
ATOM     50  C   UNL A   1      38.649  30.809  29.671  1.00  0.00     0.031 C 
ATOM     51  C   UNL A   1      37.794  34.180  33.307  1.00  0.00     0.029 A 
ATOM     52  N   UNL A   1      39.559  32.825  33.549  1.00  0.00    -0.354 N 
ATOM     53  C   UNL A   1      40.544  29.877  30.550  1.00  0.00     0.074 A 
ATOM     54  C   UNL A   1      39.574  29.879  29.477  1.00  0.00     0.031 C 
ATOM     55  C   UNL A   1      38.413  34.520  34.451  1.00  0.00     0.029 A 
ATOM     56  C   UNL A   1      39.559  33.635  34.659  1.00  0.00     0.049 A 
ATOM     57  H   UNL A   1      40.241  32.134  33.387  1.00  0.00     0.167 HD
ATOM     58  C   UNL A   1      41.629  29.069  30.590  1.00  0.00     0.031 A 
ATOM     59  C   UNL A   1      40.381  33.653  35.727  1.00  0.00     0.031 A 
ATOM     60  C   UNL A   1      42.589  29.056  31.663  1.00  0.00     0.049 A 
ATOM     61  C   UNL A   1      41.538  32.688  35.786  1.00  0.00     0.074 A 
ATOM     62  C   UNL A   1      43.725  28.276  31.791  1.00  0.00     0.029 A 
ATOM     63  N   UNL A   1      42.523  29.856  32.792  1.00  0.00    -0.354 N 
ATOM     64  N   UNL A   1      41.919  31.800  34.898  1.00  0.00    -0.248 NA
ATOM     65  C   UNL A   1      42.382  32.736  36.989  1.00  0.00     0.031 C 
ATOM     66  C   UNL A   1      44.317  28.567  33.025  1.00  0.00     0.029 A 
ATOM     67  C   UNL A   1      43.583  29.571  33.636  1.00  0.00     0.049 A 
ATOM     68  H   UNL A   1      41.825  30.527  32.970  1.00  0.00     0.167 HD
ATOM     69  C   UNL A   1      43.061  31.204  35.425  1.00  0.00     0.074 A 
ATOM     70  C   UNL A   1      43.319  31.843  36.698  1.00  0.00     0.031 C 
ATOM     71  C   UNL A   1      43.828  30.216  34.900  1.00  0.00     0.031 A 
BRANCH  58  72
ATOM     72  C   UNL A   1      41.829  28.108  29.448  1.00  0.00    -0.014 A 
ATOM     73  C   UNL A   1      42.727  28.396  28.405  1.00  0.00     0.010 A 
ATOM     74  C   UNL A   1      41.149  26.876  29.446  1.00  0.00     0.010 A 
ATOM     75  C   UNL A   1      42.923  27.480  27.368  1.00  0.00     0.020 A 
ATOM     76  C   UNL A   1      41.361  25.947  28.424  1.00  0.00     0.020 A 
ATOM     77  C   UNL A   1      42.238  26.260  27.384  1.00  0.00     0.054 A 
BRANCH  77  78
ATOM     78  S   UNL A   1      42.542  25.074  26.046  1.00  0.00     0.124 S 
ATOM     79  O   UNL A   1      42.225  25.868  24.861  1.00  0.00    -0.237 OA
ATOM     80  O   UNL A   1      43.954  24.746  26.223  1.00  0.00    -0.237 OA
ATOM     81  O   UNL A   1      41.611  23.984  26.331  1.00  0.00    -0.744 OA
ENDBRANCH  77  78
ENDBRANCH  58  72
BRANCH  59  82
ATOM     82  C   UNL A   1      40.128  34.598  36.849  1.00  0.00    -0.014 A 
ATOM     83  C   UNL A   1      39.237  34.269  37.887  1.00  0.00     0.010 A 
ATOM     84  C   UNL A   1      40.763  35.854  36.868  1.00  0.00     0.010 A 
ATOM     85  C   UNL A   1      38.966  35.186  38.906  1.00  0.00     0.020 A 
ATOM     86  C   UNL A   1      40.517  36.763  37.901  1.00  0.00     0.020 A 
ATOM     87  C   UNL A   1      39.608  36.429  38.906  1.00  0.00     0.054 A 
BRANCH  87  88
ATOM     88  S   UNL A   1      39.269  37.594  40.255  1.00  0.00     0.124 S 
ATOM     89  O   UNL A   1      38.254  38.460  39.661  1.00  0.00    -0.237 OA
ATOM     90  O   UNL A   1      38.805  36.714  41.324  1.00  0.00    -0.237 OA
ATOM     91  O   UNL A   1      40.567  38.222  40.496  1.00  0.00    -0.744 OA
ENDBRANCH  87  88
ENDBRANCH  59  82
BRANCH  71  92
ATOM     92  C   UNL A   1      45.041  29.787  35.684  1.00  0.00    -0.014 A 
ATOM     93  C   UNL A   1      45.020  28.636  36.490  1.00  0.00     0.010 A 
ATOM     94  C   UNL A   1      46.237  30.520  35.568  1.00  0.00     0.010 A 
ATOM     95  C   UNL A   1      46.163  28.245  37.194  1.00  0.00     0.020 A 
ATOM     96  C   UNL A   1      47.389  30.117  36.247  1.00  0.00     0.020 A 
ATOM     97  C   UNL A   1      47.340  28.990  37.070  1.00  0.00     0.054 A 
BRANCH  97  98
ATOM     98  S   UNL A   1      48.820  28.440  37.964  1.00  0.00     0.124 S 
ATOM     99  O   UNL A   1      49.159  27.206  37.260  1.00  0.00    -0.237 OA
ATOM    100  O   UNL A   1      49.747  29.551  37.767  1.00  0.00    -0.237 OA
ATOM    101  O   UNL A   1      48.350  28.265  39.336  1.00  0.00    -0.744 OA
ENDBRANCH  97  98
ENDBRANCH  71  92
ENDBRANCH  45  46
ENDBRANCH  38  40
ENDBRANCH  37  38
ENDBRANCH  36  37
ENDBRANCH  35  36
ENDBRANCH  34  35
ENDBRANCH   1  34
TORSDOF 23
ENDMDL
MODEL 3
REMARK VINA RESULT:      -9.5      1.921      8.167
REMARK SMILES CC(C)[C@H](NC(=O)[C@H]1CC(=O)N(c2ccc(F)cc2)C1)C(=O)N1CCC[C@@H]1C(=O)OCCOCCOC(=O)c1ccc(-c2c3nc(c(-c4ccc(S(=O)(=O)[O-])cc4)c4ccc([nH]4)c(-c4ccc(S(=O)(=O)[O-])cc4)c4nc(c(-c5ccc(S(=O)(=O)[O-])cc5)c5ccc2[nH]5)C=C4)C=C3)cc1
REMARK SMILES IDX 32 1 31 2 30 3 28 4 29 5 27 6 23 7 24 8 25 9 26 10 21 11
REMARK SMILES IDX 22 12 4 13 2 14 1 15 3 16 5 17 6 18 7 20 8 21 9 22 20 23
REMARK SMILES IDX 10 24 12 25 11 26 13 27 14 28 19 29 15 30 18 31 16 32 17 33
REMARK SMILES IDX 33 34 34 35 35 36 36 37 37 38 38 39 39 40 40 41 98 42 41 43
REMARK SMILES IDX 97 44 42 45 43 46 44 47 91 48 45 49 96 50 90 51 92 52 46 53
REMARK SMILES IDX 95 54 89 55 88 56 47 58 77 59 58 60 76 61 59 62 62 63 75 64
REMARK SMILES IDX 93 65 60 66 61 67 74 69 94 70 63 71 48 72 49 73 57 74 50 75
REMARK SMILES IDX 56 76 51 77 52 78 53 79 54 80 55 81 78 82 79 83 87 84 80 85
REMARK SMILES IDX 86 86 81 87 82 88 83 89 84 90 85 91 64 92 65 93 73 94 66 95
REMARK SMILES IDX 72 96 67 97 68 98 69 99 70 100 71 101
REMARK H PARENT 5 19 92 57 62 68
REMARK Flexibility Score: inf
ROOT
ATOM      1  C   UNL A   1      34.313  30.638  28.002  1.00  0.00     0.202 C 
ENDROOT
BRANCH   1   2
ATOM      2  C   UNL A   1      34.414  29.521  26.955  1.00  0.00     0.261 C 
BRANCH   2   3
ATOM      3  O   UNL A   1      33.665  28.331  27.287  1.00  0.00    -0.462 OA
BRANCH   3   4
ATOM      4  C   UNL A   1      33.478  27.459  26.256  1.00  0.00     0.328 C 
ATOM      5  O   UNL A   1      34.189  27.404  25.257  1.00  0.00    -0.250 OA
BRANCH   4   6
ATOM      6  C   UNL A   1      32.407  26.401  26.546  1.00  0.00     0.195 C 
ATOM      7  N   UNL A   1      32.297  25.215  25.689  1.00  0.00    -0.327 N 
ATOM      8  C   UNL A   1      30.959  24.699  25.865  1.00  0.00     0.120 C 
ATOM      9  C   UNL A   1      30.129  25.955  25.784  1.00  0.00     0.024 C 
ATOM     10  C   UNL A   1      30.999  27.023  26.443  1.00  0.00     0.039 C 
BRANCH   7  11
ATOM     11  C   UNL A   1      33.385  24.379  25.552  1.00  0.00     0.246 C 
ATOM     12  O   UNL A   1      34.503  24.770  25.908  1.00  0.00    -0.272 OA
BRANCH  11  13
ATOM     13  C   UNL A   1      33.252  23.105  24.649  1.00  0.00     0.174 C 
BRANCH  13  14
ATOM     14  C   UNL A   1      34.170  21.953  25.146  1.00  0.00     0.015 C 
ATOM     15  C   UNL A   1      33.441  20.599  25.182  1.00  0.00     0.010 C 
ATOM     16  C   UNL A   1      35.405  21.775  24.253  1.00  0.00     0.010 C 
ENDBRANCH  13  14
BRANCH  13  17
ATOM     17  N   UNL A   1      33.245  23.280  23.179  1.00  0.00    -0.344 N 
ATOM     18  C   UNL A   1      33.127  24.323  22.315  1.00  0.00     0.226 C 
ATOM     19  H   UNL A   1      33.353  22.423  22.707  1.00  0.00     0.164 HD
ATOM     20  O   UNL A   1      33.279  24.075  21.117  1.00  0.00    -0.275 OA
BRANCH  18  21
ATOM     21  C   UNL A   1      32.750  25.707  22.781  1.00  0.00     0.107 C 
ATOM     22  C   UNL A   1      33.675  26.840  22.324  1.00  0.00     0.116 C 
ATOM     23  C   UNL A   1      31.437  26.136  22.128  1.00  0.00     0.139 C 
ATOM     24  C   UNL A   1      32.750  28.045  22.375  1.00  0.00     0.227 C 
ATOM     25  N   UNL A   1      31.449  27.556  22.324  1.00  0.00    -0.312 N 
ATOM     26  O   UNL A   1      33.108  29.209  22.469  1.00  0.00    -0.274 OA
BRANCH  25  27
ATOM     27  C   UNL A   1      30.284  28.314  22.464  1.00  0.00     0.044 A 
ATOM     28  C   UNL A   1      29.173  27.781  23.118  1.00  0.00     0.029 A 
ATOM     29  C   UNL A   1      30.259  29.635  22.003  1.00  0.00     0.029 A 
ATOM     30  C   UNL A   1      28.053  28.586  23.345  1.00  0.00     0.041 A 
ATOM     31  C   UNL A   1      29.147  30.442  22.240  1.00  0.00     0.041 A 
ATOM     32  C   UNL A   1      28.056  29.911  22.917  1.00  0.00     0.123 A 
ATOM     33  F   UNL A   1      26.992  30.688  23.159  1.00  0.00    -0.207 F 
ENDBRANCH  25  27
ENDBRANCH  18  21
ENDBRANCH  13  17
ENDBRANCH  11  13
ENDBRANCH   7  11
ENDBRANCH   4   6
ENDBRANCH   3   4
ENDBRANCH   2   3
ENDBRANCH   1   2
BRANCH   1  34
ATOM     34  O   UNL A   1      33.282  31.609  27.808  1.00  0.00    -0.374 OA
BRANCH  34  35
ATOM     35  C   UNL A   1      33.704  32.863  27.282  1.00  0.00     0.202 C 
BRANCH  35  36
ATOM     36  C   UNL A   1      32.843  34.080  27.638  1.00  0.00     0.261 C 
BRANCH  36  37
ATOM     37  O   UNL A   1      32.615  34.187  29.053  1.00  0.00    -0.460 OA
BRANCH  37  38
ATOM     38  C   UNL A   1      33.549  34.926  29.700  1.00  0.00     0.338 C 
ATOM     39  O   UNL A   1      33.432  36.087  30.072  1.00  0.00    -0.246 OA
BRANCH  38  40
ATOM     40  C   UNL A   1      34.707  34.097  30.078  1.00  0.00     0.060 A 
ATOM     41  C   UNL A   1      34.464  33.044  30.967  1.00  0.00     0.016 A 
ATOM     42  C   UNL A   1      36.008  34.387  29.661  1.00  0.00     0.016 A 
ATOM     43  C   UNL A   1      35.527  32.329  31.510  1.00  0.00     0.010 A 
ATOM     44  C   UNL A   1      37.078  33.671  30.213  1.00  0.00     0.010 A 
ATOM     45  C   UNL A   1      36.844  32.676  31.179  1.00  0.00    -0.014 A 
BRANCH  45  46
ATOM     46  C   UNL A   1      37.952  32.112  31.990  1.00  0.00     0.031 A 
ATOM     47  C   UNL A   1      38.818  31.035  31.386  1.00  0.00     0.074 A 
ATOM     48  C   UNL A   1      38.242  32.606  33.208  1.00  0.00     0.049 A 
ATOM     49  N   UNL A   1      39.868  30.438  31.889  1.00  0.00    -0.248 NA
ATOM     50  C   UNL A   1      38.461  30.580  30.032  1.00  0.00     0.031 C 
ATOM     51  C   UNL A   1      37.513  33.682  33.879  1.00  0.00     0.029 A 
ATOM     52  N   UNL A   1      39.237  32.271  34.091  1.00  0.00    -0.354 N 
ATOM     53  C   UNL A   1      40.295  29.539  30.917  1.00  0.00     0.074 A 
ATOM     54  C   UNL A   1      39.374  29.646  29.807  1.00  0.00     0.031 C 
ATOM     55  C   UNL A   1      38.087  33.918  35.071  1.00  0.00     0.029 A 
ATOM     56  C   UNL A   1      39.205  32.994  35.259  1.00  0.00     0.049 A 
ATOM     57  H   UNL A   1      39.912  31.579  33.906  1.00  0.00     0.167 HD
ATOM     58  C   UNL A   1      41.361  28.704  30.941  1.00  0.00     0.031 A 
ATOM     59  C   UNL A   1      39.978  32.910  36.360  1.00  0.00     0.031 A 
ATOM     60  C   UNL A   1      42.271  28.587  32.050  1.00  0.00     0.049 A 
ATOM     61  C   UNL A   1      41.111  31.915  36.394  1.00  0.00     0.074 A 
ATOM     62  C   UNL A   1      43.384  27.771  32.166  1.00  0.00     0.029 A 
ATOM     63  N   UNL A   1      42.170  29.299  33.234  1.00  0.00    -0.354 N 
ATOM     64  N   UNL A   1      41.513  31.090  35.457  1.00  0.00    -0.248 NA
ATOM     65  C   UNL A   1      41.901  31.851  37.632  1.00  0.00     0.031 C 
ATOM     66  C   UNL A   1      43.926  27.953  33.443  1.00  0.00     0.029 A 
ATOM     67  C   UNL A   1      43.186  28.924  34.098  1.00  0.00     0.049 A 
ATOM     68  H   UNL A   1      41.479  29.971  33.433  1.00  0.00     0.167 HD
ATOM     69  C   UNL A   1      42.618  30.428  35.984  1.00  0.00     0.074 A 
ATOM     70  C   UNL A   1      42.831  30.961  37.313  1.00  0.00     0.031 C 
ATOM     71  C   UNL A   1      43.388  29.465  35.418  1.00  0.00     0.031 A 
BRANCH  58  72
ATOM     72  C   UNL A   1      41.591  27.829  29.738  1.00  0.00    -0.014 A 
ATOM     73  C   UNL A   1      40.798  26.691  29.505  1.00  0.00     0.010 A 
ATOM     74  C   UNL A   1      42.578  28.181  28.799  1.00  0.00     0.010 A 
ATOM     75  C   UNL A   1      41.005  25.906  28.367  1.00  0.00     0.020 A 
ATOM     76  C   UNL A   1      42.771  27.412  27.647  1.00  0.00     0.020 A 
ATOM     77  C   UNL A   1      41.991  26.272  27.445  1.00  0.00     0.054 A 
BRANCH  77  78
ATOM     78  S   UNL A   1      42.211  25.258  25.958  1.00  0.00     0.124 S 
ATOM     79  O   UNL A   1      41.899  26.210  24.894  1.00  0.00    -0.237 OA
ATOM     80  O   UNL A   1      43.613  24.856  26.048  1.00  0.00    -0.237 OA
ATOM     81  O   UNL A   1      41.244  24.176  26.128  1.00  0.00    -0.744 OA
ENDBRANCH  77  78
ENDBRANCH  58  72
BRANCH  59  82
ATOM     82  C   UNL A   1      39.694  33.772  37.540  1.00  0.00    -0.014 A 
ATOM     83  C   UNL A   1      40.235  35.066  37.639  1.00  0.00     0.010 A 
ATOM     84  C   UNL A   1      38.898  33.283  38.593  1.00  0.00     0.010 A 
ATOM     85  C   UNL A   1      40.007  35.845  38.777  1.00  0.00     0.020 A 
ATOM     86  C   UNL A   1      38.643  34.070  39.719  1.00  0.00     0.020 A 
ATOM     87  C   UNL A   1      39.212  35.341  39.811  1.00  0.00     0.054 A 
BRANCH  87  88
ATOM     88  S   UNL A   1      38.899  36.379  41.266  1.00  0.00     0.124 S 
ATOM     89  O   UNL A   1      40.179  36.316  41.965  1.00  0.00    -0.237 OA
ATOM     90  O   UNL A   1      38.565  37.669  40.669  1.00  0.00    -0.237 OA
ATOM     91  O   UNL A   1      37.786  35.704  41.932  1.00  0.00    -0.744 OA
ENDBRANCH  87  88
ENDBRANCH  59  82
BRANCH  71  92
ATOM     92  C   UNL A   1      44.556  28.948  36.217  1.00  0.00    -0.014 A 
ATOM     93  C   UNL A   1      45.807  29.589  36.178  1.00  0.00     0.010 A 
ATOM     94  C   UNL A   1      44.382  27.836  37.061  1.00  0.00     0.010 A 
ATOM     95  C   UNL A   1      46.873  29.103  36.941  1.00  0.00     0.020 A 
ATOM     96  C   UNL A   1      45.436  27.365  37.847  1.00  0.00     0.020 A 
ATOM     97  C   UNL A   1      46.681  27.993  37.770  1.00  0.00     0.054 A 
BRANCH  97  98
ATOM     98  S   UNL A   1      48.069  27.406  38.780  1.00  0.00     0.124 S 
ATOM     99  O   UNL A   1      48.677  26.405  37.908  1.00  0.00    -0.237 OA
ATOM    100  O   UNL A   1      48.854  28.621  38.986  1.00  0.00    -0.237 OA
ATOM    101  O   UNL A   1      47.425  26.878  39.980  1.00  0.00    -0.744 OA
ENDBRANCH  97  98
ENDBRANCH  71  92
ENDBRANCH  45  46
ENDBRANCH  38  40
ENDBRANCH  37  38
ENDBRANCH  36  37
ENDBRANCH  35  36
ENDBRANCH  34  35
ENDBRANCH   1  34
TORSDOF 23
ENDMDL
