MODEL 1
REMARK VINA RESULT:     -10.5      0.000      0.000
REMARK SMILES CC(C)[NH2+][C@@]1(C(=O)OCCOCCOC(=O)c2ccc(-c3c4nc(c(-c5ccc(S(=O)(=O)[O-])cc5)c5ccc([nH]5)c(-c5ccc(S(=O)(=O)[O-])cc5)c5nc(c(-c6ccc(S(=O)(=O)[O-])cc6)c6ccc3[nH]6)C=C5)C=C4)cc2)CC[C@@H](Sc2ccncc2)C1
REMARK SMILES IDX 12 1 11 2 10 3 9 4 8 5 6 6 7 7 5 8 77 9 87 10 78 11 79 12
REMARK SMILES IDX 4 13 2 16 1 17 3 18 80 19 81 20 82 21 86 22 83 23 85 24
REMARK SMILES IDX 84 25 13 26 14 27 15 28 16 29 17 30 18 31 76 32 19 33 75 34
REMARK SMILES IDX 20 35 21 36 22 37 69 38 23 39 74 40 68 41 70 42 24 43 73 44
REMARK SMILES IDX 67 45 66 46 25 48 55 49 36 50 54 51 37 52 40 53 53 54 71 55
REMARK SMILES IDX 38 56 39 57 52 59 72 60 41 61 26 62 27 63 35 64 28 65 34 66
REMARK SMILES IDX 29 67 30 68 31 69 32 70 33 71 56 72 57 73 65 74 58 75 64 76
REMARK SMILES IDX 59 77 60 78 61 79 62 80 63 81 42 82 43 83 51 84 44 85 50 86
REMARK SMILES IDX 45 87 46 88 47 89 48 90 49 91
REMARK H PARENT 4 14 4 15 70 47 40 58
REMARK Flexibility Score: inf
ROOT
ATOM      1  C   UNL A   1      39.621  21.399  26.173  1.00  0.00     0.202 C 
ENDROOT
BRANCH   1   2
ATOM      2  O   UNL A   1      38.328  21.984  26.033  1.00  0.00    -0.374 OA
BRANCH   2   3
ATOM      3  C   UNL A   1      37.509  21.531  24.953  1.00  0.00     0.202 C 
BRANCH   3   4
ATOM      4  C   UNL A   1      36.267  22.372  24.642  1.00  0.00     0.261 C 
BRANCH   4   5
ATOM      5  O   UNL A   1      35.076  21.568  24.737  1.00  0.00    -0.459 OA
BRANCH   5   6
ATOM      6  C   UNL A   1      34.309  21.784  25.840  1.00  0.00     0.368 C 
ATOM      7  O   UNL A   1      34.760  21.906  26.975  1.00  0.00    -0.245 OA
BRANCH   6   8
ATOM      8  C   UNL A   1      32.778  21.936  25.494  1.00  0.00     0.195 C 
ATOM      9  C   UNL A   1      32.726  22.700  24.160  1.00  0.00     0.082 C 
ATOM     10  C   UNL A   1      31.995  22.877  26.448  1.00  0.00     0.096 C 
ATOM     11  C   UNL A   1      32.944  24.154  24.580  1.00  0.00     0.022 C 
ATOM     12  C   UNL A   1      32.168  24.302  25.887  1.00  0.00     0.059 C 
BRANCH   8  13
ATOM     13  N   UNL A   1      32.263  20.549  25.524  1.00  0.00    -0.330 N 
ATOM     14  H   UNL A   1      32.184  20.294  26.509  1.00  0.00     0.347 HD
ATOM     15  H   UNL A   1      31.413  20.620  24.966  1.00  0.00     0.347 HD
BRANCH  13  16
ATOM     16  C   UNL A   1      32.972  19.459  24.872  1.00  0.00     0.176 C 
ATOM     17  C   UNL A   1      32.734  18.187  25.693  1.00  0.00     0.075 C 
ATOM     18  C   UNL A   1      32.467  19.209  23.458  1.00  0.00     0.075 C 
ENDBRANCH  13  16
ENDBRANCH   8  13
BRANCH  12  19
ATOM     19  S   UNL A   1      30.585  25.264  25.818  1.00  0.00    -0.122 SA
BRANCH  19  20
ATOM     20  C   UNL A   1      31.086  26.976  25.873  1.00  0.00     0.011 A 
ATOM     21  C   UNL A   1      31.608  27.518  27.044  1.00  0.00     0.035 A 
ATOM     22  C   UNL A   1      31.068  27.766  24.727  1.00  0.00     0.035 A 
ATOM     23  C   UNL A   1      31.983  28.853  27.048  1.00  0.00     0.112 A 
ATOM     24  C   UNL A   1      31.475  29.087  24.825  1.00  0.00     0.112 A 
ATOM     25  N   UNL A   1      31.913  29.655  25.967  1.00  0.00    -0.265 NA
ENDBRANCH  19  20
ENDBRANCH  12  19
ENDBRANCH   6   8
ENDBRANCH   5   6
ENDBRANCH   4   5
ENDBRANCH   3   4
ENDBRANCH   2   3
ENDBRANCH   1   2
BRANCH   1  26
ATOM     26  C   UNL A   1      40.769  22.331  26.587  1.00  0.00     0.261 C 
BRANCH  26  27
ATOM     27  O   UNL A   1      40.327  23.670  26.870  1.00  0.00    -0.460 OA
BRANCH  27  28
ATOM     28  C   UNL A   1      41.320  24.590  26.928  1.00  0.00     0.338 C 
ATOM     29  O   UNL A   1      42.353  24.599  26.269  1.00  0.00    -0.246 OA
BRANCH  28  30
ATOM     30  C   UNL A   1      40.923  25.727  27.777  1.00  0.00     0.060 A 
ATOM     31  C   UNL A   1      41.795  26.823  27.833  1.00  0.00     0.016 A 
ATOM     32  C   UNL A   1      39.772  25.694  28.567  1.00  0.00     0.016 A 
ATOM     33  C   UNL A   1      41.545  27.869  28.718  1.00  0.00     0.010 A 
ATOM     34  C   UNL A   1      39.530  26.742  29.463  1.00  0.00     0.010 A 
ATOM     35  C   UNL A   1      40.434  27.815  29.570  1.00  0.00    -0.014 A 
BRANCH  35  36
ATOM     36  C   UNL A   1      40.308  28.807  30.665  1.00  0.00     0.031 A 
ATOM     37  C   UNL A   1      41.196  28.677  31.874  1.00  0.00     0.074 A 
ATOM     38  C   UNL A   1      39.440  29.831  30.574  1.00  0.00     0.049 A 
ATOM     39  N   UNL A   1      41.246  29.422  32.948  1.00  0.00    -0.248 NA
ATOM     40  C   UNL A   1      42.154  27.559  31.871  1.00  0.00     0.031 C 
ATOM     41  C   UNL A   1      38.556  30.090  29.439  1.00  0.00     0.029 A 
ATOM     42  N   UNL A   1      39.159  30.841  31.459  1.00  0.00    -0.354 N 
ATOM     43  C   UNL A   1      42.230  28.859  33.753  1.00  0.00     0.074 A 
ATOM     44  C   UNL A   1      42.734  27.696  33.054  1.00  0.00     0.031 C 
ATOM     45  C   UNL A   1      37.819  31.183  29.703  1.00  0.00     0.029 A 
ATOM     46  C   UNL A   1      38.158  31.681  31.035  1.00  0.00     0.049 A 
ATOM     47  H   UNL A   1      39.630  30.954  32.316  1.00  0.00     0.167 HD
ATOM     48  C   UNL A   1      42.675  29.273  34.963  1.00  0.00     0.031 A 
ATOM     49  C   UNL A   1      37.565  32.719  31.657  1.00  0.00     0.031 A 
ATOM     50  C   UNL A   1      42.166  30.422  35.664  1.00  0.00     0.049 A 
ATOM     51  C   UNL A   1      38.033  33.125  33.030  1.00  0.00     0.074 A 
ATOM     52  C   UNL A   1      42.570  30.936  36.883  1.00  0.00     0.029 A 
ATOM     53  N   UNL A   1      41.132  31.229  35.213  1.00  0.00    -0.354 N 
ATOM     54  N   UNL A   1      38.988  32.603  33.763  1.00  0.00    -0.248 NA
ATOM     55  C   UNL A   1      37.348  34.265  33.656  1.00  0.00     0.031 C 
ATOM     56  C   UNL A   1      41.741  32.019  37.197  1.00  0.00     0.029 A 
ATOM     57  C   UNL A   1      40.862  32.217  36.144  1.00  0.00     0.049 A 
ATOM     58  H   UNL A   1      40.659  31.116  34.357  1.00  0.00     0.167 HD
ATOM     59  C   UNL A   1      39.034  33.365  34.926  1.00  0.00     0.074 A 
ATOM     60  C   UNL A   1      38.020  34.391  34.793  1.00  0.00     0.031 C 
ATOM     61  C   UNL A   1      39.846  33.230  36.004  1.00  0.00     0.031 A 
BRANCH  48  62
ATOM     62  C   UNL A   1      43.744  28.447  35.628  1.00  0.00    -0.014 A 
ATOM     63  C   UNL A   1      45.110  28.695  35.401  1.00  0.00     0.010 A 
ATOM     64  C   UNL A   1      43.374  27.417  36.514  1.00  0.00     0.010 A 
ATOM     65  C   UNL A   1      46.084  27.902  36.014  1.00  0.00     0.020 A 
ATOM     66  C   UNL A   1      44.346  26.640  37.149  1.00  0.00     0.020 A 
ATOM     67  C   UNL A   1      45.695  26.875  36.879  1.00  0.00     0.054 A 
BRANCH  67  68
ATOM     68  S   UNL A   1      46.979  25.863  37.666  1.00  0.00     0.124 S 
ATOM     69  O   UNL A   1      48.181  26.655  37.417  1.00  0.00    -0.237 OA
ATOM     70  O   UNL A   1      46.538  25.812  39.058  1.00  0.00    -0.237 OA
ATOM     71  O   UNL A   1      46.910  24.593  36.947  1.00  0.00    -0.744 OA
ENDBRANCH  67  68
ENDBRANCH  48  62
BRANCH  49  72
ATOM     72  C   UNL A   1      36.440  33.431  30.992  1.00  0.00    -0.014 A 
ATOM     73  C   UNL A   1      35.217  33.629  31.656  1.00  0.00     0.010 A 
ATOM     74  C   UNL A   1      36.599  33.932  29.687  1.00  0.00     0.010 A 
ATOM     75  C   UNL A   1      34.171  34.308  31.022  1.00  0.00     0.020 A 
ATOM     76  C   UNL A   1      35.566  34.634  29.061  1.00  0.00     0.020 A 
ATOM     77  C   UNL A   1      34.355  34.810  29.730  1.00  0.00     0.054 A 
BRANCH  77  78
ATOM     78  S   UNL A   1      33.010  35.749  28.954  1.00  0.00     0.124 S 
ATOM     79  O   UNL A   1      32.359  34.728  28.139  1.00  0.00    -0.237 OA
ATOM     80  O   UNL A   1      32.248  36.221  30.107  1.00  0.00    -0.237 OA
ATOM     81  O   UNL A   1      33.709  36.794  28.210  1.00  0.00    -0.744 OA
ENDBRANCH  77  78
ENDBRANCH  49  72
BRANCH  61  82
ATOM     82  C   UNL A   1      39.696  34.229  37.121  1.00  0.00    -0.014 A 
ATOM     83  C   UNL A   1      38.860  33.973  38.221  1.00  0.00     0.010 A 
ATOM     84  C   UNL A   1      40.455  35.413  37.098  1.00  0.00     0.010 A 
ATOM     85  C   UNL A   1      38.766  34.897  39.267  1.00  0.00     0.020 A 
ATOM     86  C   UNL A   1      40.385  36.326  38.153  1.00  0.00     0.020 A 
ATOM     87  C   UNL A   1      39.530  36.068  39.227  1.00  0.00     0.054 A 
BRANCH  87  88
ATOM     88  S   UNL A   1      39.429  37.227  40.618  1.00  0.00     0.124 S 
ATOM     89  O   UNL A   1      39.036  36.350  41.717  1.00  0.00    -0.237 OA
ATOM     90  O   UNL A   1      40.788  37.758  40.693  1.00  0.00    -0.237 OA
ATOM     91  O   UNL A   1      38.413  38.189  40.195  1.00  0.00    -0.744 OA
ENDBRANCH  87  88
ENDBRANCH  61  82
ENDBRANCH  35  36
ENDBRANCH  28  30
ENDBRANCH  27  28
ENDBRANCH  26  27
ENDBRANCH   1  26
TORSDOF 21
ENDMDL
MODEL 2
REMARK VINA RESULT:     -10.0      1.765      3.877
REMARK SMILES CC(C)[NH2+][C@@]1(C(=O)OCCOCCOC(=O)c2ccc(-c3c4nc(c(-c5ccc(S(=O)(=O)[O-])cc5)c5ccc([nH]5)c(-c5ccc(S(=O)(=O)[O-])cc5)c5nc(c(-c6ccc(S(=O)(=O)[O-])cc6)c6ccc3[nH]6)C=C5)C=C4)cc2)CC[C@@H](Sc2ccncc2)C1
REMARK SMILES IDX 12 1 11 2 10 3 9 4 8 5 6 6 7 7 5 8 77 9 87 10 78 11 79 12
REMARK SMILES IDX 4 13 2 16 1 17 3 18 80 19 81 20 82 21 86 22 83 23 85 24
REMARK SMILES IDX 84 25 13 26 14 27 15 28 16 29 17 30 18 31 76 32 19 33 75 34
REMARK SMILES IDX 20 35 21 36 22 37 69 38 23 39 74 40 68 41 70 42 24 43 73 44
REMARK SMILES IDX 67 45 66 46 25 48 55 49 36 50 54 51 37 52 40 53 53 54 71 55
REMARK SMILES IDX 38 56 39 57 52 59 72 60 41 61 26 62 27 63 35 64 28 65 34 66
REMARK SMILES IDX 29 67 30 68 31 69 32 70 33 71 56 72 57 73 65 74 58 75 64 76
REMARK SMILES IDX 59 77 60 78 61 79 62 80 63 81 42 82 43 83 51 84 44 85 50 86
REMARK SMILES IDX 45 87 46 88 47 89 48 90 49 91
REMARK H PARENT 4 14 4 15 70 47 40 58
REMARK Flexibility Score: inf
ROOT
ATOM      1  C   UNL A   1      40.022  21.896  26.714  1.00  0.00     0.202 C 
ENDROOT
BRANCH   1   2
ATOM      2  O   UNL A   1      39.080  21.466  25.733  1.00  0.00    -0.374 OA
BRANCH   2   3
ATOM      3  C   UNL A   1      37.884  22.233  25.582  1.00  0.00     0.202 C 
BRANCH   3   4
ATOM      4  C   UNL A   1      37.059  21.966  24.318  1.00  0.00     0.261 C 
BRANCH   4   5
ATOM      5  O   UNL A   1      36.145  23.050  24.073  1.00  0.00    -0.459 OA
BRANCH   5   6
ATOM      6  C   UNL A   1      35.297  23.346  25.096  1.00  0.00     0.368 C 
ATOM      7  O   UNL A   1      35.637  23.934  26.119  1.00  0.00    -0.245 OA
BRANCH   6   8
ATOM      8  C   UNL A   1      33.810  22.916  24.796  1.00  0.00     0.195 C 
ATOM      9  C   UNL A   1      33.295  22.265  26.091  1.00  0.00     0.082 C 
ATOM     10  C   UNL A   1      33.671  21.763  23.766  1.00  0.00     0.096 C 
ATOM     11  C   UNL A   1      33.887  20.857  26.035  1.00  0.00     0.022 C 
ATOM     12  C   UNL A   1      33.791  20.452  24.566  1.00  0.00     0.059 C 
BRANCH   8  13
ATOM     13  N   UNL A   1      33.161  24.163  24.336  1.00  0.00    -0.330 N 
ATOM     14  H   UNL A   1      32.632  24.522  25.131  1.00  0.00     0.347 HD
ATOM     15  H   UNL A   1      33.952  24.705  23.989  1.00  0.00     0.347 HD
BRANCH  13  16
ATOM     16  C   UNL A   1      32.253  24.176  23.199  1.00  0.00     0.176 C 
ATOM     17  C   UNL A   1      30.941  24.824  23.654  1.00  0.00     0.075 C 
ATOM     18  C   UNL A   1      32.801  24.989  22.035  1.00  0.00     0.075 C 
ENDBRANCH  13  16
ENDBRANCH   8  13
BRANCH  12  19
ATOM     19  S   UNL A   1      32.498  19.199  24.125  1.00  0.00    -0.122 SA
BRANCH  19  20
ATOM     20  C   UNL A   1      33.206  17.628  24.588  1.00  0.00     0.011 A 
ATOM     21  C   UNL A   1      34.583  17.431  24.523  1.00  0.00     0.035 A 
ATOM     22  C   UNL A   1      32.416  16.614  25.124  1.00  0.00     0.035 A 
ATOM     23  C   UNL A   1      35.094  16.195  24.888  1.00  0.00     0.112 A 
ATOM     24  C   UNL A   1      33.019  15.417  25.474  1.00  0.00     0.112 A 
ATOM     25  N   UNL A   1      34.340  15.176  25.348  1.00  0.00    -0.265 NA
ENDBRANCH  19  20
ENDBRANCH  12  19
ENDBRANCH   6   8
ENDBRANCH   5   6
ENDBRANCH   4   5
ENDBRANCH   3   4
ENDBRANCH   2   3
ENDBRANCH   1   2
BRANCH   1  26
ATOM     26  C   UNL A   1      41.154  22.817  26.238  1.00  0.00     0.261 C 
BRANCH  26  27
ATOM     27  O   UNL A   1      40.800  24.211  26.290  1.00  0.00    -0.460 OA
BRANCH  27  28
ATOM     28  C   UNL A   1      41.853  25.061  26.224  1.00  0.00     0.338 C 
ATOM     29  O   UNL A   1      42.587  25.249  25.261  1.00  0.00    -0.246 OA
BRANCH  28  30
ATOM     30  C   UNL A   1      41.911  25.906  27.430  1.00  0.00     0.060 A 
ATOM     31  C   UNL A   1      41.104  25.535  28.514  1.00  0.00     0.016 A 
ATOM     32  C   UNL A   1      42.665  27.080  27.476  1.00  0.00     0.016 A 
ATOM     33  C   UNL A   1      41.010  26.362  29.631  1.00  0.00     0.010 A 
ATOM     34  C   UNL A   1      42.560  27.915  28.595  1.00  0.00     0.010 A 
ATOM     35  C   UNL A   1      41.704  27.579  29.660  1.00  0.00    -0.014 A 
BRANCH  35  36
ATOM     36  C   UNL A   1      41.413  28.556  30.737  1.00  0.00     0.031 A 
ATOM     37  C   UNL A   1      42.246  28.532  31.990  1.00  0.00     0.074 A 
ATOM     38  C   UNL A   1      40.443  29.477  30.590  1.00  0.00     0.049 A 
ATOM     39  N   UNL A   1      42.158  29.284  33.058  1.00  0.00    -0.248 NA
ATOM     40  C   UNL A   1      43.321  27.527  32.048  1.00  0.00     0.031 C 
ATOM     41  C   UNL A   1      39.596  29.631  29.408  1.00  0.00     0.029 A 
ATOM     42  N   UNL A   1      40.008  30.455  31.449  1.00  0.00    -0.354 N 
ATOM     43  C   UNL A   1      43.154  28.837  33.918  1.00  0.00     0.074 A 
ATOM     44  C   UNL A   1      43.820  27.734  33.259  1.00  0.00     0.031 C 
ATOM     45  C   UNL A   1      38.731  30.637  29.623  1.00  0.00     0.029 A 
ATOM     46  C   UNL A   1      38.943  31.177  30.965  1.00  0.00     0.049 A 
ATOM     47  H   UNL A   1      40.418  30.623  32.327  1.00  0.00     0.167 HD
ATOM     48  C   UNL A   1      43.488  29.304  35.145  1.00  0.00     0.031 A 
ATOM     49  C   UNL A   1      38.208  32.146  31.545  1.00  0.00     0.031 A 
ATOM     50  C   UNL A   1      42.819  30.393  35.806  1.00  0.00     0.049 A 
ATOM     51  C   UNL A   1      38.555  32.608  32.935  1.00  0.00     0.074 A 
ATOM     52  C   UNL A   1      43.100  30.954  37.039  1.00  0.00     0.029 A 
ATOM     53  N   UNL A   1      41.727  31.078  35.294  1.00  0.00    -0.354 N 
ATOM     54  N   UNL A   1      39.523  32.199  33.722  1.00  0.00    -0.248 NA
ATOM     55  C   UNL A   1      37.718  33.669  33.514  1.00  0.00     0.031 C 
ATOM     56  C   UNL A   1      42.142  31.940  37.298  1.00  0.00     0.029 A 
ATOM     57  C   UNL A   1      41.302  32.035  36.200  1.00  0.00     0.049 A 
ATOM     58  H   UNL A   1      41.315  30.909  34.416  1.00  0.00     0.167 HD
ATOM     59  C   UNL A   1      39.424  32.967  34.877  1.00  0.00     0.074 A 
ATOM     60  C   UNL A   1      38.312  33.874  34.682  1.00  0.00     0.031 C 
ATOM     61  C   UNL A   1      40.189  32.928  35.997  1.00  0.00     0.031 A 
BRANCH  48  62
ATOM     62  C   UNL A   1      44.606  28.604  35.872  1.00  0.00    -0.014 A 
ATOM     63  C   UNL A   1      44.357  27.509  36.718  1.00  0.00     0.010 A 
ATOM     64  C   UNL A   1      45.932  29.038  35.686  1.00  0.00     0.010 A 
ATOM     65  C   UNL A   1      45.408  26.888  37.399  1.00  0.00     0.020 A 
ATOM     66  C   UNL A   1      46.988  28.403  36.344  1.00  0.00     0.020 A 
ATOM     67  C   UNL A   1      46.716  27.344  37.212  1.00  0.00     0.054 A 
BRANCH  67  68
ATOM     68  S   UNL A   1      48.064  26.518  38.103  1.00  0.00     0.124 S 
ATOM     69  O   UNL A   1      49.126  26.508  37.099  1.00  0.00    -0.237 OA
ATOM     70  O   UNL A   1      48.286  27.403  39.243  1.00  0.00    -0.237 OA
ATOM     71  O   UNL A   1      47.509  25.207  38.435  1.00  0.00    -0.744 OA
ENDBRANCH  67  68
ENDBRANCH  48  62
BRANCH  49  72
ATOM     72  C   UNL A   1      37.047  32.726  30.816  1.00  0.00    -0.014 A 
ATOM     73  C   UNL A   1      35.736  32.292  31.081  1.00  0.00     0.010 A 
ATOM     74  C   UNL A   1      37.252  33.735  29.857  1.00  0.00     0.010 A 
ATOM     75  C   UNL A   1      34.655  32.852  30.395  1.00  0.00     0.020 A 
ATOM     76  C   UNL A   1      36.171  34.316  29.189  1.00  0.00     0.020 A 
ATOM     77  C   UNL A   1      34.879  33.864  29.456  1.00  0.00     0.054 A 
BRANCH  77  78
ATOM     78  S   UNL A   1      33.455  34.625  28.629  1.00  0.00     0.124 S 
ATOM     79  O   UNL A   1      34.067  35.772  27.966  1.00  0.00    -0.237 OA
ATOM     80  O   UNL A   1      32.993  33.556  27.748  1.00  0.00    -0.237 OA
ATOM     81  O   UNL A   1      32.552  34.947  29.732  1.00  0.00    -0.744 OA
ENDBRANCH  77  78
ENDBRANCH  49  72
BRANCH  61  82
ATOM     82  C   UNL A   1      39.872  33.911  37.094  1.00  0.00    -0.014 A 
ATOM     83  C   UNL A   1      39.052  33.554  38.178  1.00  0.00     0.010 A 
ATOM     84  C   UNL A   1      40.458  35.189  37.070  1.00  0.00     0.010 A 
ATOM     85  C   UNL A   1      38.803  34.468  39.206  1.00  0.00     0.020 A 
ATOM     86  C   UNL A   1      40.233  36.096  38.108  1.00  0.00     0.020 A 
ATOM     87  C   UNL A   1      39.396  35.733  39.165  1.00  0.00     0.054 A 
BRANCH  87  88
ATOM     88  S   UNL A   1      39.097  36.885  40.536  1.00  0.00     0.124 S 
ATOM     89  O   UNL A   1      38.408  37.984  39.865  1.00  0.00    -0.237 OA
ATOM     90  O   UNL A   1      38.277  36.092  41.448  1.00  0.00    -0.237 OA
ATOM     91  O   UNL A   1      40.439  37.196  41.025  1.00  0.00    -0.744 OA
ENDBRANCH  87  88
ENDBRANCH  61  82
ENDBRANCH  35  36
ENDBRANCH  28  30
ENDBRANCH  27  28
ENDBRANCH  26  27
ENDBRANCH   1  26
TORSDOF 21
ENDMDL
MODEL 3
REMARK VINA RESULT:     -10.0      2.967      9.682
REMARK SMILES CC(C)[NH2+][C@@]1(C(=O)OCCOCCOC(=O)c2ccc(-c3c4nc(c(-c5ccc(S(=O)(=O)[O-])cc5)c5ccc([nH]5)c(-c5ccc(S(=O)(=O)[O-])cc5)c5nc(c(-c6ccc(S(=O)(=O)[O-])cc6)c6ccc3[nH]6)C=C5)C=C4)cc2)CC[C@@H](Sc2ccncc2)C1
REMARK SMILES IDX 12 1 11 2 10 3 9 4 8 5 6 6 7 7 5 8 77 9 87 10 78 11 79 12
REMARK SMILES IDX 4 13 2 16 1 17 3 18 80 19 81 20 82 21 86 22 83 23 85 24
REMARK SMILES IDX 84 25 13 26 14 27 15 28 16 29 17 30 18 31 76 32 19 33 75 34
REMARK SMILES IDX 20 35 21 36 22 37 69 38 23 39 74 40 68 41 70 42 24 43 73 44
REMARK SMILES IDX 67 45 66 46 25 48 55 49 36 50 54 51 37 52 40 53 53 54 71 55
REMARK SMILES IDX 38 56 39 57 52 59 72 60 41 61 26 62 27 63 35 64 28 65 34 66
REMARK SMILES IDX 29 67 30 68 31 69 32 70 33 71 56 72 57 73 65 74 58 75 64 76
REMARK SMILES IDX 59 77 60 78 61 79 62 80 63 81 42 82 43 83 51 84 44 85 50 86
REMARK SMILES IDX 45 87 46 88 47 89 48 90 49 91
REMARK H PARENT 4 14 4 15 70 47 40 58
REMARK Flexibility Score: inf
ROOT
ATOM      1  C   UNL A   1      33.189  29.646  25.366  1.00  0.00     0.202 C 
ENDROOT
BRANCH   1   2
ATOM      2  O   UNL A   1      32.265  29.054  24.456  1.00  0.00    -0.374 OA
BRANCH   2   3
ATOM      3  C   UNL A   1      32.661  28.945  23.087  1.00  0.00     0.202 C 
BRANCH   3   4
ATOM      4  C   UNL A   1      33.939  28.146  22.810  1.00  0.00     0.261 C 
BRANCH   4   5
ATOM      5  O   UNL A   1      33.982  26.962  23.628  1.00  0.00    -0.459 OA
BRANCH   5   6
ATOM      6  C   UNL A   1      33.360  25.868  23.110  1.00  0.00     0.368 C 
ATOM      7  O   UNL A   1      33.621  25.389  22.010  1.00  0.00    -0.245 OA
BRANCH   6   8
ATOM      8  C   UNL A   1      32.316  25.234  24.107  1.00  0.00     0.195 C 
ATOM      9  C   UNL A   1      33.085  24.992  25.417  1.00  0.00     0.082 C 
ATOM     10  C   UNL A   1      31.852  23.804  23.724  1.00  0.00     0.096 C 
ATOM     11  C   UNL A   1      33.852  23.700  25.139  1.00  0.00     0.022 C 
ATOM     12  C   UNL A   1      32.883  22.836  24.336  1.00  0.00     0.059 C 
BRANCH   8  13
ATOM     13  N   UNL A   1      31.199  26.204  24.122  1.00  0.00    -0.330 N 
ATOM     14  H   UNL A   1      31.424  26.889  24.844  1.00  0.00     0.347 HD
ATOM     15  H   UNL A   1      31.162  26.509  23.150  1.00  0.00     0.347 HD
BRANCH  13  16
ATOM     16  C   UNL A   1      29.828  25.784  24.368  1.00  0.00     0.176 C 
ATOM     17  C   UNL A   1      29.617  25.733  25.885  1.00  0.00     0.075 C 
ATOM     18  C   UNL A   1      28.815  26.758  23.783  1.00  0.00     0.075 C 
ENDBRANCH  13  16
ENDBRANCH   8  13
BRANCH  12  19
ATOM     19  S   UNL A   1      32.113  21.397  25.216  1.00  0.00    -0.122 SA
BRANCH  19  20
ATOM     20  C   UNL A   1      33.179  20.014  24.852  1.00  0.00     0.011 A 
ATOM     21  C   UNL A   1      32.651  18.843  24.313  1.00  0.00     0.035 A 
ATOM     22  C   UNL A   1      34.560  20.114  24.995  1.00  0.00     0.035 A 
ATOM     23  C   UNL A   1      33.511  17.788  24.047  1.00  0.00     0.112 A 
ATOM     24  C   UNL A   1      35.341  19.011  24.691  1.00  0.00     0.112 A 
ATOM     25  N   UNL A   1      34.845  17.840  24.239  1.00  0.00    -0.265 NA
ENDBRANCH  19  20
ENDBRANCH  12  19
ENDBRANCH   6   8
ENDBRANCH   5   6
ENDBRANCH   4   5
ENDBRANCH   3   4
ENDBRANCH   2   3
ENDBRANCH   1   2
BRANCH   1  26
ATOM     26  C   UNL A   1      32.603  30.500  26.499  1.00  0.00     0.261 C 
BRANCH  26  27
ATOM     27  O   UNL A   1      33.391  30.449  27.702  1.00  0.00    -0.460 OA
BRANCH  27  28
ATOM     28  C   UNL A   1      34.253  31.483  27.855  1.00  0.00     0.338 C 
ATOM     29  O   UNL A   1      33.975  32.676  27.865  1.00  0.00    -0.246 OA
BRANCH  28  30
ATOM     30  C   UNL A   1      35.597  30.988  28.203  1.00  0.00     0.060 A 
ATOM     31  C   UNL A   1      35.705  29.649  28.601  1.00  0.00     0.016 A 
ATOM     32  C   UNL A   1      36.712  31.828  28.225  1.00  0.00     0.016 A 
ATOM     33  C   UNL A   1      36.920  29.156  29.071  1.00  0.00     0.010 A 
ATOM     34  C   UNL A   1      37.930  31.333  28.708  1.00  0.00     0.010 A 
ATOM     35  C   UNL A   1      38.030  30.007  29.167  1.00  0.00    -0.014 A 
BRANCH  35  36
ATOM     36  C   UNL A   1      39.241  29.543  29.886  1.00  0.00     0.031 A 
ATOM     37  C   UNL A   1      39.642  30.231  31.163  1.00  0.00     0.074 A 
ATOM     38  C   UNL A   1      39.958  28.500  29.429  1.00  0.00     0.049 A 
ATOM     39  N   UNL A   1      40.667  29.998  31.943  1.00  0.00    -0.248 NA
ATOM     40  C   UNL A   1      38.774  31.329  31.621  1.00  0.00     0.031 C 
ATOM     41  C   UNL A   1      39.650  27.724  28.229  1.00  0.00     0.029 A 
ATOM     42  N   UNL A   1      41.099  27.919  29.924  1.00  0.00    -0.354 N 
ATOM     43  C   UNL A   1      40.574  30.924  32.976  1.00  0.00     0.074 A 
ATOM     44  C   UNL A   1      39.407  31.738  32.711  1.00  0.00     0.031 C 
ATOM     45  C   UNL A   1      40.589  26.774  28.073  1.00  0.00     0.029 A 
ATOM     46  C   UNL A   1      41.578  26.896  29.143  1.00  0.00     0.049 A 
ATOM     47  H   UNL A   1      41.532  28.208  30.759  1.00  0.00     0.167 HD
ATOM     48  C   UNL A   1      41.383  31.081  34.050  1.00  0.00     0.031 A 
ATOM     49  C   UNL A   1      42.698  26.155  29.262  1.00  0.00     0.031 A 
ATOM     50  C   UNL A   1      42.550  30.279  34.308  1.00  0.00     0.049 A 
ATOM     51  C   UNL A   1      43.620  26.388  30.429  1.00  0.00     0.074 A 
ATOM     52  C   UNL A   1      43.421  30.346  35.381  1.00  0.00     0.029 A 
ATOM     53  N   UNL A   1      43.018  29.273  33.477  1.00  0.00    -0.354 N 
ATOM     54  N   UNL A   1      43.499  27.245  31.416  1.00  0.00    -0.248 NA
ATOM     55  C   UNL A   1      44.825  25.549  30.505  1.00  0.00     0.031 C 
ATOM     56  C   UNL A   1      44.446  29.419  35.170  1.00  0.00     0.029 A 
ATOM     57  C   UNL A   1      44.182  28.732  33.996  1.00  0.00     0.049 A 
ATOM     58  H   UNL A   1      42.586  28.984  32.640  1.00  0.00     0.167 HD
ATOM     59  C   UNL A   1      44.600  27.032  32.241  1.00  0.00     0.074 A 
ATOM     60  C   UNL A   1      45.367  25.958  31.645  1.00  0.00     0.031 C 
ATOM     61  C   UNL A   1      44.940  27.666  33.391  1.00  0.00     0.031 A 
BRANCH  48  62
ATOM     62  C   UNL A   1      41.057  32.197  35.007  1.00  0.00    -0.014 A 
ATOM     63  C   UNL A   1      41.655  33.464  34.888  1.00  0.00     0.010 A 
ATOM     64  C   UNL A   1      40.116  31.978  36.030  1.00  0.00     0.010 A 
ATOM     65  C   UNL A   1      41.351  34.478  35.801  1.00  0.00     0.020 A 
ATOM     66  C   UNL A   1      39.790  32.997  36.929  1.00  0.00     0.020 A 
ATOM     67  C   UNL A   1      40.425  34.236  36.820  1.00  0.00     0.054 A 
BRANCH  67  68
ATOM     68  S   UNL A   1      40.043  35.570  37.988  1.00  0.00     0.124 S 
ATOM     69  O   UNL A   1      38.875  35.035  38.684  1.00  0.00    -0.237 OA
ATOM     70  O   UNL A   1      41.264  35.657  38.786  1.00  0.00    -0.237 OA
ATOM     71  O   UNL A   1      39.782  36.722  37.128  1.00  0.00    -0.744 OA
ENDBRANCH  67  68
ENDBRANCH  48  62
BRANCH  49  72
ATOM     72  C   UNL A   1      43.023  25.139  28.224  1.00  0.00    -0.014 A 
ATOM     73  C   UNL A   1      43.793  25.476  27.098  1.00  0.00     0.010 A 
ATOM     74  C   UNL A   1      42.571  23.815  28.372  1.00  0.00     0.010 A 
ATOM     75  C   UNL A   1      44.098  24.509  26.135  1.00  0.00     0.020 A 
ATOM     76  C   UNL A   1      42.896  22.840  27.426  1.00  0.00     0.020 A 
ATOM     77  C   UNL A   1      43.651  23.195  26.308  1.00  0.00     0.054 A 
BRANCH  77  78
ATOM     78  S   UNL A   1      44.118  21.940  25.084  1.00  0.00     0.124 S 
ATOM     79  O   UNL A   1      45.456  21.565  25.529  1.00  0.00    -0.237 OA
ATOM     80  O   UNL A   1      43.083  20.925  25.261  1.00  0.00    -0.237 OA
ATOM     81  O   UNL A   1      44.058  22.663  23.815  1.00  0.00    -0.744 OA
ENDBRANCH  77  78
ENDBRANCH  49  72
BRANCH  61  82
ATOM     82  C   UNL A   1      46.184  27.202  34.102  1.00  0.00    -0.014 A 
ATOM     83  C   UNL A   1      47.423  27.832  33.892  1.00  0.00     0.010 A 
ATOM     84  C   UNL A   1      46.096  26.161  35.044  1.00  0.00     0.010 A 
ATOM     85  C   UNL A   1      48.558  27.411  34.592  1.00  0.00     0.020 A 
ATOM     86  C   UNL A   1      47.221  25.755  35.766  1.00  0.00     0.020 A 
ATOM     87  C   UNL A   1      48.449  26.376  35.526  1.00  0.00     0.054 A 
BRANCH  87  88
ATOM     88  S   UNL A   1      49.925  25.880  36.458  1.00  0.00     0.124 S 
ATOM     89  O   UNL A   1      49.452  24.696  37.170  1.00  0.00    -0.237 OA
ATOM     90  O   UNL A   1      50.902  25.629  35.402  1.00  0.00    -0.237 OA
ATOM     91  O   UNL A   1      50.209  27.041  37.299  1.00  0.00    -0.744 OA
ENDBRANCH  87  88
ENDBRANCH  61  82
ENDBRANCH  35  36
ENDBRANCH  28  30
ENDBRANCH  27  28
ENDBRANCH  26  27
ENDBRANCH   1  26
TORSDOF 21
ENDMDL
