MODEL 1
REMARK VINA RESULT:     -10.9      0.000      0.000
REMARK SMILES C#Cc1cc(Cl)c2c(c1)C=C(C(=O)OCCOCCOC(=O)c1ccc(-c3c4nc(c(-c5ccc(S(=O)(=O)[O-])cc5)c5ccc([nH]5)c(-c5ccc(S(=O)(=O)[O-])cc5)c5nc(c(-c6ccc(S(=O)(=O)[O-])cc6)c6ccc3[nH]6)C=C5)C=C4)cc1)[C@@H](C(F)(F)F)O2
REMARK SMILES IDX 18 1 17 2 16 3 15 4 14 5 12 6 13 7 11 8 3 9 4 10 9 11 5 12
REMARK SMILES IDX 8 13 6 14 7 15 10 16 88 17 83 18 2 19 1 20 84 21 85 22 86 23
REMARK SMILES IDX 87 24 19 25 20 26 21 27 22 28 23 29 24 30 82 31 25 32 81 33
REMARK SMILES IDX 26 34 27 35 28 36 75 37 29 38 80 39 74 40 76 41 30 42 79 43
REMARK SMILES IDX 73 44 72 45 31 47 61 48 42 49 60 50 43 51 46 52 59 53 77 54
REMARK SMILES IDX 44 55 45 56 58 58 78 59 47 60 32 61 33 62 41 63 34 64 40 65
REMARK SMILES IDX 35 66 36 67 37 68 38 69 39 70 62 71 63 72 71 73 64 74 70 75
REMARK SMILES IDX 65 76 66 77 67 78 68 79 69 80 48 81 49 82 57 83 50 84 56 85
REMARK SMILES IDX 51 86 52 87 53 88 54 89 55 90
REMARK H PARENT 76 46 46 57
REMARK Flexibility Score: inf
ROOT
ATOM      1  C   UNL A   1      39.208  21.327  25.988  1.00  0.00     0.202 C 
ENDROOT
BRANCH   1   2
ATOM      2  O   UNL A   1      38.106  21.980  25.363  1.00  0.00    -0.374 OA
BRANCH   2   3
ATOM      3  C   UNL A   1      36.857  21.302  25.281  1.00  0.00     0.202 C 
BRANCH   3   4
ATOM      4  C   UNL A   1      35.637  21.892  25.996  1.00  0.00     0.261 C 
BRANCH   4   5
ATOM      5  O   UNL A   1      34.753  22.578  25.100  1.00  0.00    -0.460 OA
BRANCH   5   6
ATOM      6  C   UNL A   1      33.665  23.111  25.700  1.00  0.00     0.338 C 
ATOM      7  O   UNL A   1      33.026  22.632  26.623  1.00  0.00    -0.246 OA
BRANCH   6   8
ATOM      8  C   UNL A   1      33.427  24.470  25.178  1.00  0.00     0.087 C 
ATOM      9  C   UNL A   1      33.574  29.179  26.090  1.00  0.00     0.027 A 
ATOM     10  C   UNL A   1      32.759  29.425  24.986  1.00  0.00     0.041 A 
ATOM     11  C   UNL A   1      34.011  27.882  26.357  1.00  0.00     0.029 A 
ATOM     12  C   UNL A   1      32.399  28.372  24.139  1.00  0.00     0.084 A 
ATOM     13  C   UNL A   1      33.613  26.823  25.533  1.00  0.00     0.020 A 
ATOM     14  Cl  UNL A   1      31.380  28.724  22.789  1.00  0.00    -0.080 Cl
ATOM     15  C   UNL A   1      32.825  27.063  24.405  1.00  0.00     0.146 A 
ATOM     16  C   UNL A   1      33.950  25.463  25.905  1.00  0.00     0.027 C 
ATOM     17  O   UNL A   1      32.456  26.071  23.538  1.00  0.00    -0.474 OA
ATOM     18  C   UNL A   1      32.619  24.678  23.929  1.00  0.00     0.316 C 
BRANCH   9  19
ATOM     19  C   UNL A   1      33.936  30.242  26.974  1.00  0.00    -0.070 C 
ATOM     20  C   UNL A   1      34.234  31.124  27.737  1.00  0.00     0.010 C 
ENDBRANCH   9  19
BRANCH  18  21
ATOM     21  C   UNL A   1      31.230  24.027  24.013  1.00  0.00     0.430 C 
ATOM     22  F   UNL A   1      30.359  24.615  23.162  1.00  0.00    -0.167 F 
ATOM     23  F   UNL A   1      31.272  22.714  23.688  1.00  0.00    -0.167 F 
ATOM     24  F   UNL A   1      30.713  24.121  25.260  1.00  0.00    -0.167 F 
ENDBRANCH  18  21
ENDBRANCH   6   8
ENDBRANCH   5   6
ENDBRANCH   4   5
ENDBRANCH   3   4
ENDBRANCH   2   3
ENDBRANCH   1   2
BRANCH   1  25
ATOM     25  C   UNL A   1      40.288  22.149  26.710  1.00  0.00     0.261 C 
BRANCH  25  26
ATOM     26  O   UNL A   1      39.891  23.489  27.034  1.00  0.00    -0.460 OA
BRANCH  26  27
ATOM     27  C   UNL A   1      40.886  24.406  26.912  1.00  0.00     0.338 C 
ATOM     28  O   UNL A   1      41.821  24.380  26.129  1.00  0.00    -0.246 OA
BRANCH  27  29
ATOM     29  C   UNL A   1      40.584  25.579  27.748  1.00  0.00     0.060 A 
ATOM     30  C   UNL A   1      41.482  26.654  27.727  1.00  0.00     0.016 A 
ATOM     31  C   UNL A   1      39.488  25.581  28.610  1.00  0.00     0.016 A 
ATOM     32  C   UNL A   1      41.303  27.728  28.594  1.00  0.00     0.010 A 
ATOM     33  C   UNL A   1      39.319  26.653  29.490  1.00  0.00     0.010 A 
ATOM     34  C   UNL A   1      40.244  27.714  29.509  1.00  0.00    -0.014 A 
BRANCH  34  35
ATOM     35  C   UNL A   1      40.190  28.736  30.581  1.00  0.00     0.031 A 
ATOM     36  C   UNL A   1      41.156  28.638  31.731  1.00  0.00     0.074 A 
ATOM     37  C   UNL A   1      39.318  29.759  30.508  1.00  0.00     0.049 A 
ATOM     38  N   UNL A   1      41.257  29.399  32.789  1.00  0.00    -0.248 NA
ATOM     39  C   UNL A   1      42.137  27.541  31.682  1.00  0.00     0.031 C 
ATOM     40  C   UNL A   1      38.376  29.991  29.413  1.00  0.00     0.029 A 
ATOM     41  N   UNL A   1      39.088  30.797  31.375  1.00  0.00    -0.354 N 
ATOM     42  C   UNL A   1      42.306  28.870  33.534  1.00  0.00     0.074 A 
ATOM     43  C   UNL A   1      42.785  27.705  32.826  1.00  0.00     0.031 C 
ATOM     44  C   UNL A   1      37.672  31.106  29.673  1.00  0.00     0.029 A 
ATOM     45  C   UNL A   1      38.081  31.641  30.969  1.00  0.00     0.049 A 
ATOM     46  H   UNL A   1      39.596  30.926  32.208  1.00  0.00     0.167 HD
ATOM     47  C   UNL A   1      42.830  29.327  34.696  1.00  0.00     0.031 A 
ATOM     48  C   UNL A   1      37.537  32.711  31.584  1.00  0.00     0.031 A 
ATOM     49  C   UNL A   1      42.346  30.488  35.395  1.00  0.00     0.049 A 
ATOM     50  C   UNL A   1      38.075  33.138  32.925  1.00  0.00     0.074 A 
ATOM     51  C   UNL A   1      42.816  31.034  36.576  1.00  0.00     0.029 A 
ATOM     52  N   UNL A   1      41.287  31.281  34.981  1.00  0.00    -0.354 N 
ATOM     53  N   UNL A   1      39.077  32.637  33.610  1.00  0.00    -0.248 NA
ATOM     54  C   UNL A   1      37.413  34.278  33.577  1.00  0.00     0.031 C 
ATOM     55  C   UNL A   1      41.998  32.113  36.913  1.00  0.00     0.029 A 
ATOM     56  C   UNL A   1      41.068  32.291  35.902  1.00  0.00     0.049 A 
ATOM     57  H   UNL A   1      40.769  31.146  34.155  1.00  0.00     0.167 HD
ATOM     58  C   UNL A   1      39.182  33.419  34.756  1.00  0.00     0.074 A 
ATOM     59  C   UNL A   1      38.157  34.438  34.663  1.00  0.00     0.031 C 
ATOM     60  C   UNL A   1      40.047  33.304  35.794  1.00  0.00     0.031 A 
BRANCH  47  61
ATOM     61  C   UNL A   1      43.982  28.570  35.302  1.00  0.00    -0.014 A 
ATOM     62  C   UNL A   1      45.312  28.956  35.056  1.00  0.00     0.010 A 
ATOM     63  C   UNL A   1      43.729  27.524  36.208  1.00  0.00     0.010 A 
ATOM     64  C   UNL A   1      46.367  28.302  35.698  1.00  0.00     0.020 A 
ATOM     65  C   UNL A   1      44.780  26.889  36.876  1.00  0.00     0.020 A 
ATOM     66  C   UNL A   1      46.094  27.280  36.611  1.00  0.00     0.054 A 
BRANCH  66  67
ATOM     67  S   UNL A   1      47.483  26.500  37.476  1.00  0.00     0.124 S 
ATOM     68  O   UNL A   1      47.051  25.106  37.550  1.00  0.00    -0.237 OA
ATOM     69  O   UNL A   1      48.604  26.763  36.576  1.00  0.00    -0.237 OA
ATOM     70  O   UNL A   1      47.536  27.201  38.757  1.00  0.00    -0.744 OA
ENDBRANCH  66  67
ENDBRANCH  47  61
BRANCH  48  71
ATOM     71  C   UNL A   1      36.410  33.450  30.946  1.00  0.00    -0.014 A 
ATOM     72  C   UNL A   1      36.489  33.855  29.602  1.00  0.00     0.010 A 
ATOM     73  C   UNL A   1      35.253  33.762  31.685  1.00  0.00     0.010 A 
ATOM     74  C   UNL A   1      35.445  34.578  29.017  1.00  0.00     0.020 A 
ATOM     75  C   UNL A   1      34.192  34.453  31.093  1.00  0.00     0.020 A 
ATOM     76  C   UNL A   1      34.301  34.869  29.765  1.00  0.00     0.054 A 
BRANCH  76  77
ATOM     77  S   UNL A   1      32.949  35.780  28.970  1.00  0.00     0.124 S 
ATOM     78  O   UNL A   1      33.659  36.884  28.332  1.00  0.00    -0.237 OA
ATOM     79  O   UNL A   1      32.389  34.779  28.065  1.00  0.00    -0.237 OA
ATOM     80  O   UNL A   1      32.084  36.154  30.086  1.00  0.00    -0.744 OA
ENDBRANCH  76  77
ENDBRANCH  48  71
BRANCH  60  81
ATOM     81  C   UNL A   1      39.954  34.315  36.908  1.00  0.00    -0.014 A 
ATOM     82  C   UNL A   1      40.599  35.561  36.816  1.00  0.00     0.010 A 
ATOM     83  C   UNL A   1      39.138  34.049  38.023  1.00  0.00     0.010 A 
ATOM     84  C   UNL A   1      40.451  36.510  37.830  1.00  0.00     0.020 A 
ATOM     85  C   UNL A   1      38.958  35.008  39.023  1.00  0.00     0.020 A 
ATOM     86  C   UNL A   1      39.626  36.230  38.925  1.00  0.00     0.054 A 
BRANCH  86  87
ATOM     87  S   UNL A   1      39.412  37.503  40.198  1.00  0.00     0.124 S 
ATOM     88  O   UNL A   1      38.449  38.405  39.570  1.00  0.00    -0.237 OA
ATOM     89  O   UNL A   1      38.906  36.735  41.333  1.00  0.00    -0.237 OA
ATOM     90  O   UNL A   1      40.755  38.051  40.372  1.00  0.00    -0.744 OA
ENDBRANCH  86  87
ENDBRANCH  60  81
ENDBRANCH  34  35
ENDBRANCH  27  29
ENDBRANCH  26  27
ENDBRANCH  25  26
ENDBRANCH   1  25
TORSDOF 19
ENDMDL
MODEL 2
REMARK VINA RESULT:     -10.9      3.121      3.825
REMARK SMILES C#Cc1cc(Cl)c2c(c1)C=C(C(=O)OCCOCCOC(=O)c1ccc(-c3c4nc(c(-c5ccc(S(=O)(=O)[O-])cc5)c5ccc([nH]5)c(-c5ccc(S(=O)(=O)[O-])cc5)c5nc(c(-c6ccc(S(=O)(=O)[O-])cc6)c6ccc3[nH]6)C=C5)C=C4)cc1)[C@@H](C(F)(F)F)O2
REMARK SMILES IDX 18 1 17 2 16 3 15 4 14 5 12 6 13 7 11 8 3 9 4 10 9 11 5 12
REMARK SMILES IDX 8 13 6 14 7 15 10 16 88 17 83 18 2 19 1 20 84 21 85 22 86 23
REMARK SMILES IDX 87 24 19 25 20 26 21 27 22 28 23 29 24 30 82 31 25 32 81 33
REMARK SMILES IDX 26 34 27 35 28 36 75 37 29 38 80 39 74 40 76 41 30 42 79 43
REMARK SMILES IDX 73 44 72 45 31 47 61 48 42 49 60 50 43 51 46 52 59 53 77 54
REMARK SMILES IDX 44 55 45 56 58 58 78 59 47 60 32 61 33 62 41 63 34 64 40 65
REMARK SMILES IDX 35 66 36 67 37 68 38 69 39 70 62 71 63 72 71 73 64 74 70 75
REMARK SMILES IDX 65 76 66 77 67 78 68 79 69 80 48 81 49 82 57 83 50 84 56 85
REMARK SMILES IDX 51 86 52 87 53 88 54 89 55 90
REMARK H PARENT 76 46 46 57
REMARK Flexibility Score: inf
ROOT
ATOM      1  C   UNL A   1      36.442  21.241  24.712  1.00  0.00     0.202 C 
ENDROOT
BRANCH   1   2
ATOM      2  O   UNL A   1      35.354  20.363  24.989  1.00  0.00    -0.374 OA
BRANCH   2   3
ATOM      3  C   UNL A   1      34.187  20.884  25.616  1.00  0.00     0.202 C 
BRANCH   3   4
ATOM      4  C   UNL A   1      33.290  21.852  24.838  1.00  0.00     0.261 C 
BRANCH   4   5
ATOM      5  O   UNL A   1      33.716  23.215  24.961  1.00  0.00    -0.460 OA
BRANCH   5   6
ATOM      6  C   UNL A   1      33.902  23.842  23.777  1.00  0.00     0.338 C 
ATOM      7  O   UNL A   1      34.375  23.364  22.758  1.00  0.00    -0.246 OA
BRANCH   6   8
ATOM      8  C   UNL A   1      33.302  25.189  23.829  1.00  0.00     0.087 C 
ATOM      9  C   UNL A   1      33.255  29.458  26.021  1.00  0.00     0.027 A 
ATOM     10  C   UNL A   1      32.023  29.750  25.438  1.00  0.00     0.041 A 
ATOM     11  C   UNL A   1      33.917  28.275  25.691  1.00  0.00     0.029 A 
ATOM     12  C   UNL A   1      31.466  28.868  24.508  1.00  0.00     0.084 A 
ATOM     13  C   UNL A   1      33.336  27.372  24.794  1.00  0.00     0.020 A 
ATOM     14  Cl  UNL A   1      29.934  29.270  23.819  1.00  0.00    -0.080 Cl
ATOM     15  C   UNL A   1      32.119  27.671  24.178  1.00  0.00     0.146 A 
ATOM     16  C   UNL A   1      33.962  26.083  24.574  1.00  0.00     0.027 C 
ATOM     17  O   UNL A   1      31.538  26.848  23.252  1.00  0.00    -0.474 OA
ATOM     18  C   UNL A   1      32.019  25.482  23.104  1.00  0.00     0.316 C 
BRANCH   9  19
ATOM     19  C   UNL A   1      33.828  30.342  26.986  1.00  0.00    -0.070 C 
ATOM     20  C   UNL A   1      34.303  31.106  27.785  1.00  0.00     0.010 C 
ENDBRANCH   9  19
BRANCH  18  21
ATOM     21  C   UNL A   1      30.889  24.519  23.498  1.00  0.00     0.430 C 
ATOM     22  F   UNL A   1      31.025  23.323  22.880  1.00  0.00    -0.167 F 
ATOM     23  F   UNL A   1      30.879  24.275  24.829  1.00  0.00    -0.167 F 
ATOM     24  F   UNL A   1      29.675  25.016  23.167  1.00  0.00    -0.167 F 
ENDBRANCH  18  21
ENDBRANCH   6   8
ENDBRANCH   5   6
ENDBRANCH   4   5
ENDBRANCH   3   4
ENDBRANCH   2   3
ENDBRANCH   1   2
BRANCH   1  25
ATOM     25  C   UNL A   1      37.437  21.618  25.821  1.00  0.00     0.261 C 
BRANCH  25  26
ATOM     26  O   UNL A   1      38.207  22.798  25.547  1.00  0.00    -0.460 OA
BRANCH  26  27
ATOM     27  C   UNL A   1      39.369  22.875  26.245  1.00  0.00     0.338 C 
ATOM     28  O   UNL A   1      40.275  22.059  26.261  1.00  0.00    -0.246 OA
BRANCH  27  29
ATOM     29  C   UNL A   1      39.490  24.207  26.860  1.00  0.00     0.060 A 
ATOM     30  C   UNL A   1      40.134  25.215  26.132  1.00  0.00     0.016 A 
ATOM     31  C   UNL A   1      39.064  24.433  28.168  1.00  0.00     0.016 A 
ATOM     32  C   UNL A   1      40.383  26.450  26.723  1.00  0.00     0.010 A 
ATOM     33  C   UNL A   1      39.328  25.668  28.765  1.00  0.00     0.010 A 
ATOM     34  C   UNL A   1      40.018  26.670  28.057  1.00  0.00    -0.014 A 
BRANCH  34  35
ATOM     35  C   UNL A   1      40.487  27.892  28.752  1.00  0.00     0.031 A 
ATOM     36  C   UNL A   1      41.904  27.943  29.258  1.00  0.00     0.074 A 
ATOM     37  C   UNL A   1      39.674  28.954  28.894  1.00  0.00     0.049 A 
ATOM     38  N   UNL A   1      42.507  28.892  29.924  1.00  0.00    -0.248 NA
ATOM     39  C   UNL A   1      42.753  26.772  28.976  1.00  0.00     0.031 C 
ATOM     40  C   UNL A   1      38.302  29.043  28.392  1.00  0.00     0.029 A 
ATOM     41  N   UNL A   1      39.887  30.165  29.501  1.00  0.00    -0.354 N 
ATOM     42  C   UNL A   1      43.801  28.433  30.146  1.00  0.00     0.074 A 
ATOM     43  C   UNL A   1      43.885  27.107  29.577  1.00  0.00     0.031 C 
ATOM     44  C   UNL A   1      37.799  30.247  28.709  1.00  0.00     0.029 A 
ATOM     45  C   UNL A   1      38.793  30.998  29.472  1.00  0.00     0.049 A 
ATOM     46  H   UNL A   1      40.744  30.415  29.918  1.00  0.00     0.167 HD
ATOM     47  C   UNL A   1      44.829  29.069  30.757  1.00  0.00     0.031 A 
ATOM     48  C   UNL A   1      38.609  32.217  30.016  1.00  0.00     0.031 A 
ATOM     49  C   UNL A   1      44.736  30.389  31.322  1.00  0.00     0.049 A 
ATOM     50  C   UNL A   1      39.740  32.859  30.778  1.00  0.00     0.074 A 
ATOM     51  C   UNL A   1      45.725  31.120  31.956  1.00  0.00     0.029 A 
ATOM     52  N   UNL A   1      43.594  31.175  31.323  1.00  0.00    -0.354 N 
ATOM     53  N   UNL A   1      40.962  32.419  30.967  1.00  0.00    -0.248 NA
ATOM     54  C   UNL A   1      39.470  34.166  31.397  1.00  0.00     0.031 C 
ATOM     55  C   UNL A   1      45.163  32.317  32.402  1.00  0.00     0.029 A 
ATOM     56  C   UNL A   1      43.846  32.368  31.976  1.00  0.00     0.049 A 
ATOM     57  H   UNL A   1      42.733  30.921  30.918  1.00  0.00     0.167 HD
ATOM     58  C   UNL A   1      41.613  33.407  31.699  1.00  0.00     0.074 A 
ATOM     59  C   UNL A   1      40.657  34.476  31.901  1.00  0.00     0.031 C 
ATOM     60  C   UNL A   1      42.886  33.428  32.166  1.00  0.00     0.031 A 
BRANCH  47  61
ATOM     61  C   UNL A   1      46.148  28.349  30.862  1.00  0.00    -0.014 A 
ATOM     62  C   UNL A   1      47.123  28.473  29.857  1.00  0.00     0.010 A 
ATOM     63  C   UNL A   1      46.453  27.622  32.028  1.00  0.00     0.010 A 
ATOM     64  C   UNL A   1      48.376  27.874  30.012  1.00  0.00     0.020 A 
ATOM     65  C   UNL A   1      47.716  27.048  32.200  1.00  0.00     0.020 A 
ATOM     66  C   UNL A   1      48.668  27.174  31.187  1.00  0.00     0.054 A 
BRANCH  66  67
ATOM     67  S   UNL A   1      50.326  26.468  31.382  1.00  0.00     0.124 S 
ATOM     68  O   UNL A   1      50.568  26.652  32.812  1.00  0.00    -0.237 OA
ATOM     69  O   UNL A   1      50.134  25.086  30.950  1.00  0.00    -0.237 OA
ATOM     70  O   UNL A   1      51.160  27.285  30.503  1.00  0.00    -0.744 OA
ENDBRANCH  66  67
ENDBRANCH  47  61
BRANCH  48  71
ATOM     71  C   UNL A   1      37.297  32.910  29.876  1.00  0.00    -0.014 A 
ATOM     72  C   UNL A   1      36.323  32.812  30.885  1.00  0.00     0.010 A 
ATOM     73  C   UNL A   1      37.009  33.666  28.723  1.00  0.00     0.010 A 
ATOM     74  C   UNL A   1      35.080  33.434  30.734  1.00  0.00     0.020 A 
ATOM     75  C   UNL A   1      35.781  34.320  28.585  1.00  0.00     0.020 A 
ATOM     76  C   UNL A   1      34.819  34.188  29.586  1.00  0.00     0.054 A 
BRANCH  76  77
ATOM     77  S   UNL A   1      33.209  35.011  29.433  1.00  0.00     0.124 S 
ATOM     78  O   UNL A   1      32.763  35.070  30.821  1.00  0.00    -0.237 OA
ATOM     79  O   UNL A   1      33.571  36.291  28.829  1.00  0.00    -0.237 OA
ATOM     80  O   UNL A   1      32.446  34.114  28.568  1.00  0.00    -0.744 OA
ENDBRANCH  76  77
ENDBRANCH  48  71
BRANCH  60  81
ATOM     81  C   UNL A   1      43.344  34.651  32.918  1.00  0.00    -0.014 A 
ATOM     82  C   UNL A   1      43.967  35.723  32.255  1.00  0.00     0.010 A 
ATOM     83  C   UNL A   1      43.067  34.766  34.293  1.00  0.00     0.010 A 
ATOM     84  C   UNL A   1      44.328  36.875  32.958  1.00  0.00     0.020 A 
ATOM     85  C   UNL A   1      43.395  35.930  34.993  1.00  0.00     0.020 A 
ATOM     86  C   UNL A   1      44.033  36.974  34.323  1.00  0.00     0.054 A 
BRANCH  86  87
ATOM     87  S   UNL A   1      44.468  38.503  35.195  1.00  0.00     0.124 S 
ATOM     88  O   UNL A   1      43.595  39.481  34.550  1.00  0.00    -0.237 OA
ATOM     89  O   UNL A   1      44.135  38.182  36.581  1.00  0.00    -0.237 OA
ATOM     90  O   UNL A   1      45.894  38.667  34.923  1.00  0.00    -0.744 OA
ENDBRANCH  86  87
ENDBRANCH  60  81
ENDBRANCH  34  35
ENDBRANCH  27  29
ENDBRANCH  26  27
ENDBRANCH  25  26
ENDBRANCH   1  25
TORSDOF 19
ENDMDL
MODEL 3
REMARK VINA RESULT:     -10.8      1.655      2.160
REMARK SMILES C#Cc1cc(Cl)c2c(c1)C=C(C(=O)OCCOCCOC(=O)c1ccc(-c3c4nc(c(-c5ccc(S(=O)(=O)[O-])cc5)c5ccc([nH]5)c(-c5ccc(S(=O)(=O)[O-])cc5)c5nc(c(-c6ccc(S(=O)(=O)[O-])cc6)c6ccc3[nH]6)C=C5)C=C4)cc1)[C@@H](C(F)(F)F)O2
REMARK SMILES IDX 18 1 17 2 16 3 15 4 14 5 12 6 13 7 11 8 3 9 4 10 9 11 5 12
REMARK SMILES IDX 8 13 6 14 7 15 10 16 88 17 83 18 2 19 1 20 84 21 85 22 86 23
REMARK SMILES IDX 87 24 19 25 20 26 21 27 22 28 23 29 24 30 82 31 25 32 81 33
REMARK SMILES IDX 26 34 27 35 28 36 75 37 29 38 80 39 74 40 76 41 30 42 79 43
REMARK SMILES IDX 73 44 72 45 31 47 61 48 42 49 60 50 43 51 46 52 59 53 77 54
REMARK SMILES IDX 44 55 45 56 58 58 78 59 47 60 32 61 33 62 41 63 34 64 40 65
REMARK SMILES IDX 35 66 36 67 37 68 38 69 39 70 62 71 63 72 71 73 64 74 70 75
REMARK SMILES IDX 65 76 66 77 67 78 68 79 69 80 48 81 49 82 57 83 50 84 56 85
REMARK SMILES IDX 51 86 52 87 53 88 54 89 55 90
REMARK H PARENT 76 46 46 57
REMARK Flexibility Score: inf
ROOT
ATOM      1  C   UNL A   1      39.975  22.230  26.309  1.00  0.00     0.202 C 
ENDROOT
BRANCH   1   2
ATOM      2  O   UNL A   1      38.559  22.181  26.152  1.00  0.00    -0.374 OA
BRANCH   2   3
ATOM      3  C   UNL A   1      38.001  21.299  25.185  1.00  0.00     0.202 C 
BRANCH   3   4
ATOM      4  C   UNL A   1      36.495  21.021  25.207  1.00  0.00     0.261 C 
BRANCH   4   5
ATOM      5  O   UNL A   1      35.816  21.755  26.234  1.00  0.00    -0.460 OA
BRANCH   5   6
ATOM      6  C   UNL A   1      34.469  21.753  26.114  1.00  0.00     0.338 C 
ATOM      7  O   UNL A   1      33.684  20.989  26.654  1.00  0.00    -0.246 OA
BRANCH   6   8
ATOM      8  C   UNL A   1      34.037  22.929  25.335  1.00  0.00     0.087 C 
ATOM      9  C   UNL A   1      32.420  27.444  25.488  1.00  0.00     0.027 A 
ATOM     10  C   UNL A   1      32.025  27.354  24.154  1.00  0.00     0.041 A 
ATOM     11  C   UNL A   1      33.099  26.382  26.085  1.00  0.00     0.029 A 
ATOM     12  C   UNL A   1      32.330  26.208  23.413  1.00  0.00     0.084 A 
ATOM     13  C   UNL A   1      33.364  25.218  25.354  1.00  0.00     0.020 A 
ATOM     14  Cl  UNL A   1      31.812  26.140  21.767  1.00  0.00    -0.080 Cl
ATOM     15  C   UNL A   1      33.004  25.132  24.008  1.00  0.00     0.146 A 
ATOM     16  C   UNL A   1      33.938  24.069  26.026  1.00  0.00     0.027 C 
ATOM     17  O   UNL A   1      33.291  24.039  23.236  1.00  0.00    -0.474 OA
ATOM     18  C   UNL A   1      33.712  22.800  23.874  1.00  0.00     0.316 C 
BRANCH   9  19
ATOM     19  C   UNL A   1      32.099  28.602  26.262  1.00  0.00    -0.070 C 
ATOM     20  C   UNL A   1      31.832  29.564  26.933  1.00  0.00     0.010 C 
ENDBRANCH   9  19
BRANCH  18  21
ATOM     21  C   UNL A   1      32.653  21.722  23.600  1.00  0.00     0.430 C 
ATOM     22  F   UNL A   1      33.189  20.481  23.656  1.00  0.00    -0.167 F 
ATOM     23  F   UNL A   1      31.652  21.760  24.510  1.00  0.00    -0.167 F 
ATOM     24  F   UNL A   1      32.095  21.874  22.377  1.00  0.00    -0.167 F 
ENDBRANCH  18  21
ENDBRANCH   6   8
ENDBRANCH   5   6
ENDBRANCH   4   5
ENDBRANCH   3   4
ENDBRANCH   2   3
ENDBRANCH   1   2
BRANCH   1  25
ATOM     25  C   UNL A   1      40.660  23.527  26.768  1.00  0.00     0.261 C 
BRANCH  25  26
ATOM     26  O   UNL A   1      39.765  24.633  26.953  1.00  0.00    -0.460 OA
BRANCH  26  27
ATOM     27  C   UNL A   1      40.316  25.843  26.677  1.00  0.00     0.338 C 
ATOM     28  O   UNL A   1      40.807  26.206  25.621  1.00  0.00    -0.246 OA
BRANCH  27  29
ATOM     29  C   UNL A   1      40.070  26.767  27.796  1.00  0.00     0.060 A 
ATOM     30  C   UNL A   1      40.683  28.026  27.760  1.00  0.00     0.016 A 
ATOM     31  C   UNL A   1      39.328  26.366  28.906  1.00  0.00     0.016 A 
ATOM     32  C   UNL A   1      40.582  28.881  28.853  1.00  0.00     0.010 A 
ATOM     33  C   UNL A   1      39.240  27.220  30.008  1.00  0.00     0.010 A 
ATOM     34  C   UNL A   1      39.893  28.467  30.000  1.00  0.00    -0.014 A 
BRANCH  34  35
ATOM     35  C   UNL A   1      39.982  29.274  31.239  1.00  0.00     0.031 A 
ATOM     36  C   UNL A   1      41.127  29.033  32.186  1.00  0.00     0.074 A 
ATOM     37  C   UNL A   1      39.077  30.237  31.495  1.00  0.00     0.049 A 
ATOM     38  N   UNL A   1      41.376  29.596  33.339  1.00  0.00    -0.248 NA
ATOM     39  C   UNL A   1      42.123  28.026  31.780  1.00  0.00     0.031 C 
ATOM     40  C   UNL A   1      37.960  30.602  30.623  1.00  0.00     0.029 A 
ATOM     41  N   UNL A   1      38.958  31.086  32.566  1.00  0.00    -0.354 N 
ATOM     42  C   UNL A   1      42.549  29.010  33.800  1.00  0.00     0.074 A 
ATOM     43  C   UNL A   1      42.944  28.022  32.820  1.00  0.00     0.031 C 
ATOM     44  C   UNL A   1      37.272  31.605  31.193  1.00  0.00     0.029 A 
ATOM     45  C   UNL A   1      37.871  31.924  32.487  1.00  0.00     0.049 A 
ATOM     46  H   UNL A   1      39.592  31.095  33.319  1.00  0.00     0.167 HD
ATOM     47  C   UNL A   1      43.242  29.283  34.930  1.00  0.00     0.031 A 
ATOM     48  C   UNL A   1      37.401  32.830  33.368  1.00  0.00     0.031 A 
ATOM     49  C   UNL A   1      42.842  30.267  35.901  1.00  0.00     0.049 A 
ATOM     50  C   UNL A   1      38.137  33.042  34.665  1.00  0.00     0.074 A 
ATOM     51  C   UNL A   1      43.481  30.620  37.075  1.00  0.00     0.029 A 
ATOM     52  N   UNL A   1      41.703  31.053  35.813  1.00  0.00    -0.354 N 
ATOM     53  N   UNL A   1      39.254  32.491  35.080  1.00  0.00    -0.248 NA
ATOM     54  C   UNL A   1      37.554  34.003  35.614  1.00  0.00     0.031 C 
ATOM     55  C   UNL A   1      42.694  31.568  37.732  1.00  0.00     0.029 A 
ATOM     56  C   UNL A   1      41.605  31.866  36.928  1.00  0.00     0.049 A 
ATOM     57  H   UNL A   1      41.061  31.036  35.066  1.00  0.00     0.167 HD
ATOM     58  C   UNL A   1      39.520  33.060  36.322  1.00  0.00     0.074 A 
ATOM     59  C   UNL A   1      38.461  34.013  36.581  1.00  0.00     0.031 C 
ATOM     60  C   UNL A   1      40.548  32.815  37.172  1.00  0.00     0.031 A 
BRANCH  47  61
ATOM     61  C   UNL A   1      44.503  28.504  35.197  1.00  0.00    -0.014 A 
ATOM     62  C   UNL A   1      44.464  27.272  35.874  1.00  0.00     0.010 A 
ATOM     63  C   UNL A   1      45.728  28.961  34.676  1.00  0.00     0.010 A 
ATOM     64  C   UNL A   1      45.630  26.517  36.033  1.00  0.00     0.020 A 
ATOM     65  C   UNL A   1      46.889  28.194  34.806  1.00  0.00     0.020 A 
ATOM     66  C   UNL A   1      46.832  26.978  35.490  1.00  0.00     0.054 A 
BRANCH  66  67
ATOM     67  S   UNL A   1      48.310  25.941  35.657  1.00  0.00     0.124 S 
ATOM     68  O   UNL A   1      47.856  24.673  35.090  1.00  0.00    -0.237 OA
ATOM     69  O   UNL A   1      49.297  26.667  34.862  1.00  0.00    -0.237 OA
ATOM     70  O   UNL A   1      48.562  25.921  37.096  1.00  0.00    -0.744 OA
ENDBRANCH  66  67
ENDBRANCH  47  61
BRANCH  48  71
ATOM     71  C   UNL A   1      36.160  33.598  33.062  1.00  0.00    -0.014 A 
ATOM     72  C   UNL A   1      36.235  34.922  32.593  1.00  0.00     0.010 A 
ATOM     73  C   UNL A   1      34.893  33.013  33.251  1.00  0.00     0.010 A 
ATOM     74  C   UNL A   1      35.069  35.652  32.341  1.00  0.00     0.020 A 
ATOM     75  C   UNL A   1      33.726  33.727  32.965  1.00  0.00     0.020 A 
ATOM     76  C   UNL A   1      33.822  35.048  32.525  1.00  0.00     0.054 A 
BRANCH  76  77
ATOM     77  S   UNL A   1      32.327  36.008  32.158  1.00  0.00     0.124 S 
ATOM     78  O   UNL A   1      32.539  37.216  32.949  1.00  0.00    -0.237 OA
ATOM     79  O   UNL A   1      32.413  36.176  30.710  1.00  0.00    -0.237 OA
ATOM     80  O   UNL A   1      31.243  35.143  32.616  1.00  0.00    -0.744 OA
ENDBRANCH  76  77
ENDBRANCH  48  71
BRANCH  60  81
ATOM     81  C   UNL A   1      40.606  33.602  38.456  1.00  0.00    -0.014 A 
ATOM     82  C   UNL A   1      41.187  34.881  38.501  1.00  0.00     0.010 A 
ATOM     83  C   UNL A   1      39.992  33.090  39.615  1.00  0.00     0.010 A 
ATOM     84  C   UNL A   1      41.176  35.623  39.685  1.00  0.00     0.020 A 
ATOM     85  C   UNL A   1      39.947  33.842  40.792  1.00  0.00     0.020 A 
ATOM     86  C   UNL A   1      40.550  35.100  40.822  1.00  0.00     0.054 A 
BRANCH  86  87
ATOM     87  S   UNL A   1      40.506  36.109  42.329  1.00  0.00     0.124 S 
ATOM     88  O   UNL A   1      41.343  35.331  43.240  1.00  0.00    -0.237 OA
ATOM     89  O   UNL A   1      41.078  37.375  41.878  1.00  0.00    -0.237 OA
ATOM     90  O   UNL A   1      39.088  36.158  42.675  1.00  0.00    -0.744 OA
ENDBRANCH  86  87
ENDBRANCH  60  81
ENDBRANCH  34  35
ENDBRANCH  27  29
ENDBRANCH  26  27
ENDBRANCH  25  26
ENDBRANCH   1  25
TORSDOF 19
ENDMDL
