MODEL 1
REMARK VINA RESULT:      -9.4      0.000      0.000
REMARK SMILES O=C(Cc1ccc(F)cc1F)Nc1sccc1C(=O)OCCOCCOC(=O)c1ccc(-c2c3nc(c(-c4ccc(S(=O)(=O)[O-])cc4)c4ccc([nH]4)c(-c4ccc(S(=O)(=O)[O-])cc4)c4nc(c(-c5ccc(S(=O)(=O)[O-])cc5)c5ccc2[nH]5)C=C4)C=C3)cc1
REMARK SMILES IDX 23 1 22 2 21 3 20 4 18 5 19 6 17 7 13 8 14 9 15 10 16 11
REMARK SMILES IDX 12 12 1 13 2 14 3 16 4 17 5 18 10 19 6 20 9 21 11 22 7 23
REMARK SMILES IDX 8 24 24 25 25 26 26 27 27 28 28 29 29 30 30 31 88 32 31 33
REMARK SMILES IDX 87 34 32 35 33 36 34 37 81 38 35 39 86 40 80 41 82 42 36 43
REMARK SMILES IDX 85 44 79 45 78 46 37 48 67 49 48 50 66 51 49 52 52 53 65 54
REMARK SMILES IDX 83 55 50 56 51 57 64 59 84 60 53 61 38 62 39 63 47 64 40 65
REMARK SMILES IDX 46 66 41 67 42 68 43 69 44 70 45 71 68 72 69 73 77 74 70 75
REMARK SMILES IDX 76 76 71 77 72 78 73 79 74 80 75 81 54 82 55 83 63 84 56 85
REMARK SMILES IDX 62 86 57 87 58 88 59 89 60 90 61 91
REMARK H PARENT 12 15 82 47 52 58
REMARK Flexibility Score: inf
ROOT
ATOM      1  O   UNL A   1      36.498  32.854  29.068  1.00  0.00    -0.374 OA
ENDROOT
BRANCH   1   2
ATOM      2  C   UNL A   1      36.102  32.593  30.421  1.00  0.00     0.202 C 
BRANCH   2   3
ATOM      3  C   UNL A   1      37.300  32.313  31.330  1.00  0.00     0.261 C 
BRANCH   3   4
ATOM      4  O   UNL A   1      36.832  31.522  32.432  1.00  0.00    -0.460 OA
BRANCH   4   5
ATOM      5  C   UNL A   1      37.764  30.869  33.176  1.00  0.00     0.341 C 
ATOM      6  O   UNL A   1      38.302  29.815  32.856  1.00  0.00    -0.246 OA
BRANCH   5   7
ATOM      7  C   UNL A   1      38.251  31.700  34.275  1.00  0.00     0.094 A 
ATOM      8  C   UNL A   1      37.648  32.821  34.817  1.00  0.00     0.110 A 
ATOM      9  S   UNL A   1      38.690  33.711  35.833  1.00  0.00    -0.126 S 
ATOM     10  C   UNL A   1      39.906  32.518  35.732  1.00  0.00     0.068 A 
ATOM     11  C   UNL A   1      39.548  31.502  34.877  1.00  0.00     0.029 A 
BRANCH   8  12
ATOM     12  N   UNL A   1      36.406  33.408  34.720  1.00  0.00    -0.317 N 
ATOM     13  O   UNL A   1      36.977  35.128  33.268  1.00  0.00    -0.274 OA
ATOM     14  C   UNL A   1      36.165  34.561  33.996  1.00  0.00     0.229 C 
ATOM     15  H   UNL A   1      35.651  32.986  35.191  1.00  0.00     0.170 HD
BRANCH  14  16
ATOM     16  C   UNL A   1      34.737  35.060  34.129  1.00  0.00     0.139 C 
BRANCH  16  17
ATOM     17  C   UNL A   1      34.172  35.528  32.813  1.00  0.00    -0.003 A 
ATOM     18  C   UNL A   1      33.887  34.615  31.789  1.00  0.00     0.010 A 
ATOM     19  C   UNL A   1      33.885  36.882  32.607  1.00  0.00     0.129 A 
ATOM     20  C   UNL A   1      33.342  35.063  30.584  1.00  0.00     0.040 A 
ATOM     21  C   UNL A   1      33.350  37.338  31.408  1.00  0.00     0.078 A 
ATOM     22  F   UNL A   1      34.099  37.760  33.598  1.00  0.00    -0.207 F 
ATOM     23  C   UNL A   1      33.082  36.419  30.405  1.00  0.00     0.126 A 
ATOM     24  F   UNL A   1      32.549  36.842  29.251  1.00  0.00    -0.207 F 
ENDBRANCH  16  17
ENDBRANCH  14  16
ENDBRANCH   8  12
ENDBRANCH   5   7
ENDBRANCH   4   5
ENDBRANCH   3   4
ENDBRANCH   2   3
ENDBRANCH   1   2
BRANCH   1  25
ATOM     25  C   UNL A   1      35.436  33.142  28.157  1.00  0.00     0.202 C 
BRANCH  25  26
ATOM     26  C   UNL A   1      34.285  32.138  28.244  1.00  0.00     0.261 C 
BRANCH  26  27
ATOM     27  O   UNL A   1      34.379  31.173  27.180  1.00  0.00    -0.460 OA
BRANCH  27  28
ATOM     28  C   UNL A   1      34.552  29.890  27.580  1.00  0.00     0.338 C 
ATOM     29  O   UNL A   1      33.755  28.974  27.461  1.00  0.00    -0.246 OA
BRANCH  28  30
ATOM     30  C   UNL A   1      35.929  29.699  28.093  1.00  0.00     0.060 A 
ATOM     31  C   UNL A   1      36.985  29.951  27.207  1.00  0.00     0.016 A 
ATOM     32  C   UNL A   1      36.196  29.252  29.393  1.00  0.00     0.016 A 
ATOM     33  C   UNL A   1      38.300  29.715  27.603  1.00  0.00     0.010 A 
ATOM     34  C   UNL A   1      37.516  29.010  29.787  1.00  0.00     0.010 A 
ATOM     35  C   UNL A   1      38.571  29.212  28.882  1.00  0.00    -0.014 A 
BRANCH  35  36
ATOM     36  C   UNL A   1      39.951  28.782  29.205  1.00  0.00     0.031 A 
ATOM     37  C   UNL A   1      40.839  29.708  29.989  1.00  0.00     0.074 A 
ATOM     38  C   UNL A   1      40.390  27.560  28.856  1.00  0.00     0.049 A 
ATOM     39  N   UNL A   1      42.038  29.493  30.465  1.00  0.00    -0.248 NA
ATOM     40  C   UNL A   1      40.302  31.047  30.280  1.00  0.00     0.031 C 
ATOM     41  C   UNL A   1      39.621  26.563  28.112  1.00  0.00     0.029 A 
ATOM     42  N   UNL A   1      41.594  26.950  29.098  1.00  0.00    -0.354 N 
ATOM     43  C   UNL A   1      42.394  30.660  31.127  1.00  0.00     0.074 A 
ATOM     44  C   UNL A   1      41.297  31.591  30.967  1.00  0.00     0.031 C 
ATOM     45  C   UNL A   1      40.376  25.459  27.960  1.00  0.00     0.029 A 
ATOM     46  C   UNL A   1      41.676  25.676  28.592  1.00  0.00     0.049 A 
ATOM     47  H   UNL A   1      42.329  27.383  29.589  1.00  0.00     0.167 HD
ATOM     48  C   UNL A   1      43.526  30.934  31.818  1.00  0.00     0.031 A 
ATOM     49  C   UNL A   1      42.683  24.784  28.639  1.00  0.00     0.031 A 
ATOM     50  C   UNL A   1      44.631  30.028  31.964  1.00  0.00     0.049 A 
ATOM     51  C   UNL A   1      43.953  25.127  29.367  1.00  0.00     0.074 A 
ATOM     52  C   UNL A   1      45.817  30.217  32.650  1.00  0.00     0.029 A 
ATOM     53  N   UNL A   1      44.691  28.763  31.401  1.00  0.00    -0.354 N 
ATOM     54  N   UNL A   1      44.255  26.222  30.022  1.00  0.00    -0.248 NA
ATOM     55  C   UNL A   1      45.013  24.108  29.369  1.00  0.00     0.031 C 
ATOM     56  C   UNL A   1      46.609  29.074  32.477  1.00  0.00     0.029 A 
ATOM     57  C   UNL A   1      45.901  28.166  31.706  1.00  0.00     0.049 A 
ATOM     58  H   UNL A   1      43.977  28.350  30.862  1.00  0.00     0.167 HD
ATOM     59  C   UNL A   1      45.535  26.018  30.527  1.00  0.00     0.074 A 
ATOM     60  C   UNL A   1      45.947  24.693  30.108  1.00  0.00     0.031 C 
ATOM     61  C   UNL A   1      46.299  26.853  31.274  1.00  0.00     0.031 A 
BRANCH  48  62
ATOM     62  C   UNL A   1      43.618  32.290  32.455  1.00  0.00    -0.014 A 
ATOM     63  C   UNL A   1      43.176  32.492  33.774  1.00  0.00     0.010 A 
ATOM     64  C   UNL A   1      44.148  33.371  31.730  1.00  0.00     0.010 A 
ATOM     65  C   UNL A   1      43.226  33.765  34.346  1.00  0.00     0.020 A 
ATOM     66  C   UNL A   1      44.211  34.643  32.304  1.00  0.00     0.020 A 
ATOM     67  C   UNL A   1      43.731  34.836  33.602  1.00  0.00     0.054 A 
BRANCH  67  68
ATOM     68  S   UNL A   1      43.782  36.485  34.355  1.00  0.00     0.124 S 
ATOM     69  O   UNL A   1      44.667  36.264  35.497  1.00  0.00    -0.237 OA
ATOM     70  O   UNL A   1      44.333  37.316  33.287  1.00  0.00    -0.237 OA
ATOM     71  O   UNL A   1      42.385  36.753  34.690  1.00  0.00    -0.744 OA
ENDBRANCH  67  68
ENDBRANCH  48  62
BRANCH  49  72
ATOM     72  C   UNL A   1      42.529  23.468  27.969  1.00  0.00    -0.014 A 
ATOM     73  C   UNL A   1      43.372  23.104  26.905  1.00  0.00     0.010 A 
ATOM     74  C   UNL A   1      41.543  22.568  28.409  1.00  0.00     0.010 A 
ATOM     75  C   UNL A   1      43.228  21.859  26.287  1.00  0.00     0.020 A 
ATOM     76  C   UNL A   1      41.406  21.318  27.802  1.00  0.00     0.020 A 
ATOM     77  C   UNL A   1      42.244  20.974  26.739  1.00  0.00     0.054 A 
BRANCH  77  78
ATOM     78  S   UNL A   1      42.110  19.330  25.981  1.00  0.00     0.124 S 
ATOM     79  O   UNL A   1      40.670  19.207  25.780  1.00  0.00    -0.237 OA
ATOM     80  O   UNL A   1      42.910  19.467  24.766  1.00  0.00    -0.237 OA
ATOM     81  O   UNL A   1      42.682  18.448  26.995  1.00  0.00    -0.744 OA
ENDBRANCH  77  78
ENDBRANCH  49  72
BRANCH  61  82
ATOM     82  C   UNL A   1      47.652  26.355  31.693  1.00  0.00    -0.014 A 
ATOM     83  C   UNL A   1      48.776  26.552  30.871  1.00  0.00     0.010 A 
ATOM     84  C   UNL A   1      47.811  25.727  32.942  1.00  0.00     0.010 A 
ATOM     85  C   UNL A   1      50.035  26.108  31.281  1.00  0.00     0.020 A 
ATOM     86  C   UNL A   1      49.072  25.293  33.359  1.00  0.00     0.020 A 
ATOM     87  C   UNL A   1      50.175  25.475  32.520  1.00  0.00     0.054 A 
BRANCH  87  88
ATOM     88  S   UNL A   1      51.823  24.941  33.061  1.00  0.00     0.124 S 
ATOM     89  O   UNL A   1      51.957  23.651  32.391  1.00  0.00    -0.237 OA
ATOM     90  O   UNL A   1      52.692  26.003  32.561  1.00  0.00    -0.237 OA
ATOM     91  O   UNL A   1      51.700  24.881  34.516  1.00  0.00    -0.744 OA
ENDBRANCH  87  88
ENDBRANCH  61  82
ENDBRANCH  35  36
ENDBRANCH  28  30
ENDBRANCH  27  28
ENDBRANCH  26  27
ENDBRANCH  25  26
ENDBRANCH   1  25
TORSDOF 20
ENDMDL
MODEL 2
REMARK VINA RESULT:      -9.4      6.223     11.568
REMARK SMILES O=C(Cc1ccc(F)cc1F)Nc1sccc1C(=O)OCCOCCOC(=O)c1ccc(-c2c3nc(c(-c4ccc(S(=O)(=O)[O-])cc4)c4ccc([nH]4)c(-c4ccc(S(=O)(=O)[O-])cc4)c4nc(c(-c5ccc(S(=O)(=O)[O-])cc5)c5ccc2[nH]5)C=C4)C=C3)cc1
REMARK SMILES IDX 23 1 22 2 21 3 20 4 18 5 19 6 17 7 13 8 14 9 15 10 16 11
REMARK SMILES IDX 12 12 1 13 2 14 3 16 4 17 5 18 10 19 6 20 9 21 11 22 7 23
REMARK SMILES IDX 8 24 24 25 25 26 26 27 27 28 28 29 29 30 30 31 88 32 31 33
REMARK SMILES IDX 87 34 32 35 33 36 34 37 81 38 35 39 86 40 80 41 82 42 36 43
REMARK SMILES IDX 85 44 79 45 78 46 37 48 67 49 48 50 66 51 49 52 52 53 65 54
REMARK SMILES IDX 83 55 50 56 51 57 64 59 84 60 53 61 38 62 39 63 47 64 40 65
REMARK SMILES IDX 46 66 41 67 42 68 43 69 44 70 45 71 68 72 69 73 77 74 70 75
REMARK SMILES IDX 76 76 71 77 72 78 73 79 74 80 75 81 54 82 55 83 63 84 56 85
REMARK SMILES IDX 62 86 57 87 58 88 59 89 60 90 61 91
REMARK H PARENT 12 15 82 47 52 58
REMARK Flexibility Score: inf
ROOT
ATOM      1  O   UNL A   1      38.160  21.700  25.005  1.00  0.00    -0.374 OA
ENDROOT
BRANCH   1   2
ATOM      2  C   UNL A   1      36.945  22.322  25.443  1.00  0.00     0.202 C 
BRANCH   2   3
ATOM      3  C   UNL A   1      36.552  23.508  24.560  1.00  0.00     0.261 C 
BRANCH   3   4
ATOM      4  O   UNL A   1      35.847  24.446  25.385  1.00  0.00    -0.460 OA
BRANCH   4   5
ATOM      5  C   UNL A   1      34.493  24.336  25.443  1.00  0.00     0.341 C 
ATOM      6  O   UNL A   1      33.868  23.878  26.393  1.00  0.00    -0.246 OA
BRANCH   5   7
ATOM      7  C   UNL A   1      33.847  25.073  24.357  1.00  0.00     0.094 A 
ATOM      8  C   UNL A   1      33.388  24.569  23.153  1.00  0.00     0.110 A 
ATOM      9  S   UNL A   1      33.026  25.790  22.018  1.00  0.00    -0.126 S 
ATOM     10  C   UNL A   1      33.285  27.022  23.169  1.00  0.00     0.068 A 
ATOM     11  C   UNL A   1      33.714  26.510  24.371  1.00  0.00     0.029 A 
BRANCH   8  12
ATOM     12  N   UNL A   1      33.166  23.311  22.639  1.00  0.00    -0.317 N 
ATOM     13  O   UNL A   1      31.210  22.833  23.796  1.00  0.00    -0.274 OA
ATOM     14  C   UNL A   1      32.121  22.500  23.040  1.00  0.00     0.229 C 
ATOM     15  H   UNL A   1      33.784  22.971  21.952  1.00  0.00     0.170 HD
BRANCH  14  16
ATOM     16  C   UNL A   1      32.153  21.126  22.397  1.00  0.00     0.139 C 
BRANCH  16  17
ATOM     17  C   UNL A   1      32.436  20.035  23.396  1.00  0.00    -0.003 A 
ATOM     18  C   UNL A   1      32.668  20.341  24.744  1.00  0.00     0.010 A 
ATOM     19  C   UNL A   1      32.431  18.692  23.002  1.00  0.00     0.129 A 
ATOM     20  C   UNL A   1      32.906  19.316  25.664  1.00  0.00     0.040 A 
ATOM     21  C   UNL A   1      32.675  17.667  23.907  1.00  0.00     0.078 A 
ATOM     22  F   UNL A   1      32.154  18.380  21.727  1.00  0.00    -0.207 F 
ATOM     23  C   UNL A   1      32.910  17.991  25.235  1.00  0.00     0.126 A 
ATOM     24  F   UNL A   1      33.128  17.011  26.123  1.00  0.00    -0.207 F 
ENDBRANCH  16  17
ENDBRANCH  14  16
ENDBRANCH   8  12
ENDBRANCH   5   7
ENDBRANCH   4   5
ENDBRANCH   3   4
ENDBRANCH   2   3
ENDBRANCH   1   2
BRANCH   1  25
ATOM     25  C   UNL A   1      39.116  21.419  26.029  1.00  0.00     0.202 C 
BRANCH  25  26
ATOM     26  C   UNL A   1      39.599  19.966  26.013  1.00  0.00     0.261 C 
BRANCH  26  27
ATOM     27  O   UNL A   1      40.783  19.823  26.818  1.00  0.00    -0.460 OA
BRANCH  27  28
ATOM     28  C   UNL A   1      41.943  19.737  26.125  1.00  0.00     0.338 C 
ATOM     29  O   UNL A   1      42.317  18.802  25.437  1.00  0.00    -0.246 OA
BRANCH  28  30
ATOM     30  C   UNL A   1      42.681  21.019  26.212  1.00  0.00     0.060 A 
ATOM     31  C   UNL A   1      42.897  21.551  27.490  1.00  0.00     0.016 A 
ATOM     32  C   UNL A   1      43.126  21.713  25.080  1.00  0.00     0.016 A 
ATOM     33  C   UNL A   1      43.515  22.791  27.636  1.00  0.00     0.010 A 
ATOM     34  C   UNL A   1      43.741  22.961  25.228  1.00  0.00     0.010 A 
ATOM     35  C   UNL A   1      43.910  23.518  26.505  1.00  0.00    -0.014 A 
BRANCH  35  36
ATOM     36  C   UNL A   1      44.378  24.913  26.678  1.00  0.00     0.031 A 
ATOM     37  C   UNL A   1      43.400  25.959  27.136  1.00  0.00     0.074 A 
ATOM     38  C   UNL A   1      45.670  25.233  26.487  1.00  0.00     0.049 A 
ATOM     39  N   UNL A   1      43.618  27.211  27.448  1.00  0.00    -0.248 NA
ATOM     40  C   UNL A   1      41.996  25.538  27.265  1.00  0.00     0.031 C 
ATOM     41  C   UNL A   1      46.719  24.308  26.062  1.00  0.00     0.029 A 
ATOM     42  N   UNL A   1      46.316  26.433  26.642  1.00  0.00    -0.354 N 
ATOM     43  C   UNL A   1      42.385  27.723  27.829  1.00  0.00     0.074 A 
ATOM     44  C   UNL A   1      41.418  26.656  27.680  1.00  0.00     0.031 C 
ATOM     45  C   UNL A   1      47.884  24.977  25.991  1.00  0.00     0.029 A 
ATOM     46  C   UNL A   1      47.659  26.373  26.363  1.00  0.00     0.049 A 
ATOM     47  H   UNL A   1      45.861  27.258  26.926  1.00  0.00     0.167 HD
ATOM     48  C   UNL A   1      42.082  28.965  28.273  1.00  0.00     0.031 A 
ATOM     49  C   UNL A   1      48.601  27.334  26.409  1.00  0.00     0.031 A 
ATOM     50  C   UNL A   1      43.028  30.038  28.402  1.00  0.00     0.049 A 
ATOM     51  C   UNL A   1      48.234  28.722  26.856  1.00  0.00     0.074 A 
ATOM     52  C   UNL A   1      42.812  31.330  28.849  1.00  0.00     0.029 A 
ATOM     53  N   UNL A   1      44.370  29.947  28.070  1.00  0.00    -0.354 N 
ATOM     54  N   UNL A   1      47.069  29.176  27.251  1.00  0.00    -0.248 NA
ATOM     55  C   UNL A   1      49.312  29.721  26.872  1.00  0.00     0.031 C 
ATOM     56  C   UNL A   1      44.022  32.031  28.760  1.00  0.00     0.029 A 
ATOM     57  C   UNL A   1      44.993  31.164  28.283  1.00  0.00     0.049 A 
ATOM     58  H   UNL A   1      44.815  29.136  27.733  1.00  0.00     0.167 HD
ATOM     59  C   UNL A   1      47.277  30.513  27.576  1.00  0.00     0.074 A 
ATOM     60  C   UNL A   1      48.679  30.790  27.340  1.00  0.00     0.031 C 
ATOM     61  C   UNL A   1      46.386  31.426  28.034  1.00  0.00     0.031 A 
BRANCH  48  62
ATOM     62  C   UNL A   1      40.648  29.222  28.637  1.00  0.00    -0.014 A 
ATOM     63  C   UNL A   1      39.685  29.444  27.637  1.00  0.00     0.010 A 
ATOM     64  C   UNL A   1      40.261  29.245  29.988  1.00  0.00     0.010 A 
ATOM     65  C   UNL A   1      38.362  29.725  27.984  1.00  0.00     0.020 A 
ATOM     66  C   UNL A   1      38.936  29.513  30.338  1.00  0.00     0.020 A 
ATOM     67  C   UNL A   1      37.998  29.771  29.334  1.00  0.00     0.054 A 
BRANCH  67  68
ATOM     68  S   UNL A   1      36.278  30.144  29.771  1.00  0.00     0.124 S 
ATOM     69  O   UNL A   1      35.558  29.648  28.599  1.00  0.00    -0.237 OA
ATOM     70  O   UNL A   1      36.078  29.380  31.000  1.00  0.00    -0.237 OA
ATOM     71  O   UNL A   1      36.274  31.596  29.937  1.00  0.00    -0.744 OA
ENDBRANCH  67  68
ENDBRANCH  48  62
BRANCH  49  72
ATOM     72  C   UNL A   1      49.997  27.012  26.016  1.00  0.00    -0.014 A 
ATOM     73  C   UNL A   1      50.879  26.420  26.935  1.00  0.00     0.010 A 
ATOM     74  C   UNL A   1      50.439  27.287  24.710  1.00  0.00     0.010 A 
ATOM     75  C   UNL A   1      52.188  26.110  26.554  1.00  0.00     0.020 A 
ATOM     76  C   UNL A   1      51.741  26.966  24.324  1.00  0.00     0.020 A 
ATOM     77  C   UNL A   1      52.611  26.386  25.250  1.00  0.00     0.054 A 
BRANCH  77  78
ATOM     78  S   UNL A   1      54.288  25.915  24.740  1.00  0.00     0.124 S 
ATOM     79  O   UNL A   1      55.113  26.724  25.631  1.00  0.00    -0.237 OA
ATOM     80  O   UNL A   1      54.310  24.475  24.989  1.00  0.00    -0.237 OA
ATOM     81  O   UNL A   1      54.325  26.293  23.329  1.00  0.00    -0.744 OA
ENDBRANCH  77  78
ENDBRANCH  49  72
BRANCH  61  82
ATOM     82  C   UNL A   1      46.903  32.807  28.317  1.00  0.00    -0.014 A 
ATOM     83  C   UNL A   1      47.490  33.115  29.558  1.00  0.00     0.010 A 
ATOM     84  C   UNL A   1      46.846  33.795  27.317  1.00  0.00     0.010 A 
ATOM     85  C   UNL A   1      47.991  34.395  29.802  1.00  0.00     0.020 A 
ATOM     86  C   UNL A   1      47.358  35.072  27.555  1.00  0.00     0.020 A 
ATOM     87  C   UNL A   1      47.916  35.369  28.802  1.00  0.00     0.054 A 
BRANCH  87  88
ATOM     88  S   UNL A   1      48.610  37.017  29.115  1.00  0.00     0.124 S 
ATOM     89  O   UNL A   1      49.941  36.693  29.618  1.00  0.00    -0.237 OA
ATOM     90  O   UNL A   1      48.571  37.645  27.797  1.00  0.00    -0.237 OA
ATOM     91  O   UNL A   1      47.692  37.590  30.097  1.00  0.00    -0.744 OA
ENDBRANCH  87  88
ENDBRANCH  61  82
ENDBRANCH  35  36
ENDBRANCH  28  30
ENDBRANCH  27  28
ENDBRANCH  26  27
ENDBRANCH  25  26
ENDBRANCH   1  25
TORSDOF 20
ENDMDL
MODEL 3
REMARK VINA RESULT:      -9.2      4.951     10.921
REMARK SMILES O=C(Cc1ccc(F)cc1F)Nc1sccc1C(=O)OCCOCCOC(=O)c1ccc(-c2c3nc(c(-c4ccc(S(=O)(=O)[O-])cc4)c4ccc([nH]4)c(-c4ccc(S(=O)(=O)[O-])cc4)c4nc(c(-c5ccc(S(=O)(=O)[O-])cc5)c5ccc2[nH]5)C=C4)C=C3)cc1
REMARK SMILES IDX 23 1 22 2 21 3 20 4 18 5 19 6 17 7 13 8 14 9 15 10 16 11
REMARK SMILES IDX 12 12 1 13 2 14 3 16 4 17 5 18 10 19 6 20 9 21 11 22 7 23
REMARK SMILES IDX 8 24 24 25 25 26 26 27 27 28 28 29 29 30 30 31 88 32 31 33
REMARK SMILES IDX 87 34 32 35 33 36 34 37 81 38 35 39 86 40 80 41 82 42 36 43
REMARK SMILES IDX 85 44 79 45 78 46 37 48 67 49 48 50 66 51 49 52 52 53 65 54
REMARK SMILES IDX 83 55 50 56 51 57 64 59 84 60 53 61 38 62 39 63 47 64 40 65
REMARK SMILES IDX 46 66 41 67 42 68 43 69 44 70 45 71 68 72 69 73 77 74 70 75
REMARK SMILES IDX 76 76 71 77 72 78 73 79 74 80 75 81 54 82 55 83 63 84 56 85
REMARK SMILES IDX 62 86 57 87 58 88 59 89 60 90 61 91
REMARK H PARENT 12 15 82 47 52 58
REMARK Flexibility Score: inf
ROOT
ATOM      1  O   UNL A   1      37.319  23.654  24.885  1.00  0.00    -0.374 OA
ENDROOT
BRANCH   1   2
ATOM      2  C   UNL A   1      35.964  23.983  25.222  1.00  0.00     0.202 C 
BRANCH   2   3
ATOM      3  C   UNL A   1      35.030  23.890  24.014  1.00  0.00     0.261 C 
BRANCH   3   4
ATOM      4  O   UNL A   1      33.742  24.369  24.425  1.00  0.00    -0.460 OA
BRANCH   4   5
ATOM      5  C   UNL A   1      33.267  25.490  23.818  1.00  0.00     0.341 C 
ATOM      6  O   UNL A   1      32.764  25.520  22.700  1.00  0.00    -0.246 OA
BRANCH   5   7
ATOM      7  C   UNL A   1      33.175  26.609  24.754  1.00  0.00     0.094 A 
ATOM      8  C   UNL A   1      32.498  27.802  24.577  1.00  0.00     0.110 A 
ATOM      9  S   UNL A   1      32.921  28.984  25.732  1.00  0.00    -0.126 S 
ATOM     10  C   UNL A   1      33.869  27.871  26.613  1.00  0.00     0.068 A 
ATOM     11  C   UNL A   1      33.919  26.645  25.990  1.00  0.00     0.029 A 
BRANCH   8  12
ATOM     12  N   UNL A   1      31.570  28.278  23.677  1.00  0.00    -0.317 N 
ATOM     13  O   UNL A   1      29.723  27.121  24.481  1.00  0.00    -0.274 OA
ATOM     14  C   UNL A   1      30.252  27.859  23.652  1.00  0.00     0.229 C 
ATOM     15  H   UNL A   1      31.859  28.948  23.018  1.00  0.00     0.170 HD
BRANCH  14  16
ATOM     16  C   UNL A   1      29.459  28.457  22.505  1.00  0.00     0.139 C 
BRANCH  16  17
ATOM     17  C   UNL A   1      29.175  29.921  22.710  1.00  0.00    -0.003 A 
ATOM     18  C   UNL A   1      29.676  30.599  23.830  1.00  0.00     0.010 A 
ATOM     19  C   UNL A   1      28.438  30.641  21.763  1.00  0.00     0.129 A 
ATOM     20  C   UNL A   1      29.424  31.963  23.994  1.00  0.00     0.040 A 
ATOM     21  C   UNL A   1      28.176  31.996  21.922  1.00  0.00     0.078 A 
ATOM     22  F   UNL A   1      28.001  30.020  20.657  1.00  0.00    -0.207 F 
ATOM     23  C   UNL A   1      28.674  32.646  23.041  1.00  0.00     0.126 A 
ATOM     24  F   UNL A   1      28.444  33.957  23.197  1.00  0.00    -0.207 F 
ENDBRANCH  16  17
ENDBRANCH  14  16
ENDBRANCH   8  12
ENDBRANCH   5   7
ENDBRANCH   4   5
ENDBRANCH   3   4
ENDBRANCH   2   3
ENDBRANCH   1   2
BRANCH   1  25
ATOM     25  C   UNL A   1      37.841  22.477  25.503  1.00  0.00     0.202 C 
BRANCH  25  26
ATOM     26  C   UNL A   1      39.079  22.751  26.360  1.00  0.00     0.261 C 
BRANCH  26  27
ATOM     27  O   UNL A   1      39.339  24.165  26.427  1.00  0.00    -0.460 OA
BRANCH  27  28
ATOM     28  C   UNL A   1      40.547  24.505  26.936  1.00  0.00     0.338 C 
ATOM     29  O   UNL A   1      41.631  24.047  26.614  1.00  0.00    -0.246 OA
BRANCH  28  30
ATOM     30  C   UNL A   1      40.399  25.632  27.886  1.00  0.00     0.060 A 
ATOM     31  C   UNL A   1      41.448  26.558  27.954  1.00  0.00     0.016 A 
ATOM     32  C   UNL A   1      39.285  25.773  28.723  1.00  0.00     0.016 A 
ATOM     33  C   UNL A   1      41.405  27.596  28.882  1.00  0.00     0.010 A 
ATOM     34  C   UNL A   1      39.246  26.812  29.659  1.00  0.00     0.010 A 
ATOM     35  C   UNL A   1      40.321  27.709  29.762  1.00  0.00    -0.014 A 
BRANCH  35  36
ATOM     36  C   UNL A   1      40.394  28.694  30.866  1.00  0.00     0.031 A 
ATOM     37  C   UNL A   1      39.437  29.853  30.875  1.00  0.00     0.074 A 
ATOM     38  C   UNL A   1      41.263  28.528  31.879  1.00  0.00     0.049 A 
ATOM     39  N   UNL A   1      39.261  30.770  31.792  1.00  0.00    -0.248 NA
ATOM     40  C   UNL A   1      38.560  29.993  29.702  1.00  0.00     0.031 C 
ATOM     41  C   UNL A   1      42.230  27.437  31.997  1.00  0.00     0.029 A 
ATOM     42  N   UNL A   1      41.458  29.279  33.009  1.00  0.00    -0.354 N 
ATOM     43  C   UNL A   1      38.241  31.585  31.317  1.00  0.00     0.074 A 
ATOM     44  C   UNL A   1      37.859  31.073  30.018  1.00  0.00     0.031 C 
ATOM     45  C   UNL A   1      42.917  27.589  33.143  1.00  0.00     0.029 A 
ATOM     46  C   UNL A   1      42.439  28.787  33.833  1.00  0.00     0.049 A 
ATOM     47  H   UNL A   1      40.943  30.093  33.212  1.00  0.00     0.167 HD
ATOM     48  C   UNL A   1      37.665  32.656  31.910  1.00  0.00     0.031 A 
ATOM     49  C   UNL A   1      42.897  29.246  35.014  1.00  0.00     0.031 A 
ATOM     50  C   UNL A   1      38.052  33.188  33.187  1.00  0.00     0.049 A 
ATOM     51  C   UNL A   1      42.278  30.469  35.632  1.00  0.00     0.074 A 
ATOM     52  C   UNL A   1      37.521  34.268  33.869  1.00  0.00     0.029 A 
ATOM     53  N   UNL A   1      39.078  32.684  33.970  1.00  0.00    -0.354 N 
ATOM     54  N   UNL A   1      41.287  31.203  35.185  1.00  0.00    -0.248 NA
ATOM     55  C   UNL A   1      42.835  30.918  36.916  1.00  0.00     0.031 C 
ATOM     56  C   UNL A   1      38.247  34.436  35.055  1.00  0.00     0.029 A 
ATOM     57  C   UNL A   1      39.211  33.442  35.120  1.00  0.00     0.049 A 
ATOM     58  H   UNL A   1      39.632  31.902  33.742  1.00  0.00     0.167 HD
ATOM     59  C   UNL A   1      41.091  32.193  36.143  1.00  0.00     0.074 A 
ATOM     60  C   UNL A   1      42.061  31.960  37.194  1.00  0.00     0.031 C 
ATOM     61  C   UNL A   1      40.186  33.202  36.151  1.00  0.00     0.031 A 
BRANCH  48  62
ATOM     62  C   UNL A   1      36.556  33.331  31.156  1.00  0.00    -0.014 A 
ATOM     63  C   UNL A   1      36.802  33.939  29.913  1.00  0.00     0.010 A 
ATOM     64  C   UNL A   1      35.258  33.361  31.695  1.00  0.00     0.010 A 
ATOM     65  C   UNL A   1      35.775  34.602  29.237  1.00  0.00     0.020 A 
ATOM     66  C   UNL A   1      34.226  34.011  31.016  1.00  0.00     0.020 A 
ATOM     67  C   UNL A   1      34.496  34.645  29.800  1.00  0.00     0.054 A 
BRANCH  67  68
ATOM     68  S   UNL A   1      33.173  35.516  28.916  1.00  0.00     0.124 S 
ATOM     69  O   UNL A   1      33.934  36.439  28.075  1.00  0.00    -0.237 OA
ATOM     70  O   UNL A   1      32.489  34.439  28.205  1.00  0.00    -0.237 OA
ATOM     71  O   UNL A   1      32.399  36.141  29.986  1.00  0.00    -0.744 OA
ENDBRANCH  67  68
ENDBRANCH  48  62
BRANCH  49  72
ATOM     72  C   UNL A   1      44.011  28.538  35.694  1.00  0.00    -0.014 A 
ATOM     73  C   UNL A   1      45.346  28.904  35.450  1.00  0.00     0.010 A 
ATOM     74  C   UNL A   1      43.733  27.503  36.603  1.00  0.00     0.010 A 
ATOM     75  C   UNL A   1      46.388  28.241  36.103  1.00  0.00     0.020 A 
ATOM     76  C   UNL A   1      44.772  26.848  37.267  1.00  0.00     0.020 A 
ATOM     77  C   UNL A   1      46.094  27.215  37.007  1.00  0.00     0.054 A 
BRANCH  77  78
ATOM     78  S   UNL A   1      47.448  26.407  37.906  1.00  0.00     0.124 S 
ATOM     79  O   UNL A   1      47.541  25.122  37.221  1.00  0.00    -0.237 OA
ATOM     80  O   UNL A   1      48.569  27.321  37.694  1.00  0.00    -0.237 OA
ATOM     81  O   UNL A   1      46.951  26.355  39.279  1.00  0.00    -0.744 OA
ENDBRANCH  77  78
ENDBRANCH  49  72
BRANCH  61  82
ATOM     82  C   UNL A   1      40.197  34.124  37.336  1.00  0.00    -0.014 A 
ATOM     83  C   UNL A   1      41.013  35.270  37.348  1.00  0.00     0.010 A 
ATOM     84  C   UNL A   1      39.347  33.871  38.428  1.00  0.00     0.010 A 
ATOM     85  C   UNL A   1      40.996  36.134  38.445  1.00  0.00     0.020 A 
ATOM     86  C   UNL A   1      39.320  34.741  39.520  1.00  0.00     0.020 A 
ATOM     87  C   UNL A   1      40.155  35.862  39.527  1.00  0.00     0.054 A 
BRANCH  87  88
ATOM     88  S   UNL A   1      40.110  37.016  40.927  1.00  0.00     0.124 S 
ATOM     89  O   UNL A   1      40.246  36.114  42.067  1.00  0.00    -0.237 OA
ATOM     90  O   UNL A   1      41.258  37.884  40.673  1.00  0.00    -0.237 OA
ATOM     91  O   UNL A   1      38.807  37.664  40.793  1.00  0.00    -0.744 OA
ENDBRANCH  87  88
ENDBRANCH  61  82
ENDBRANCH  35  36
ENDBRANCH  28  30
ENDBRANCH  27  28
ENDBRANCH  26  27
ENDBRANCH  25  26
ENDBRANCH   1  25
TORSDOF 20
ENDMDL
