MODEL 1
REMARK VINA RESULT:      -9.4      0.000      0.000
REMARK SMILES Cc1cc(O[C@@H](C)C(=O)OCCOCCOC(=O)c2ccc(-c3c4nc(c(-c5ccc(S(=O)(=O)[O-])cc5)c5ccc([nH]5)c(-c5ccc(S(=O)(=O)[O-])cc5)c5nc(c(-c6ccc(S(=O)(=O)[O-])cc6)c6ccc3[nH]6)C=C5)C=C4)cc2)n(C)n1
REMARK SMILES IDX 14 1 13 2 12 3 11 4 10 5 8 6 9 7 6 8 7 9 5 10 4 11 1 12 2 13
REMARK SMILES IDX 3 14 81 15 79 16 80 17 15 18 16 19 17 20 18 21 19 22 20 23
REMARK SMILES IDX 78 24 21 25 77 26 22 27 23 28 24 29 71 30 25 31 76 32 70 33
REMARK SMILES IDX 72 34 26 35 75 36 69 37 68 38 27 40 57 41 38 42 56 43 39 44
REMARK SMILES IDX 42 45 55 46 73 47 40 48 41 49 54 51 74 52 43 53 28 54 29 55
REMARK SMILES IDX 37 56 30 57 36 58 31 59 32 60 33 61 34 62 35 63 58 64 59 65
REMARK SMILES IDX 67 66 60 67 66 68 61 69 62 70 63 71 64 72 65 73 44 74 45 75
REMARK SMILES IDX 53 76 46 77 52 78 47 79 48 80 49 81 50 82 51 83
REMARK H PARENT 72 39 42 50
REMARK Flexibility Score: inf
ROOT
ATOM      1  C   UNL A   1      39.864  21.804  26.692  1.00  0.00     0.202 C 
ENDROOT
BRANCH   1   2
ATOM      2  O   UNL A   1      38.978  21.612  25.589  1.00  0.00    -0.374 OA
BRANCH   2   3
ATOM      3  C   UNL A   1      37.632  22.066  25.752  1.00  0.00     0.202 C 
BRANCH   3   4
ATOM      4  C   UNL A   1      36.780  22.004  24.483  1.00  0.00     0.261 C 
BRANCH   4   5
ATOM      5  O   UNL A   1      35.397  21.882  24.858  1.00  0.00    -0.461 OA
BRANCH   5   6
ATOM      6  C   UNL A   1      34.479  22.404  24.011  1.00  0.00     0.347 C 
ATOM      7  O   UNL A   1      34.743  23.087  23.026  1.00  0.00    -0.248 OA
BRANCH   6   8
ATOM      8  C   UNL A   1      33.040  21.997  24.384  1.00  0.00     0.281 C 
ATOM      9  C   UNL A   1      32.693  20.633  23.798  1.00  0.00     0.066 C 
BRANCH   8  10
ATOM     10  O   UNL A   1      31.952  22.914  24.333  1.00  0.00    -0.463 OA
BRANCH  10  11
ATOM     11  C   UNL A   1      31.948  24.012  25.096  1.00  0.00     0.212 A 
ATOM     12  C   UNL A   1      32.501  27.314  26.623  1.00  0.00     0.069 C 
ATOM     13  C   UNL A   1      32.133  25.942  26.197  1.00  0.00     0.063 A 
ATOM     14  C   UNL A   1      32.572  25.241  25.051  1.00  0.00     0.093 A 
ATOM     15  N   UNL A   1      31.279  25.212  26.921  1.00  0.00    -0.175 NA
ATOM     16  N   UNL A   1      31.183  24.054  26.239  1.00  0.00    -0.237 N 
ATOM     17  C   UNL A   1      30.296  23.034  26.743  1.00  0.00     0.178 C 
ENDBRANCH  10  11
ENDBRANCH   8  10
ENDBRANCH   6   8
ENDBRANCH   5   6
ENDBRANCH   4   5
ENDBRANCH   3   4
ENDBRANCH   2   3
ENDBRANCH   1   2
BRANCH   1  18
ATOM     18  C   UNL A   1      40.877  22.946  26.553  1.00  0.00     0.261 C 
BRANCH  18  19
ATOM     19  O   UNL A   1      40.244  24.227  26.400  1.00  0.00    -0.460 OA
BRANCH  19  20
ATOM     20  C   UNL A   1      41.097  25.269  26.260  1.00  0.00     0.338 C 
ATOM     21  O   UNL A   1      41.672  25.614  25.233  1.00  0.00    -0.246 OA
BRANCH  20  22
ATOM     22  C   UNL A   1      41.136  26.076  27.492  1.00  0.00     0.060 A 
ATOM     23  C   UNL A   1      40.062  25.952  28.383  1.00  0.00     0.016 A 
ATOM     24  C   UNL A   1      42.154  26.999  27.739  1.00  0.00     0.016 A 
ATOM     25  C   UNL A   1      39.979  26.779  29.502  1.00  0.00     0.010 A 
ATOM     26  C   UNL A   1      42.060  27.838  28.855  1.00  0.00     0.010 A 
ATOM     27  C   UNL A   1      40.960  27.754  29.727  1.00  0.00    -0.014 A 
BRANCH  27  28
ATOM     28  C   UNL A   1      40.763  28.764  30.798  1.00  0.00     0.031 A 
ATOM     29  C   UNL A   1      41.609  28.683  32.041  1.00  0.00     0.074 A 
ATOM     30  C   UNL A   1      39.858  29.750  30.660  1.00  0.00     0.049 A 
ATOM     31  N   UNL A   1      41.590  29.446  33.104  1.00  0.00    -0.248 NA
ATOM     32  C   UNL A   1      42.607  27.601  32.096  1.00  0.00     0.031 C 
ATOM     33  C   UNL A   1      38.994  29.952  29.496  1.00  0.00     0.029 A 
ATOM     34  N   UNL A   1      39.510  30.766  31.515  1.00  0.00    -0.354 N 
ATOM     35  C   UNL A   1      42.554  28.926  33.960  1.00  0.00     0.074 A 
ATOM     36  C   UNL A   1      43.131  27.775  33.302  1.00  0.00     0.031 C 
ATOM     37  C   UNL A   1      38.205  31.019  29.719  1.00  0.00     0.029 A 
ATOM     38  C   UNL A   1      38.488  31.558  31.047  1.00  0.00     0.049 A 
ATOM     39  H   UNL A   1      39.951  30.914  32.383  1.00  0.00     0.167 HD
ATOM     40  C   UNL A   1      42.930  29.370  35.183  1.00  0.00     0.031 A 
ATOM     41  C   UNL A   1      37.839  32.585  31.631  1.00  0.00     0.031 A 
ATOM     42  C   UNL A   1      42.366  30.521  35.835  1.00  0.00     0.049 A 
ATOM     43  C   UNL A   1      38.254  33.037  33.009  1.00  0.00     0.074 A 
ATOM     44  C   UNL A   1      42.716  31.073  37.055  1.00  0.00     0.029 A 
ATOM     45  N   UNL A   1      41.332  31.292  35.329  1.00  0.00    -0.354 N 
ATOM     46  N   UNL A   1      39.208  32.569  33.778  1.00  0.00    -0.248 NA
ATOM     47  C   UNL A   1      37.511  34.166  33.592  1.00  0.00     0.031 C 
ATOM     48  C   UNL A   1      41.857  32.145  37.313  1.00  0.00     0.029 A 
ATOM     49  C   UNL A   1      41.011  32.296  36.226  1.00  0.00     0.049 A 
ATOM     50  H   UNL A   1      40.891  31.147  34.461  1.00  0.00     0.167 HD
ATOM     51  C   UNL A   1      39.196  33.362  34.922  1.00  0.00     0.074 A 
ATOM     52  C   UNL A   1      38.153  34.349  34.738  1.00  0.00     0.031 C 
ATOM     53  C   UNL A   1      39.979  33.280  36.026  1.00  0.00     0.031 A 
BRANCH  40  54
ATOM     54  C   UNL A   1      43.989  28.596  35.919  1.00  0.00    -0.014 A 
ATOM     55  C   UNL A   1      45.346  28.953  35.833  1.00  0.00     0.010 A 
ATOM     56  C   UNL A   1      43.606  27.548  36.777  1.00  0.00     0.010 A 
ATOM     57  C   UNL A   1      46.305  28.263  36.581  1.00  0.00     0.020 A 
ATOM     58  C   UNL A   1      44.560  26.871  37.542  1.00  0.00     0.020 A 
ATOM     59  C   UNL A   1      45.905  27.229  37.433  1.00  0.00     0.054 A 
BRANCH  59  60
ATOM     60  S   UNL A   1      47.163  26.394  38.438  1.00  0.00     0.124 S 
ATOM     61  O   UNL A   1      46.876  24.986  38.173  1.00  0.00    -0.237 OA
ATOM     62  O   UNL A   1      48.411  26.897  37.872  1.00  0.00    -0.237 OA
ATOM     63  O   UNL A   1      46.874  26.842  39.798  1.00  0.00    -0.744 OA
ENDBRANCH  59  60
ENDBRANCH  40  54
BRANCH  41  64
ATOM     64  C   UNL A   1      36.698  33.244  30.937  1.00  0.00    -0.014 A 
ATOM     65  C   UNL A   1      36.913  34.113  29.853  1.00  0.00     0.010 A 
ATOM     66  C   UNL A   1      35.384  33.027  31.389  1.00  0.00     0.010 A 
ATOM     67  C   UNL A   1      35.837  34.780  29.256  1.00  0.00     0.020 A 
ATOM     68  C   UNL A   1      34.304  33.669  30.777  1.00  0.00     0.020 A 
ATOM     69  C   UNL A   1      34.540  34.556  29.724  1.00  0.00     0.054 A 
BRANCH  69  70
ATOM     70  S   UNL A   1      33.154  35.412  28.925  1.00  0.00     0.124 S 
ATOM     71  O   UNL A   1      32.414  35.928  30.071  1.00  0.00    -0.237 OA
ATOM     72  O   UNL A   1      33.832  36.414  28.104  1.00  0.00    -0.237 OA
ATOM     73  O   UNL A   1      32.488  34.351  28.173  1.00  0.00    -0.744 OA
ENDBRANCH  69  70
ENDBRANCH  41  64
BRANCH  53  74
ATOM     74  C   UNL A   1      39.774  34.307  37.108  1.00  0.00    -0.014 A 
ATOM     75  C   UNL A   1      38.902  34.071  38.185  1.00  0.00     0.010 A 
ATOM     76  C   UNL A   1      40.516  35.503  37.075  1.00  0.00     0.010 A 
ATOM     77  C   UNL A   1      38.756  35.024  39.197  1.00  0.00     0.020 A 
ATOM     78  C   UNL A   1      40.391  36.446  38.098  1.00  0.00     0.020 A 
ATOM     79  C   UNL A   1      39.501  36.207  39.146  1.00  0.00     0.054 A 
BRANCH  79  80
ATOM     80  S   UNL A   1      39.327  37.409  40.494  1.00  0.00     0.124 S 
ATOM     81  O   UNL A   1      40.641  38.047  40.503  1.00  0.00    -0.237 OA
ATOM     82  O   UNL A   1      38.224  38.250  40.035  1.00  0.00    -0.237 OA
ATOM     83  O   UNL A   1      39.028  36.582  41.660  1.00  0.00    -0.744 OA
ENDBRANCH  79  80
ENDBRANCH  53  74
ENDBRANCH  27  28
ENDBRANCH  20  22
ENDBRANCH  19  20
ENDBRANCH  18  19
ENDBRANCH   1  18
TORSDOF 19
ENDMDL
MODEL 2
REMARK VINA RESULT:      -9.3      1.498      2.440
REMARK SMILES Cc1cc(O[C@@H](C)C(=O)OCCOCCOC(=O)c2ccc(-c3c4nc(c(-c5ccc(S(=O)(=O)[O-])cc5)c5ccc([nH]5)c(-c5ccc(S(=O)(=O)[O-])cc5)c5nc(c(-c6ccc(S(=O)(=O)[O-])cc6)c6ccc3[nH]6)C=C5)C=C4)cc2)n(C)n1
REMARK SMILES IDX 14 1 13 2 12 3 11 4 10 5 8 6 9 7 6 8 7 9 5 10 4 11 1 12 2 13
REMARK SMILES IDX 3 14 81 15 79 16 80 17 15 18 16 19 17 20 18 21 19 22 20 23
REMARK SMILES IDX 78 24 21 25 77 26 22 27 23 28 24 29 71 30 25 31 76 32 70 33
REMARK SMILES IDX 72 34 26 35 75 36 69 37 68 38 27 40 57 41 38 42 56 43 39 44
REMARK SMILES IDX 42 45 55 46 73 47 40 48 41 49 54 51 74 52 43 53 28 54 29 55
REMARK SMILES IDX 37 56 30 57 36 58 31 59 32 60 33 61 34 62 35 63 58 64 59 65
REMARK SMILES IDX 67 66 60 67 66 68 61 69 62 70 63 71 64 72 65 73 44 74 45 75
REMARK SMILES IDX 53 76 46 77 52 78 47 79 48 80 49 81 50 82 51 83
REMARK H PARENT 72 39 42 50
REMARK Flexibility Score: inf
ROOT
ATOM      1  C   UNL A   1      40.220  22.520  26.839  1.00  0.00     0.202 C 
ENDROOT
BRANCH   1   2
ATOM      2  O   UNL A   1      39.387  21.720  25.999  1.00  0.00    -0.374 OA
BRANCH   2   3
ATOM      3  C   UNL A   1      38.062  22.201  25.754  1.00  0.00     0.202 C 
BRANCH   3   4
ATOM      4  C   UNL A   1      37.094  21.151  25.206  1.00  0.00     0.261 C 
BRANCH   4   5
ATOM      5  O   UNL A   1      35.832  21.286  25.880  1.00  0.00    -0.461 OA
BRANCH   5   6
ATOM      6  C   UNL A   1      34.815  21.845  25.182  1.00  0.00     0.347 C 
ATOM      7  O   UNL A   1      34.909  22.285  24.040  1.00  0.00    -0.248 OA
BRANCH   6   8
ATOM      8  C   UNL A   1      33.485  21.818  25.962  1.00  0.00     0.281 C 
ATOM      9  C   UNL A   1      33.737  21.633  27.455  1.00  0.00     0.066 C 
BRANCH   8  10
ATOM     10  O   UNL A   1      32.346  21.102  25.499  1.00  0.00    -0.463 OA
BRANCH  10  11
ATOM     11  C   UNL A   1      32.467  19.858  25.027  1.00  0.00     0.212 A 
ATOM     12  C   UNL A   1      32.963  16.244  24.541  1.00  0.00     0.069 C 
ATOM     13  C   UNL A   1      32.735  17.708  24.497  1.00  0.00     0.063 A 
ATOM     14  C   UNL A   1      32.728  18.620  25.576  1.00  0.00     0.093 A 
ATOM     15  N   UNL A   1      32.488  18.322  23.336  1.00  0.00    -0.175 NA
ATOM     16  N   UNL A   1      32.330  19.615  23.679  1.00  0.00    -0.237 N 
ATOM     17  C   UNL A   1      32.012  20.565  22.642  1.00  0.00     0.178 C 
ENDBRANCH  10  11
ENDBRANCH   8  10
ENDBRANCH   6   8
ENDBRANCH   5   6
ENDBRANCH   4   5
ENDBRANCH   3   4
ENDBRANCH   2   3
ENDBRANCH   1   2
BRANCH   1  18
ATOM     18  C   UNL A   1      41.675  22.684  26.384  1.00  0.00     0.261 C 
BRANCH  18  19
ATOM     19  O   UNL A   1      42.114  24.052  26.429  1.00  0.00    -0.460 OA
BRANCH  19  20
ATOM     20  C   UNL A   1      41.117  24.969  26.413  1.00  0.00     0.338 C 
ATOM     21  O   UNL A   1      40.213  25.056  25.591  1.00  0.00    -0.246 OA
BRANCH  20  22
ATOM     22  C   UNL A   1      41.146  25.787  27.638  1.00  0.00     0.060 A 
ATOM     23  C   UNL A   1      40.000  25.789  28.444  1.00  0.00     0.016 A 
ATOM     24  C   UNL A   1      42.234  26.603  27.957  1.00  0.00     0.016 A 
ATOM     25  C   UNL A   1      39.919  26.638  29.547  1.00  0.00     0.010 A 
ATOM     26  C   UNL A   1      42.142  27.465  29.056  1.00  0.00     0.010 A 
ATOM     27  C   UNL A   1      40.976  27.509  29.840  1.00  0.00    -0.014 A 
BRANCH  27  28
ATOM     28  C   UNL A   1      40.805  28.550  30.885  1.00  0.00     0.031 A 
ATOM     29  C   UNL A   1      41.676  28.504  32.112  1.00  0.00     0.074 A 
ATOM     30  C   UNL A   1      39.900  29.535  30.737  1.00  0.00     0.049 A 
ATOM     31  N   UNL A   1      41.681  29.297  33.152  1.00  0.00    -0.248 NA
ATOM     32  C   UNL A   1      42.671  27.420  32.178  1.00  0.00     0.031 C 
ATOM     33  C   UNL A   1      39.013  29.707  29.586  1.00  0.00     0.029 A 
ATOM     34  N   UNL A   1      39.572  30.578  31.569  1.00  0.00    -0.354 N 
ATOM     35  C   UNL A   1      42.662  28.799  34.003  1.00  0.00     0.074 A 
ATOM     36  C   UNL A   1      43.221  27.628  33.367  1.00  0.00     0.031 C 
ATOM     37  C   UNL A   1      38.231  30.782  29.793  1.00  0.00     0.029 A 
ATOM     38  C   UNL A   1      38.544  31.359  31.099  1.00  0.00     0.049 A 
ATOM     39  H   UNL A   1      40.032  30.750  32.422  1.00  0.00     0.167 HD
ATOM     40  C   UNL A   1      43.064  29.278  35.204  1.00  0.00     0.031 A 
ATOM     41  C   UNL A   1      37.910  32.406  31.665  1.00  0.00     0.031 A 
ATOM     42  C   UNL A   1      42.517  30.449  35.834  1.00  0.00     0.049 A 
ATOM     43  C   UNL A   1      38.355  32.897  33.021  1.00  0.00     0.074 A 
ATOM     44  C   UNL A   1      42.894  31.035  37.030  1.00  0.00     0.029 A 
ATOM     45  N   UNL A   1      41.475  31.209  35.327  1.00  0.00    -0.354 N 
ATOM     46  N   UNL A   1      39.323  32.447  33.783  1.00  0.00    -0.248 NA
ATOM     47  C   UNL A   1      37.628  34.045  33.585  1.00  0.00     0.031 C 
ATOM     48  C   UNL A   1      42.044  32.118  37.273  1.00  0.00     0.029 A 
ATOM     49  C   UNL A   1      41.176  32.240  36.200  1.00  0.00     0.049 A 
ATOM     50  H   UNL A   1      41.016  31.040  34.472  1.00  0.00     0.167 HD
ATOM     51  C   UNL A   1      39.337  33.274  34.903  1.00  0.00     0.074 A 
ATOM     52  C   UNL A   1      38.294  34.259  34.712  1.00  0.00     0.031 C 
ATOM     53  C   UNL A   1      40.143  33.221  35.992  1.00  0.00     0.031 A 
BRANCH  40  54
ATOM     54  C   UNL A   1      44.135  28.522  35.940  1.00  0.00    -0.014 A 
ATOM     55  C   UNL A   1      45.498  28.764  35.696  1.00  0.00     0.010 A 
ATOM     56  C   UNL A   1      43.769  27.616  36.953  1.00  0.00     0.010 A 
ATOM     57  C   UNL A   1      46.477  28.100  36.441  1.00  0.00     0.020 A 
ATOM     58  C   UNL A   1      44.744  26.968  37.715  1.00  0.00     0.020 A 
ATOM     59  C   UNL A   1      46.093  27.209  37.449  1.00  0.00     0.054 A 
BRANCH  59  60
ATOM     60  S   UNL A   1      47.384  26.410  38.442  1.00  0.00     0.124 S 
ATOM     61  O   UNL A   1      47.640  27.416  39.470  1.00  0.00    -0.237 OA
ATOM     62  O   UNL A   1      46.725  25.192  38.906  1.00  0.00    -0.237 OA
ATOM     63  O   UNL A   1      48.474  26.201  37.491  1.00  0.00    -0.744 OA
ENDBRANCH  59  60
ENDBRANCH  40  54
BRANCH  41  64
ATOM     64  C   UNL A   1      36.757  33.048  30.976  1.00  0.00    -0.014 A 
ATOM     65  C   UNL A   1      36.953  33.899  29.874  1.00  0.00     0.010 A 
ATOM     66  C   UNL A   1      35.449  32.833  31.449  1.00  0.00     0.010 A 
ATOM     67  C   UNL A   1      35.866  34.551  29.281  1.00  0.00     0.020 A 
ATOM     68  C   UNL A   1      34.358  33.460  30.841  1.00  0.00     0.020 A 
ATOM     69  C   UNL A   1      34.577  34.330  29.771  1.00  0.00     0.054 A 
BRANCH  69  70
ATOM     70  S   UNL A   1      33.176  35.167  28.976  1.00  0.00     0.124 S 
ATOM     71  O   UNL A   1      32.676  34.133  28.078  1.00  0.00    -0.237 OA
ATOM     72  O   UNL A   1      32.315  35.492  30.111  1.00  0.00    -0.237 OA
ATOM     73  O   UNL A   1      33.795  36.319  28.325  1.00  0.00    -0.744 OA
ENDBRANCH  69  70
ENDBRANCH  41  64
BRANCH  53  74
ATOM     74  C   UNL A   1      39.963  34.281  37.048  1.00  0.00    -0.014 A 
ATOM     75  C   UNL A   1      40.415  35.597  36.846  1.00  0.00     0.010 A 
ATOM     76  C   UNL A   1      39.274  33.966  38.234  1.00  0.00     0.010 A 
ATOM     77  C   UNL A   1      40.204  36.573  37.825  1.00  0.00     0.020 A 
ATOM     78  C   UNL A   1      39.039  34.945  39.202  1.00  0.00     0.020 A 
ATOM     79  C   UNL A   1      39.518  36.240  38.998  1.00  0.00     0.054 A 
BRANCH  79  80
ATOM     80  S   UNL A   1      39.218  37.534  40.233  1.00  0.00     0.124 S 
ATOM     81  O   UNL A   1      40.538  38.145  40.360  1.00  0.00    -0.237 OA
ATOM     82  O   UNL A   1      38.201  38.363  39.590  1.00  0.00    -0.237 OA
ATOM     83  O   UNL A   1      38.758  36.793  41.406  1.00  0.00    -0.744 OA
ENDBRANCH  79  80
ENDBRANCH  53  74
ENDBRANCH  27  28
ENDBRANCH  20  22
ENDBRANCH  19  20
ENDBRANCH  18  19
ENDBRANCH   1  18
TORSDOF 19
ENDMDL
MODEL 3
REMARK VINA RESULT:      -9.3      4.963     11.493
REMARK SMILES Cc1cc(O[C@@H](C)C(=O)OCCOCCOC(=O)c2ccc(-c3c4nc(c(-c5ccc(S(=O)(=O)[O-])cc5)c5ccc([nH]5)c(-c5ccc(S(=O)(=O)[O-])cc5)c5nc(c(-c6ccc(S(=O)(=O)[O-])cc6)c6ccc3[nH]6)C=C5)C=C4)cc2)n(C)n1
REMARK SMILES IDX 14 1 13 2 12 3 11 4 10 5 8 6 9 7 6 8 7 9 5 10 4 11 1 12 2 13
REMARK SMILES IDX 3 14 81 15 79 16 80 17 15 18 16 19 17 20 18 21 19 22 20 23
REMARK SMILES IDX 78 24 21 25 77 26 22 27 23 28 24 29 71 30 25 31 76 32 70 33
REMARK SMILES IDX 72 34 26 35 75 36 69 37 68 38 27 40 57 41 38 42 56 43 39 44
REMARK SMILES IDX 42 45 55 46 73 47 40 48 41 49 54 51 74 52 43 53 28 54 29 55
REMARK SMILES IDX 37 56 30 57 36 58 31 59 32 60 33 61 34 62 35 63 58 64 59 65
REMARK SMILES IDX 67 66 60 67 66 68 61 69 62 70 63 71 64 72 65 73 44 74 45 75
REMARK SMILES IDX 53 76 46 77 52 78 47 79 48 80 49 81 50 82 51 83
REMARK H PARENT 72 39 42 50
REMARK Flexibility Score: inf
ROOT
ATOM      1  C   UNL A   1      33.799  34.174  29.003  1.00  0.00     0.202 C 
ENDROOT
BRANCH   1   2
ATOM      2  O   UNL A   1      34.899  34.423  29.879  1.00  0.00    -0.374 OA
BRANCH   2   3
ATOM      3  C   UNL A   1      34.712  34.103  31.261  1.00  0.00     0.202 C 
BRANCH   3   4
ATOM      4  C   UNL A   1      35.876  33.346  31.903  1.00  0.00     0.261 C 
BRANCH   4   5
ATOM      5  O   UNL A   1      35.951  33.703  33.293  1.00  0.00    -0.461 OA
BRANCH   5   6
ATOM      6  C   UNL A   1      37.179  33.969  33.798  1.00  0.00     0.347 C 
ATOM      7  O   UNL A   1      37.763  35.042  33.688  1.00  0.00    -0.248 OA
BRANCH   6   8
ATOM      8  C   UNL A   1      37.756  32.780  34.592  1.00  0.00     0.281 C 
ATOM      9  C   UNL A   1      37.548  32.978  36.090  1.00  0.00     0.066 C 
BRANCH   8  10
ATOM     10  O   UNL A   1      39.015  32.196  34.280  1.00  0.00    -0.463 OA
BRANCH  10  11
ATOM     11  C   UNL A   1      39.098  30.926  33.872  1.00  0.00     0.212 A 
ATOM     12  C   UNL A   1      38.616  27.625  32.318  1.00  0.00     0.069 C 
ATOM     13  C   UNL A   1      38.999  28.853  33.056  1.00  0.00     0.063 A 
ATOM     14  C   UNL A   1      38.368  30.118  33.026  1.00  0.00     0.093 A 
ATOM     15  N   UNL A   1      40.064  28.856  33.863  1.00  0.00    -0.175 NA
ATOM     16  N   UNL A   1      40.105  30.114  34.343  1.00  0.00    -0.237 N 
ATOM     17  C   UNL A   1      41.177  30.472  35.238  1.00  0.00     0.178 C 
ENDBRANCH  10  11
ENDBRANCH   8  10
ENDBRANCH   6   8
ENDBRANCH   5   6
ENDBRANCH   4   5
ENDBRANCH   3   4
ENDBRANCH   2   3
ENDBRANCH   1   2
BRANCH   1  18
ATOM     18  C   UNL A   1      33.942  32.967  28.068  1.00  0.00     0.261 C 
BRANCH  18  19
ATOM     19  O   UNL A   1      34.338  31.775  28.765  1.00  0.00    -0.460 OA
BRANCH  19  20
ATOM     20  C   UNL A   1      34.512  30.688  27.978  1.00  0.00     0.338 C 
ATOM     21  O   UNL A   1      33.745  30.278  27.113  1.00  0.00    -0.246 OA
BRANCH  20  22
ATOM     22  C   UNL A   1      35.857  30.117  28.169  1.00  0.00     0.060 A 
ATOM     23  C   UNL A   1      36.180  29.630  29.442  1.00  0.00     0.016 A 
ATOM     24  C   UNL A   1      36.816  30.130  27.155  1.00  0.00     0.016 A 
ATOM     25  C   UNL A   1      37.474  29.194  29.720  1.00  0.00     0.010 A 
ATOM     26  C   UNL A   1      38.119  29.705  27.441  1.00  0.00     0.010 A 
ATOM     27  C   UNL A   1      38.464  29.262  28.730  1.00  0.00    -0.014 A 
BRANCH  27  28
ATOM     28  C   UNL A   1      39.880  28.992  29.085  1.00  0.00     0.031 A 
ATOM     29  C   UNL A   1      40.486  27.665  28.713  1.00  0.00     0.074 A 
ATOM     30  C   UNL A   1      40.624  29.922  29.713  1.00  0.00     0.049 A 
ATOM     31  N   UNL A   1      41.693  27.214  28.943  1.00  0.00    -0.248 NA
ATOM     32  C   UNL A   1      39.619  26.720  27.989  1.00  0.00     0.031 C 
ATOM     33  C   UNL A   1      40.164  31.254  30.105  1.00  0.00     0.029 A 
ATOM     34  N   UNL A   1      41.930  29.880  30.138  1.00  0.00    -0.354 N 
ATOM     35  C   UNL A   1      41.724  25.930  28.411  1.00  0.00     0.074 A 
ATOM     36  C   UNL A   1      40.413  25.666  27.861  1.00  0.00     0.031 C 
ATOM     37  C   UNL A   1      41.169  31.897  30.728  1.00  0.00     0.029 A 
ATOM     38  C   UNL A   1      42.332  31.016  30.800  1.00  0.00     0.049 A 
ATOM     39  H   UNL A   1      42.523  29.110  29.982  1.00  0.00     0.167 HD
ATOM     40  C   UNL A   1      42.753  25.050  28.380  1.00  0.00     0.031 A 
ATOM     41  C   UNL A   1      43.497  31.304  31.415  1.00  0.00     0.031 A 
ATOM     42  C   UNL A   1      44.061  25.315  28.917  1.00  0.00     0.049 A 
ATOM     43  C   UNL A   1      44.615  30.292  31.396  1.00  0.00     0.074 A 
ATOM     44  C   UNL A   1      45.179  24.500  28.890  1.00  0.00     0.029 A 
ATOM     45  N   UNL A   1      44.425  26.474  29.583  1.00  0.00    -0.354 N 
ATOM     46  N   UNL A   1      44.644  29.105  30.838  1.00  0.00    -0.248 NA
ATOM     47  C   UNL A   1      45.863  30.665  32.081  1.00  0.00     0.031 C 
ATOM     48  C   UNL A   1      46.206  25.144  29.587  1.00  0.00     0.029 A 
ATOM     49  C   UNL A   1      45.743  26.384  29.998  1.00  0.00     0.049 A 
ATOM     50  H   UNL A   1      43.835  27.246  29.738  1.00  0.00     0.167 HD
ATOM     51  C   UNL A   1      45.919  28.603  31.082  1.00  0.00     0.074 A 
ATOM     52  C   UNL A   1      46.637  29.619  31.822  1.00  0.00     0.031 C 
ATOM     53  C   UNL A   1      46.449  27.407  30.724  1.00  0.00     0.031 A 
BRANCH  40  54
ATOM     54  C   UNL A   1      42.507  23.700  27.767  1.00  0.00    -0.014 A 
ATOM     55  C   UNL A   1      42.941  23.401  26.463  1.00  0.00     0.010 A 
ATOM     56  C   UNL A   1      41.908  22.688  28.540  1.00  0.00     0.010 A 
ATOM     57  C   UNL A   1      42.764  22.117  25.938  1.00  0.00     0.020 A 
ATOM     58  C   UNL A   1      41.750  21.399  28.027  1.00  0.00     0.020 A 
ATOM     59  C   UNL A   1      42.172  21.123  26.725  1.00  0.00     0.054 A 
BRANCH  59  60
ATOM     60  S   UNL A   1      42.013  19.451  26.040  1.00  0.00     0.124 S 
ATOM     61  O   UNL A   1      42.797  19.552  24.812  1.00  0.00    -0.237 OA
ATOM     62  O   UNL A   1      42.594  18.618  27.089  1.00  0.00    -0.237 OA
ATOM     63  O   UNL A   1      40.574  19.290  25.848  1.00  0.00    -0.744 OA
ENDBRANCH  59  60
ENDBRANCH  40  54
BRANCH  41  64
ATOM     64  C   UNL A   1      43.664  32.594  32.140  1.00  0.00    -0.014 A 
ATOM     65  C   UNL A   1      43.410  32.689  33.519  1.00  0.00     0.010 A 
ATOM     66  C   UNL A   1      44.047  33.750  31.434  1.00  0.00     0.010 A 
ATOM     67  C   UNL A   1      43.502  33.923  34.173  1.00  0.00     0.020 A 
ATOM     68  C   UNL A   1      44.168  34.978  32.090  1.00  0.00     0.020 A 
ATOM     69  C   UNL A   1      43.877  35.060  33.453  1.00  0.00     0.054 A 
BRANCH  69  70
ATOM     70  S   UNL A   1      44.013  36.648  34.321  1.00  0.00     0.124 S 
ATOM     71  O   UNL A   1      44.268  36.222  35.692  1.00  0.00    -0.237 OA
ATOM     72  O   UNL A   1      45.134  37.288  33.636  1.00  0.00    -0.237 OA
ATOM     73  O   UNL A   1      42.713  37.273  34.088  1.00  0.00    -0.744 OA
ENDBRANCH  69  70
ENDBRANCH  41  64
BRANCH  53  74
ATOM     74  C   UNL A   1      47.886  27.141  31.087  1.00  0.00    -0.014 A 
ATOM     75  C   UNL A   1      48.938  27.531  30.240  1.00  0.00     0.010 A 
ATOM     76  C   UNL A   1      48.187  26.547  32.327  1.00  0.00     0.010 A 
ATOM     77  C   UNL A   1      50.267  27.306  30.614  1.00  0.00     0.020 A 
ATOM     78  C   UNL A   1      49.514  26.345  32.716  1.00  0.00     0.020 A 
ATOM     79  C   UNL A   1      50.546  26.713  31.850  1.00  0.00     0.054 A 
BRANCH  79  80
ATOM     80  S   UNL A   1      52.277  26.473  32.334  1.00  0.00     0.124 S 
ATOM     81  O   UNL A   1      52.958  26.484  31.042  1.00  0.00    -0.237 OA
ATOM     82  O   UNL A   1      52.536  27.629  33.191  1.00  0.00    -0.237 OA
ATOM     83  O   UNL A   1      52.269  25.185  33.024  1.00  0.00    -0.744 OA
ENDBRANCH  79  80
ENDBRANCH  53  74
ENDBRANCH  27  28
ENDBRANCH  20  22
ENDBRANCH  19  20
ENDBRANCH  18  19
ENDBRANCH   1  18
TORSDOF 19
ENDMDL
