MODEL 1
REMARK VINA RESULT:      -9.5      0.000      0.000
REMARK SMILES NC(=O)C[C@@H](CC(=O)OCCOCCOC(=O)c1ccc(-c2c3nc(c(-c4ccc(S(=O)(=O)[O-])cc4)c4ccc([nH]4)c(-c4ccc(S(=O)(=O)[O-])cc4)c4nc(c(-c5ccc(S(=O)(=O)[O-])cc5)c5ccc2[nH]5)C=C4)C=C3)cc1)c1cccc(Br)c1
REMARK SMILES IDX 12 1 11 2 10 3 9 4 7 5 8 6 6 7 5 8 4 9 2 10 1 11 3 14 78 15
REMARK SMILES IDX 79 16 84 17 80 18 82 19 81 20 83 21 13 22 14 23 15 24 16 25
REMARK SMILES IDX 17 26 18 27 19 28 77 29 20 30 76 31 21 32 22 33 23 34 70 35
REMARK SMILES IDX 24 36 75 37 69 38 71 39 25 40 74 41 68 42 67 43 26 45 56 46
REMARK SMILES IDX 37 47 55 48 38 49 41 50 54 51 72 52 39 53 40 54 53 56 73 57
REMARK SMILES IDX 42 58 27 59 28 60 36 61 29 62 35 63 30 64 31 65 32 66 33 67
REMARK SMILES IDX 34 68 57 69 58 70 66 71 59 72 65 73 60 74 61 75 62 76 63 77
REMARK SMILES IDX 64 78 43 79 44 80 52 81 45 82 51 83 46 84 47 85 48 86 49 87
REMARK SMILES IDX 50 88
REMARK H PARENT 1 12 1 13 71 44 41 55
REMARK Flexibility Score: inf
ROOT
ATOM      1  O   UNL A   1      33.849  30.273  27.285  1.00  0.00    -0.374 OA
ENDROOT
BRANCH   1   2
ATOM      2  C   UNL A   1      32.436  30.306  27.087  1.00  0.00     0.202 C 
BRANCH   2   3
ATOM      3  C   UNL A   1      31.973  30.193  25.631  1.00  0.00     0.261 C 
BRANCH   3   4
ATOM      4  O   UNL A   1      31.940  28.836  25.143  1.00  0.00    -0.463 OA
BRANCH   4   5
ATOM      5  C   UNL A   1      33.063  28.415  24.512  1.00  0.00     0.306 C 
ATOM      6  O   UNL A   1      33.564  28.975  23.540  1.00  0.00    -0.252 OA
BRANCH   5   7
ATOM      7  C   UNL A   1      33.660  27.134  25.050  1.00  0.00     0.131 C 
BRANCH   7   8
ATOM      8  C   UNL A   1      33.723  25.828  24.221  1.00  0.00     0.039 C 
BRANCH   8   9
ATOM      9  C   UNL A   1      32.500  25.612  23.304  1.00  0.00     0.108 C 
BRANCH   9  10
ATOM     10  C   UNL A   1      32.914  25.006  21.984  1.00  0.00     0.218 C 
ATOM     11  N   UNL A   1      32.741  23.661  21.876  1.00  0.00    -0.370 N 
ATOM     12  H   UNL A   1      32.990  23.197  21.044  1.00  0.00     0.159 HD
ATOM     13  H   UNL A   1      32.366  23.151  22.631  1.00  0.00     0.159 HD
ATOM     14  O   UNL A   1      33.319  25.677  21.042  1.00  0.00    -0.275 OA
ENDBRANCH   9  10
ENDBRANCH   8   9
BRANCH   8  15
ATOM     15  C   UNL A   1      34.207  24.587  24.984  1.00  0.00    -0.043 A 
ATOM     16  C   UNL A   1      33.338  23.932  25.879  1.00  0.00     0.004 A 
ATOM     17  C   UNL A   1      35.543  24.149  24.952  1.00  0.00     0.019 A 
ATOM     18  C   UNL A   1      33.773  22.878  26.689  1.00  0.00     0.001 A 
ATOM     19  C   UNL A   1      35.980  23.108  25.779  1.00  0.00     0.018 A 
ATOM     20  C   UNL A   1      35.100  22.467  26.643  1.00  0.00     0.016 A 
ATOM     21  Br  UNL A   1      37.796  22.578  25.744  1.00  0.00    -0.051 Br
ENDBRANCH   8  15
ENDBRANCH   7   8
ENDBRANCH   5   7
ENDBRANCH   4   5
ENDBRANCH   3   4
ENDBRANCH   2   3
ENDBRANCH   1   2
BRANCH   1  22
ATOM     22  C   UNL A   1      34.455  31.445  27.838  1.00  0.00     0.202 C 
BRANCH  22  23
ATOM     23  C   UNL A   1      35.648  31.178  28.758  1.00  0.00     0.261 C 
BRANCH  23  24
ATOM     24  O   UNL A   1      36.180  29.860  28.529  1.00  0.00    -0.460 OA
BRANCH  24  25
ATOM     25  C   UNL A   1      36.920  29.390  29.558  1.00  0.00     0.338 C 
ATOM     26  O   UNL A   1      36.542  29.179  30.701  1.00  0.00    -0.246 OA
BRANCH  25  27
ATOM     27  C   UNL A   1      38.241  28.976  29.060  1.00  0.00     0.060 A 
ATOM     28  C   UNL A   1      39.162  28.474  29.987  1.00  0.00     0.016 A 
ATOM     29  C   UNL A   1      38.612  29.182  27.731  1.00  0.00     0.016 A 
ATOM     30  C   UNL A   1      40.475  28.218  29.593  1.00  0.00     0.010 A 
ATOM     31  C   UNL A   1      39.931  28.921  27.337  1.00  0.00     0.010 A 
ATOM     32  C   UNL A   1      40.879  28.470  28.274  1.00  0.00    -0.014 A 
BRANCH  32  33
ATOM     33  C   UNL A   1      42.313  28.355  27.908  1.00  0.00     0.031 A 
ATOM     34  C   UNL A   1      43.233  29.529  28.106  1.00  0.00     0.074 A 
ATOM     35  C   UNL A   1      42.807  27.195  27.434  1.00  0.00     0.049 A 
ATOM     36  N   UNL A   1      44.519  29.618  27.879  1.00  0.00    -0.248 NA
ATOM     37  C   UNL A   1      42.627  30.763  28.631  1.00  0.00     0.031 C 
ATOM     38  C   UNL A   1      42.032  25.974  27.219  1.00  0.00     0.029 A 
ATOM     39  N   UNL A   1      44.081  26.861  27.048  1.00  0.00    -0.354 N 
ATOM     40  C   UNL A   1      44.880  30.910  28.242  1.00  0.00     0.074 A 
ATOM     41  C   UNL A   1      43.670  31.580  28.672  1.00  0.00     0.031 C 
ATOM     42  C   UNL A   1      42.847  25.023  26.730  1.00  0.00     0.029 A 
ATOM     43  C   UNL A   1      44.193  25.575  26.578  1.00  0.00     0.049 A 
ATOM     44  H   UNL A   1      44.841  27.483  27.102  1.00  0.00     0.167 HD
ATOM     45  C   UNL A   1      46.107  31.486  28.231  1.00  0.00     0.031 A 
ATOM     46  C   UNL A   1      45.253  24.917  26.068  1.00  0.00     0.031 A 
ATOM     47  C   UNL A   1      47.310  30.837  27.781  1.00  0.00     0.049 A 
ATOM     48  C   UNL A   1      46.589  25.602  25.986  1.00  0.00     0.074 A 
ATOM     49  C   UNL A   1      48.601  31.338  27.753  1.00  0.00     0.029 A 
ATOM     50  N   UNL A   1      47.370  29.553  27.262  1.00  0.00    -0.354 N 
ATOM     51  N   UNL A   1      46.919  26.811  26.375  1.00  0.00    -0.248 NA
ATOM     52  C   UNL A   1      47.697  24.833  25.399  1.00  0.00     0.031 C 
ATOM     53  C   UNL A   1      49.432  30.375  27.170  1.00  0.00     0.029 A 
ATOM     54  C   UNL A   1      48.667  29.257  26.879  1.00  0.00     0.049 A 
ATOM     55  H   UNL A   1      46.603  28.942  27.179  1.00  0.00     0.167 HD
ATOM     56  C   UNL A   1      48.273  26.944  26.086  1.00  0.00     0.074 A 
ATOM     57  C   UNL A   1      48.706  25.687  25.508  1.00  0.00     0.031 C 
ATOM     58  C   UNL A   1      49.085  28.012  26.283  1.00  0.00     0.031 A 
BRANCH  45  59
ATOM     59  C   UNL A   1      46.201  32.911  28.705  1.00  0.00    -0.014 A 
ATOM     60  C   UNL A   1      46.454  33.208  30.057  1.00  0.00     0.010 A 
ATOM     61  C   UNL A   1      46.060  33.966  27.785  1.00  0.00     0.010 A 
ATOM     62  C   UNL A   1      46.522  34.535  30.487  1.00  0.00     0.020 A 
ATOM     63  C   UNL A   1      46.148  35.295  28.210  1.00  0.00     0.020 A 
ATOM     64  C   UNL A   1      46.359  35.572  29.562  1.00  0.00     0.054 A 
BRANCH  64  65
ATOM     65  S   UNL A   1      46.453  37.286  30.146  1.00  0.00     0.124 S 
ATOM     66  O   UNL A   1      45.478  37.950  29.284  1.00  0.00    -0.237 OA
ATOM     67  O   UNL A   1      46.072  37.171  31.552  1.00  0.00    -0.237 OA
ATOM     68  O   UNL A   1      47.846  37.656  29.911  1.00  0.00    -0.744 OA
ENDBRANCH  64  65
ENDBRANCH  45  59
BRANCH  46  69
ATOM     69  C   UNL A   1      45.078  23.528  25.568  1.00  0.00    -0.014 A 
ATOM     70  C   UNL A   1      44.635  23.286  24.257  1.00  0.00     0.010 A 
ATOM     71  C   UNL A   1      45.387  22.438  26.402  1.00  0.00     0.010 A 
ATOM     72  C   UNL A   1      44.508  21.977  23.787  1.00  0.00     0.020 A 
ATOM     73  C   UNL A   1      45.281  21.129  25.929  1.00  0.00     0.020 A 
ATOM     74  C   UNL A   1      44.838  20.906  24.624  1.00  0.00     0.054 A 
BRANCH  74  75
ATOM     75  S   UNL A   1      44.756  19.216  23.967  1.00  0.00     0.124 S 
ATOM     76  O   UNL A   1      44.449  19.451  22.560  1.00  0.00    -0.237 OA
ATOM     77  O   UNL A   1      46.094  18.700  24.248  1.00  0.00    -0.237 OA
ATOM     78  O   UNL A   1      43.686  18.601  24.751  1.00  0.00    -0.744 OA
ENDBRANCH  74  75
ENDBRANCH  46  69
BRANCH  58  79
ATOM     79  C   UNL A   1      50.525  27.876  25.867  1.00  0.00    -0.014 A 
ATOM     80  C   UNL A   1      50.925  28.170  24.551  1.00  0.00     0.010 A 
ATOM     81  C   UNL A   1      51.497  27.504  26.813  1.00  0.00     0.010 A 
ATOM     82  C   UNL A   1      52.270  28.071  24.184  1.00  0.00     0.020 A 
ATOM     83  C   UNL A   1      52.846  27.425  26.454  1.00  0.00     0.020 A 
ATOM     84  C   UNL A   1      53.222  27.697  25.137  1.00  0.00     0.054 A 
BRANCH  84  85
ATOM     85  S   UNL A   1      54.967  27.621  24.648  1.00  0.00     0.124 S 
ATOM     86  O   UNL A   1      54.931  26.674  23.538  1.00  0.00    -0.237 OA
ATOM     87  O   UNL A   1      55.262  29.005  24.285  1.00  0.00    -0.237 OA
ATOM     88  O   UNL A   1      55.642  27.144  25.853  1.00  0.00    -0.744 OA
ENDBRANCH  84  85
ENDBRANCH  58  79
ENDBRANCH  32  33
ENDBRANCH  25  27
ENDBRANCH  24  25
ENDBRANCH  23  24
ENDBRANCH  22  23
ENDBRANCH   1  22
TORSDOF 21
ENDMDL
MODEL 2
REMARK VINA RESULT:      -9.4      1.730      2.181
REMARK SMILES NC(=O)C[C@@H](CC(=O)OCCOCCOC(=O)c1ccc(-c2c3nc(c(-c4ccc(S(=O)(=O)[O-])cc4)c4ccc([nH]4)c(-c4ccc(S(=O)(=O)[O-])cc4)c4nc(c(-c5ccc(S(=O)(=O)[O-])cc5)c5ccc2[nH]5)C=C4)C=C3)cc1)c1cccc(Br)c1
REMARK SMILES IDX 12 1 11 2 10 3 9 4 7 5 8 6 6 7 5 8 4 9 2 10 1 11 3 14 78 15
REMARK SMILES IDX 79 16 84 17 80 18 82 19 81 20 83 21 13 22 14 23 15 24 16 25
REMARK SMILES IDX 17 26 18 27 19 28 77 29 20 30 76 31 21 32 22 33 23 34 70 35
REMARK SMILES IDX 24 36 75 37 69 38 71 39 25 40 74 41 68 42 67 43 26 45 56 46
REMARK SMILES IDX 37 47 55 48 38 49 41 50 54 51 72 52 39 53 40 54 53 56 73 57
REMARK SMILES IDX 42 58 27 59 28 60 36 61 29 62 35 63 30 64 31 65 32 66 33 67
REMARK SMILES IDX 34 68 57 69 58 70 66 71 59 72 65 73 60 74 61 75 62 76 63 77
REMARK SMILES IDX 64 78 43 79 44 80 52 81 45 82 51 83 46 84 47 85 48 86 49 87
REMARK SMILES IDX 50 88
REMARK H PARENT 1 12 1 13 71 44 41 55
REMARK Flexibility Score: inf
ROOT
ATOM      1  O   UNL A   1      33.629  30.451  27.364  1.00  0.00    -0.374 OA
ENDROOT
BRANCH   1   2
ATOM      2  C   UNL A   1      32.314  30.088  26.944  1.00  0.00     0.202 C 
BRANCH   2   3
ATOM      3  C   UNL A   1      32.242  28.969  25.902  1.00  0.00     0.261 C 
BRANCH   3   4
ATOM      4  O   UNL A   1      33.499  28.289  25.702  1.00  0.00    -0.463 OA
BRANCH   4   5
ATOM      5  C   UNL A   1      33.443  27.175  24.933  1.00  0.00     0.306 C 
ATOM      6  O   UNL A   1      33.670  27.152  23.726  1.00  0.00    -0.252 OA
BRANCH   5   7
ATOM      7  C   UNL A   1      33.011  25.917  25.654  1.00  0.00     0.131 C 
BRANCH   7   8
ATOM      8  C   UNL A   1      32.892  24.546  24.946  1.00  0.00     0.039 C 
BRANCH   8   9
ATOM      9  C   UNL A   1      31.511  23.876  25.112  1.00  0.00     0.108 C 
BRANCH   9  10
ATOM     10  C   UNL A   1      30.991  24.051  26.519  1.00  0.00     0.218 C 
ATOM     11  N   UNL A   1      29.729  24.549  26.619  1.00  0.00    -0.370 N 
ATOM     12  H   UNL A   1      29.325  24.691  27.506  1.00  0.00     0.159 HD
ATOM     13  H   UNL A   1      29.220  24.768  25.806  1.00  0.00     0.159 HD
ATOM     14  O   UNL A   1      31.626  23.711  27.510  1.00  0.00    -0.275 OA
ENDBRANCH   9  10
ENDBRANCH   8   9
BRANCH   8  15
ATOM     15  C   UNL A   1      34.103  23.616  25.104  1.00  0.00    -0.043 A 
ATOM     16  C   UNL A   1      33.929  22.220  25.030  1.00  0.00     0.004 A 
ATOM     17  C   UNL A   1      35.376  24.085  25.474  1.00  0.00     0.019 A 
ATOM     18  C   UNL A   1      34.978  21.332  25.293  1.00  0.00     0.001 A 
ATOM     19  C   UNL A   1      36.418  23.193  25.757  1.00  0.00     0.018 A 
ATOM     20  C   UNL A   1      36.226  21.820  25.663  1.00  0.00     0.016 A 
ATOM     21  Br  UNL A   1      38.103  23.858  26.300  1.00  0.00    -0.051 Br
ENDBRANCH   8  15
ENDBRANCH   7   8
ENDBRANCH   5   7
ENDBRANCH   4   5
ENDBRANCH   3   4
ENDBRANCH   2   3
ENDBRANCH   1   2
BRANCH   1  22
ATOM     22  C   UNL A   1      33.828  31.806  27.780  1.00  0.00     0.202 C 
BRANCH  22  23
ATOM     23  C   UNL A   1      35.012  32.020  28.724  1.00  0.00     0.261 C 
BRANCH  23  24
ATOM     24  O   UNL A   1      35.637  30.765  29.047  1.00  0.00    -0.460 OA
BRANCH  24  25
ATOM     25  C   UNL A   1      36.565  30.859  30.026  1.00  0.00     0.338 C 
ATOM     26  O   UNL A   1      36.408  31.318  31.148  1.00  0.00    -0.246 OA
BRANCH  25  27
ATOM     27  C   UNL A   1      37.783  30.145  29.614  1.00  0.00     0.060 A 
ATOM     28  C   UNL A   1      38.744  29.870  30.595  1.00  0.00     0.016 A 
ATOM     29  C   UNL A   1      38.033  29.850  28.273  1.00  0.00     0.016 A 
ATOM     30  C   UNL A   1      39.980  29.339  30.227  1.00  0.00     0.010 A 
ATOM     31  C   UNL A   1      39.275  29.313  27.907  1.00  0.00     0.010 A 
ATOM     32  C   UNL A   1      40.268  29.087  28.877  1.00  0.00    -0.014 A 
BRANCH  32  33
ATOM     33  C   UNL A   1      41.640  28.682  28.480  1.00  0.00     0.031 A 
ATOM     34  C   UNL A   1      42.744  29.704  28.454  1.00  0.00     0.074 A 
ATOM     35  C   UNL A   1      41.913  27.399  28.177  1.00  0.00     0.049 A 
ATOM     36  N   UNL A   1      44.011  29.544  28.167  1.00  0.00    -0.248 NA
ATOM     37  C   UNL A   1      42.375  31.086  28.799  1.00  0.00     0.031 C 
ATOM     38  C   UNL A   1      40.943  26.305  28.188  1.00  0.00     0.029 A 
ATOM     39  N   UNL A   1      43.091  26.804  27.800  1.00  0.00    -0.354 N 
ATOM     40  C   UNL A   1      44.594  30.797  28.307  1.00  0.00     0.074 A 
ATOM     41  C   UNL A   1      43.535  31.715  28.671  1.00  0.00     0.031 C 
ATOM     42  C   UNL A   1      41.565  25.170  27.825  1.00  0.00     0.029 A 
ATOM     43  C   UNL A   1      42.968  25.461  27.536  1.00  0.00     0.049 A 
ATOM     44  H   UNL A   1      43.942  27.292  27.726  1.00  0.00     0.167 HD
ATOM     45  C   UNL A   1      45.893  31.153  28.158  1.00  0.00     0.031 A 
ATOM     46  C   UNL A   1      43.877  24.568  27.097  1.00  0.00     0.031 A 
ATOM     47  C   UNL A   1      46.948  30.254  27.770  1.00  0.00     0.049 A 
ATOM     48  C   UNL A   1      45.296  25.002  26.856  1.00  0.00     0.074 A 
ATOM     49  C   UNL A   1      48.297  30.524  27.614  1.00  0.00     0.029 A 
ATOM     50  N   UNL A   1      46.771  28.915  27.460  1.00  0.00    -0.354 N 
ATOM     51  N   UNL A   1      45.837  26.184  27.036  1.00  0.00    -0.248 NA
ATOM     52  C   UNL A   1      46.229  23.980  26.356  1.00  0.00     0.031 C 
ATOM     53  C   UNL A   1      48.927  29.360  27.160  1.00  0.00     0.029 A 
ATOM     54  C   UNL A   1      47.978  28.353  27.079  1.00  0.00     0.049 A 
ATOM     55  H   UNL A   1      45.913  28.434  27.503  1.00  0.00     0.167 HD
ATOM     56  C   UNL A   1      47.174  26.045  26.678  1.00  0.00     0.074 A 
ATOM     57  C   UNL A   1      47.366  24.662  26.290  1.00  0.00     0.031 C 
ATOM     58  C   UNL A   1      48.155  26.982  26.672  1.00  0.00     0.031 A 
BRANCH  45  59
ATOM     59  C   UNL A   1      46.241  32.598  28.396  1.00  0.00    -0.014 A 
ATOM     60  C   UNL A   1      46.617  33.050  29.674  1.00  0.00     0.010 A 
ATOM     61  C   UNL A   1      46.216  33.510  27.326  1.00  0.00     0.010 A 
ATOM     62  C   UNL A   1      46.921  34.396  29.887  1.00  0.00     0.020 A 
ATOM     63  C   UNL A   1      46.539  34.855  27.531  1.00  0.00     0.020 A 
ATOM     64  C   UNL A   1      46.871  35.294  28.815  1.00  0.00     0.054 A 
BRANCH  64  65
ATOM     65  S   UNL A   1      47.271  37.037  29.115  1.00  0.00     0.124 S 
ATOM     66  O   UNL A   1      48.191  36.942  30.246  1.00  0.00    -0.237 OA
ATOM     67  O   UNL A   1      47.871  37.454  27.850  1.00  0.00    -0.237 OA
ATOM     68  O   UNL A   1      45.976  37.642  29.416  1.00  0.00    -0.744 OA
ENDBRANCH  64  65
ENDBRANCH  45  59
BRANCH  46  69
ATOM     69  C   UNL A   1      43.453  23.168  26.830  1.00  0.00    -0.014 A 
ATOM     70  C   UNL A   1      43.618  22.597  25.558  1.00  0.00     0.010 A 
ATOM     71  C   UNL A   1      42.909  22.391  27.869  1.00  0.00     0.010 A 
ATOM     72  C   UNL A   1      43.249  21.269  25.329  1.00  0.00     0.020 A 
ATOM     73  C   UNL A   1      42.558  21.057  27.649  1.00  0.00     0.020 A 
ATOM     74  C   UNL A   1      42.727  20.505  26.378  1.00  0.00     0.054 A 
BRANCH  74  75
ATOM     75  S   UNL A   1      42.339  18.757  26.086  1.00  0.00     0.124 S 
ATOM     76  O   UNL A   1      40.928  18.815  25.717  1.00  0.00    -0.237 OA
ATOM     77  O   UNL A   1      43.262  18.402  25.010  1.00  0.00    -0.237 OA
ATOM     78  O   UNL A   1      42.627  18.127  27.373  1.00  0.00    -0.744 OA
ENDBRANCH  74  75
ENDBRANCH  46  69
BRANCH  58  79
ATOM     79  C   UNL A   1      49.527  26.548  26.229  1.00  0.00    -0.014 A 
ATOM     80  C   UNL A   1      50.068  27.006  25.014  1.00  0.00     0.010 A 
ATOM     81  C   UNL A   1      50.303  25.719  27.058  1.00  0.00     0.010 A 
ATOM     82  C   UNL A   1      51.355  26.622  24.627  1.00  0.00     0.020 A 
ATOM     83  C   UNL A   1      51.599  25.351  26.683  1.00  0.00     0.020 A 
ATOM     84  C   UNL A   1      52.112  25.796  25.462  1.00  0.00     0.054 A 
BRANCH  84  85
ATOM     85  S   UNL A   1      53.797  25.349  24.960  1.00  0.00     0.124 S 
ATOM     86  O   UNL A   1      54.590  25.846  26.081  1.00  0.00    -0.237 OA
ATOM     87  O   UNL A   1      53.723  23.894  24.839  1.00  0.00    -0.237 OA
ATOM     88  O   UNL A   1      53.983  26.063  23.699  1.00  0.00    -0.744 OA
ENDBRANCH  84  85
ENDBRANCH  58  79
ENDBRANCH  32  33
ENDBRANCH  25  27
ENDBRANCH  24  25
ENDBRANCH  23  24
ENDBRANCH  22  23
ENDBRANCH   1  22
TORSDOF 21
ENDMDL
MODEL 3
REMARK VINA RESULT:      -9.1      6.897     12.408
REMARK SMILES NC(=O)C[C@@H](CC(=O)OCCOCCOC(=O)c1ccc(-c2c3nc(c(-c4ccc(S(=O)(=O)[O-])cc4)c4ccc([nH]4)c(-c4ccc(S(=O)(=O)[O-])cc4)c4nc(c(-c5ccc(S(=O)(=O)[O-])cc5)c5ccc2[nH]5)C=C4)C=C3)cc1)c1cccc(Br)c1
REMARK SMILES IDX 12 1 11 2 10 3 9 4 7 5 8 6 6 7 5 8 4 9 2 10 1 11 3 14 78 15
REMARK SMILES IDX 79 16 84 17 80 18 82 19 81 20 83 21 13 22 14 23 15 24 16 25
REMARK SMILES IDX 17 26 18 27 19 28 77 29 20 30 76 31 21 32 22 33 23 34 70 35
REMARK SMILES IDX 24 36 75 37 69 38 71 39 25 40 74 41 68 42 67 43 26 45 56 46
REMARK SMILES IDX 37 47 55 48 38 49 41 50 54 51 72 52 39 53 40 54 53 56 73 57
REMARK SMILES IDX 42 58 27 59 28 60 36 61 29 62 35 63 30 64 31 65 32 66 33 67
REMARK SMILES IDX 34 68 57 69 58 70 66 71 59 72 65 73 60 74 61 75 62 76 63 77
REMARK SMILES IDX 64 78 43 79 44 80 52 81 45 82 51 83 46 84 47 85 48 86 49 87
REMARK SMILES IDX 50 88
REMARK H PARENT 1 12 1 13 71 44 41 55
REMARK Flexibility Score: inf
ROOT
ATOM      1  O   UNL A   1      38.219  21.575  25.742  1.00  0.00    -0.374 OA
ENDROOT
BRANCH   1   2
ATOM      2  C   UNL A   1      37.594  20.506  25.033  1.00  0.00     0.202 C 
BRANCH   2   3
ATOM      3  C   UNL A   1      36.076  20.623  24.870  1.00  0.00     0.261 C 
BRANCH   3   4
ATOM      4  O   UNL A   1      35.451  21.435  25.887  1.00  0.00    -0.463 OA
BRANCH   4   5
ATOM      5  C   UNL A   1      34.113  21.267  26.025  1.00  0.00     0.306 C 
ATOM      6  O   UNL A   1      33.559  20.179  26.154  1.00  0.00    -0.252 OA
BRANCH   5   7
ATOM      7  C   UNL A   1      33.297  22.538  25.951  1.00  0.00     0.131 C 
BRANCH   7   8
ATOM      8  C   UNL A   1      32.429  22.904  24.722  1.00  0.00     0.039 C 
BRANCH   8   9
ATOM      9  C   UNL A   1      33.137  22.678  23.369  1.00  0.00     0.108 C 
BRANCH   9  10
ATOM     10  C   UNL A   1      34.063  23.826  23.045  1.00  0.00     0.218 C 
ATOM     11  N   UNL A   1      35.228  23.855  23.748  1.00  0.00    -0.370 N 
ATOM     12  H   UNL A   1      35.880  24.575  23.590  1.00  0.00     0.159 HD
ATOM     13  H   UNL A   1      35.418  23.156  24.414  1.00  0.00     0.159 HD
ATOM     14  O   UNL A   1      33.825  24.645  22.166  1.00  0.00    -0.275 OA
ENDBRANCH   9  10
ENDBRANCH   8   9
BRANCH   8  15
ATOM     15  C   UNL A   1      31.634  24.211  24.844  1.00  0.00    -0.043 A 
ATOM     16  C   UNL A   1      30.651  24.526  23.884  1.00  0.00     0.004 A 
ATOM     17  C   UNL A   1      31.941  25.201  25.795  1.00  0.00     0.019 A 
ATOM     18  C   UNL A   1      29.992  25.760  23.883  1.00  0.00     0.001 A 
ATOM     19  C   UNL A   1      31.294  26.443  25.778  1.00  0.00     0.018 A 
ATOM     20  C   UNL A   1      30.318  26.724  24.830  1.00  0.00     0.016 A 
ATOM     21  Br  UNL A   1      31.769  27.768  27.042  1.00  0.00    -0.051 Br
ENDBRANCH   8  15
ENDBRANCH   7   8
ENDBRANCH   5   7
ENDBRANCH   4   5
ENDBRANCH   3   4
ENDBRANCH   2   3
ENDBRANCH   1   2
BRANCH   1  22
ATOM     22  C   UNL A   1      39.599  21.409  26.083  1.00  0.00     0.202 C 
BRANCH  22  23
ATOM     23  C   UNL A   1      40.139  22.428  27.089  1.00  0.00     0.261 C 
BRANCH  23  24
ATOM     24  O   UNL A   1      39.953  23.770  26.602  1.00  0.00    -0.460 OA
BRANCH  24  25
ATOM     25  C   UNL A   1      41.053  24.546  26.724  1.00  0.00     0.338 C 
ATOM     26  O   UNL A   1      42.100  24.441  26.104  1.00  0.00    -0.246 OA
BRANCH  25  27
ATOM     27  C   UNL A   1      40.748  25.689  27.599  1.00  0.00     0.060 A 
ATOM     28  C   UNL A   1      41.659  26.752  27.627  1.00  0.00     0.016 A 
ATOM     29  C   UNL A   1      39.653  25.669  28.462  1.00  0.00     0.016 A 
ATOM     30  C   UNL A   1      41.497  27.781  28.554  1.00  0.00     0.010 A 
ATOM     31  C   UNL A   1      39.491  26.707  29.391  1.00  0.00     0.010 A 
ATOM     32  C   UNL A   1      40.431  27.751  29.465  1.00  0.00    -0.014 A 
BRANCH  32  33
ATOM     33  C   UNL A   1      40.363  28.758  30.554  1.00  0.00     0.031 A 
ATOM     34  C   UNL A   1      41.313  28.668  31.718  1.00  0.00     0.074 A 
ATOM     35  C   UNL A   1      39.482  29.774  30.490  1.00  0.00     0.049 A 
ATOM     36  N   UNL A   1      41.434  29.466  32.748  1.00  0.00    -0.248 NA
ATOM     37  C   UNL A   1      42.250  27.533  31.720  1.00  0.00     0.031 C 
ATOM     38  C   UNL A   1      38.525  29.994  29.408  1.00  0.00     0.029 A 
ATOM     39  N   UNL A   1      39.254  30.811  31.361  1.00  0.00    -0.354 N 
ATOM     40  C   UNL A   1      42.466  28.940  33.516  1.00  0.00     0.074 A 
ATOM     41  C   UNL A   1      42.914  27.734  32.850  1.00  0.00     0.031 C 
ATOM     42  C   UNL A   1      37.803  31.095  29.683  1.00  0.00     0.029 A 
ATOM     43  C   UNL A   1      38.233  31.643  30.969  1.00  0.00     0.049 A 
ATOM     44  H   UNL A   1      39.770  30.944  32.188  1.00  0.00     0.167 HD
ATOM     45  C   UNL A   1      43.002  29.419  34.665  1.00  0.00     0.031 A 
ATOM     46  C   UNL A   1      37.694  32.716  31.580  1.00  0.00     0.031 A 
ATOM     47  C   UNL A   1      42.545  30.601  35.348  1.00  0.00     0.049 A 
ATOM     48  C   UNL A   1      38.247  33.183  32.898  1.00  0.00     0.074 A 
ATOM     49  C   UNL A   1      43.042  31.172  36.508  1.00  0.00     0.029 A 
ATOM     50  N   UNL A   1      41.475  31.383  34.946  1.00  0.00    -0.354 N 
ATOM     51  N   UNL A   1      39.252  32.697  33.587  1.00  0.00    -0.248 NA
ATOM     52  C   UNL A   1      37.596  34.347  33.519  1.00  0.00     0.031 C 
ATOM     53  C   UNL A   1      42.239  32.270  36.835  1.00  0.00     0.029 A 
ATOM     54  C   UNL A   1      41.272  32.411  35.852  1.00  0.00     0.049 A 
ATOM     55  H   UNL A   1      40.937  31.231  34.136  1.00  0.00     0.167 HD
ATOM     56  C   UNL A   1      39.358  33.499  34.718  1.00  0.00     0.074 A 
ATOM     57  C   UNL A   1      38.328  34.513  34.613  1.00  0.00     0.031 C 
ATOM     58  C   UNL A   1      40.231  33.403  35.751  1.00  0.00     0.031 A 
BRANCH  45  59
ATOM     59  C   UNL A   1      44.138  28.640  35.270  1.00  0.00    -0.014 A 
ATOM     60  C   UNL A   1      43.895  27.606  36.192  1.00  0.00     0.010 A 
ATOM     61  C   UNL A   1      45.463  28.928  34.894  1.00  0.00     0.010 A 
ATOM     62  C   UNL A   1      44.959  26.901  36.759  1.00  0.00     0.020 A 
ATOM     63  C   UNL A   1      46.529  28.210  35.445  1.00  0.00     0.020 A 
ATOM     64  C   UNL A   1      46.271  27.214  36.390  1.00  0.00     0.054 A 
BRANCH  64  65
ATOM     65  S   UNL A   1      47.636  26.284  37.140  1.00  0.00     0.124 S 
ATOM     66  O   UNL A   1      48.801  27.019  36.654  1.00  0.00    -0.237 OA
ATOM     67  O   UNL A   1      47.365  26.410  38.570  1.00  0.00    -0.237 OA
ATOM     68  O   UNL A   1      47.477  24.938  36.596  1.00  0.00    -0.744 OA
ENDBRANCH  64  65
ENDBRANCH  45  59
BRANCH  46  69
ATOM     69  C   UNL A   1      36.536  33.407  30.953  1.00  0.00    -0.014 A 
ATOM     70  C   UNL A   1      35.361  33.649  31.683  1.00  0.00     0.010 A 
ATOM     71  C   UNL A   1      36.624  33.854  29.622  1.00  0.00     0.010 A 
ATOM     72  C   UNL A   1      34.294  34.331  31.093  1.00  0.00     0.020 A 
ATOM     73  C   UNL A   1      35.568  34.554  29.036  1.00  0.00     0.020 A 
ATOM     74  C   UNL A   1      34.406  34.785  29.775  1.00  0.00     0.054 A 
BRANCH  74  75
ATOM     75  S   UNL A   1      33.047  35.748  29.056  1.00  0.00     0.124 S 
ATOM     76  O   UNL A   1      32.309  36.167  30.243  1.00  0.00    -0.237 OA
ATOM     77  O   UNL A   1      33.753  36.809  28.341  1.00  0.00    -0.237 OA
ATOM     78  O   UNL A   1      32.364  34.782  28.198  1.00  0.00    -0.744 OA
ENDBRANCH  74  75
ENDBRANCH  46  69
BRANCH  58  79
ATOM     79  C   UNL A   1      40.112  34.417  36.858  1.00  0.00    -0.014 A 
ATOM     80  C   UNL A   1      40.913  35.572  36.863  1.00  0.00     0.010 A 
ATOM     81  C   UNL A   1      39.152  34.241  37.871  1.00  0.00     0.010 A 
ATOM     82  C   UNL A   1      40.772  36.524  37.878  1.00  0.00     0.020 A 
ATOM     83  C   UNL A   1      38.994  35.201  38.875  1.00  0.00     0.020 A 
ATOM     84  C   UNL A   1      39.815  36.332  38.878  1.00  0.00     0.054 A 
BRANCH  84  85
ATOM     85  S   UNL A   1      39.618  37.602  40.159  1.00  0.00     0.124 S 
ATOM     86  O   UNL A   1      40.654  38.564  39.795  1.00  0.00    -0.237 OA
ATOM     87  O   UNL A   1      38.243  38.052  39.958  1.00  0.00    -0.237 OA
ATOM     88  O   UNL A   1      39.852  36.876  41.405  1.00  0.00    -0.744 OA
ENDBRANCH  84  85
ENDBRANCH  58  79
ENDBRANCH  32  33
ENDBRANCH  25  27
ENDBRANCH  24  25
ENDBRANCH  23  24
ENDBRANCH  22  23
ENDBRANCH   1  22
TORSDOF 21
ENDMDL
