MODEL 1
REMARK VINA RESULT:      -8.8      0.000      0.000
REMARK SMILES CN(C)c1cccc(C(=O)CCCC(=O)OCCOCCOC(=O)c2ccc(-c3c4nc(c(-c5ccc(S(=O)(=O)[O-])cc5)c5ccc([nH]5)c(-c5ccc(S(=O)(=O)[O-])cc5)c5nc(c(-c6ccc(S(=O)(=O)[O-])cc6)c6ccc3[nH]6)C=C5)C=C4)cc2)c1
REMARK SMILES IDX 18 1 17 2 16 3 14 4 15 5 13 6 12 7 11 8 9 9 10 10 8 11 4 12
REMARK SMILES IDX 5 13 85 14 6 15 7 16 2 17 1 18 3 19 19 20 20 21 21 22 22 23
REMARK SMILES IDX 23 24 24 25 25 26 26 27 84 28 27 29 83 30 28 31 29 32 30 33
REMARK SMILES IDX 77 34 31 35 82 36 76 37 78 38 32 39 81 40 75 41 74 42 33 44
REMARK SMILES IDX 63 45 44 46 62 47 45 48 48 49 61 50 79 51 46 52 47 53 60 55
REMARK SMILES IDX 80 56 49 57 34 58 35 59 43 60 36 61 42 62 37 63 38 64 39 65
REMARK SMILES IDX 40 66 41 67 64 68 65 69 73 70 66 71 72 72 67 73 68 74 69 75
REMARK SMILES IDX 70 76 71 77 50 78 51 79 59 80 52 81 58 82 53 83 54 84 55 85
REMARK SMILES IDX 56 86 57 87
REMARK H PARENT 78 43 48 54
REMARK Flexibility Score: inf
ROOT
ATOM      1  C   UNL A   1      31.318  27.092  26.602  1.00  0.00     0.202 C 
ENDROOT
BRANCH   1   2
ATOM      2  C   UNL A   1      31.935  25.694  26.549  1.00  0.00     0.261 C 
BRANCH   2   3
ATOM      3  O   UNL A   1      32.025  25.175  25.210  1.00  0.00    -0.463 OA
BRANCH   3   4
ATOM      4  C   UNL A   1      33.259  24.781  24.802  1.00  0.00     0.305 C 
ATOM      5  O   UNL A   1      34.313  25.313  25.134  1.00  0.00    -0.252 OA
BRANCH   4   6
ATOM      6  C   UNL A   1      33.222  23.601  23.847  1.00  0.00     0.123 C 
BRANCH   6   7
ATOM      7  C   UNL A   1      33.278  23.858  22.337  1.00  0.00     0.020 C 
BRANCH   7   8
ATOM      8  C   UNL A   1      32.433  24.993  21.740  1.00  0.00     0.081 C 
BRANCH   8   9
ATOM      9  C   UNL A   1      32.973  26.406  21.954  1.00  0.00     0.162 C 
ATOM     10  O   UNL A   1      34.164  26.655  21.765  1.00  0.00    -0.294 OA
BRANCH   9  11
ATOM     11  C   UNL A   1      32.075  27.487  22.464  1.00  0.00     0.020 A 
ATOM     12  C   UNL A   1      29.817  28.153  23.096  1.00  0.00     0.037 A 
ATOM     13  C   UNL A   1      30.342  29.219  23.819  1.00  0.00     0.026 A 
ATOM     14  C   UNL A   1      30.695  27.374  22.345  1.00  0.00     0.037 A 
ATOM     15  C   UNL A   1      31.723  29.449  23.829  1.00  0.00     0.003 A 
ATOM     16  C   UNL A   1      32.592  28.562  23.185  1.00  0.00     0.012 A 
BRANCH  12  17
ATOM     17  N   UNL A   1      28.496  27.730  23.173  1.00  0.00    -0.378 N 
ATOM     18  C   UNL A   1      28.269  26.535  23.980  1.00  0.00     0.143 C 
ATOM     19  C   UNL A   1      27.457  28.742  23.155  1.00  0.00     0.143 C 
ENDBRANCH  12  17
ENDBRANCH   9  11
ENDBRANCH   8   9
ENDBRANCH   7   8
ENDBRANCH   6   7
ENDBRANCH   4   6
ENDBRANCH   3   4
ENDBRANCH   2   3
ENDBRANCH   1   2
BRANCH   1  20
ATOM     20  O   UNL A   1      32.113  28.140  27.149  1.00  0.00    -0.374 OA
BRANCH  20  21
ATOM     21  C   UNL A   1      33.502  28.172  26.838  1.00  0.00     0.202 C 
BRANCH  21  22
ATOM     22  C   UNL A   1      34.207  29.533  26.784  1.00  0.00     0.261 C 
BRANCH  22  23
ATOM     23  O   UNL A   1      33.713  30.499  27.728  1.00  0.00    -0.460 OA
BRANCH  23  24
ATOM     24  C   UNL A   1      34.692  31.129  28.425  1.00  0.00     0.338 C 
ATOM     25  O   UNL A   1      34.593  32.176  29.045  1.00  0.00    -0.246 OA
BRANCH  24  26
ATOM     26  C   UNL A   1      35.919  30.314  28.477  1.00  0.00     0.060 A 
ATOM     27  C   UNL A   1      36.195  29.642  29.673  1.00  0.00     0.016 A 
ATOM     28  C   UNL A   1      36.858  30.342  27.444  1.00  0.00     0.016 A 
ATOM     29  C   UNL A   1      37.442  29.057  29.873  1.00  0.00     0.010 A 
ATOM     30  C   UNL A   1      38.114  29.760  27.649  1.00  0.00     0.010 A 
ATOM     31  C   UNL A   1      38.427  29.161  28.882  1.00  0.00    -0.014 A 
BRANCH  31  32
ATOM     32  C   UNL A   1      39.827  28.806  29.216  1.00  0.00     0.031 A 
ATOM     33  C   UNL A   1      40.673  29.805  29.961  1.00  0.00     0.074 A 
ATOM     34  C   UNL A   1      40.322  27.594  28.905  1.00  0.00     0.049 A 
ATOM     35  N   UNL A   1      41.921  29.712  30.344  1.00  0.00    -0.248 NA
ATOM     36  C   UNL A   1      40.025  31.076  30.325  1.00  0.00     0.031 C 
ATOM     37  C   UNL A   1      39.582  26.525  28.237  1.00  0.00     0.029 A 
ATOM     38  N   UNL A   1      41.569  27.063  29.115  1.00  0.00    -0.354 N 
ATOM     39  C   UNL A   1      42.210  30.913  30.984  1.00  0.00     0.074 A 
ATOM     40  C   UNL A   1      41.016  31.727  30.917  1.00  0.00     0.031 C 
ATOM     41  C   UNL A   1      40.393  25.464  28.086  1.00  0.00     0.029 A 
ATOM     42  C   UNL A   1      41.716  25.791  28.615  1.00  0.00     0.049 A 
ATOM     43  H   UNL A   1      42.291  27.547  29.579  1.00  0.00     0.167 HD
ATOM     44  C   UNL A   1      43.363  31.300  31.579  1.00  0.00     0.031 A 
ATOM     45  C   UNL A   1      42.800  24.992  28.570  1.00  0.00     0.031 A 
ATOM     46  C   UNL A   1      44.552  30.492  31.632  1.00  0.00     0.049 A 
ATOM     47  C   UNL A   1      44.095  25.475  29.167  1.00  0.00     0.074 A 
ATOM     48  C   UNL A   1      45.770  30.789  32.216  1.00  0.00     0.029 A 
ATOM     49  N   UNL A   1      44.673  29.228  31.072  1.00  0.00    -0.354 N 
ATOM     50  N   UNL A   1      44.349  26.607  29.781  1.00  0.00    -0.248 NA
ATOM     51  C   UNL A   1      45.249  24.570  29.070  1.00  0.00     0.031 C 
ATOM     52  C   UNL A   1      46.646  29.727  31.962  1.00  0.00     0.029 A 
ATOM     53  C   UNL A   1      45.954  28.743  31.273  1.00  0.00     0.049 A 
ATOM     54  H   UNL A   1      43.955  28.747  30.601  1.00  0.00     0.167 HD
ATOM     55  C   UNL A   1      45.684  26.539  30.166  1.00  0.00     0.074 A 
ATOM     56  C   UNL A   1      46.180  25.251  29.727  1.00  0.00     0.031 C 
ATOM     57  C   UNL A   1      46.431  27.458  30.827  1.00  0.00     0.031 A 
BRANCH  44  58
ATOM     58  C   UNL A   1      43.404  32.678  32.187  1.00  0.00    -0.014 A 
ATOM     59  C   UNL A   1      43.172  32.879  33.559  1.00  0.00     0.010 A 
ATOM     60  C   UNL A   1      43.711  33.786  31.376  1.00  0.00     0.010 A 
ATOM     61  C   UNL A   1      43.206  34.167  34.101  1.00  0.00     0.020 A 
ATOM     62  C   UNL A   1      43.772  35.073  31.920  1.00  0.00     0.020 A 
ATOM     63  C   UNL A   1      43.502  35.257  33.277  1.00  0.00     0.054 A 
BRANCH  63  64
ATOM     64  S   UNL A   1      43.555  36.916  34.008  1.00  0.00     0.124 S 
ATOM     65  O   UNL A   1      44.355  36.690  35.210  1.00  0.00    -0.237 OA
ATOM     66  O   UNL A   1      44.203  37.706  32.963  1.00  0.00    -0.237 OA
ATOM     67  O   UNL A   1      42.151  37.236  34.247  1.00  0.00    -0.744 OA
ENDBRANCH  63  64
ENDBRANCH  44  58
BRANCH  45  68
ATOM     68  C   UNL A   1      42.709  23.658  27.917  1.00  0.00    -0.014 A 
ATOM     69  C   UNL A   1      42.258  22.535  28.632  1.00  0.00     0.010 A 
ATOM     70  C   UNL A   1      43.066  23.508  26.564  1.00  0.00     0.010 A 
ATOM     71  C   UNL A   1      42.177  21.285  28.011  1.00  0.00     0.020 A 
ATOM     72  C   UNL A   1      42.960  22.266  25.931  1.00  0.00     0.020 A 
ATOM     73  C   UNL A   1      42.525  21.160  26.662  1.00  0.00     0.054 A 
BRANCH  73  74
ATOM     74  S   UNL A   1      42.353  19.541  25.860  1.00  0.00     0.124 S 
ATOM     75  O   UNL A   1      42.672  18.625  26.951  1.00  0.00    -0.237 OA
ATOM     76  O   UNL A   1      40.958  19.550  25.427  1.00  0.00    -0.237 OA
ATOM     77  O   UNL A   1      43.333  19.591  24.777  1.00  0.00    -0.744 OA
ENDBRANCH  73  74
ENDBRANCH  45  68
BRANCH  57  78
ATOM     78  C   UNL A   1      47.857  27.094  31.146  1.00  0.00    -0.014 A 
ATOM     79  C   UNL A   1      48.899  27.353  30.238  1.00  0.00     0.010 A 
ATOM     80  C   UNL A   1      48.164  26.538  32.402  1.00  0.00     0.010 A 
ATOM     81  C   UNL A   1      50.219  27.035  30.568  1.00  0.00     0.020 A 
ATOM     82  C   UNL A   1      49.486  26.243  32.746  1.00  0.00     0.020 A 
ATOM     83  C   UNL A   1      50.505  26.482  31.821  1.00  0.00     0.054 A 
BRANCH  83  84
ATOM     84  S   UNL A   1      52.231  26.120  32.243  1.00  0.00     0.124 S 
ATOM     85  O   UNL A   1      52.958  26.940  31.279  1.00  0.00    -0.237 OA
ATOM     86  O   UNL A   1      52.320  26.558  33.634  1.00  0.00    -0.237 OA
ATOM     87  O   UNL A   1      52.342  24.677  32.043  1.00  0.00    -0.744 OA
ENDBRANCH  83  84
ENDBRANCH  57  78
ENDBRANCH  31  32
ENDBRANCH  24  26
ENDBRANCH  23  24
ENDBRANCH  22  23
ENDBRANCH  21  22
ENDBRANCH  20  21
ENDBRANCH   1  20
TORSDOF 22
ENDMDL
MODEL 2
REMARK VINA RESULT:      -8.8      5.103      9.852
REMARK SMILES CN(C)c1cccc(C(=O)CCCC(=O)OCCOCCOC(=O)c2ccc(-c3c4nc(c(-c5ccc(S(=O)(=O)[O-])cc5)c5ccc([nH]5)c(-c5ccc(S(=O)(=O)[O-])cc5)c5nc(c(-c6ccc(S(=O)(=O)[O-])cc6)c6ccc3[nH]6)C=C5)C=C4)cc2)c1
REMARK SMILES IDX 18 1 17 2 16 3 14 4 15 5 13 6 12 7 11 8 9 9 10 10 8 11 4 12
REMARK SMILES IDX 5 13 85 14 6 15 7 16 2 17 1 18 3 19 19 20 20 21 21 22 22 23
REMARK SMILES IDX 23 24 24 25 25 26 26 27 84 28 27 29 83 30 28 31 29 32 30 33
REMARK SMILES IDX 77 34 31 35 82 36 76 37 78 38 32 39 81 40 75 41 74 42 33 44
REMARK SMILES IDX 63 45 44 46 62 47 45 48 48 49 61 50 79 51 46 52 47 53 60 55
REMARK SMILES IDX 80 56 49 57 34 58 35 59 43 60 36 61 42 62 37 63 38 64 39 65
REMARK SMILES IDX 40 66 41 67 64 68 65 69 73 70 66 71 72 72 67 73 68 74 69 75
REMARK SMILES IDX 70 76 71 77 50 78 51 79 59 80 52 81 58 82 53 83 54 84 55 85
REMARK SMILES IDX 56 86 57 87
REMARK H PARENT 78 43 48 54
REMARK Flexibility Score: inf
ROOT
ATOM      1  C   UNL A   1      41.720  21.580  27.575  1.00  0.00     0.202 C 
ENDROOT
BRANCH   1   2
ATOM      2  C   UNL A   1      40.366  21.902  26.942  1.00  0.00     0.261 C 
BRANCH   2   3
ATOM      3  O   UNL A   1      39.754  23.077  27.505  1.00  0.00    -0.463 OA
BRANCH   3   4
ATOM      4  C   UNL A   1      39.044  23.853  26.645  1.00  0.00     0.305 C 
ATOM      5  O   UNL A   1      39.442  24.903  26.154  1.00  0.00    -0.252 OA
BRANCH   4   6
ATOM      6  C   UNL A   1      37.659  23.304  26.354  1.00  0.00     0.123 C 
BRANCH   6   7
ATOM      7  C   UNL A   1      37.318  22.847  24.932  1.00  0.00     0.020 C 
BRANCH   7   8
ATOM      8  C   UNL A   1      35.993  22.113  24.681  1.00  0.00     0.081 C 
BRANCH   8   9
ATOM      9  C   UNL A   1      36.029  20.597  24.867  1.00  0.00     0.162 C 
ATOM     10  O   UNL A   1      37.086  20.024  25.130  1.00  0.00    -0.294 OA
BRANCH   9  11
ATOM     11  C   UNL A   1      34.791  19.783  24.660  1.00  0.00     0.020 A 
ATOM     12  C   UNL A   1      33.755  17.577  24.691  1.00  0.00     0.037 A 
ATOM     13  C   UNL A   1      32.501  18.175  24.763  1.00  0.00     0.026 A 
ATOM     14  C   UNL A   1      34.868  18.401  24.532  1.00  0.00     0.037 A 
ATOM     15  C   UNL A   1      32.385  19.570  24.737  1.00  0.00     0.003 A 
ATOM     16  C   UNL A   1      33.531  20.374  24.725  1.00  0.00     0.012 A 
BRANCH  12  17
ATOM     17  N   UNL A   1      33.989  16.223  24.898  1.00  0.00    -0.378 N 
ATOM     18  C   UNL A   1      35.338  15.883  25.340  1.00  0.00     0.143 C 
ATOM     19  C   UNL A   1      32.892  15.411  25.386  1.00  0.00     0.143 C 
ENDBRANCH  12  17
ENDBRANCH   9  11
ENDBRANCH   8   9
ENDBRANCH   7   8
ENDBRANCH   6   7
ENDBRANCH   4   6
ENDBRANCH   3   4
ENDBRANCH   2   3
ENDBRANCH   1   2
BRANCH   1  20
ATOM     20  O   UNL A   1      42.168  20.228  27.516  1.00  0.00    -0.374 OA
BRANCH  20  21
ATOM     21  C   UNL A   1      41.954  19.495  26.314  1.00  0.00     0.202 C 
BRANCH  21  22
ATOM     22  C   UNL A   1      43.174  18.916  25.587  1.00  0.00     0.261 C 
BRANCH  22  23
ATOM     23  O   UNL A   1      43.590  19.663  24.431  1.00  0.00    -0.460 OA
BRANCH  23  24
ATOM     24  C   UNL A   1      44.812  20.238  24.564  1.00  0.00     0.338 C 
ATOM     25  O   UNL A   1      45.871  19.822  24.122  1.00  0.00    -0.246 OA
BRANCH  24  26
ATOM     26  C   UNL A   1      44.712  21.559  25.213  1.00  0.00     0.060 A 
ATOM     27  C   UNL A   1      44.249  22.625  24.433  1.00  0.00     0.016 A 
ATOM     28  C   UNL A   1      45.217  21.780  26.495  1.00  0.00     0.016 A 
ATOM     29  C   UNL A   1      44.356  23.930  24.903  1.00  0.00     0.010 A 
ATOM     30  C   UNL A   1      45.332  23.094  26.963  1.00  0.00     0.010 A 
ATOM     31  C   UNL A   1      44.949  24.175  26.149  1.00  0.00    -0.014 A 
BRANCH  31  32
ATOM     32  C   UNL A   1      45.330  25.563  26.507  1.00  0.00     0.031 A 
ATOM     33  C   UNL A   1      44.271  26.496  27.033  1.00  0.00     0.074 A 
ATOM     34  C   UNL A   1      46.608  25.972  26.414  1.00  0.00     0.049 A 
ATOM     35  N   UNL A   1      44.374  27.748  27.394  1.00  0.00    -0.248 NA
ATOM     36  C   UNL A   1      42.914  25.940  27.172  1.00  0.00     0.031 C 
ATOM     37  C   UNL A   1      47.730  25.144  25.974  1.00  0.00     0.029 A 
ATOM     38  N   UNL A   1      47.174  27.191  26.686  1.00  0.00    -0.354 N 
ATOM     39  C   UNL A   1      43.099  28.133  27.794  1.00  0.00     0.074 A 
ATOM     40  C   UNL A   1      42.232  26.990  27.607  1.00  0.00     0.031 C 
ATOM     41  C   UNL A   1      48.853  25.883  26.001  1.00  0.00     0.029 A 
ATOM     42  C   UNL A   1      48.523  27.242  26.426  1.00  0.00     0.049 A 
ATOM     43  H   UNL A   1      46.663  27.957  27.034  1.00  0.00     0.167 HD
ATOM     44  C   UNL A   1      42.687  29.329  28.277  1.00  0.00     0.031 A 
ATOM     45  C   UNL A   1      49.387  28.273  26.502  1.00  0.00     0.031 A 
ATOM     46  C   UNL A   1      43.549  30.468  28.448  1.00  0.00     0.049 A 
ATOM     47  C   UNL A   1      48.890  29.616  26.966  1.00  0.00     0.074 A 
ATOM     48  C   UNL A   1      43.232  31.724  28.936  1.00  0.00     0.029 A 
ATOM     49  N   UNL A   1      44.899  30.491  28.129  1.00  0.00    -0.354 N 
ATOM     50  N   UNL A   1      47.685  29.961  27.354  1.00  0.00    -0.248 NA
ATOM     51  C   UNL A   1      49.872  30.709  27.009  1.00  0.00     0.031 C 
ATOM     52  C   UNL A   1      44.378  32.523  28.860  1.00  0.00     0.029 A 
ATOM     53  C   UNL A   1      45.423  31.747  28.383  1.00  0.00     0.049 A 
ATOM     54  H   UNL A   1      45.409  29.728  27.774  1.00  0.00     0.167 HD
ATOM     55  C   UNL A   1      47.770  31.303  27.710  1.00  0.00     0.074 A 
ATOM     56  C   UNL A   1      49.147  31.703  27.505  1.00  0.00     0.031 C 
ATOM     57  C   UNL A   1      46.797  32.129  28.171  1.00  0.00     0.031 A 
BRANCH  44  58
ATOM     58  C   UNL A   1      41.227  29.477  28.619  1.00  0.00    -0.014 A 
ATOM     59  C   UNL A   1      40.229  29.344  27.637  1.00  0.00     0.010 A 
ATOM     60  C   UNL A   1      40.847  29.723  29.951  1.00  0.00     0.010 A 
ATOM     61  C   UNL A   1      38.880  29.494  27.975  1.00  0.00     0.020 A 
ATOM     62  C   UNL A   1      39.498  29.848  30.297  1.00  0.00     0.020 A 
ATOM     63  C   UNL A   1      38.524  29.750  29.302  1.00  0.00     0.054 A 
BRANCH  63  64
ATOM     64  S   UNL A   1      36.766  29.924  29.716  1.00  0.00     0.124 S 
ATOM     65  O   UNL A   1      36.648  29.072  30.897  1.00  0.00    -0.237 OA
ATOM     66  O   UNL A   1      36.636  31.359  29.962  1.00  0.00    -0.237 OA
ATOM     67  O   UNL A   1      36.078  29.435  28.524  1.00  0.00    -0.744 OA
ENDBRANCH  63  64
ENDBRANCH  44  58
BRANCH  45  68
ATOM     68  C   UNL A   1      50.809  28.076  26.110  1.00  0.00    -0.014 A 
ATOM     69  C   UNL A   1      51.674  27.302  26.902  1.00  0.00     0.010 A 
ATOM     70  C   UNL A   1      51.303  28.660  24.929  1.00  0.00     0.010 A 
ATOM     71  C   UNL A   1      53.009  27.124  26.526  1.00  0.00     0.020 A 
ATOM     72  C   UNL A   1      52.630  28.462  24.535  1.00  0.00     0.020 A 
ATOM     73  C   UNL A   1      53.477  27.702  25.342  1.00  0.00     0.054 A 
BRANCH  73  74
ATOM     74  S   UNL A   1      55.196  27.407  24.842  1.00  0.00     0.124 S 
ATOM     75  O   UNL A   1      55.762  26.800  26.043  1.00  0.00    -0.237 OA
ATOM     76  O   UNL A   1      55.043  26.516  23.694  1.00  0.00    -0.237 OA
ATOM     77  O   UNL A   1      55.693  28.743  24.521  1.00  0.00    -0.744 OA
ENDBRANCH  73  74
ENDBRANCH  45  68
BRANCH  57  78
ATOM     78  C   UNL A   1      47.190  33.541  28.515  1.00  0.00    -0.014 A 
ATOM     79  C   UNL A   1      47.679  33.873  29.791  1.00  0.00     0.010 A 
ATOM     80  C   UNL A   1      47.125  34.538  27.524  1.00  0.00     0.010 A 
ATOM     81  C   UNL A   1      48.067  35.185  30.078  1.00  0.00     0.020 A 
ATOM     82  C   UNL A   1      47.538  35.844  27.800  1.00  0.00     0.020 A 
ATOM     83  C   UNL A   1      47.994  36.163  29.081  1.00  0.00     0.054 A 
BRANCH  83  84
ATOM     84  S   UNL A   1      48.547  37.847  29.465  1.00  0.00     0.124 S 
ATOM     85  O   UNL A   1      49.394  37.629  30.634  1.00  0.00    -0.237 OA
ATOM     86  O   UNL A   1      49.248  38.241  28.246  1.00  0.00    -0.237 OA
ATOM     87  O   UNL A   1      47.303  38.569  29.723  1.00  0.00    -0.744 OA
ENDBRANCH  83  84
ENDBRANCH  57  78
ENDBRANCH  31  32
ENDBRANCH  24  26
ENDBRANCH  23  24
ENDBRANCH  22  23
ENDBRANCH  21  22
ENDBRANCH  20  21
ENDBRANCH   1  20
TORSDOF 22
ENDMDL
MODEL 3
REMARK VINA RESULT:      -8.7      5.911     12.281
REMARK SMILES CN(C)c1cccc(C(=O)CCCC(=O)OCCOCCOC(=O)c2ccc(-c3c4nc(c(-c5ccc(S(=O)(=O)[O-])cc5)c5ccc([nH]5)c(-c5ccc(S(=O)(=O)[O-])cc5)c5nc(c(-c6ccc(S(=O)(=O)[O-])cc6)c6ccc3[nH]6)C=C5)C=C4)cc2)c1
REMARK SMILES IDX 18 1 17 2 16 3 14 4 15 5 13 6 12 7 11 8 9 9 10 10 8 11 4 12
REMARK SMILES IDX 5 13 85 14 6 15 7 16 2 17 1 18 3 19 19 20 20 21 21 22 22 23
REMARK SMILES IDX 23 24 24 25 25 26 26 27 84 28 27 29 83 30 28 31 29 32 30 33
REMARK SMILES IDX 77 34 31 35 82 36 76 37 78 38 32 39 81 40 75 41 74 42 33 44
REMARK SMILES IDX 63 45 44 46 62 47 45 48 48 49 61 50 79 51 46 52 47 53 60 55
REMARK SMILES IDX 80 56 49 57 34 58 35 59 43 60 36 61 42 62 37 63 38 64 39 65
REMARK SMILES IDX 40 66 41 67 64 68 65 69 73 70 66 71 72 72 67 73 68 74 69 75
REMARK SMILES IDX 70 76 71 77 50 78 51 79 59 80 52 81 58 82 53 83 54 84 55 85
REMARK SMILES IDX 56 86 57 87
REMARK H PARENT 78 43 48 54
REMARK Flexibility Score: inf
ROOT
ATOM      1  C   UNL A   1      42.484  23.356  28.432  1.00  0.00     0.202 C 
ENDROOT
BRANCH   1   2
ATOM      2  C   UNL A   1      43.072  24.763  28.333  1.00  0.00     0.261 C 
BRANCH   2   3
ATOM      3  O   UNL A   1      43.091  25.449  29.598  1.00  0.00    -0.463 OA
BRANCH   3   4
ATOM      4  C   UNL A   1      44.245  25.364  30.309  1.00  0.00     0.305 C 
ATOM      5  O   UNL A   1      44.446  24.583  31.232  1.00  0.00    -0.252 OA
BRANCH   4   6
ATOM      6  C   UNL A   1      45.292  26.371  29.867  1.00  0.00     0.123 C 
BRANCH   6   7
ATOM      7  C   UNL A   1      46.456  25.902  28.986  1.00  0.00     0.020 C 
BRANCH   7   8
ATOM      8  C   UNL A   1      46.445  24.470  28.434  1.00  0.00     0.081 C 
BRANCH   8   9
ATOM      9  C   UNL A   1      46.908  24.313  26.987  1.00  0.00     0.162 C 
ATOM     10  O   UNL A   1      48.026  24.698  26.642  1.00  0.00    -0.294 OA
BRANCH   9  11
ATOM     11  C   UNL A   1      45.981  23.755  25.955  1.00  0.00     0.020 A 
ATOM     12  C   UNL A   1      44.885  21.784  25.030  1.00  0.00     0.037 A 
ATOM     13  C   UNL A   1      43.949  22.605  24.409  1.00  0.00     0.026 A 
ATOM     14  C   UNL A   1      45.946  22.389  25.701  1.00  0.00     0.037 A 
ATOM     15  C   UNL A   1      44.052  23.997  24.520  1.00  0.00     0.003 A 
ATOM     16  C   UNL A   1      45.043  24.571  25.324  1.00  0.00     0.012 A 
BRANCH  12  17
ATOM     17  N   UNL A   1      44.766  20.404  25.137  1.00  0.00    -0.378 N 
ATOM     18  C   UNL A   1      43.467  19.924  25.600  1.00  0.00     0.143 C 
ATOM     19  C   UNL A   1      45.493  19.583  24.188  1.00  0.00     0.143 C 
ENDBRANCH  12  17
ENDBRANCH   9  11
ENDBRANCH   8   9
ENDBRANCH   7   8
ENDBRANCH   6   7
ENDBRANCH   4   6
ENDBRANCH   3   4
ENDBRANCH   2   3
ENDBRANCH   1   2
BRANCH   1  20
ATOM     20  O   UNL A   1      42.195  22.677  27.214  1.00  0.00    -0.374 OA
BRANCH  20  21
ATOM     21  C   UNL A   1      40.918  22.872  26.614  1.00  0.00     0.202 C 
BRANCH  21  22
ATOM     22  C   UNL A   1      39.937  23.841  27.286  1.00  0.00     0.261 C 
BRANCH  22  23
ATOM     23  O   UNL A   1      39.541  24.953  26.465  1.00  0.00    -0.460 OA
BRANCH  23  24
ATOM     24  C   UNL A   1      40.386  26.012  26.538  1.00  0.00     0.338 C 
ATOM     25  O   UNL A   1      41.294  26.279  25.768  1.00  0.00    -0.246 OA
BRANCH  24  26
ATOM     26  C   UNL A   1      39.992  26.935  27.618  1.00  0.00     0.060 A 
ATOM     27  C   UNL A   1      40.535  28.225  27.592  1.00  0.00     0.016 A 
ATOM     28  C   UNL A   1      39.250  26.496  28.716  1.00  0.00     0.016 A 
ATOM     29  C   UNL A   1      40.401  29.060  28.697  1.00  0.00     0.010 A 
ATOM     30  C   UNL A   1      39.122  27.334  29.829  1.00  0.00     0.010 A 
ATOM     31  C   UNL A   1      39.740  28.598  29.843  1.00  0.00    -0.014 A 
BRANCH  31  32
ATOM     32  C   UNL A   1      39.860  29.366  31.106  1.00  0.00     0.031 A 
ATOM     33  C   UNL A   1      41.018  29.077  32.026  1.00  0.00     0.074 A 
ATOM     34  C   UNL A   1      38.983  30.340  31.405  1.00  0.00     0.049 A 
ATOM     35  N   UNL A   1      41.313  29.615  33.181  1.00  0.00    -0.248 NA
ATOM     36  C   UNL A   1      41.971  28.045  31.582  1.00  0.00     0.031 C 
ATOM     37  C   UNL A   1      37.857  30.750  30.567  1.00  0.00     0.029 A 
ATOM     38  N   UNL A   1      38.906  31.163  32.500  1.00  0.00    -0.354 N 
ATOM     39  C   UNL A   1      42.477  28.983  33.606  1.00  0.00     0.074 A 
ATOM     40  C   UNL A   1      42.821  28.005  32.597  1.00  0.00     0.031 C 
ATOM     41  C   UNL A   1      37.196  31.746  31.183  1.00  0.00     0.029 A 
ATOM     42  C   UNL A   1      37.831  32.019  32.471  1.00  0.00     0.049 A 
ATOM     43  H   UNL A   1      39.559  31.141  33.237  1.00  0.00     0.167 HD
ATOM     44  C   UNL A   1      43.197  29.202  34.732  1.00  0.00     0.031 A 
ATOM     45  C   UNL A   1      37.397  32.905  33.388  1.00  0.00     0.031 A 
ATOM     46  C   UNL A   1      42.844  30.167  35.738  1.00  0.00     0.049 A 
ATOM     47  C   UNL A   1      38.169  33.074  34.670  1.00  0.00     0.074 A 
ATOM     48  C   UNL A   1      43.510  30.470  36.913  1.00  0.00     0.029 A 
ATOM     49  N   UNL A   1      41.722  30.981  35.692  1.00  0.00    -0.354 N 
ATOM     50  N   UNL A   1      39.276  32.480  35.051  1.00  0.00    -0.248 NA
ATOM     51  C   UNL A   1      37.638  34.039  35.642  1.00  0.00     0.031 C 
ATOM     52  C   UNL A   1      42.761  31.428  37.603  1.00  0.00     0.029 A 
ATOM     53  C   UNL A   1      41.661  31.767  36.830  1.00  0.00     0.049 A 
ATOM     54  H   UNL A   1      41.065  30.997  34.959  1.00  0.00     0.167 HD
ATOM     55  C   UNL A   1      39.586  33.017  36.296  1.00  0.00     0.074 A 
ATOM     56  C   UNL A   1      38.558  33.993  36.597  1.00  0.00     0.031 C 
ATOM     57  C   UNL A   1      40.629  32.732  37.115  1.00  0.00     0.031 A 
BRANCH  44  58
ATOM     58  C   UNL A   1      44.421  28.351  34.951  1.00  0.00    -0.014 A 
ATOM     59  C   UNL A   1      44.345  27.120  35.626  1.00  0.00     0.010 A 
ATOM     60  C   UNL A   1      45.663  28.778  34.447  1.00  0.00     0.010 A 
ATOM     61  C   UNL A   1      45.495  26.351  35.827  1.00  0.00     0.020 A 
ATOM     62  C   UNL A   1      46.811  27.999  34.622  1.00  0.00     0.020 A 
ATOM     63  C   UNL A   1      46.722  26.798  35.327  1.00  0.00     0.054 A 
BRANCH  63  64
ATOM     64  S   UNL A   1      48.197  25.773  35.588  1.00  0.00     0.124 S 
ATOM     65  O   UNL A   1      48.997  26.617  36.472  1.00  0.00    -0.237 OA
ATOM     66  O   UNL A   1      47.644  24.568  36.203  1.00  0.00    -0.237 OA
ATOM     67  O   UNL A   1      48.736  25.591  34.243  1.00  0.00    -0.744 OA
ENDBRANCH  63  64
ENDBRANCH  44  58
BRANCH  45  68
ATOM     68  C   UNL A   1      36.156  33.685  33.133  1.00  0.00    -0.014 A 
ATOM     69  C   UNL A   1      36.205  34.911  32.447  1.00  0.00     0.010 A 
ATOM     70  C   UNL A   1      34.912  33.197  33.572  1.00  0.00     0.010 A 
ATOM     71  C   UNL A   1      35.034  35.639  32.213  1.00  0.00     0.020 A 
ATOM     72  C   UNL A   1      33.735  33.908  33.316  1.00  0.00     0.020 A 
ATOM     73  C   UNL A   1      33.806  35.130  32.646  1.00  0.00     0.054 A 
BRANCH  73  74
ATOM     74  S   UNL A   1      32.293  36.061  32.277  1.00  0.00     0.124 S 
ATOM     75  O   UNL A   1      31.257  35.055  32.489  1.00  0.00    -0.237 OA
ATOM     76  O   UNL A   1      32.338  37.140  33.262  1.00  0.00    -0.237 OA
ATOM     77  O   UNL A   1      32.481  36.486  30.892  1.00  0.00    -0.744 OA
ENDBRANCH  73  74
ENDBRANCH  45  68
BRANCH  57  78
ATOM     78  C   UNL A   1      40.733  33.506  38.402  1.00  0.00    -0.014 A 
ATOM     79  C   UNL A   1      41.493  34.686  38.487  1.00  0.00     0.010 A 
ATOM     80  C   UNL A   1      40.008  33.075  39.529  1.00  0.00     0.010 A 
ATOM     81  C   UNL A   1      41.550  35.405  39.684  1.00  0.00     0.020 A 
ATOM     82  C   UNL A   1      40.042  33.805  40.719  1.00  0.00     0.020 A 
ATOM     83  C   UNL A   1      40.824  34.960  40.794  1.00  0.00     0.054 A 
BRANCH  83  84
ATOM     84  S   UNL A   1      40.878  35.934  42.322  1.00  0.00     0.124 S 
ATOM     85  O   UNL A   1      39.834  36.928  42.086  1.00  0.00    -0.237 OA
ATOM     86  O   UNL A   1      40.577  34.940  43.349  1.00  0.00    -0.237 OA
ATOM     87  O   UNL A   1      42.242  36.458  42.351  1.00  0.00    -0.744 OA
ENDBRANCH  83  84
ENDBRANCH  57  78
ENDBRANCH  31  32
ENDBRANCH  24  26
ENDBRANCH  23  24
ENDBRANCH  22  23
ENDBRANCH  21  22
ENDBRANCH  20  21
ENDBRANCH   1  20
TORSDOF 22
ENDMDL
