MODEL 1
REMARK VINA RESULT:      -9.3      0.000      0.000
REMARK SMILES CN(CC(=O)OCCOCCOC(=O)c1ccc(-c2c3nc(c(-c4ccc(S(=O)(=O)[O-])cc4)c4ccc([nH]4)c(-c4ccc(S(=O)(=O)[O-])cc4)c4nc(c(-c5ccc(S(=O)(=O)[O-])cc5)c5ccc2[nH]5)C=C4)C=C3)cc1)C(=O)N[C@@H]1C[C@H]1c1ccccc1
REMARK SMILES IDX 8 1 7 2 6 3 4 4 5 5 3 6 2 7 1 8 75 9 76 10 77 11 78 13 79 14
REMARK SMILES IDX 80 15 81 16 82 17 86 18 83 19 85 20 84 21 9 22 10 23 11 24
REMARK SMILES IDX 12 25 13 26 14 27 15 28 16 29 74 30 17 31 73 32 18 33 19 34
REMARK SMILES IDX 20 35 67 36 21 37 72 38 66 39 68 40 22 41 71 42 65 43 64 44
REMARK SMILES IDX 23 46 53 47 34 48 52 49 35 50 38 51 51 52 69 53 36 54 37 55
REMARK SMILES IDX 50 57 70 58 39 59 24 60 25 61 33 62 26 63 32 64 27 65 28 66
REMARK SMILES IDX 29 67 30 68 31 69 54 70 55 71 63 72 56 73 62 74 57 75 58 76
REMARK SMILES IDX 59 77 60 78 61 79 40 80 41 81 49 82 42 83 48 84 43 85 44 86
REMARK SMILES IDX 45 87 46 88 47 89
REMARK H PARENT 77 12 68 45 38 56
REMARK Flexibility Score: inf
ROOT
ATOM      1  C   UNL A   1      31.192  28.358  23.695  1.00  0.00     0.202 C 
ENDROOT
BRANCH   1   2
ATOM      2  C   UNL A   1      31.222  27.020  22.947  1.00  0.00     0.261 C 
BRANCH   2   3
ATOM      3  O   UNL A   1      32.447  26.879  22.196  1.00  0.00    -0.462 OA
BRANCH   3   4
ATOM      4  C   UNL A   1      32.806  25.593  21.945  1.00  0.00     0.325 C 
ATOM      5  O   UNL A   1      33.171  25.191  20.843  1.00  0.00    -0.250 OA
BRANCH   4   6
ATOM      6  C   UNL A   1      32.908  24.724  23.209  1.00  0.00     0.243 C 
BRANCH   6   7
ATOM      7  N   UNL A   1      32.086  23.519  23.337  1.00  0.00    -0.317 N 
ATOM      8  C   UNL A   1      30.820  23.714  24.041  1.00  0.00     0.149 C 
BRANCH   7   9
ATOM      9  C   UNL A   1      32.362  22.233  22.986  1.00  0.00     0.317 C 
ATOM     10  O   UNL A   1      31.807  21.719  22.002  1.00  0.00    -0.249 OA
ATOM     11  N   UNL A   1      33.176  21.375  23.632  1.00  0.00    -0.335 N 
ATOM     12  H   UNL A   1      32.933  20.450  23.399  1.00  0.00     0.165 HD
BRANCH  11  13
ATOM     13  C   UNL A   1      34.272  21.368  24.539  1.00  0.00     0.092 C 
ATOM     14  C   UNL A   1      34.060  21.381  26.045  1.00  0.00     0.036 C 
ATOM     15  C   UNL A   1      34.821  22.471  25.381  1.00  0.00     0.044 C 
BRANCH  15  16
ATOM     16  C   UNL A   1      36.294  22.668  25.566  1.00  0.00    -0.043 A 
ATOM     17  C   UNL A   1      37.137  21.556  25.410  1.00  0.00     0.004 A 
ATOM     18  C   UNL A   1      36.874  23.867  26.009  1.00  0.00     0.004 A 
ATOM     19  C   UNL A   1      38.487  21.617  25.740  1.00  0.00     0.000 A 
ATOM     20  C   UNL A   1      38.230  23.939  26.327  1.00  0.00     0.000 A 
ATOM     21  C   UNL A   1      39.031  22.806  26.210  1.00  0.00     0.000 A 
ENDBRANCH  15  16
ENDBRANCH  11  13
ENDBRANCH   7   9
ENDBRANCH   6   7
ENDBRANCH   4   6
ENDBRANCH   3   4
ENDBRANCH   2   3
ENDBRANCH   1   2
BRANCH   1  22
ATOM     22  O   UNL A   1      31.392  28.327  25.115  1.00  0.00    -0.374 OA
BRANCH  22  23
ATOM     23  C   UNL A   1      32.519  27.587  25.582  1.00  0.00     0.202 C 
BRANCH  23  24
ATOM     24  C   UNL A   1      33.863  28.294  25.725  1.00  0.00     0.261 C 
BRANCH  24  25
ATOM     25  O   UNL A   1      34.270  28.362  27.084  1.00  0.00    -0.460 OA
BRANCH  25  26
ATOM     26  C   UNL A   1      34.542  29.622  27.496  1.00  0.00     0.338 C 
ATOM     27  O   UNL A   1      33.774  30.555  27.603  1.00  0.00    -0.246 OA
BRANCH  26  28
ATOM     28  C   UNL A   1      35.914  29.619  28.021  1.00  0.00     0.060 A 
ATOM     29  C   UNL A   1      36.942  29.935  27.122  1.00  0.00     0.016 A 
ATOM     30  C   UNL A   1      36.176  29.347  29.366  1.00  0.00     0.016 A 
ATOM     31  C   UNL A   1      38.256  29.905  27.553  1.00  0.00     0.010 A 
ATOM     32  C   UNL A   1      37.495  29.308  29.795  1.00  0.00     0.010 A 
ATOM     33  C   UNL A   1      38.530  29.529  28.872  1.00  0.00    -0.014 A 
BRANCH  33  34
ATOM     34  C   UNL A   1      39.894  29.111  29.225  1.00  0.00     0.031 A 
ATOM     35  C   UNL A   1      40.762  30.116  29.925  1.00  0.00     0.074 A 
ATOM     36  C   UNL A   1      40.320  27.873  28.933  1.00  0.00     0.049 A 
ATOM     37  N   UNL A   1      42.013  30.023  30.279  1.00  0.00    -0.248 NA
ATOM     38  C   UNL A   1      40.133  31.408  30.262  1.00  0.00     0.031 C 
ATOM     39  C   UNL A   1      39.514  26.828  28.301  1.00  0.00     0.029 A 
ATOM     40  N   UNL A   1      41.542  27.293  29.125  1.00  0.00    -0.354 N 
ATOM     41  C   UNL A   1      42.326  31.246  30.861  1.00  0.00     0.074 A 
ATOM     42  C   UNL A   1      41.148  32.078  30.783  1.00  0.00     0.031 C 
ATOM     43  C   UNL A   1      40.273  25.729  28.152  1.00  0.00     0.029 A 
ATOM     44  C   UNL A   1      41.620  26.012  28.638  1.00  0.00     0.049 A 
ATOM     45  H   UNL A   1      42.293  27.749  29.570  1.00  0.00     0.167 HD
ATOM     46  C   UNL A   1      43.497  31.634  31.415  1.00  0.00     0.031 A 
ATOM     47  C   UNL A   1      42.678  25.183  28.574  1.00  0.00     0.031 A 
ATOM     48  C   UNL A   1      44.655  30.786  31.458  1.00  0.00     0.049 A 
ATOM     49  C   UNL A   1      43.994  25.664  29.127  1.00  0.00     0.074 A 
ATOM     50  C   UNL A   1      45.898  31.051  31.998  1.00  0.00     0.029 A 
ATOM     51  N   UNL A   1      44.709  29.503  30.927  1.00  0.00    -0.354 N 
ATOM     52  N   UNL A   1      44.278  26.813  29.696  1.00  0.00    -0.248 NA
ATOM     53  C   UNL A   1      45.129  24.738  29.034  1.00  0.00     0.031 C 
ATOM     54  C   UNL A   1      46.724  29.954  31.735  1.00  0.00     0.029 A 
ATOM     55  C   UNL A   1      45.974  28.973  31.101  1.00  0.00     0.049 A 
ATOM     56  H   UNL A   1      43.957  29.039  30.493  1.00  0.00     0.167 HD
ATOM     57  C   UNL A   1      45.616  26.735  30.063  1.00  0.00     0.074 A 
ATOM     58  C   UNL A   1      46.080  25.423  29.655  1.00  0.00     0.031 C 
ATOM     59  C   UNL A   1      46.394  27.657  30.684  1.00  0.00     0.031 A 
BRANCH  46  60
ATOM     60  C   UNL A   1      43.582  33.034  31.961  1.00  0.00    -0.014 A 
ATOM     61  C   UNL A   1      43.402  33.302  33.331  1.00  0.00     0.010 A 
ATOM     62  C   UNL A   1      43.857  34.103  31.089  1.00  0.00     0.010 A 
ATOM     63  C   UNL A   1      43.453  34.615  33.810  1.00  0.00     0.020 A 
ATOM     64  C   UNL A   1      43.941  35.413  31.569  1.00  0.00     0.020 A 
ATOM     65  C   UNL A   1      43.722  35.662  32.925  1.00  0.00     0.054 A 
BRANCH  65  66
ATOM     66  S   UNL A   1      43.803  37.352  33.578  1.00  0.00     0.124 S 
ATOM     67  O   UNL A   1      45.037  37.315  34.358  1.00  0.00    -0.237 OA
ATOM     68  O   UNL A   1      43.851  38.161  32.363  1.00  0.00    -0.237 OA
ATOM     69  O   UNL A   1      42.576  37.482  34.362  1.00  0.00    -0.744 OA
ENDBRANCH  65  66
ENDBRANCH  46  60
BRANCH  47  70
ATOM     70  C   UNL A   1      42.529  23.833  27.967  1.00  0.00    -0.014 A 
ATOM     71  C   UNL A   1      42.870  23.612  26.623  1.00  0.00     0.010 A 
ATOM     72  C   UNL A   1      42.066  22.752  28.741  1.00  0.00     0.010 A 
ATOM     73  C   UNL A   1      42.737  22.340  26.058  1.00  0.00     0.020 A 
ATOM     74  C   UNL A   1      41.960  21.473  28.190  1.00  0.00     0.020 A 
ATOM     75  C   UNL A   1      42.286  21.277  26.846  1.00  0.00     0.054 A 
BRANCH  75  76
ATOM     76  S   UNL A   1      42.166  19.628  26.102  1.00  0.00     0.124 S 
ATOM     77  O   UNL A   1      42.627  18.770  27.188  1.00  0.00    -0.237 OA
ATOM     78  O   UNL A   1      40.744  19.533  25.779  1.00  0.00    -0.237 OA
ATOM     79  O   UNL A   1      43.056  19.708  24.946  1.00  0.00    -0.744 OA
ENDBRANCH  75  76
ENDBRANCH  47  70
BRANCH  59  80
ATOM     80  C   UNL A   1      47.809  27.264  31.004  1.00  0.00    -0.014 A 
ATOM     81  C   UNL A   1      48.132  26.608  32.204  1.00  0.00     0.010 A 
ATOM     82  C   UNL A   1      48.814  27.477  30.042  1.00  0.00     0.010 A 
ATOM     83  C   UNL A   1      49.442  26.191  32.445  1.00  0.00     0.020 A 
ATOM     84  C   UNL A   1      50.117  27.031  30.265  1.00  0.00     0.020 A 
ATOM     85  C   UNL A   1      50.425  26.399  31.471  1.00  0.00     0.054 A 
BRANCH  85  86
ATOM     86  S   UNL A   1      52.100  25.782  31.780  1.00  0.00     0.124 S 
ATOM     87  O   UNL A   1      51.852  24.382  32.115  1.00  0.00    -0.237 OA
ATOM     88  O   UNL A   1      52.766  26.014  30.500  1.00  0.00    -0.237 OA
ATOM     89  O   UNL A   1      52.578  26.611  32.883  1.00  0.00    -0.744 OA
ENDBRANCH  85  86
ENDBRANCH  59  80
ENDBRANCH  33  34
ENDBRANCH  26  28
ENDBRANCH  25  26
ENDBRANCH  24  25
ENDBRANCH  23  24
ENDBRANCH  22  23
ENDBRANCH   1  22
TORSDOF 21
ENDMDL
MODEL 2
REMARK VINA RESULT:      -9.3      4.833     10.677
REMARK SMILES CN(CC(=O)OCCOCCOC(=O)c1ccc(-c2c3nc(c(-c4ccc(S(=O)(=O)[O-])cc4)c4ccc([nH]4)c(-c4ccc(S(=O)(=O)[O-])cc4)c4nc(c(-c5ccc(S(=O)(=O)[O-])cc5)c5ccc2[nH]5)C=C4)C=C3)cc1)C(=O)N[C@@H]1C[C@H]1c1ccccc1
REMARK SMILES IDX 8 1 7 2 6 3 4 4 5 5 3 6 2 7 1 8 75 9 76 10 77 11 78 13 79 14
REMARK SMILES IDX 80 15 81 16 82 17 86 18 83 19 85 20 84 21 9 22 10 23 11 24
REMARK SMILES IDX 12 25 13 26 14 27 15 28 16 29 74 30 17 31 73 32 18 33 19 34
REMARK SMILES IDX 20 35 67 36 21 37 72 38 66 39 68 40 22 41 71 42 65 43 64 44
REMARK SMILES IDX 23 46 53 47 34 48 52 49 35 50 38 51 51 52 69 53 36 54 37 55
REMARK SMILES IDX 50 57 70 58 39 59 24 60 25 61 33 62 26 63 32 64 27 65 28 66
REMARK SMILES IDX 29 67 30 68 31 69 54 70 55 71 63 72 56 73 62 74 57 75 58 76
REMARK SMILES IDX 59 77 60 78 61 79 40 80 41 81 49 82 42 83 48 84 43 85 44 86
REMARK SMILES IDX 45 87 46 88 47 89
REMARK H PARENT 77 12 68 45 38 56
REMARK Flexibility Score: inf
ROOT
ATOM      1  C   UNL A   1      38.021  22.255  25.725  1.00  0.00     0.202 C 
ENDROOT
BRANCH   1   2
ATOM      2  C   UNL A   1      37.125  21.431  24.793  1.00  0.00     0.261 C 
BRANCH   2   3
ATOM      3  O   UNL A   1      36.138  20.695  25.548  1.00  0.00    -0.462 OA
BRANCH   3   4
ATOM      4  C   UNL A   1      35.029  20.355  24.841  1.00  0.00     0.325 C 
ATOM      5  O   UNL A   1      34.686  19.194  24.629  1.00  0.00    -0.250 OA
BRANCH   4   6
ATOM      6  C   UNL A   1      34.127  21.552  24.496  1.00  0.00     0.243 C 
BRANCH   6   7
ATOM      7  N   UNL A   1      33.295  22.163  25.533  1.00  0.00    -0.317 N 
ATOM      8  C   UNL A   1      31.864  21.890  25.411  1.00  0.00     0.149 C 
BRANCH   7   9
ATOM      9  C   UNL A   1      33.637  23.020  26.534  1.00  0.00     0.317 C 
ATOM     10  O   UNL A   1      34.305  22.621  27.501  1.00  0.00    -0.249 OA
ATOM     11  N   UNL A   1      33.287  24.317  26.645  1.00  0.00    -0.335 N 
ATOM     12  H   UNL A   1      33.350  24.598  27.586  1.00  0.00     0.165 HD
BRANCH  11  13
ATOM     13  C   UNL A   1      32.858  25.413  25.846  1.00  0.00     0.092 C 
ATOM     14  C   UNL A   1      33.408  26.816  26.056  1.00  0.00     0.036 C 
ATOM     15  C   UNL A   1      31.953  26.549  26.193  1.00  0.00     0.044 C 
BRANCH  15  16
ATOM     16  C   UNL A   1      30.933  27.071  25.227  1.00  0.00    -0.043 A 
ATOM     17  C   UNL A   1      29.832  26.255  24.920  1.00  0.00     0.004 A 
ATOM     18  C   UNL A   1      31.073  28.271  24.513  1.00  0.00     0.004 A 
ATOM     19  C   UNL A   1      28.943  26.589  23.903  1.00  0.00     0.000 A 
ATOM     20  C   UNL A   1      30.177  28.619  23.503  1.00  0.00     0.000 A 
ATOM     21  C   UNL A   1      29.123  27.766  23.186  1.00  0.00     0.000 A 
ENDBRANCH  15  16
ENDBRANCH  11  13
ENDBRANCH   7   9
ENDBRANCH   6   7
ENDBRANCH   4   6
ENDBRANCH   3   4
ENDBRANCH   2   3
ENDBRANCH   1   2
BRANCH   1  22
ATOM     22  O   UNL A   1      39.366  21.799  25.924  1.00  0.00    -0.374 OA
BRANCH  22  23
ATOM     23  C   UNL A   1      40.048  22.314  27.066  1.00  0.00     0.202 C 
BRANCH  23  24
ATOM     24  C   UNL A   1      41.043  23.456  26.883  1.00  0.00     0.261 C 
BRANCH  24  25
ATOM     25  O   UNL A   1      40.770  24.526  27.777  1.00  0.00    -0.460 OA
BRANCH  25  26
ATOM     26  C   UNL A   1      40.519  25.697  27.144  1.00  0.00     0.338 C 
ATOM     27  O   UNL A   1      40.360  25.885  25.956  1.00  0.00    -0.246 OA
BRANCH  26  28
ATOM     28  C   UNL A   1      40.244  26.700  28.183  1.00  0.00     0.060 A 
ATOM     29  C   UNL A   1      40.907  27.929  28.075  1.00  0.00     0.016 A 
ATOM     30  C   UNL A   1      39.333  26.447  29.212  1.00  0.00     0.016 A 
ATOM     31  C   UNL A   1      40.718  28.893  29.049  1.00  0.00     0.010 A 
ATOM     32  C   UNL A   1      39.150  27.411  30.193  1.00  0.00     0.010 A 
ATOM     33  C   UNL A   1      39.888  28.604  30.138  1.00  0.00    -0.014 A 
BRANCH  33  34
ATOM     34  C   UNL A   1      39.989  29.430  31.348  1.00  0.00     0.031 A 
ATOM     35  C   UNL A   1      41.141  29.157  32.272  1.00  0.00     0.074 A 
ATOM     36  C   UNL A   1      39.085  30.390  31.592  1.00  0.00     0.049 A 
ATOM     37  N   UNL A   1      41.417  29.692  33.429  1.00  0.00    -0.248 NA
ATOM     38  C   UNL A   1      42.108  28.133  31.834  1.00  0.00     0.031 C 
ATOM     39  C   UNL A   1      37.971  30.745  30.713  1.00  0.00     0.029 A 
ATOM     40  N   UNL A   1      38.960  31.234  32.660  1.00  0.00    -0.354 N 
ATOM     41  C   UNL A   1      42.574  29.056  33.864  1.00  0.00     0.074 A 
ATOM     42  C   UNL A   1      42.931  28.074  32.868  1.00  0.00     0.031 C 
ATOM     43  C   UNL A   1      37.268  31.737  31.286  1.00  0.00     0.029 A 
ATOM     44  C   UNL A   1      37.860  32.051  32.583  1.00  0.00     0.049 A 
ATOM     45  H   UNL A   1      39.597  31.255  33.410  1.00  0.00     0.167 HD
ATOM     46  C   UNL A   1      43.276  29.282  34.998  1.00  0.00     0.031 A 
ATOM     47  C   UNL A   1      37.382  32.931  33.482  1.00  0.00     0.031 A 
ATOM     48  C   UNL A   1      42.880  30.255  35.978  1.00  0.00     0.049 A 
ATOM     49  C   UNL A   1      38.136  33.110  34.773  1.00  0.00     0.074 A 
ATOM     50  C   UNL A   1      43.505  30.590  37.163  1.00  0.00     0.029 A 
ATOM     51  N   UNL A   1      41.741  31.046  35.882  1.00  0.00    -0.354 N 
ATOM     52  N   UNL A   1      39.242  32.524  35.170  1.00  0.00    -0.248 NA
ATOM     53  C   UNL A   1      37.583  34.071  35.735  1.00  0.00     0.031 C 
ATOM     54  C   UNL A   1      42.710  31.535  37.816  1.00  0.00     0.029 A 
ATOM     55  C   UNL A   1      41.630  31.847  37.003  1.00  0.00     0.049 A 
ATOM     56  H   UNL A   1      41.109  31.036  35.129  1.00  0.00     0.167 HD
ATOM     57  C   UNL A   1      39.539  33.071  36.412  1.00  0.00     0.074 A 
ATOM     58  C   UNL A   1      38.497  34.039  36.695  1.00  0.00     0.031 C 
ATOM     59  C   UNL A   1      40.577  32.805  37.244  1.00  0.00     0.031 A 
BRANCH  46  60
ATOM     60  C   UNL A   1      44.494  28.433  35.247  1.00  0.00    -0.014 A 
ATOM     61  C   UNL A   1      45.762  28.807  34.766  1.00  0.00     0.010 A 
ATOM     62  C   UNL A   1      44.370  27.241  35.984  1.00  0.00     0.010 A 
ATOM     63  C   UNL A   1      46.873  27.985  34.980  1.00  0.00     0.020 A 
ATOM     64  C   UNL A   1      45.484  26.433  36.229  1.00  0.00     0.020 A 
ATOM     65  C   UNL A   1      46.726  26.803  35.711  1.00  0.00     0.054 A 
BRANCH  65  66
ATOM     66  S   UNL A   1      48.189  25.768  35.992  1.00  0.00     0.124 S 
ATOM     67  O   UNL A   1      49.263  26.757  35.992  1.00  0.00    -0.237 OA
ATOM     68  O   UNL A   1      47.901  25.154  37.285  1.00  0.00    -0.237 OA
ATOM     69  O   UNL A   1      48.189  24.850  34.855  1.00  0.00    -0.744 OA
ENDBRANCH  65  66
ENDBRANCH  46  60
BRANCH  47  70
ATOM     70  C   UNL A   1      36.139  33.692  33.188  1.00  0.00    -0.014 A 
ATOM     71  C   UNL A   1      36.201  34.953  32.571  1.00  0.00     0.010 A 
ATOM     72  C   UNL A   1      34.879  33.147  33.501  1.00  0.00     0.010 A 
ATOM     73  C   UNL A   1      35.030  35.662  32.289  1.00  0.00     0.020 A 
ATOM     74  C   UNL A   1      33.705  33.838  33.194  1.00  0.00     0.020 A 
ATOM     75  C   UNL A   1      33.788  35.098  32.598  1.00  0.00     0.054 A 
BRANCH  75  76
ATOM     76  S   UNL A   1      32.283  36.018  32.179  1.00  0.00     0.124 S 
ATOM     77  O   UNL A   1      31.236  35.069  32.543  1.00  0.00    -0.237 OA
ATOM     78  O   UNL A   1      32.390  37.200  33.032  1.00  0.00    -0.237 OA
ATOM     79  O   UNL A   1      32.425  36.276  30.748  1.00  0.00    -0.744 OA
ENDBRANCH  75  76
ENDBRANCH  47  70
BRANCH  59  80
ATOM     80  C   UNL A   1      40.666  33.604  38.514  1.00  0.00    -0.014 A 
ATOM     81  C   UNL A   1      41.262  34.876  38.537  1.00  0.00     0.010 A 
ATOM     82  C   UNL A   1      40.059  33.105  39.682  1.00  0.00     0.010 A 
ATOM     83  C   UNL A   1      41.268  35.627  39.715  1.00  0.00     0.020 A 
ATOM     84  C   UNL A   1      40.033  33.867  40.850  1.00  0.00     0.020 A 
ATOM     85  C   UNL A   1      40.647  35.120  40.862  1.00  0.00     0.054 A 
BRANCH  85  86
ATOM     86  S   UNL A   1      40.606  36.147  42.354  1.00  0.00     0.124 S 
ATOM     87  O   UNL A   1      39.628  37.169  41.993  1.00  0.00    -0.237 OA
ATOM     88  O   UNL A   1      40.177  35.200  43.381  1.00  0.00    -0.237 OA
ATOM     89  O   UNL A   1      41.982  36.620  42.488  1.00  0.00    -0.744 OA
ENDBRANCH  85  86
ENDBRANCH  59  80
ENDBRANCH  33  34
ENDBRANCH  26  28
ENDBRANCH  25  26
ENDBRANCH  24  25
ENDBRANCH  23  24
ENDBRANCH  22  23
ENDBRANCH   1  22
TORSDOF 21
ENDMDL
MODEL 3
REMARK VINA RESULT:      -9.1      1.410      2.447
REMARK SMILES CN(CC(=O)OCCOCCOC(=O)c1ccc(-c2c3nc(c(-c4ccc(S(=O)(=O)[O-])cc4)c4ccc([nH]4)c(-c4ccc(S(=O)(=O)[O-])cc4)c4nc(c(-c5ccc(S(=O)(=O)[O-])cc5)c5ccc2[nH]5)C=C4)C=C3)cc1)C(=O)N[C@@H]1C[C@H]1c1ccccc1
REMARK SMILES IDX 8 1 7 2 6 3 4 4 5 5 3 6 2 7 1 8 75 9 76 10 77 11 78 13 79 14
REMARK SMILES IDX 80 15 81 16 82 17 86 18 83 19 85 20 84 21 9 22 10 23 11 24
REMARK SMILES IDX 12 25 13 26 14 27 15 28 16 29 74 30 17 31 73 32 18 33 19 34
REMARK SMILES IDX 20 35 67 36 21 37 72 38 66 39 68 40 22 41 71 42 65 43 64 44
REMARK SMILES IDX 23 46 53 47 34 48 52 49 35 50 38 51 51 52 69 53 36 54 37 55
REMARK SMILES IDX 50 57 70 58 39 59 24 60 25 61 33 62 26 63 32 64 27 65 28 66
REMARK SMILES IDX 29 67 30 68 31 69 54 70 55 71 63 72 56 73 62 74 57 75 58 76
REMARK SMILES IDX 59 77 60 78 61 79 40 80 41 81 49 82 42 83 48 84 43 85 44 86
REMARK SMILES IDX 45 87 46 88 47 89
REMARK H PARENT 77 12 68 45 38 56
REMARK Flexibility Score: inf
ROOT
ATOM      1  C   UNL A   1      32.264  28.760  24.879  1.00  0.00     0.202 C 
ENDROOT
BRANCH   1   2
ATOM      2  C   UNL A   1      32.764  28.786  23.430  1.00  0.00     0.261 C 
BRANCH   2   3
ATOM      3  O   UNL A   1      32.874  27.447  22.901  1.00  0.00    -0.462 OA
BRANCH   3   4
ATOM      4  C   UNL A   1      31.702  26.761  22.861  1.00  0.00     0.325 C 
ATOM      5  O   UNL A   1      30.798  27.004  22.066  1.00  0.00    -0.250 OA
BRANCH   4   6
ATOM      6  C   UNL A   1      31.683  25.521  23.769  1.00  0.00     0.243 C 
BRANCH   6   7
ATOM      7  N   UNL A   1      32.126  24.226  23.249  1.00  0.00    -0.317 N 
ATOM      8  C   UNL A   1      31.047  23.322  22.854  1.00  0.00     0.149 C 
BRANCH   7   9
ATOM      9  C   UNL A   1      33.380  23.702  23.165  1.00  0.00     0.317 C 
ATOM     10  O   UNL A   1      34.326  24.400  22.769  1.00  0.00    -0.249 OA
ATOM     11  N   UNL A   1      33.746  22.432  23.430  1.00  0.00    -0.335 N 
ATOM     12  H   UNL A   1      34.590  22.228  22.967  1.00  0.00     0.165 HD
BRANCH  11  13
ATOM     13  C   UNL A   1      33.313  21.290  24.160  1.00  0.00     0.092 C 
ATOM     14  C   UNL A   1      33.532  21.174  25.660  1.00  0.00     0.036 C 
ATOM     15  C   UNL A   1      34.110  20.166  24.734  1.00  0.00     0.044 C 
BRANCH  15  16
ATOM     16  C   UNL A   1      33.635  18.747  24.671  1.00  0.00    -0.043 A 
ATOM     17  C   UNL A   1      32.861  18.259  25.737  1.00  0.00     0.004 A 
ATOM     18  C   UNL A   1      34.020  17.835  23.676  1.00  0.00     0.004 A 
ATOM     19  C   UNL A   1      32.536  16.909  25.839  1.00  0.00     0.000 A 
ATOM     20  C   UNL A   1      33.686  16.485  23.765  1.00  0.00     0.000 A 
ATOM     21  C   UNL A   1      32.960  16.020  24.859  1.00  0.00     0.000 A 
ENDBRANCH  15  16
ENDBRANCH  11  13
ENDBRANCH   7   9
ENDBRANCH   6   7
ENDBRANCH   4   6
ENDBRANCH   3   4
ENDBRANCH   2   3
ENDBRANCH   1   2
BRANCH   1  22
ATOM     22  O   UNL A   1      31.906  30.012  25.479  1.00  0.00    -0.374 OA
BRANCH  22  23
ATOM     23  C   UNL A   1      32.007  30.088  26.900  1.00  0.00     0.202 C 
BRANCH  23  24
ATOM     24  C   UNL A   1      33.345  29.786  27.566  1.00  0.00     0.261 C 
BRANCH  24  25
ATOM     25  O   UNL A   1      34.272  30.844  27.367  1.00  0.00    -0.460 OA
BRANCH  25  26
ATOM     26  C   UNL A   1      34.902  31.220  28.505  1.00  0.00     0.338 C 
ATOM     27  O   UNL A   1      34.471  31.911  29.405  1.00  0.00    -0.246 OA
BRANCH  26  28
ATOM     28  C   UNL A   1      36.153  30.454  28.581  1.00  0.00     0.060 A 
ATOM     29  C   UNL A   1      36.413  29.772  29.777  1.00  0.00     0.016 A 
ATOM     30  C   UNL A   1      37.027  30.381  27.492  1.00  0.00     0.016 A 
ATOM     31  C   UNL A   1      37.597  29.070  29.918  1.00  0.00     0.010 A 
ATOM     32  C   UNL A   1      38.218  29.684  27.637  1.00  0.00     0.010 A 
ATOM     33  C   UNL A   1      38.522  29.082  28.869  1.00  0.00    -0.014 A 
BRANCH  33  34
ATOM     34  C   UNL A   1      39.913  28.695  29.142  1.00  0.00     0.031 A 
ATOM     35  C   UNL A   1      40.798  29.722  29.786  1.00  0.00     0.074 A 
ATOM     36  C   UNL A   1      40.348  27.465  28.831  1.00  0.00     0.049 A 
ATOM     37  N   UNL A   1      42.070  29.658  30.067  1.00  0.00    -0.248 NA
ATOM     38  C   UNL A   1      40.162  31.002  30.155  1.00  0.00     0.031 C 
ATOM     39  C   UNL A   1      39.530  26.400  28.252  1.00  0.00     0.029 A 
ATOM     40  N   UNL A   1      41.592  26.913  28.953  1.00  0.00    -0.354 N 
ATOM     41  C   UNL A   1      42.390  30.891  30.624  1.00  0.00     0.074 A 
ATOM     42  C   UNL A   1      41.191  31.696  30.612  1.00  0.00     0.031 C 
ATOM     43  C   UNL A   1      40.302  25.317  28.062  1.00  0.00     0.029 A 
ATOM     44  C   UNL A   1      41.669  25.631  28.466  1.00  0.00     0.049 A 
ATOM     45  H   UNL A   1      42.358  27.386  29.350  1.00  0.00     0.167 HD
ATOM     46  C   UNL A   1      43.583  31.306  31.106  1.00  0.00     0.031 A 
ATOM     47  C   UNL A   1      42.739  24.825  28.343  1.00  0.00     0.031 A 
ATOM     48  C   UNL A   1      44.760  30.484  31.084  1.00  0.00     0.049 A 
ATOM     49  C   UNL A   1      44.074  25.337  28.815  1.00  0.00     0.074 A 
ATOM     50  C   UNL A   1      46.027  30.778  31.549  1.00  0.00     0.029 A 
ATOM     51  N   UNL A   1      44.810  29.199  30.556  1.00  0.00    -0.354 N 
ATOM     52  N   UNL A   1      44.367  26.494  29.363  1.00  0.00    -0.248 NA
ATOM     53  C   UNL A   1      45.222  24.435  28.659  1.00  0.00     0.031 C 
ATOM     54  C   UNL A   1      46.859  29.698  31.242  1.00  0.00     0.029 A 
ATOM     55  C   UNL A   1      46.094  28.698  30.657  1.00  0.00     0.049 A 
ATOM     56  H   UNL A   1      44.044  28.718  30.169  1.00  0.00     0.167 HD
ATOM     57  C   UNL A   1      45.725  26.448  29.651  1.00  0.00     0.074 A 
ATOM     58  C   UNL A   1      46.193  25.144  29.221  1.00  0.00     0.031 C 
ATOM     59  C   UNL A   1      46.518  27.389  30.221  1.00  0.00     0.031 A 
BRANCH  46  60
ATOM     60  C   UNL A   1      43.669  32.711  31.642  1.00  0.00    -0.014 A 
ATOM     61  C   UNL A   1      43.555  32.983  33.017  1.00  0.00     0.010 A 
ATOM     62  C   UNL A   1      43.879  33.780  30.752  1.00  0.00     0.010 A 
ATOM     63  C   UNL A   1      43.605  34.298  33.487  1.00  0.00     0.020 A 
ATOM     64  C   UNL A   1      43.963  35.094  31.221  1.00  0.00     0.020 A 
ATOM     65  C   UNL A   1      43.808  35.346  32.585  1.00  0.00     0.054 A 
BRANCH  65  66
ATOM     66  S   UNL A   1      43.891  37.041  33.226  1.00  0.00     0.124 S 
ATOM     67  O   UNL A   1      42.620  37.157  33.937  1.00  0.00    -0.237 OA
ATOM     68  O   UNL A   1      45.082  37.005  34.069  1.00  0.00    -0.237 OA
ATOM     69  O   UNL A   1      44.006  37.862  32.023  1.00  0.00    -0.744 OA
ENDBRANCH  65  66
ENDBRANCH  46  60
BRANCH  47  70
ATOM     70  C   UNL A   1      42.584  23.469  27.751  1.00  0.00    -0.014 A 
ATOM     71  C   UNL A   1      42.818  23.256  26.383  1.00  0.00     0.010 A 
ATOM     72  C   UNL A   1      42.225  22.376  28.562  1.00  0.00     0.010 A 
ATOM     73  C   UNL A   1      42.680  21.978  25.832  1.00  0.00     0.020 A 
ATOM     74  C   UNL A   1      42.115  21.092  28.022  1.00  0.00     0.020 A 
ATOM     75  C   UNL A   1      42.332  20.903  26.656  1.00  0.00     0.054 A 
BRANCH  75  76
ATOM     76  S   UNL A   1      42.205  19.249  25.924  1.00  0.00     0.124 S 
ATOM     77  O   UNL A   1      42.737  18.405  26.989  1.00  0.00    -0.237 OA
ATOM     78  O   UNL A   1      40.771  19.126  25.675  1.00  0.00    -0.237 OA
ATOM     79  O   UNL A   1      43.033  19.339  24.724  1.00  0.00    -0.744 OA
ENDBRANCH  75  76
ENDBRANCH  47  70
BRANCH  59  80
ATOM     80  C   UNL A   1      47.958  27.028  30.458  1.00  0.00    -0.014 A 
ATOM     81  C   UNL A   1      48.949  27.314  29.504  1.00  0.00     0.010 A 
ATOM     82  C   UNL A   1      48.331  26.477  31.698  1.00  0.00     0.010 A 
ATOM     83  C   UNL A   1      50.289  27.033  29.779  1.00  0.00     0.020 A 
ATOM     84  C   UNL A   1      49.672  26.227  31.989  1.00  0.00     0.020 A 
ATOM     85  C   UNL A   1      50.643  26.498  31.023  1.00  0.00     0.054 A 
BRANCH  85  86
ATOM     86  S   UNL A   1      52.396  26.212  31.379  1.00  0.00     0.124 S 
ATOM     87  O   UNL A   1      52.662  27.206  32.416  1.00  0.00    -0.237 OA
ATOM     88  O   UNL A   1      52.408  24.820  31.825  1.00  0.00    -0.237 OA
ATOM     89  O   UNL A   1      53.055  26.456  30.099  1.00  0.00    -0.744 OA
ENDBRANCH  85  86
ENDBRANCH  59  80
ENDBRANCH  33  34
ENDBRANCH  26  28
ENDBRANCH  25  26
ENDBRANCH  24  25
ENDBRANCH  23  24
ENDBRANCH  22  23
ENDBRANCH   1  22
TORSDOF 21
ENDMDL
