MODEL 1
REMARK VINA RESULT:     -12.7      0.000      0.000
REMARK SMILES O=C(OCCOCCOC(=O)c1ccn(-c2cc(-c3ccncc3)nc(-c3ccccc3F)n2)n1)c1ccc(-c2c3nc(c(-c4ccc(S(=O)(=O)[O-])cc4)c4ccc([nH]4)c(-c4ccc(S(=O)(=O)[O-])cc4)c4nc(c(-c5ccc(S(=O)(=O)[O-])cc5)c5ccc2[nH]5)C=C4)C=C3)cc1
REMARK SMILES IDX 5 1 4 2 3 3 2 4 1 5 36 6 37 7 95 8 38 9 94 10 39 11 40 12
REMARK SMILES IDX 41 13 88 14 42 15 93 16 87 17 89 18 43 19 92 20 86 21 85 22
REMARK SMILES IDX 44 24 74 25 55 26 73 27 56 28 59 29 72 30 90 31 57 32 58 33
REMARK SMILES IDX 71 35 91 36 60 37 45 38 46 39 54 40 47 41 53 42 48 43 49 44
REMARK SMILES IDX 50 45 51 46 52 47 75 48 76 49 84 50 77 51 83 52 78 53 79 54
REMARK SMILES IDX 80 55 81 56 82 57 61 58 62 59 70 60 63 61 69 62 64 63 65 64
REMARK SMILES IDX 66 65 67 66 68 67 6 68 7 69 8 70 9 71 10 72 11 73 12 74
REMARK SMILES IDX 13 75 35 76 14 77 15 78 16 79 17 80 34 81 18 82 26 83 25 84
REMARK SMILES IDX 19 85 20 86 24 87 21 88 23 89 22 90 27 91 28 92 32 93 29 94
REMARK SMILES IDX 31 95 33 96 30 97
REMARK H PARENT 89 23 59 34
REMARK Flexibility Score: inf
ROOT
ATOM      1  C   UNL A   1      36.388  20.668  25.117  1.00  0.00     0.202 C 
ENDROOT
BRANCH   1   2
ATOM      2  C   UNL A   1      37.835  21.140  25.016  1.00  0.00     0.261 C 
BRANCH   2   3
ATOM      3  O   UNL A   1      38.202  22.192  25.936  1.00  0.00    -0.460 OA
BRANCH   3   4
ATOM      4  C   UNL A   1      39.368  22.162  26.624  1.00  0.00     0.338 C 
ATOM      5  O   UNL A   1      40.012  21.128  26.769  1.00  0.00    -0.246 OA
BRANCH   4   6
ATOM      6  C   UNL A   1      39.967  23.493  26.898  1.00  0.00     0.060 A 
ATOM      7  C   UNL A   1      41.092  23.663  27.702  1.00  0.00     0.016 A 
ATOM      8  C   UNL A   1      39.289  24.622  26.414  1.00  0.00     0.016 A 
ATOM      9  C   UNL A   1      41.403  24.905  28.207  1.00  0.00     0.010 A 
ATOM     10  C   UNL A   1      39.632  25.885  26.878  1.00  0.00     0.010 A 
ATOM     11  C   UNL A   1      40.624  26.000  27.851  1.00  0.00    -0.014 A 
BRANCH  11  12
ATOM     12  C   UNL A   1      40.905  27.235  28.566  1.00  0.00     0.031 A 
ATOM     13  C   UNL A   1      42.094  27.995  28.095  1.00  0.00     0.074 A 
ATOM     14  C   UNL A   1      40.129  27.665  29.578  1.00  0.00     0.049 A 
ATOM     15  N   UNL A   1      43.164  28.313  28.750  1.00  0.00    -0.248 NA
ATOM     16  C   UNL A   1      42.134  28.340  26.666  1.00  0.00     0.031 C 
ATOM     17  C   UNL A   1      38.818  27.151  29.984  1.00  0.00     0.029 A 
ATOM     18  N   UNL A   1      40.301  28.750  30.379  1.00  0.00    -0.354 N 
ATOM     19  C   UNL A   1      43.936  29.068  27.869  1.00  0.00     0.074 A 
ATOM     20  C   UNL A   1      43.325  28.929  26.571  1.00  0.00     0.031 C 
ATOM     21  C   UNL A   1      38.205  28.077  30.750  1.00  0.00     0.029 A 
ATOM     22  C   UNL A   1      39.133  29.166  30.998  1.00  0.00     0.049 A 
ATOM     23  H   UNL A   1      41.170  29.196  30.507  1.00  0.00     0.167 HD
ATOM     24  C   UNL A   1      44.893  29.938  28.297  1.00  0.00     0.031 A 
ATOM     25  C   UNL A   1      38.912  30.371  31.575  1.00  0.00     0.031 A 
ATOM     26  C   UNL A   1      45.326  29.661  29.639  1.00  0.00     0.049 A 
ATOM     27  C   UNL A   1      40.230  30.975  31.883  1.00  0.00     0.074 A 
ATOM     28  C   UNL A   1      45.933  28.593  30.268  1.00  0.00     0.029 A 
ATOM     29  N   UNL A   1      44.846  30.467  30.644  1.00  0.00    -0.354 N 
ATOM     30  N   UNL A   1      41.054  30.496  32.773  1.00  0.00    -0.248 NA
ATOM     31  C   UNL A   1      40.825  31.882  30.915  1.00  0.00     0.031 C 
ATOM     32  C   UNL A   1      45.386  28.576  31.584  1.00  0.00     0.029 A 
ATOM     33  C   UNL A   1      44.505  29.653  31.691  1.00  0.00     0.049 A 
ATOM     34  H   UNL A   1      44.764  31.448  30.616  1.00  0.00     0.167 HD
ATOM     35  C   UNL A   1      42.319  30.702  32.243  1.00  0.00     0.074 A 
ATOM     36  C   UNL A   1      42.119  31.660  31.159  1.00  0.00     0.031 C 
ATOM     37  C   UNL A   1      43.361  29.875  32.552  1.00  0.00     0.031 A 
BRANCH  24  38
ATOM     38  C   UNL A   1      45.125  31.279  27.636  1.00  0.00    -0.014 A 
ATOM     39  C   UNL A   1      46.427  31.623  27.219  1.00  0.00     0.010 A 
ATOM     40  C   UNL A   1      44.177  32.324  27.690  1.00  0.00     0.010 A 
ATOM     41  C   UNL A   1      46.785  32.957  26.980  1.00  0.00     0.020 A 
ATOM     42  C   UNL A   1      44.510  33.648  27.408  1.00  0.00     0.020 A 
ATOM     43  C   UNL A   1      45.826  33.963  27.105  1.00  0.00     0.054 A 
BRANCH  43  44
ATOM     44  S   UNL A   1      46.327  35.696  26.974  1.00  0.00     0.124 S 
ATOM     45  O   UNL A   1      45.047  36.354  26.728  1.00  0.00    -0.237 OA
ATOM     46  O   UNL A   1      46.929  35.946  28.280  1.00  0.00    -0.237 OA
ATOM     47  O   UNL A   1      47.261  35.697  25.850  1.00  0.00    -0.744 OA
ENDBRANCH  43  44
ENDBRANCH  24  38
BRANCH  25  48
ATOM     48  C   UNL A   1      37.647  31.144  31.520  1.00  0.00    -0.014 A 
ATOM     49  C   UNL A   1      36.669  31.011  32.520  1.00  0.00     0.010 A 
ATOM     50  C   UNL A   1      37.510  32.210  30.604  1.00  0.00     0.010 A 
ATOM     51  C   UNL A   1      35.619  31.939  32.625  1.00  0.00     0.020 A 
ATOM     52  C   UNL A   1      36.462  33.128  30.693  1.00  0.00     0.020 A 
ATOM     53  C   UNL A   1      35.532  33.001  31.718  1.00  0.00     0.054 A 
BRANCH  53  54
ATOM     54  S   UNL A   1      34.269  34.284  31.957  1.00  0.00     0.124 S 
ATOM     55  O   UNL A   1      33.375  33.662  32.929  1.00  0.00    -0.237 OA
ATOM     56  O   UNL A   1      35.053  35.413  32.449  1.00  0.00    -0.237 OA
ATOM     57  O   UNL A   1      33.703  34.463  30.620  1.00  0.00    -0.744 OA
ENDBRANCH  53  54
ENDBRANCH  25  48
BRANCH  37  58
ATOM     58  C   UNL A   1      43.200  28.917  33.710  1.00  0.00    -0.014 A 
ATOM     59  C   UNL A   1      43.516  29.257  35.040  1.00  0.00     0.010 A 
ATOM     60  C   UNL A   1      42.556  27.691  33.467  1.00  0.00     0.010 A 
ATOM     61  C   UNL A   1      43.219  28.381  36.094  1.00  0.00     0.020 A 
ATOM     62  C   UNL A   1      42.241  26.821  34.516  1.00  0.00     0.020 A 
ATOM     63  C   UNL A   1      42.581  27.167  35.825  1.00  0.00     0.054 A 
BRANCH  63  64
ATOM     64  S   UNL A   1      42.145  26.067  37.200  1.00  0.00     0.124 S 
ATOM     65  O   UNL A   1      43.081  26.475  38.243  1.00  0.00    -0.237 OA
ATOM     66  O   UNL A   1      40.743  26.397  37.447  1.00  0.00    -0.237 OA
ATOM     67  O   UNL A   1      42.369  24.727  36.658  1.00  0.00    -0.744 OA
ENDBRANCH  63  64
ENDBRANCH  37  58
ENDBRANCH  11  12
ENDBRANCH   4   6
ENDBRANCH   3   4
ENDBRANCH   2   3
ENDBRANCH   1   2
BRANCH   1  68
ATOM     68  O   UNL A   1      35.384  21.626  24.792  1.00  0.00    -0.374 OA
BRANCH  68  69
ATOM     69  C   UNL A   1      34.647  22.166  25.901  1.00  0.00     0.202 C 
BRANCH  69  70
ATOM     70  C   UNL A   1      33.481  21.343  26.473  1.00  0.00     0.261 C 
BRANCH  70  71
ATOM     71  O   UNL A   1      32.249  21.581  25.764  1.00  0.00    -0.458 OA
BRANCH  71  72
ATOM     72  C   UNL A   1      31.496  22.627  26.223  1.00  0.00     0.358 C 
ATOM     73  O   UNL A   1      31.003  22.695  27.336  1.00  0.00    -0.244 OA
BRANCH  72  74
ATOM     74  C   UNL A   1      31.410  23.722  25.246  1.00  0.00     0.170 A 
ATOM     75  C   UNL A   1      30.782  23.669  23.980  1.00  0.00     0.058 A 
ATOM     76  N   UNL A   1      31.895  24.960  25.500  1.00  0.00    -0.159 NA
ATOM     77  C   UNL A   1      30.717  24.976  23.569  1.00  0.00     0.118 A 
ATOM     78  N   UNL A   1      31.375  25.731  24.514  1.00  0.00    -0.222 N 
BRANCH  78  79
ATOM     79  C   UNL A   1      31.397  27.151  24.553  1.00  0.00     0.158 A 
ATOM     80  C   UNL A   1      30.612  27.884  23.685  1.00  0.00     0.078 A 
ATOM     81  N   UNL A   1      32.180  27.710  25.502  1.00  0.00    -0.209 NA
ATOM     82  C   UNL A   1      30.621  29.255  23.889  1.00  0.00     0.077 A 
ATOM     83  C   UNL A   1      32.215  29.047  25.530  1.00  0.00     0.165 A 
ATOM     84  N   UNL A   1      31.460  29.849  24.767  1.00  0.00    -0.228 NA
BRANCH  82  85
ATOM     85  C   UNL A   1      29.652  30.177  23.277  1.00  0.00     0.003 A 
ATOM     86  C   UNL A   1      29.071  29.895  22.033  1.00  0.00     0.030 A 
ATOM     87  C   UNL A   1      29.188  31.303  23.968  1.00  0.00     0.030 A 
ATOM     88  C   UNL A   1      28.068  30.723  21.553  1.00  0.00     0.111 A 
ATOM     89  C   UNL A   1      28.187  32.078  23.401  1.00  0.00     0.111 A 
ATOM     90  N   UNL A   1      27.610  31.805  22.213  1.00  0.00    -0.265 NA
ENDBRANCH  82  85
BRANCH  83  91
ATOM     91  C   UNL A   1      33.212  29.659  26.392  1.00  0.00     0.055 A 
ATOM     92  C   UNL A   1      34.448  29.025  26.621  1.00  0.00     0.015 A 
ATOM     93  C   UNL A   1      32.965  30.872  27.036  1.00  0.00     0.134 A 
ATOM     94  C   UNL A   1      35.401  29.596  27.469  1.00  0.00     0.001 A 
ATOM     95  C   UNL A   1      33.909  31.445  27.888  1.00  0.00     0.040 A 
ATOM     96  F   UNL A   1      31.793  31.502  26.872  1.00  0.00    -0.206 F 
ATOM     97  C   UNL A   1      35.129  30.806  28.105  1.00  0.00     0.003 A 
ENDBRANCH  83  91
ENDBRANCH  78  79
ENDBRANCH  72  74
ENDBRANCH  71  72
ENDBRANCH  70  71
ENDBRANCH  69  70
ENDBRANCH  68  69
ENDBRANCH   1  68
TORSDOF 20
ENDMDL
MODEL 2
REMARK VINA RESULT:     -12.3      3.396      9.806
REMARK SMILES O=C(OCCOCCOC(=O)c1ccn(-c2cc(-c3ccncc3)nc(-c3ccccc3F)n2)n1)c1ccc(-c2c3nc(c(-c4ccc(S(=O)(=O)[O-])cc4)c4ccc([nH]4)c(-c4ccc(S(=O)(=O)[O-])cc4)c4nc(c(-c5ccc(S(=O)(=O)[O-])cc5)c5ccc2[nH]5)C=C4)C=C3)cc1
REMARK SMILES IDX 5 1 4 2 3 3 2 4 1 5 36 6 37 7 95 8 38 9 94 10 39 11 40 12
REMARK SMILES IDX 41 13 88 14 42 15 93 16 87 17 89 18 43 19 92 20 86 21 85 22
REMARK SMILES IDX 44 24 74 25 55 26 73 27 56 28 59 29 72 30 90 31 57 32 58 33
REMARK SMILES IDX 71 35 91 36 60 37 45 38 46 39 54 40 47 41 53 42 48 43 49 44
REMARK SMILES IDX 50 45 51 46 52 47 75 48 76 49 84 50 77 51 83 52 78 53 79 54
REMARK SMILES IDX 80 55 81 56 82 57 61 58 62 59 70 60 63 61 69 62 64 63 65 64
REMARK SMILES IDX 66 65 67 66 68 67 6 68 7 69 8 70 9 71 10 72 11 73 12 74
REMARK SMILES IDX 13 75 35 76 14 77 15 78 16 79 17 80 34 81 18 82 26 83 25 84
REMARK SMILES IDX 19 85 20 86 24 87 21 88 23 89 22 90 27 91 28 92 32 93 29 94
REMARK SMILES IDX 31 95 33 96 30 97
REMARK H PARENT 89 23 59 34
REMARK Flexibility Score: inf
ROOT
ATOM      1  C   UNL A   1      33.051  28.783  26.288  1.00  0.00     0.202 C 
ENDROOT
BRANCH   1   2
ATOM      2  C   UNL A   1      33.194  30.294  26.436  1.00  0.00     0.261 C 
BRANCH   2   3
ATOM      3  O   UNL A   1      33.749  30.738  27.694  1.00  0.00    -0.460 OA
BRANCH   3   4
ATOM      4  C   UNL A   1      34.821  31.563  27.750  1.00  0.00     0.338 C 
ATOM      5  O   UNL A   1      34.737  32.756  27.478  1.00  0.00    -0.246 OA
BRANCH   4   6
ATOM      6  C   UNL A   1      35.999  31.011  28.466  1.00  0.00     0.060 A 
ATOM      7  C   UNL A   1      37.035  31.812  28.944  1.00  0.00     0.016 A 
ATOM      8  C   UNL A   1      36.112  29.615  28.551  1.00  0.00     0.016 A 
ATOM      9  C   UNL A   1      38.245  31.252  29.281  1.00  0.00     0.010 A 
ATOM     10  C   UNL A   1      37.314  29.042  28.943  1.00  0.00     0.010 A 
ATOM     11  C   UNL A   1      38.403  29.872  29.208  1.00  0.00    -0.014 A 
BRANCH  11  12
ATOM     12  C   UNL A   1      39.757  29.379  29.404  1.00  0.00     0.031 A 
ATOM     13  C   UNL A   1      40.204  29.270  30.819  1.00  0.00     0.074 A 
ATOM     14  C   UNL A   1      40.546  29.033  28.370  1.00  0.00     0.049 A 
ATOM     15  N   UNL A   1      41.193  29.865  31.404  1.00  0.00    -0.248 NA
ATOM     16  C   UNL A   1      39.354  28.479  31.721  1.00  0.00     0.031 C 
ATOM     17  C   UNL A   1      40.162  28.867  26.965  1.00  0.00     0.029 A 
ATOM     18  N   UNL A   1      41.843  28.626  28.390  1.00  0.00    -0.354 N 
ATOM     19  C   UNL A   1      41.210  29.375  32.708  1.00  0.00     0.074 A 
ATOM     20  C   UNL A   1      39.980  28.645  32.885  1.00  0.00     0.031 C 
ATOM     21  C   UNL A   1      41.111  28.143  26.337  1.00  0.00     0.029 A 
ATOM     22  C   UNL A   1      42.217  27.926  27.253  1.00  0.00     0.049 A 
ATOM     23  H   UNL A   1      42.457  28.811  29.137  1.00  0.00     0.167 HD
ATOM     24  C   UNL A   1      42.327  29.408  33.487  1.00  0.00     0.031 A 
ATOM     25  C   UNL A   1      43.304  27.130  27.118  1.00  0.00     0.031 A 
ATOM     26  C   UNL A   1      43.290  30.370  33.026  1.00  0.00     0.049 A 
ATOM     27  C   UNL A   1      44.277  27.510  28.170  1.00  0.00     0.074 A 
ATOM     28  C   UNL A   1      43.297  31.740  32.856  1.00  0.00     0.029 A 
ATOM     29  N   UNL A   1      44.383  29.899  32.340  1.00  0.00    -0.354 N 
ATOM     30  N   UNL A   1      44.894  28.658  28.202  1.00  0.00    -0.248 NA
ATOM     31  C   UNL A   1      44.268  26.777  29.427  1.00  0.00     0.031 C 
ATOM     32  C   UNL A   1      44.112  31.968  31.710  1.00  0.00     0.029 A 
ATOM     33  C   UNL A   1      44.581  30.730  31.268  1.00  0.00     0.049 A 
ATOM     34  H   UNL A   1      44.925  29.111  32.575  1.00  0.00     0.167 HD
ATOM     35  C   UNL A   1      44.988  28.980  29.548  1.00  0.00     0.074 A 
ATOM     36  C   UNL A   1      44.692  27.736  30.253  1.00  0.00     0.031 C 
ATOM     37  C   UNL A   1      45.026  30.281  29.965  1.00  0.00     0.031 A 
BRANCH  24  38
ATOM     38  C   UNL A   1      42.701  28.274  34.417  1.00  0.00    -0.014 A 
ATOM     39  C   UNL A   1      43.188  28.576  35.706  1.00  0.00     0.010 A 
ATOM     40  C   UNL A   1      42.881  26.950  33.962  1.00  0.00     0.010 A 
ATOM     41  C   UNL A   1      43.913  27.632  36.447  1.00  0.00     0.020 A 
ATOM     42  C   UNL A   1      43.559  25.989  34.712  1.00  0.00     0.020 A 
ATOM     43  C   UNL A   1      44.116  26.353  35.929  1.00  0.00     0.054 A 
BRANCH  43  44
ATOM     44  S   UNL A   1      45.200  25.197  36.800  1.00  0.00     0.124 S 
ATOM     45  O   UNL A   1      44.406  24.885  37.984  1.00  0.00    -0.237 OA
ATOM     46  O   UNL A   1      45.347  24.116  35.831  1.00  0.00    -0.237 OA
ATOM     47  O   UNL A   1      46.410  25.981  37.044  1.00  0.00    -0.744 OA
ENDBRANCH  43  44
ENDBRANCH  24  38
BRANCH  25  48
ATOM     48  C   UNL A   1      43.359  25.850  26.373  1.00  0.00    -0.014 A 
ATOM     49  C   UNL A   1      44.281  25.652  25.332  1.00  0.00     0.010 A 
ATOM     50  C   UNL A   1      42.662  24.720  26.857  1.00  0.00     0.010 A 
ATOM     51  C   UNL A   1      44.530  24.364  24.827  1.00  0.00     0.020 A 
ATOM     52  C   UNL A   1      42.894  23.439  26.351  1.00  0.00     0.020 A 
ATOM     53  C   UNL A   1      43.844  23.264  25.352  1.00  0.00     0.054 A 
BRANCH  53  54
ATOM     54  S   UNL A   1      44.285  21.588  24.809  1.00  0.00     0.124 S 
ATOM     55  O   UNL A   1      43.124  20.810  25.230  1.00  0.00    -0.237 OA
ATOM     56  O   UNL A   1      44.446  21.754  23.367  1.00  0.00    -0.237 OA
ATOM     57  O   UNL A   1      45.520  21.303  25.539  1.00  0.00    -0.744 OA
ENDBRANCH  53  54
ENDBRANCH  25  48
BRANCH  37  58
ATOM     58  C   UNL A   1      45.272  31.360  28.935  1.00  0.00    -0.014 A 
ATOM     59  C   UNL A   1      44.333  31.709  27.945  1.00  0.00     0.010 A 
ATOM     60  C   UNL A   1      46.424  32.154  29.075  1.00  0.00     0.010 A 
ATOM     61  C   UNL A   1      44.554  32.806  27.101  1.00  0.00     0.020 A 
ATOM     62  C   UNL A   1      46.642  33.260  28.248  1.00  0.00     0.020 A 
ATOM     63  C   UNL A   1      45.709  33.578  27.260  1.00  0.00     0.054 A 
BRANCH  63  64
ATOM     64  S   UNL A   1      45.958  35.033  26.206  1.00  0.00     0.124 S 
ATOM     65  O   UNL A   1      45.718  34.502  24.867  1.00  0.00    -0.237 OA
ATOM     66  O   UNL A   1      44.952  35.969  26.702  1.00  0.00    -0.237 OA
ATOM     67  O   UNL A   1      47.341  35.426  26.476  1.00  0.00    -0.744 OA
ENDBRANCH  63  64
ENDBRANCH  37  58
ENDBRANCH  11  12
ENDBRANCH   4   6
ENDBRANCH   3   4
ENDBRANCH   2   3
ENDBRANCH   1   2
BRANCH   1  68
ATOM     68  O   UNL A   1      32.730  28.301  24.986  1.00  0.00    -0.374 OA
BRANCH  68  69
ATOM     69  C   UNL A   1      33.817  28.247  24.048  1.00  0.00     0.202 C 
BRANCH  69  70
ATOM     70  C   UNL A   1      33.486  28.165  22.549  1.00  0.00     0.261 C 
BRANCH  70  71
ATOM     71  O   UNL A   1      33.234  26.812  22.122  1.00  0.00    -0.458 OA
BRANCH  71  72
ATOM     72  C   UNL A   1      31.935  26.393  22.224  1.00  0.00     0.358 C 
ATOM     73  O   UNL A   1      30.986  26.929  21.678  1.00  0.00    -0.244 OA
BRANCH  72  74
ATOM     74  C   UNL A   1      31.809  25.155  23.005  1.00  0.00     0.170 A 
ATOM     75  C   UNL A   1      30.635  24.385  23.173  1.00  0.00     0.058 A 
ATOM     76  N   UNL A   1      32.867  24.575  23.621  1.00  0.00    -0.159 NA
ATOM     77  C   UNL A   1      31.067  23.209  23.731  1.00  0.00     0.118 A 
ATOM     78  N   UNL A   1      32.416  23.344  23.969  1.00  0.00    -0.222 N 
BRANCH  78  79
ATOM     79  C   UNL A   1      33.281  22.298  24.389  1.00  0.00     0.158 A 
ATOM     80  C   UNL A   1      32.810  21.003  24.486  1.00  0.00     0.078 A 
ATOM     81  N   UNL A   1      34.564  22.645  24.629  1.00  0.00    -0.209 NA
ATOM     82  C   UNL A   1      33.765  20.045  24.788  1.00  0.00     0.077 A 
ATOM     83  C   UNL A   1      35.376  21.663  25.040  1.00  0.00     0.165 A 
ATOM     84  N   UNL A   1      35.034  20.371  25.123  1.00  0.00    -0.228 NA
BRANCH  82  85
ATOM     85  C   UNL A   1      33.538  18.598  24.657  1.00  0.00     0.003 A 
ATOM     86  C   UNL A   1      34.195  17.849  23.671  1.00  0.00     0.030 A 
ATOM     87  C   UNL A   1      32.757  17.900  25.587  1.00  0.00     0.030 A 
ATOM     88  C   UNL A   1      34.054  16.470  23.665  1.00  0.00     0.111 A 
ATOM     89  C   UNL A   1      32.668  16.519  25.493  1.00  0.00     0.111 A 
ATOM     90  N   UNL A   1      33.308  15.789  24.558  1.00  0.00    -0.265 NA
ENDBRANCH  82  85
BRANCH  83  91
ATOM     91  C   UNL A   1      36.693  22.056  25.511  1.00  0.00     0.055 A 
ATOM     92  C   UNL A   1      36.903  23.329  26.075  1.00  0.00     0.015 A 
ATOM     93  C   UNL A   1      37.789  21.200  25.393  1.00  0.00     0.134 A 
ATOM     94  C   UNL A   1      38.173  23.722  26.507  1.00  0.00     0.001 A 
ATOM     95  C   UNL A   1      39.060  21.588  25.816  1.00  0.00     0.040 A 
ATOM     96  F   UNL A   1      37.647  19.988  24.838  1.00  0.00    -0.206 F 
ATOM     97  C   UNL A   1      39.252  22.851  26.375  1.00  0.00     0.003 A 
ENDBRANCH  83  91
ENDBRANCH  78  79
ENDBRANCH  72  74
ENDBRANCH  71  72
ENDBRANCH  70  71
ENDBRANCH  69  70
ENDBRANCH  68  69
ENDBRANCH   1  68
TORSDOF 20
ENDMDL
MODEL 3
REMARK VINA RESULT:     -11.2      3.253      7.361
REMARK SMILES O=C(OCCOCCOC(=O)c1ccn(-c2cc(-c3ccncc3)nc(-c3ccccc3F)n2)n1)c1ccc(-c2c3nc(c(-c4ccc(S(=O)(=O)[O-])cc4)c4ccc([nH]4)c(-c4ccc(S(=O)(=O)[O-])cc4)c4nc(c(-c5ccc(S(=O)(=O)[O-])cc5)c5ccc2[nH]5)C=C4)C=C3)cc1
REMARK SMILES IDX 5 1 4 2 3 3 2 4 1 5 36 6 37 7 95 8 38 9 94 10 39 11 40 12
REMARK SMILES IDX 41 13 88 14 42 15 93 16 87 17 89 18 43 19 92 20 86 21 85 22
REMARK SMILES IDX 44 24 74 25 55 26 73 27 56 28 59 29 72 30 90 31 57 32 58 33
REMARK SMILES IDX 71 35 91 36 60 37 45 38 46 39 54 40 47 41 53 42 48 43 49 44
REMARK SMILES IDX 50 45 51 46 52 47 75 48 76 49 84 50 77 51 83 52 78 53 79 54
REMARK SMILES IDX 80 55 81 56 82 57 61 58 62 59 70 60 63 61 69 62 64 63 65 64
REMARK SMILES IDX 66 65 67 66 68 67 6 68 7 69 8 70 9 71 10 72 11 73 12 74
REMARK SMILES IDX 13 75 35 76 14 77 15 78 16 79 17 80 34 81 18 82 26 83 25 84
REMARK SMILES IDX 19 85 20 86 24 87 21 88 23 89 22 90 27 91 28 92 32 93 29 94
REMARK SMILES IDX 31 95 33 96 30 97
REMARK H PARENT 89 23 59 34
REMARK Flexibility Score: inf
ROOT
ATOM      1  C   UNL A   1      36.226  22.061  25.784  1.00  0.00     0.202 C 
ENDROOT
BRANCH   1   2
ATOM      2  C   UNL A   1      36.775  20.712  25.332  1.00  0.00     0.261 C 
BRANCH   2   3
ATOM      3  O   UNL A   1      38.161  20.719  24.924  1.00  0.00    -0.460 OA
BRANCH   3   4
ATOM      4  C   UNL A   1      39.136  20.185  25.697  1.00  0.00     0.338 C 
ATOM      5  O   UNL A   1      39.348  18.978  25.734  1.00  0.00    -0.246 OA
BRANCH   4   6
ATOM      6  C   UNL A   1      40.121  21.162  26.226  1.00  0.00     0.060 A 
ATOM      7  C   UNL A   1      40.936  20.893  27.324  1.00  0.00     0.016 A 
ATOM      8  C   UNL A   1      40.134  22.444  25.656  1.00  0.00     0.016 A 
ATOM      9  C   UNL A   1      41.569  21.919  27.987  1.00  0.00     0.010 A 
ATOM     10  C   UNL A   1      40.815  23.474  26.290  1.00  0.00     0.010 A 
ATOM     11  C   UNL A   1      41.444  23.219  27.508  1.00  0.00    -0.014 A 
BRANCH  11  12
ATOM     12  C   UNL A   1      41.989  24.262  28.363  1.00  0.00     0.031 A 
ATOM     13  C   UNL A   1      41.288  25.573  28.304  1.00  0.00     0.074 A 
ATOM     14  C   UNL A   1      43.049  24.047  29.163  1.00  0.00     0.049 A 
ATOM     15  N   UNL A   1      41.756  26.728  27.955  1.00  0.00    -0.248 NA
ATOM     16  C   UNL A   1      39.840  25.560  28.558  1.00  0.00     0.031 C 
ATOM     17  C   UNL A   1      43.678  22.765  29.493  1.00  0.00     0.029 A 
ATOM     18  N   UNL A   1      43.708  24.932  29.958  1.00  0.00    -0.354 N 
ATOM     19  C   UNL A   1      40.709  27.630  28.129  1.00  0.00     0.074 A 
ATOM     20  C   UNL A   1      39.526  26.839  28.359  1.00  0.00     0.031 C 
ATOM     21  C   UNL A   1      44.424  22.920  30.606  1.00  0.00     0.029 A 
ATOM     22  C   UNL A   1      44.435  24.326  30.969  1.00  0.00     0.049 A 
ATOM     23  H   UNL A   1      43.672  25.908  29.827  1.00  0.00     0.167 HD
ATOM     24  C   UNL A   1      40.915  28.966  28.297  1.00  0.00     0.031 A 
ATOM     25  C   UNL A   1      44.914  24.922  32.086  1.00  0.00     0.031 A 
ATOM     26  C   UNL A   1      42.207  29.386  27.827  1.00  0.00     0.049 A 
ATOM     27  C   UNL A   1      44.979  26.381  31.829  1.00  0.00     0.074 A 
ATOM     28  C   UNL A   1      42.850  29.380  26.606  1.00  0.00     0.029 A 
ATOM     29  N   UNL A   1      43.182  29.620  28.766  1.00  0.00    -0.354 N 
ATOM     30  N   UNL A   1      45.792  26.926  30.968  1.00  0.00    -0.248 NA
ATOM     31  C   UNL A   1      43.854  27.211  32.229  1.00  0.00     0.031 C 
ATOM     32  C   UNL A   1      44.223  29.149  26.910  1.00  0.00     0.029 A 
ATOM     33  C   UNL A   1      44.342  29.061  28.298  1.00  0.00     0.049 A 
ATOM     34  H   UNL A   1      43.068  30.102  29.618  1.00  0.00     0.167 HD
ATOM     35  C   UNL A   1      45.078  27.977  30.412  1.00  0.00     0.074 A 
ATOM     36  C   UNL A   1      43.941  28.174  31.307  1.00  0.00     0.031 C 
ATOM     37  C   UNL A   1      45.323  28.406  29.138  1.00  0.00     0.031 A 
BRANCH  24  38
ATOM     38  C   UNL A   1      40.099  29.798  29.261  1.00  0.00    -0.014 A 
ATOM     39  C   UNL A   1      40.560  29.965  30.584  1.00  0.00     0.010 A 
ATOM     40  C   UNL A   1      38.759  30.159  29.004  1.00  0.00     0.010 A 
ATOM     41  C   UNL A   1      39.691  30.363  31.610  1.00  0.00     0.020 A 
ATOM     42  C   UNL A   1      37.899  30.603  30.008  1.00  0.00     0.020 A 
ATOM     43  C   UNL A   1      38.358  30.652  31.316  1.00  0.00     0.054 A 
BRANCH  43  44
ATOM     44  S   UNL A   1      37.199  30.990  32.662  1.00  0.00     0.124 S 
ATOM     45  O   UNL A   1      35.929  30.587  32.066  1.00  0.00    -0.237 OA
ATOM     46  O   UNL A   1      37.701  30.131  33.729  1.00  0.00    -0.237 OA
ATOM     47  O   UNL A   1      37.356  32.425  32.895  1.00  0.00    -0.744 OA
ENDBRANCH  43  44
ENDBRANCH  24  38
BRANCH  25  48
ATOM     48  C   UNL A   1      44.955  24.326  33.443  1.00  0.00    -0.014 A 
ATOM     49  C   UNL A   1      44.717  22.956  33.645  1.00  0.00     0.010 A 
ATOM     50  C   UNL A   1      45.480  25.067  34.525  1.00  0.00     0.010 A 
ATOM     51  C   UNL A   1      45.036  22.344  34.868  1.00  0.00     0.020 A 
ATOM     52  C   UNL A   1      45.787  24.469  35.749  1.00  0.00     0.020 A 
ATOM     53  C   UNL A   1      45.584  23.103  35.908  1.00  0.00     0.054 A 
BRANCH  53  54
ATOM     54  S   UNL A   1      46.142  22.277  37.425  1.00  0.00     0.124 S 
ATOM     55  O   UNL A   1      47.595  22.382  37.319  1.00  0.00    -0.237 OA
ATOM     56  O   UNL A   1      45.525  23.086  38.473  1.00  0.00    -0.237 OA
ATOM     57  O   UNL A   1      45.608  20.922  37.297  1.00  0.00    -0.744 OA
ENDBRANCH  53  54
ENDBRANCH  25  48
BRANCH  37  58
ATOM     58  C   UNL A   1      46.582  27.931  28.449  1.00  0.00    -0.014 A 
ATOM     59  C   UNL A   1      47.786  28.661  28.455  1.00  0.00     0.010 A 
ATOM     60  C   UNL A   1      46.591  26.629  27.917  1.00  0.00     0.010 A 
ATOM     61  C   UNL A   1      48.961  28.113  27.920  1.00  0.00     0.020 A 
ATOM     62  C   UNL A   1      47.763  26.070  27.398  1.00  0.00     0.020 A 
ATOM     63  C   UNL A   1      48.941  26.818  27.395  1.00  0.00     0.054 A 
BRANCH  63  64
ATOM     64  S   UNL A   1      50.479  26.092  26.761  1.00  0.00     0.124 S 
ATOM     65  O   UNL A   1      50.458  24.750  27.334  1.00  0.00    -0.237 OA
ATOM     66  O   UNL A   1      50.298  26.163  25.313  1.00  0.00    -0.237 OA
ATOM     67  O   UNL A   1      51.522  26.973  27.288  1.00  0.00    -0.744 OA
ENDBRANCH  63  64
ENDBRANCH  37  58
ENDBRANCH  11  12
ENDBRANCH   4   6
ENDBRANCH   3   4
ENDBRANCH   2   3
ENDBRANCH   1   2
BRANCH   1  68
ATOM     68  O   UNL A   1      34.810  22.212  25.753  1.00  0.00    -0.374 OA
BRANCH  68  69
ATOM     69  C   UNL A   1      34.044  21.031  26.045  1.00  0.00     0.202 C 
BRANCH  69  70
ATOM     70  C   UNL A   1      33.115  20.475  24.953  1.00  0.00     0.261 C 
BRANCH  70  71
ATOM     71  O   UNL A   1      31.877  21.208  24.868  1.00  0.00    -0.458 OA
BRANCH  71  72
ATOM     72  C   UNL A   1      31.879  22.274  24.010  1.00  0.00     0.358 C 
ATOM     73  O   UNL A   1      32.275  22.239  22.858  1.00  0.00    -0.244 OA
BRANCH  72  74
ATOM     74  C   UNL A   1      31.264  23.469  24.605  1.00  0.00     0.170 A 
ATOM     75  C   UNL A   1      30.630  23.545  25.867  1.00  0.00     0.058 A 
ATOM     76  N   UNL A   1      31.298  24.680  24.000  1.00  0.00    -0.159 NA
ATOM     77  C   UNL A   1      30.473  24.889  26.096  1.00  0.00     0.118 A 
ATOM     78  N   UNL A   1      30.904  25.546  24.966  1.00  0.00    -0.222 N 
BRANCH  78  79
ATOM     79  C   UNL A   1      31.063  26.953  24.850  1.00  0.00     0.158 A 
ATOM     80  C   UNL A   1      30.349  27.659  23.900  1.00  0.00     0.078 A 
ATOM     81  N   UNL A   1      31.897  27.534  25.740  1.00  0.00    -0.209 NA
ATOM     82  C   UNL A   1      30.490  29.036  23.954  1.00  0.00     0.077 A 
ATOM     83  C   UNL A   1      32.060  28.857  25.621  1.00  0.00     0.165 A 
ATOM     84  N   UNL A   1      31.385  29.639  24.770  1.00  0.00    -0.228 NA
BRANCH  82  85
ATOM     85  C   UNL A   1      29.614  29.974  23.237  1.00  0.00     0.003 A 
ATOM     86  C   UNL A   1      29.110  29.667  21.965  1.00  0.00     0.030 A 
ATOM     87  C   UNL A   1      29.154  31.148  23.848  1.00  0.00     0.030 A 
ATOM     88  C   UNL A   1      28.185  30.518  21.381  1.00  0.00     0.111 A 
ATOM     89  C   UNL A   1      28.235  31.942  23.179  1.00  0.00     0.111 A 
ATOM     90  N   UNL A   1      27.733  31.646  21.964  1.00  0.00    -0.265 NA
ENDBRANCH  82  85
BRANCH  83  91
ATOM     91  C   UNL A   1      33.113  29.461  26.420  1.00  0.00     0.055 A 
ATOM     92  C   UNL A   1      34.339  28.796  26.613  1.00  0.00     0.015 A 
ATOM     93  C   UNL A   1      32.932  30.700  27.039  1.00  0.00     0.134 A 
ATOM     94  C   UNL A   1      35.345  29.361  27.401  1.00  0.00     0.001 A 
ATOM     95  C   UNL A   1      33.930  31.266  27.831  1.00  0.00     0.040 A 
ATOM     96  F   UNL A   1      31.773  31.361  26.907  1.00  0.00    -0.206 F 
ATOM     97  C   UNL A   1      35.139  30.596  28.012  1.00  0.00     0.003 A 
ENDBRANCH  83  91
ENDBRANCH  78  79
ENDBRANCH  72  74
ENDBRANCH  71  72
ENDBRANCH  70  71
ENDBRANCH  69  70
ENDBRANCH  68  69
ENDBRANCH   1  68
TORSDOF 20
ENDMDL
