MODEL 1
REMARK VINA RESULT:      -8.2      0.000      0.000
REMARK SMILES CCOc1cc(/C=C2/C(=O)N(c3cccc(C(=O)OCCOCCOC(=O)c4ccc(-c5c6nc(c(-c7ccc(S(=O)(=O)[O-])cc7)c7ccc([nH]7)c(-c7ccc(S(=O)(=O)[O-])cc7)c7nc(c(-c8ccc(S(=O)(=O)[O-])cc8)c8ccc5[nH]8)C=C7)C=C6)cc4)c3)N=C2C)cc(Cl)c1O
REMARK SMILES IDX 21 1 20 2 19 3 17 4 18 5 16 6 12 7 13 8 88 9 14 10 15 11
REMARK SMILES IDX 11 12 7 13 8 14 9 15 90 16 10 17 89 18 91 19 6 20 4 21 5 22
REMARK SMILES IDX 95 23 93 24 92 25 94 26 3 27 2 28 1 29 96 30 22 32 23 33
REMARK SMILES IDX 24 34 25 35 26 36 27 37 28 38 29 39 87 40 30 41 86 42 31 43
REMARK SMILES IDX 32 44 33 45 80 46 34 47 85 48 79 49 81 50 35 51 84 52 78 53
REMARK SMILES IDX 77 54 36 56 66 57 47 58 65 59 48 60 51 61 64 62 82 63 49 64
REMARK SMILES IDX 50 65 63 67 83 68 52 69 37 70 38 71 46 72 39 73 45 74 40 75
REMARK SMILES IDX 41 76 42 77 43 78 44 79 67 80 68 81 76 82 69 83 75 84 70 85
REMARK SMILES IDX 71 86 72 87 73 88 74 89 53 90 54 91 62 92 55 93 61 94 56 95
REMARK SMILES IDX 57 96 58 97 59 98 60 99
REMARK H PARENT 96 31 81 55 51 66
REMARK Flexibility Score: inf
ROOT
ATOM      1  C   UNL A   1      33.232  35.439  28.948  1.00  0.00     0.202 C 
ENDROOT
BRANCH   1   2
ATOM      2  C   UNL A   1      32.937  36.572  29.940  1.00  0.00     0.261 C 
BRANCH   2   3
ATOM      3  O   UNL A   1      32.401  36.073  31.176  1.00  0.00    -0.460 OA
BRANCH   3   4
ATOM      4  C   UNL A   1      33.097  36.403  32.292  1.00  0.00     0.338 C 
ATOM      5  O   UNL A   1      32.875  37.330  33.052  1.00  0.00    -0.246 OA
BRANCH   4   6
ATOM      6  C   UNL A   1      34.055  35.315  32.605  1.00  0.00     0.062 A 
ATOM      7  C   UNL A   1      36.269  34.325  32.532  1.00  0.00     0.070 A 
ATOM      8  C   UNL A   1      35.718  33.117  32.989  1.00  0.00     0.028 A 
ATOM      9  C   UNL A   1      35.424  35.426  32.335  1.00  0.00     0.044 A 
ATOM     10  C   UNL A   1      34.360  33.020  33.296  1.00  0.00     0.003 A 
ATOM     11  C   UNL A   1      33.529  34.120  33.107  1.00  0.00     0.016 A 
BRANCH   7  12
ATOM     12  N   UNL A   1      37.655  34.415  32.277  1.00  0.00    -0.196 N 
ATOM     13  C   UNL A   1      41.097  34.764  32.957  1.00  0.00     0.024 C 
ATOM     14  C   UNL A   1      39.890  34.654  32.392  1.00  0.00     0.065 C 
ATOM     15  C   UNL A   1      38.659  34.666  33.217  1.00  0.00     0.280 C 
ATOM     16  C   UNL A   1      39.408  34.441  31.018  1.00  0.00     0.071 C 
ATOM     17  O   UNL A   1      38.611  34.812  34.428  1.00  0.00    -0.267 OA
ATOM     18  N   UNL A   1      38.114  34.264  30.970  1.00  0.00    -0.169 NA
ATOM     19  C   UNL A   1      40.273  34.455  29.803  1.00  0.00     0.069 C 
BRANCH  13  20
ATOM     20  C   UNL A   1      42.401  34.712  32.300  1.00  0.00    -0.019 A 
ATOM     21  C   UNL A   1      44.095  33.522  31.059  1.00  0.00     0.163 A 
ATOM     22  C   UNL A   1      42.901  33.513  31.780  1.00  0.00     0.058 A 
ATOM     23  C   UNL A   1      44.756  34.724  30.796  1.00  0.00     0.176 A 
ATOM     24  C   UNL A   1      44.288  35.910  31.353  1.00  0.00     0.087 A 
ATOM     25  C   UNL A   1      43.111  35.906  32.105  1.00  0.00     0.032 A 
ATOM     26  Cl  UNL A   1      45.109  37.407  31.102  1.00  0.00    -0.080 Cl
BRANCH  21  27
ATOM     27  O   UNL A   1      44.567  32.361  30.505  1.00  0.00    -0.490 OA
BRANCH  27  28
ATOM     28  C   UNL A   1      45.260  31.553  31.470  1.00  0.00     0.226 C 
ATOM     29  C   UNL A   1      45.710  30.247  30.833  1.00  0.00     0.049 C 
ENDBRANCH  27  28
ENDBRANCH  21  27
BRANCH  23  30
ATOM     30  O   UNL A   1      45.834  34.726  29.952  1.00  0.00    -0.503 OA
ATOM     31  H   UNL A   1      46.688  34.531  30.283  1.00  0.00     0.293 HD
ENDBRANCH  23  30
ENDBRANCH  13  20
ENDBRANCH   7  12
ENDBRANCH   4   6
ENDBRANCH   3   4
ENDBRANCH   2   3
ENDBRANCH   1   2
BRANCH   1  32
ATOM     32  O   UNL A   1      34.489  34.774  29.074  1.00  0.00    -0.374 OA
BRANCH  32  33
ATOM     33  C   UNL A   1      34.465  33.372  29.341  1.00  0.00     0.202 C 
BRANCH  33  34
ATOM     34  C   UNL A   1      34.011  32.442  28.209  1.00  0.00     0.261 C 
BRANCH  34  35
ATOM     35  O   UNL A   1      35.102  31.723  27.609  1.00  0.00    -0.460 OA
BRANCH  35  36
ATOM     36  C   UNL A   1      35.202  30.430  28.003  1.00  0.00     0.338 C 
ATOM     37  O   UNL A   1      34.517  29.492  27.631  1.00  0.00    -0.246 OA
BRANCH  36  38
ATOM     38  C   UNL A   1      36.401  30.252  28.844  1.00  0.00     0.060 A 
ATOM     39  C   UNL A   1      37.581  30.884  28.428  1.00  0.00     0.016 A 
ATOM     40  C   UNL A   1      36.396  29.422  29.966  1.00  0.00     0.016 A 
ATOM     41  C   UNL A   1      38.777  30.633  29.095  1.00  0.00     0.010 A 
ATOM     42  C   UNL A   1      37.598  29.169  30.631  1.00  0.00     0.010 A 
ATOM     43  C   UNL A   1      38.802  29.737  30.171  1.00  0.00    -0.014 A 
BRANCH  43  44
ATOM     44  C   UNL A   1      40.104  29.265  30.704  1.00  0.00     0.031 A 
ATOM     45  C   UNL A   1      40.658  29.914  31.947  1.00  0.00     0.074 A 
ATOM     46  C   UNL A   1      40.768  28.255  30.117  1.00  0.00     0.049 A 
ATOM     47  N   UNL A   1      41.788  29.692  32.566  1.00  0.00    -0.248 NA
ATOM     48  C   UNL A   1      39.825  30.956  32.573  1.00  0.00     0.031 C 
ATOM     49  C   UNL A   1      40.312  27.511  28.941  1.00  0.00     0.029 A 
ATOM     50  N   UNL A   1      41.973  27.678  30.432  1.00  0.00    -0.354 N 
ATOM     51  C   UNL A   1      41.807  30.569  33.645  1.00  0.00     0.074 A 
ATOM     52  C   UNL A   1      40.595  31.354  33.575  1.00  0.00     0.031 C 
ATOM     53  C   UNL A   1      41.227  26.575  28.637  1.00  0.00     0.029 A 
ATOM     54  C   UNL A   1      42.349  26.678  29.567  1.00  0.00     0.049 A 
ATOM     55  H   UNL A   1      42.517  27.954  31.204  1.00  0.00     0.167 HD
ATOM     56  C   UNL A   1      42.743  30.699  34.615  1.00  0.00     0.031 A 
ATOM     57  C   UNL A   1      43.479  25.944  29.520  1.00  0.00     0.031 A 
ATOM     58  C   UNL A   1      43.953  29.922  34.677  1.00  0.00     0.049 A 
ATOM     59  C   UNL A   1      44.547  26.169  30.561  1.00  0.00     0.074 A 
ATOM     60  C   UNL A   1      44.964  29.977  35.620  1.00  0.00     0.029 A 
ATOM     61  N   UNL A   1      44.317  28.949  33.757  1.00  0.00    -0.354 N 
ATOM     62  N   UNL A   1      44.546  26.995  31.580  1.00  0.00    -0.248 NA
ATOM     63  C   UNL A   1      45.763  25.351  30.451  1.00  0.00     0.031 C 
ATOM     64  C   UNL A   1      45.967  29.081  35.237  1.00  0.00     0.029 A 
ATOM     65  C   UNL A   1      45.547  28.413  34.098  1.00  0.00     0.049 A 
ATOM     66  H   UNL A   1      43.779  28.679  32.978  1.00  0.00     0.167 HD
ATOM     67  C   UNL A   1      45.742  26.766  32.256  1.00  0.00     0.074 A 
ATOM     68  C   UNL A   1      46.434  25.718  31.533  1.00  0.00     0.031 C 
ATOM     69  C   UNL A   1      46.221  27.363  33.376  1.00  0.00     0.031 A 
BRANCH  56  70
ATOM     70  C   UNL A   1      42.510  31.745  35.675  1.00  0.00    -0.014 A 
ATOM     71  C   UNL A   1      41.779  31.452  36.842  1.00  0.00     0.010 A 
ATOM     72  C   UNL A   1      43.064  33.029  35.523  1.00  0.00     0.010 A 
ATOM     73  C   UNL A   1      41.577  32.434  37.816  1.00  0.00     0.020 A 
ATOM     74  C   UNL A   1      42.892  34.003  36.510  1.00  0.00     0.020 A 
ATOM     75  C   UNL A   1      42.136  33.704  37.644  1.00  0.00     0.054 A 
BRANCH  75  76
ATOM     76  S   UNL A   1      41.879  34.948  38.938  1.00  0.00     0.124 S 
ATOM     77  O   UNL A   1      40.582  34.554  39.483  1.00  0.00    -0.237 OA
ATOM     78  O   UNL A   1      43.023  34.732  39.820  1.00  0.00    -0.237 OA
ATOM     79  O   UNL A   1      41.888  36.215  38.209  1.00  0.00    -0.744 OA
ENDBRANCH  75  76
ENDBRANCH  56  70
BRANCH  57  80
ATOM     80  C   UNL A   1      43.671  24.932  28.444  1.00  0.00    -0.014 A 
ATOM     81  C   UNL A   1      44.274  25.286  27.225  1.00  0.00     0.010 A 
ATOM     82  C   UNL A   1      43.232  23.607  28.628  1.00  0.00     0.010 A 
ATOM     83  C   UNL A   1      44.409  24.344  26.200  1.00  0.00     0.020 A 
ATOM     84  C   UNL A   1      43.395  22.654  27.619  1.00  0.00     0.020 A 
ATOM     85  C   UNL A   1      43.970  23.033  26.404  1.00  0.00     0.054 A 
BRANCH  85  86
ATOM     86  S   UNL A   1      44.184  21.821  25.072  1.00  0.00     0.124 S 
ATOM     87  O   UNL A   1      45.557  21.375  25.286  1.00  0.00    -0.237 OA
ATOM     88  O   UNL A   1      43.144  20.838  25.372  1.00  0.00    -0.237 OA
ATOM     89  O   UNL A   1      43.961  22.603  23.858  1.00  0.00    -0.744 OA
ENDBRANCH  85  86
ENDBRANCH  57  80
BRANCH  69  90
ATOM     90  C   UNL A   1      47.530  26.861  33.930  1.00  0.00    -0.014 A 
ATOM     91  C   UNL A   1      48.756  27.452  33.582  1.00  0.00     0.010 A 
ATOM     92  C   UNL A   1      47.522  25.808  34.865  1.00  0.00     0.010 A 
ATOM     93  C   UNL A   1      49.952  26.976  34.126  1.00  0.00     0.020 A 
ATOM     94  C   UNL A   1      48.711  25.350  35.438  1.00  0.00     0.020 A 
ATOM     95  C   UNL A   1      49.921  25.928  35.053  1.00  0.00     0.054 A 
BRANCH  95  96
ATOM     96  S   UNL A   1      51.483  25.355  35.775  1.00  0.00     0.124 S 
ATOM     97  O   UNL A   1      52.394  26.443  35.435  1.00  0.00    -0.237 OA
ATOM     98  O   UNL A   1      51.152  25.231  37.193  1.00  0.00    -0.237 OA
ATOM     99  O   UNL A   1      51.740  24.090  35.089  1.00  0.00    -0.744 OA
ENDBRANCH  95  96
ENDBRANCH  69  90
ENDBRANCH  43  44
ENDBRANCH  36  38
ENDBRANCH  35  36
ENDBRANCH  34  35
ENDBRANCH  33  34
ENDBRANCH  32  33
ENDBRANCH   1  32
TORSDOF 22
ENDMDL
MODEL 2
REMARK VINA RESULT:      -8.1      4.795     12.815
REMARK SMILES CCOc1cc(/C=C2/C(=O)N(c3cccc(C(=O)OCCOCCOC(=O)c4ccc(-c5c6nc(c(-c7ccc(S(=O)(=O)[O-])cc7)c7ccc([nH]7)c(-c7ccc(S(=O)(=O)[O-])cc7)c7nc(c(-c8ccc(S(=O)(=O)[O-])cc8)c8ccc5[nH]8)C=C7)C=C6)cc4)c3)N=C2C)cc(Cl)c1O
REMARK SMILES IDX 21 1 20 2 19 3 17 4 18 5 16 6 12 7 13 8 88 9 14 10 15 11
REMARK SMILES IDX 11 12 7 13 8 14 9 15 90 16 10 17 89 18 91 19 6 20 4 21 5 22
REMARK SMILES IDX 95 23 93 24 92 25 94 26 3 27 2 28 1 29 96 30 22 32 23 33
REMARK SMILES IDX 24 34 25 35 26 36 27 37 28 38 29 39 87 40 30 41 86 42 31 43
REMARK SMILES IDX 32 44 33 45 80 46 34 47 85 48 79 49 81 50 35 51 84 52 78 53
REMARK SMILES IDX 77 54 36 56 66 57 47 58 65 59 48 60 51 61 64 62 82 63 49 64
REMARK SMILES IDX 50 65 63 67 83 68 52 69 37 70 38 71 46 72 39 73 45 74 40 75
REMARK SMILES IDX 41 76 42 77 43 78 44 79 67 80 68 81 76 82 69 83 75 84 70 85
REMARK SMILES IDX 71 86 72 87 73 88 74 89 53 90 54 91 62 92 55 93 61 94 56 95
REMARK SMILES IDX 57 96 58 97 59 98 60 99
REMARK H PARENT 96 31 81 55 51 66
REMARK Flexibility Score: inf
ROOT
ATOM      1  C   UNL A   1      44.614  21.683  24.955  1.00  0.00     0.202 C 
ENDROOT
BRANCH   1   2
ATOM      2  C   UNL A   1      44.210  20.205  24.870  1.00  0.00     0.261 C 
BRANCH   2   3
ATOM      3  O   UNL A   1      43.689  19.722  26.118  1.00  0.00    -0.460 OA
BRANCH   3   4
ATOM      4  C   UNL A   1      42.395  19.313  26.094  1.00  0.00     0.338 C 
ATOM      5  O   UNL A   1      41.984  18.186  25.881  1.00  0.00    -0.246 OA
BRANCH   4   6
ATOM      6  C   UNL A   1      41.532  20.403  26.607  1.00  0.00     0.062 A 
ATOM      7  C   UNL A   1      39.549  21.797  26.495  1.00  0.00     0.070 A 
ATOM      8  C   UNL A   1      40.112  22.636  27.471  1.00  0.00     0.028 A 
ATOM      9  C   UNL A   1      40.273  20.678  26.061  1.00  0.00     0.044 A 
ATOM     10  C   UNL A   1      41.350  22.338  28.043  1.00  0.00     0.003 A 
ATOM     11  C   UNL A   1      42.059  21.221  27.614  1.00  0.00     0.016 A 
BRANCH   7  12
ATOM     12  N   UNL A   1      38.272  22.089  25.967  1.00  0.00    -0.196 N 
ATOM     13  C   UNL A   1      35.224  21.555  24.278  1.00  0.00     0.024 C 
ATOM     14  C   UNL A   1      36.278  22.064  24.925  1.00  0.00     0.065 C 
ATOM     15  C   UNL A   1      37.480  21.239  25.189  1.00  0.00     0.280 C 
ATOM     16  C   UNL A   1      36.570  23.355  25.567  1.00  0.00     0.071 C 
ATOM     17  O   UNL A   1      37.648  20.085  24.830  1.00  0.00    -0.267 OA
ATOM     18  N   UNL A   1      37.713  23.342  26.202  1.00  0.00    -0.169 NA
ATOM     19  C   UNL A   1      35.696  24.560  25.488  1.00  0.00     0.069 C 
BRANCH  13  20
ATOM     20  C   UNL A   1      33.949  22.208  23.990  1.00  0.00    -0.019 A 
ATOM     21  C   UNL A   1      31.668  22.739  24.573  1.00  0.00     0.163 A 
ATOM     22  C   UNL A   1      32.833  22.011  24.811  1.00  0.00     0.058 A 
ATOM     23  C   UNL A   1      31.629  23.708  23.568  1.00  0.00     0.176 A 
ATOM     24  C   UNL A   1      32.719  23.872  22.720  1.00  0.00     0.087 A 
ATOM     25  C   UNL A   1      33.880  23.124  22.929  1.00  0.00     0.032 A 
ATOM     26  Cl  UNL A   1      32.690  25.017  21.429  1.00  0.00    -0.080 Cl
BRANCH  21  27
ATOM     27  O   UNL A   1      30.587  22.586  25.402  1.00  0.00    -0.490 OA
BRANCH  27  28
ATOM     28  C   UNL A   1      30.766  23.282  26.647  1.00  0.00     0.226 C 
ATOM     29  C   UNL A   1      31.988  24.184  26.571  1.00  0.00     0.049 C 
ENDBRANCH  27  28
ENDBRANCH  21  27
BRANCH  23  30
ATOM     30  O   UNL A   1      30.532  24.520  23.461  1.00  0.00    -0.503 OA
ATOM     31  H   UNL A   1      30.639  25.450  23.431  1.00  0.00     0.293 HD
ENDBRANCH  23  30
ENDBRANCH  13  20
ENDBRANCH   7  12
ENDBRANCH   4   6
ENDBRANCH   3   4
ENDBRANCH   2   3
ENDBRANCH   1   2
BRANCH   1  32
ATOM     32  O   UNL A   1      44.087  22.560  23.959  1.00  0.00    -0.374 OA
BRANCH  32  33
ATOM     33  C   UNL A   1      43.593  23.826  24.396  1.00  0.00     0.202 C 
BRANCH  33  34
ATOM     34  C   UNL A   1      43.889  24.243  25.842  1.00  0.00     0.261 C 
BRANCH  34  35
ATOM     35  O   UNL A   1      42.743  24.802  26.505  1.00  0.00    -0.460 OA
BRANCH  35  36
ATOM     36  C   UNL A   1      42.318  25.981  25.987  1.00  0.00     0.338 C 
ATOM     37  O   UNL A   1      42.246  26.283  24.807  1.00  0.00    -0.246 OA
BRANCH  36  38
ATOM     38  C   UNL A   1      41.769  26.832  27.059  1.00  0.00     0.060 A 
ATOM     39  C   UNL A   1      42.281  28.130  27.180  1.00  0.00     0.016 A 
ATOM     40  C   UNL A   1      40.835  26.347  27.976  1.00  0.00     0.016 A 
ATOM     41  C   UNL A   1      41.913  28.926  28.261  1.00  0.00     0.010 A 
ATOM     42  C   UNL A   1      40.469  27.147  29.062  1.00  0.00     0.010 A 
ATOM     43  C   UNL A   1      41.041  28.422  29.235  1.00  0.00    -0.014 A 
BRANCH  43  44
ATOM     44  C   UNL A   1      40.861  29.157  30.511  1.00  0.00     0.031 A 
ATOM     45  C   UNL A   1      39.767  30.189  30.606  1.00  0.00     0.074 A 
ATOM     46  C   UNL A   1      41.632  28.889  31.579  1.00  0.00     0.049 A 
ATOM     47  N   UNL A   1      39.453  30.975  31.603  1.00  0.00    -0.248 NA
ATOM     48  C   UNL A   1      38.916  30.359  29.416  1.00  0.00     0.031 C 
ATOM     49  C   UNL A   1      42.689  27.877  31.629  1.00  0.00     0.029 A 
ATOM     50  N   UNL A   1      41.645  29.449  32.832  1.00  0.00    -0.354 N 
ATOM     51  C   UNL A   1      38.377  31.737  31.160  1.00  0.00     0.074 A 
ATOM     52  C   UNL A   1      38.119  31.348  29.791  1.00  0.00     0.031 C 
ATOM     53  C   UNL A   1      43.244  27.888  32.853  1.00  0.00     0.029 A 
ATOM     54  C   UNL A   1      42.613  28.931  33.659  1.00  0.00     0.049 A 
ATOM     55  H   UNL A   1      41.018  30.154  33.113  1.00  0.00     0.167 HD
ATOM     56  C   UNL A   1      37.662  32.668  31.834  1.00  0.00     0.031 A 
ATOM     57  C   UNL A   1      42.963  29.274  34.915  1.00  0.00     0.031 A 
ATOM     58  C   UNL A   1      37.928  33.058  33.194  1.00  0.00     0.049 A 
ATOM     59  C   UNL A   1      42.207  30.375  35.615  1.00  0.00     0.074 A 
ATOM     60  C   UNL A   1      37.259  33.990  33.968  1.00  0.00     0.029 A 
ATOM     61  N   UNL A   1      38.946  32.541  33.982  1.00  0.00    -0.354 N 
ATOM     62  N   UNL A   1      41.187  31.080  35.185  1.00  0.00    -0.248 NA
ATOM     63  C   UNL A   1      42.643  30.717  36.976  1.00  0.00     0.031 C 
ATOM     64  C   UNL A   1      37.910  34.080  35.202  1.00  0.00     0.029 A 
ATOM     65  C   UNL A   1      38.937  33.150  35.225  1.00  0.00     0.049 A 
ATOM     66  H   UNL A   1      39.580  31.843  33.699  1.00  0.00     0.167 HD
ATOM     67  C   UNL A   1      40.834  31.918  36.240  1.00  0.00     0.074 A 
ATOM     68  C   UNL A   1      41.744  31.625  37.328  1.00  0.00     0.031 C 
ATOM     69  C   UNL A   1      39.843  32.842  36.304  1.00  0.00     0.031 A 
BRANCH  56  70
ATOM     70  C   UNL A   1      36.536  33.351  31.100  1.00  0.00    -0.014 A 
ATOM     71  C   UNL A   1      35.377  33.779  31.775  1.00  0.00     0.010 A 
ATOM     72  C   UNL A   1      36.656  33.608  29.723  1.00  0.00     0.010 A 
ATOM     73  C   UNL A   1      34.347  34.416  31.079  1.00  0.00     0.020 A 
ATOM     74  C   UNL A   1      35.642  34.273  29.029  1.00  0.00     0.020 A 
ATOM     75  C   UNL A   1      34.486  34.659  29.709  1.00  0.00     0.054 A 
BRANCH  75  76
ATOM     76  S   UNL A   1      33.143  35.511  28.837  1.00  0.00     0.124 S 
ATOM     77  O   UNL A   1      33.860  36.583  28.151  1.00  0.00    -0.237 OA
ATOM     78  O   UNL A   1      32.606  34.462  27.974  1.00  0.00    -0.237 OA
ATOM     79  O   UNL A   1      32.253  35.947  29.910  1.00  0.00    -0.744 OA
ENDBRANCH  75  76
ENDBRANCH  56  70
BRANCH  57  80
ATOM     80  C   UNL A   1      44.092  28.579  35.594  1.00  0.00    -0.014 A 
ATOM     81  C   UNL A   1      43.878  27.381  36.298  1.00  0.00     0.010 A 
ATOM     82  C   UNL A   1      45.389  29.124  35.556  1.00  0.00     0.010 A 
ATOM     83  C   UNL A   1      44.932  26.757  36.974  1.00  0.00     0.020 A 
ATOM     84  C   UNL A   1      46.452  28.486  36.201  1.00  0.00     0.020 A 
ATOM     85  C   UNL A   1      46.213  27.313  36.920  1.00  0.00     0.054 A 
BRANCH  85  86
ATOM     86  S   UNL A   1      47.570  26.469  37.777  1.00  0.00     0.124 S 
ATOM     87  O   UNL A   1      46.867  25.398  38.476  1.00  0.00    -0.237 OA
ATOM     88  O   UNL A   1      48.427  26.049  36.670  1.00  0.00    -0.237 OA
ATOM     89  O   UNL A   1      48.135  27.510  38.632  1.00  0.00    -0.744 OA
ENDBRANCH  85  86
ENDBRANCH  57  80
BRANCH  69  90
ATOM     90  C   UNL A   1      39.645  33.566  37.611  1.00  0.00    -0.014 A 
ATOM     91  C   UNL A   1      38.589  33.246  38.482  1.00  0.00     0.010 A 
ATOM     92  C   UNL A   1      40.574  34.552  37.998  1.00  0.00     0.010 A 
ATOM     93  C   UNL A   1      38.442  33.923  39.696  1.00  0.00     0.020 A 
ATOM     94  C   UNL A   1      40.451  35.207  39.226  1.00  0.00     0.020 A 
ATOM     95  C   UNL A   1      39.376  34.899  40.060  1.00  0.00     0.054 A 
BRANCH  95  96
ATOM     96  S   UNL A   1      39.186  35.735  41.659  1.00  0.00     0.124 S 
ATOM     97  O   UNL A   1      37.789  35.460  41.983  1.00  0.00    -0.237 OA
ATOM     98  O   UNL A   1      40.171  35.053  42.495  1.00  0.00    -0.237 OA
ATOM     99  O   UNL A   1      39.492  37.132  41.359  1.00  0.00    -0.744 OA
ENDBRANCH  95  96
ENDBRANCH  69  90
ENDBRANCH  43  44
ENDBRANCH  36  38
ENDBRANCH  35  36
ENDBRANCH  34  35
ENDBRANCH  33  34
ENDBRANCH  32  33
ENDBRANCH   1  32
TORSDOF 22
ENDMDL
MODEL 3
REMARK VINA RESULT:      -7.7      4.916      9.364
REMARK SMILES CCOc1cc(/C=C2/C(=O)N(c3cccc(C(=O)OCCOCCOC(=O)c4ccc(-c5c6nc(c(-c7ccc(S(=O)(=O)[O-])cc7)c7ccc([nH]7)c(-c7ccc(S(=O)(=O)[O-])cc7)c7nc(c(-c8ccc(S(=O)(=O)[O-])cc8)c8ccc5[nH]8)C=C7)C=C6)cc4)c3)N=C2C)cc(Cl)c1O
REMARK SMILES IDX 21 1 20 2 19 3 17 4 18 5 16 6 12 7 13 8 88 9 14 10 15 11
REMARK SMILES IDX 11 12 7 13 8 14 9 15 90 16 10 17 89 18 91 19 6 20 4 21 5 22
REMARK SMILES IDX 95 23 93 24 92 25 94 26 3 27 2 28 1 29 96 30 22 32 23 33
REMARK SMILES IDX 24 34 25 35 26 36 27 37 28 38 29 39 87 40 30 41 86 42 31 43
REMARK SMILES IDX 32 44 33 45 80 46 34 47 85 48 79 49 81 50 35 51 84 52 78 53
REMARK SMILES IDX 77 54 36 56 66 57 47 58 65 59 48 60 51 61 64 62 82 63 49 64
REMARK SMILES IDX 50 65 63 67 83 68 52 69 37 70 38 71 46 72 39 73 45 74 40 75
REMARK SMILES IDX 41 76 42 77 43 78 44 79 67 80 68 81 76 82 69 83 75 84 70 85
REMARK SMILES IDX 71 86 72 87 73 88 74 89 53 90 54 91 62 92 55 93 61 94 56 95
REMARK SMILES IDX 57 96 58 97 59 98 60 99
REMARK H PARENT 96 31 81 55 51 66
REMARK Flexibility Score: inf
ROOT
ATOM      1  C   UNL A   1      36.656  22.679  23.901  1.00  0.00     0.202 C 
ENDROOT
BRANCH   1   2
ATOM      2  C   UNL A   1      35.207  23.037  23.548  1.00  0.00     0.261 C 
BRANCH   2   3
ATOM      3  O   UNL A   1      34.790  24.258  24.180  1.00  0.00    -0.460 OA
BRANCH   3   4
ATOM      4  C   UNL A   1      33.959  25.042  23.448  1.00  0.00     0.338 C 
ATOM      5  O   UNL A   1      33.704  24.938  22.261  1.00  0.00    -0.246 OA
BRANCH   4   6
ATOM      6  C   UNL A   1      33.200  25.928  24.362  1.00  0.00     0.062 A 
ATOM      7  C   UNL A   1      33.075  27.715  26.000  1.00  0.00     0.070 A 
ATOM      8  C   UNL A   1      31.739  27.361  26.249  1.00  0.00     0.028 A 
ATOM      9  C   UNL A   1      33.806  26.985  25.052  1.00  0.00     0.044 A 
ATOM     10  C   UNL A   1      31.124  26.333  25.532  1.00  0.00     0.003 A 
ATOM     11  C   UNL A   1      31.853  25.619  24.586  1.00  0.00     0.016 A 
BRANCH   7  12
ATOM     12  N   UNL A   1      33.661  28.791  26.701  1.00  0.00    -0.196 N 
ATOM     13  C   UNL A   1      34.160  32.105  27.798  1.00  0.00     0.024 C 
ATOM     14  C   UNL A   1      34.247  30.795  27.540  1.00  0.00     0.065 C 
ATOM     15  C   UNL A   1      33.312  30.141  26.596  1.00  0.00     0.280 C 
ATOM     16  C   UNL A   1      35.086  29.697  28.047  1.00  0.00     0.071 C 
ATOM     17  O   UNL A   1      32.435  30.699  25.956  1.00  0.00    -0.267 OA
ATOM     18  N   UNL A   1      34.708  28.534  27.583  1.00  0.00    -0.169 NA
ATOM     19  C   UNL A   1      36.254  29.870  28.957  1.00  0.00     0.069 C 
BRANCH  13  20
ATOM     20  C   UNL A   1      34.959  32.888  28.737  1.00  0.00    -0.019 A 
ATOM     21  C   UNL A   1      35.329  33.816  30.934  1.00  0.00     0.163 A 
ATOM     22  C   UNL A   1      34.493  33.166  30.027  1.00  0.00     0.058 A 
ATOM     23  C   UNL A   1      36.645  34.129  30.588  1.00  0.00     0.176 A 
ATOM     24  C   UNL A   1      37.096  33.898  29.292  1.00  0.00     0.087 A 
ATOM     25  C   UNL A   1      36.255  33.277  28.366  1.00  0.00     0.032 A 
ATOM     26  Cl  UNL A   1      38.696  34.324  28.807  1.00  0.00    -0.080 Cl
BRANCH  21  27
ATOM     27  O   UNL A   1      34.897  34.049  32.214  1.00  0.00    -0.490 OA
BRANCH  27  28
ATOM     28  C   UNL A   1      35.099  35.418  32.604  1.00  0.00     0.226 C 
ATOM     29  C   UNL A   1      33.766  36.148  32.658  1.00  0.00     0.049 C 
ENDBRANCH  27  28
ENDBRANCH  21  27
BRANCH  23  30
ATOM     30  O   UNL A   1      37.493  34.617  31.546  1.00  0.00    -0.503 OA
ATOM     31  H   UNL A   1      38.418  34.602  31.404  1.00  0.00     0.293 HD
ENDBRANCH  23  30
ENDBRANCH  13  20
ENDBRANCH   7  12
ENDBRANCH   4   6
ENDBRANCH   3   4
ENDBRANCH   2   3
ENDBRANCH   1   2
BRANCH   1  32
ATOM     32  O   UNL A   1      36.893  22.125  25.195  1.00  0.00    -0.374 OA
BRANCH  32  33
ATOM     33  C   UNL A   1      38.050  21.304  25.354  1.00  0.00     0.202 C 
BRANCH  33  34
ATOM     34  C   UNL A   1      39.301  21.950  25.963  1.00  0.00     0.261 C 
BRANCH  34  35
ATOM     35  O   UNL A   1      40.051  21.042  26.786  1.00  0.00    -0.460 OA
BRANCH  35  36
ATOM     36  C   UNL A   1      41.247  20.674  26.264  1.00  0.00     0.338 C 
ATOM     37  O   UNL A   1      41.492  19.666  25.623  1.00  0.00    -0.246 OA
BRANCH  36  38
ATOM     38  C   UNL A   1      42.224  21.768  26.426  1.00  0.00     0.060 A 
ATOM     39  C   UNL A   1      42.849  21.896  27.673  1.00  0.00     0.016 A 
ATOM     40  C   UNL A   1      42.461  22.696  25.412  1.00  0.00     0.016 A 
ATOM     41  C   UNL A   1      43.665  22.995  27.933  1.00  0.00     0.010 A 
ATOM     42  C   UNL A   1      43.278  23.800  25.676  1.00  0.00     0.010 A 
ATOM     43  C   UNL A   1      43.845  23.978  26.952  1.00  0.00    -0.014 A 
BRANCH  43  44
ATOM     44  C   UNL A   1      44.485  25.267  27.314  1.00  0.00     0.031 A 
ATOM     45  C   UNL A   1      43.736  26.222  28.209  1.00  0.00     0.074 A 
ATOM     46  C   UNL A   1      45.722  25.571  26.887  1.00  0.00     0.049 A 
ATOM     47  N   UNL A   1      44.081  27.413  28.623  1.00  0.00    -0.248 NA
ATOM     48  C   UNL A   1      42.422  25.772  28.699  1.00  0.00     0.031 C 
ATOM     49  C   UNL A   1      46.569  24.709  26.061  1.00  0.00     0.029 A 
ATOM     50  N   UNL A   1      46.485  26.694  27.090  1.00  0.00    -0.354 N 
ATOM     51  C   UNL A   1      43.026  27.860  29.412  1.00  0.00     0.074 A 
ATOM     52  C   UNL A   1      42.012  26.828  29.387  1.00  0.00     0.031 C 
ATOM     53  C   UNL A   1      47.736  25.336  25.831  1.00  0.00     0.029 A 
ATOM     54  C   UNL A   1      47.704  26.656  26.456  1.00  0.00     0.049 A 
ATOM     55  H   UNL A   1      46.187  27.455  27.639  1.00  0.00     0.167 HD
ATOM     56  C   UNL A   1      42.916  29.017  30.105  1.00  0.00     0.031 A 
ATOM     57  C   UNL A   1      48.674  27.589  26.374  1.00  0.00     0.031 A 
ATOM     58  C   UNL A   1      43.924  30.045  30.121  1.00  0.00     0.049 A 
ATOM     59  C   UNL A   1      48.491  28.906  27.083  1.00  0.00     0.074 A 
ATOM     60  C   UNL A   1      43.909  31.255  30.794  1.00  0.00     0.029 A 
ATOM     61  N   UNL A   1      45.126  29.987  29.430  1.00  0.00    -0.354 N 
ATOM     62  N   UNL A   1      47.491  29.310  27.833  1.00  0.00    -0.248 NA
ATOM     63  C   UNL A   1      49.573  29.891  26.945  1.00  0.00     0.031 C 
ATOM     64  C   UNL A   1      45.074  31.953  30.461  1.00  0.00     0.029 A 
ATOM     65  C   UNL A   1      45.849  31.148  29.643  1.00  0.00     0.049 A 
ATOM     66  H   UNL A   1      45.420  29.232  28.872  1.00  0.00     0.167 HD
ATOM     67  C   UNL A   1      47.846  30.577  28.289  1.00  0.00     0.074 A 
ATOM     68  C   UNL A   1      49.154  30.867  27.738  1.00  0.00     0.031 C 
ATOM     69  C   UNL A   1      47.155  31.420  29.096  1.00  0.00     0.031 A 
BRANCH  56  70
ATOM     70  C   UNL A   1      41.646  29.248  30.884  1.00  0.00    -0.014 A 
ATOM     71  C   UNL A   1      40.557  29.937  30.317  1.00  0.00     0.010 A 
ATOM     72  C   UNL A   1      41.523  28.733  32.187  1.00  0.00     0.010 A 
ATOM     73  C   UNL A   1      39.386  30.137  31.053  1.00  0.00     0.020 A 
ATOM     74  C   UNL A   1      40.342  28.902  32.913  1.00  0.00     0.020 A 
ATOM     75  C   UNL A   1      39.285  29.618  32.347  1.00  0.00     0.054 A 
BRANCH  75  76
ATOM     76  S   UNL A   1      37.743  29.871  33.267  1.00  0.00     0.124 S 
ATOM     77  O   UNL A   1      37.109  28.559  33.159  1.00  0.00    -0.237 OA
ATOM     78  O   UNL A   1      38.221  30.229  34.600  1.00  0.00    -0.237 OA
ATOM     79  O   UNL A   1      37.075  30.946  32.538  1.00  0.00    -0.744 OA
ENDBRANCH  75  76
ENDBRANCH  56  70
BRANCH  57  80
ATOM     80  C   UNL A   1      49.906  27.320  25.581  1.00  0.00    -0.014 A 
ATOM     81  C   UNL A   1      51.011  26.678  26.167  1.00  0.00     0.010 A 
ATOM     82  C   UNL A   1      49.987  27.724  24.235  1.00  0.00     0.010 A 
ATOM     83  C   UNL A   1      52.183  26.471  25.431  1.00  0.00     0.020 A 
ATOM     84  C   UNL A   1      51.143  27.488  23.487  1.00  0.00     0.020 A 
ATOM     85  C   UNL A   1      52.240  26.875  24.095  1.00  0.00     0.054 A 
BRANCH  85  86
ATOM     86  S   UNL A   1      53.759  26.567  23.152  1.00  0.00     0.124 S 
ATOM     87  O   UNL A   1      54.273  27.919  22.955  1.00  0.00    -0.237 OA
ATOM     88  O   UNL A   1      54.528  25.723  24.064  1.00  0.00    -0.237 OA
ATOM     89  O   UNL A   1      53.283  25.895  21.946  1.00  0.00    -0.744 OA
ENDBRANCH  85  86
ENDBRANCH  57  80
BRANCH  69  90
ATOM     90  C   UNL A   1      47.820  32.716  29.485  1.00  0.00    -0.014 A 
ATOM     91  C   UNL A   1      48.636  32.816  30.626  1.00  0.00     0.010 A 
ATOM     92  C   UNL A   1      47.666  33.844  28.656  1.00  0.00     0.010 A 
ATOM     93  C   UNL A   1      49.253  34.027  30.951  1.00  0.00     0.020 A 
ATOM     94  C   UNL A   1      48.308  35.047  28.958  1.00  0.00     0.020 A 
ATOM     95  C   UNL A   1      49.086  35.135  30.114  1.00  0.00     0.054 A 
BRANCH  95  96
ATOM     96  S   UNL A   1      49.930  36.684  30.537  1.00  0.00     0.124 S 
ATOM     97  O   UNL A   1      49.203  37.112  31.728  1.00  0.00    -0.237 OA
ATOM     98  O   UNL A   1      51.306  36.246  30.762  1.00  0.00    -0.237 OA
ATOM     99  O   UNL A   1      49.734  37.521  29.354  1.00  0.00    -0.744 OA
ENDBRANCH  95  96
ENDBRANCH  69  90
ENDBRANCH  43  44
ENDBRANCH  36  38
ENDBRANCH  35  36
ENDBRANCH  34  35
ENDBRANCH  33  34
ENDBRANCH  32  33
ENDBRANCH   1  32
TORSDOF 22
ENDMDL
