MODEL 1
REMARK VINA RESULT:      -7.2      0.000      0.000
REMARK SMILES CC(C)(C)OC(=O)N[C@H](c1ccccc1)[C@@H](O)CC(=O)OCCOCCOC(=O)c1ccc(-c2c3nc(c(-c4ccc(S(=O)(=O)[O-])cc4)c4ccc([nH]4)c(-c4ccc(S(=O)(=O)[O-])cc4)c4nc(c(-c5ccc(S(=O)(=O)[O-])cc5)c5ccc2[nH]5)C=C4)C=C3)cc1
REMARK SMILES IDX 23 1 22 2 21 3 19 4 20 5 18 6 16 7 9 8 8 9 6 10 7 11 5 13
REMARK SMILES IDX 2 14 1 15 3 16 4 17 10 18 11 19 15 20 12 21 14 22 13 23
REMARK SMILES IDX 17 24 24 26 25 27 26 28 27 29 28 30 29 31 30 32 31 33 89 34
REMARK SMILES IDX 32 35 88 36 33 37 34 38 35 39 82 40 36 41 87 42 81 43 83 44
REMARK SMILES IDX 37 45 86 46 80 47 79 48 38 50 68 51 49 52 67 53 50 54 53 55
REMARK SMILES IDX 66 56 84 57 51 58 52 59 65 61 85 62 54 63 39 64 40 65 48 66
REMARK SMILES IDX 41 67 47 68 42 69 43 70 44 71 45 72 46 73 69 74 70 75 78 76
REMARK SMILES IDX 71 77 77 78 72 79 73 80 74 81 75 82 76 83 55 84 56 85 64 86
REMARK SMILES IDX 57 87 63 88 58 89 59 90 60 91 61 92 62 93
REMARK H PARENT 8 12 17 25 83 49 53 60
REMARK Flexibility Score: inf
ROOT
ATOM      1  C   UNL A   1      45.812  41.097  33.346  1.00  0.00     0.202 C 
ENDROOT
BRANCH   1   2
ATOM      2  C   UNL A   1      45.219  42.148  32.404  1.00  0.00     0.261 C 
BRANCH   2   3
ATOM      3  O   UNL A   1      43.909  41.740  31.949  1.00  0.00    -0.463 OA
BRANCH   3   4
ATOM      4  C   UNL A   1      43.612  41.902  30.637  1.00  0.00     0.308 C 
ATOM      5  O   UNL A   1      43.663  42.967  30.036  1.00  0.00    -0.252 OA
BRANCH   4   6
ATOM      6  C   UNL A   1      43.165  40.606  29.994  1.00  0.00     0.157 C 
BRANCH   6   7
ATOM      7  C   UNL A   1      44.252  39.677  29.418  1.00  0.00     0.152 C 
BRANCH   7   8
ATOM      8  C   UNL A   1      43.920  39.101  27.999  1.00  0.00     0.145 C 
BRANCH   8   9
ATOM      9  N   UNL A   1      42.941  39.905  27.299  1.00  0.00    -0.312 N 
ATOM     10  C   UNL A   1      43.160  40.814  26.317  1.00  0.00     0.408 C 
ATOM     11  O   UNL A   1      42.212  41.466  25.889  1.00  0.00    -0.225 OA
ATOM     12  H   UNL A   1      42.003  39.777  27.570  1.00  0.00     0.167 HD
BRANCH  10  13
ATOM     13  O   UNL A   1      44.443  40.855  25.889  1.00  0.00    -0.444 OA
BRANCH  13  14
ATOM     14  C   UNL A   1      44.975  42.073  25.306  1.00  0.00     0.106 C 
ATOM     15  C   UNL A   1      45.168  43.075  26.446  1.00  0.00     0.056 C 
ATOM     16  C   UNL A   1      44.008  42.657  24.278  1.00  0.00     0.056 C 
ATOM     17  C   UNL A   1      46.350  41.806  24.712  1.00  0.00     0.056 C 
ENDBRANCH  13  14
ENDBRANCH  10  13
ENDBRANCH   8   9
BRANCH   8  18
ATOM     18  C   UNL A   1      43.438  37.649  28.054  1.00  0.00    -0.023 A 
ATOM     19  C   UNL A   1      43.209  36.895  26.891  1.00  0.00     0.006 A 
ATOM     20  C   UNL A   1      43.324  37.013  29.301  1.00  0.00     0.006 A 
ATOM     21  C   UNL A   1      42.907  35.533  26.978  1.00  0.00     0.000 A 
ATOM     22  C   UNL A   1      43.025  35.653  29.384  1.00  0.00     0.000 A 
ATOM     23  C   UNL A   1      42.824  34.912  28.224  1.00  0.00     0.000 A 
ENDBRANCH   8  18
ENDBRANCH   7   8
BRANCH   7  24
ATOM     24  O   UNL A   1      45.453  40.476  29.362  1.00  0.00    -0.390 OA
ATOM     25  H   UNL A   1      45.483  40.955  28.519  1.00  0.00     0.211 HD
ENDBRANCH   7  24
ENDBRANCH   6   7
ENDBRANCH   4   6
ENDBRANCH   3   4
ENDBRANCH   2   3
ENDBRANCH   1   2
BRANCH   1  26
ATOM     26  O   UNL A   1      46.876  40.324  32.784  1.00  0.00    -0.374 OA
BRANCH  26  27
ATOM     27  C   UNL A   1      46.771  38.912  32.936  1.00  0.00     0.202 C 
BRANCH  27  28
ATOM     28  C   UNL A   1      47.473  38.067  31.866  1.00  0.00     0.261 C 
BRANCH  28  29
ATOM     29  O   UNL A   1      46.547  37.426  30.972  1.00  0.00    -0.460 OA
BRANCH  29  30
ATOM     30  C   UNL A   1      46.983  37.309  29.689  1.00  0.00     0.338 C 
ATOM     31  O   UNL A   1      47.513  38.173  29.014  1.00  0.00    -0.246 OA
BRANCH  30  32
ATOM     32  C   UNL A   1      46.842  35.910  29.241  1.00  0.00     0.060 A 
ATOM     33  C   UNL A   1      46.624  35.643  27.884  1.00  0.00     0.016 A 
ATOM     34  C   UNL A   1      46.885  34.866  30.156  1.00  0.00     0.016 A 
ATOM     35  C   UNL A   1      46.470  34.322  27.430  1.00  0.00     0.010 A 
ATOM     36  C   UNL A   1      46.728  33.555  29.694  1.00  0.00     0.010 A 
ATOM     37  C   UNL A   1      46.535  33.247  28.325  1.00  0.00    -0.014 A 
BRANCH  37  38
ATOM     38  C   UNL A   1      46.371  31.811  27.892  1.00  0.00     0.031 A 
ATOM     39  C   UNL A   1      45.019  31.147  28.049  1.00  0.00     0.074 A 
ATOM     40  C   UNL A   1      47.396  31.047  27.441  1.00  0.00     0.049 A 
ATOM     41  N   UNL A   1      44.685  29.888  27.909  1.00  0.00    -0.248 NA
ATOM     42  C   UNL A   1      43.904  32.015  28.464  1.00  0.00     0.031 C 
ATOM     43  C   UNL A   1      48.776  31.487  27.234  1.00  0.00     0.029 A 
ATOM     44  N   UNL A   1      47.438  29.706  27.104  1.00  0.00    -0.354 N 
ATOM     45  C   UNL A   1      43.339  29.818  28.254  1.00  0.00     0.074 A 
ATOM     46  C   UNL A   1      42.955  31.130  28.720  1.00  0.00     0.031 C 
ATOM     47  C   UNL A   1      49.525  30.443  26.832  1.00  0.00     0.029 A 
ATOM     48  C   UNL A   1      48.693  29.244  26.765  1.00  0.00     0.049 A 
ATOM     49  H   UNL A   1      46.639  29.129  27.106  1.00  0.00     0.167 HD
ATOM     50  C   UNL A   1      42.469  28.786  28.136  1.00  0.00     0.031 A 
ATOM     51  C   UNL A   1      49.138  28.009  26.445  1.00  0.00     0.031 A 
ATOM     52  C   UNL A   1      42.801  27.496  27.600  1.00  0.00     0.049 A 
ATOM     53  C   UNL A   1      48.165  26.857  26.346  1.00  0.00     0.074 A 
ATOM     54  C   UNL A   1      41.953  26.435  27.338  1.00  0.00     0.029 A 
ATOM     55  N   UNL A   1      44.073  27.095  27.233  1.00  0.00    -0.354 N 
ATOM     56  N   UNL A   1      46.875  26.845  26.583  1.00  0.00    -0.248 NA
ATOM     57  C   UNL A   1      48.701  25.561  25.895  1.00  0.00     0.031 C 
ATOM     58  C   UNL A   1      42.721  25.369  26.862  1.00  0.00     0.029 A 
ATOM     59  C   UNL A   1      44.037  25.791  26.767  1.00  0.00     0.049 A 
ATOM     60  H   UNL A   1      44.883  27.651  27.294  1.00  0.00     0.167 HD
ATOM     61  C   UNL A   1      46.440  25.563  26.250  1.00  0.00     0.074 A 
ATOM     62  C   UNL A   1      47.601  24.826  25.803  1.00  0.00     0.031 C 
ATOM     63  C   UNL A   1      45.183  25.058  26.295  1.00  0.00     0.031 A 
BRANCH  50  64
ATOM     64  C   UNL A   1      41.044  29.038  28.557  1.00  0.00    -0.014 A 
ATOM     65  C   UNL A   1      40.676  29.002  29.916  1.00  0.00     0.010 A 
ATOM     66  C   UNL A   1      40.069  29.335  27.590  1.00  0.00     0.010 A 
ATOM     67  C   UNL A   1      39.346  29.188  30.293  1.00  0.00     0.020 A 
ATOM     68  C   UNL A   1      38.742  29.564  27.968  1.00  0.00     0.020 A 
ATOM     69  C   UNL A   1      38.387  29.465  29.315  1.00  0.00     0.054 A 
BRANCH  69  70
ATOM     70  S   UNL A   1      36.670  29.717  29.840  1.00  0.00     0.124 S 
ATOM     71  O   UNL A   1      35.928  29.201  28.691  1.00  0.00    -0.237 OA
ATOM     72  O   UNL A   1      36.586  28.911  31.054  1.00  0.00    -0.237 OA
ATOM     73  O   UNL A   1      36.578  31.160  30.044  1.00  0.00    -0.744 OA
ENDBRANCH  69  70
ENDBRANCH  50  64
BRANCH  51  74
ATOM     74  C   UNL A   1      50.585  27.773  26.149  1.00  0.00    -0.014 A 
ATOM     75  C   UNL A   1      51.051  27.755  24.821  1.00  0.00     0.010 A 
ATOM     76  C   UNL A   1      51.498  27.517  27.190  1.00  0.00     0.010 A 
ATOM     77  C   UNL A   1      52.389  27.460  24.537  1.00  0.00     0.020 A 
ATOM     78  C   UNL A   1      52.845  27.247  26.911  1.00  0.00     0.020 A 
ATOM     79  C   UNL A   1      53.280  27.210  25.585  1.00  0.00     0.054 A 
BRANCH  79  80
ATOM     80  S   UNL A   1      55.019  26.869  25.188  1.00  0.00     0.124 S 
ATOM     81  O   UNL A   1      54.962  26.617  23.752  1.00  0.00    -0.237 OA
ATOM     82  O   UNL A   1      55.679  28.110  25.587  1.00  0.00    -0.237 OA
ATOM     83  O   UNL A   1      55.338  25.708  26.016  1.00  0.00    -0.744 OA
ENDBRANCH  79  80
ENDBRANCH  51  74
BRANCH  63  84
ATOM     84  C   UNL A   1      44.952  23.657  25.785  1.00  0.00    -0.014 A 
ATOM     85  C   UNL A   1      44.222  23.409  24.610  1.00  0.00     0.010 A 
ATOM     86  C   UNL A   1      45.564  22.576  26.448  1.00  0.00     0.010 A 
ATOM     87  C   UNL A   1      44.095  22.105  24.118  1.00  0.00     0.020 A 
ATOM     88  C   UNL A   1      45.466  21.276  25.944  1.00  0.00     0.020 A 
ATOM     89  C   UNL A   1      44.724  21.049  24.785  1.00  0.00     0.054 A 
BRANCH  89  90
ATOM     90  S   UNL A   1      44.603  19.378  24.085  1.00  0.00     0.124 S 
ATOM     91  O   UNL A   1      44.527  19.651  22.653  1.00  0.00    -0.237 OA
ATOM     92  O   UNL A   1      45.842  18.752  24.540  1.00  0.00    -0.237 OA
ATOM     93  O   UNL A   1      43.384  18.838  24.681  1.00  0.00    -0.744 OA
ENDBRANCH  89  90
ENDBRANCH  63  84
ENDBRANCH  37  38
ENDBRANCH  30  32
ENDBRANCH  29  30
ENDBRANCH  28  29
ENDBRANCH  27  28
ENDBRANCH  26  27
ENDBRANCH   1  26
TORSDOF 24
ENDMDL
MODEL 2
REMARK VINA RESULT:      -7.2      9.824     18.441
REMARK SMILES CC(C)(C)OC(=O)N[C@H](c1ccccc1)[C@@H](O)CC(=O)OCCOCCOC(=O)c1ccc(-c2c3nc(c(-c4ccc(S(=O)(=O)[O-])cc4)c4ccc([nH]4)c(-c4ccc(S(=O)(=O)[O-])cc4)c4nc(c(-c5ccc(S(=O)(=O)[O-])cc5)c5ccc2[nH]5)C=C4)C=C3)cc1
REMARK SMILES IDX 23 1 22 2 21 3 19 4 20 5 18 6 16 7 9 8 8 9 6 10 7 11 5 13
REMARK SMILES IDX 2 14 1 15 3 16 4 17 10 18 11 19 15 20 12 21 14 22 13 23
REMARK SMILES IDX 17 24 24 26 25 27 26 28 27 29 28 30 29 31 30 32 31 33 89 34
REMARK SMILES IDX 32 35 88 36 33 37 34 38 35 39 82 40 36 41 87 42 81 43 83 44
REMARK SMILES IDX 37 45 86 46 80 47 79 48 38 50 68 51 49 52 67 53 50 54 53 55
REMARK SMILES IDX 66 56 84 57 51 58 52 59 65 61 85 62 54 63 39 64 40 65 48 66
REMARK SMILES IDX 41 67 47 68 42 69 43 70 44 71 45 72 46 73 69 74 70 75 78 76
REMARK SMILES IDX 71 77 77 78 72 79 73 80 74 81 75 82 76 83 55 84 56 85 64 86
REMARK SMILES IDX 57 87 63 88 58 89 59 90 60 91 61 92 62 93
REMARK H PARENT 8 12 17 25 83 49 53 60
REMARK Flexibility Score: inf
ROOT
ATOM      1  C   UNL A   1      33.760  32.946  28.337  1.00  0.00     0.202 C 
ENDROOT
BRANCH   1   2
ATOM      2  C   UNL A   1      34.995  32.171  27.870  1.00  0.00     0.261 C 
BRANCH   2   3
ATOM      3  O   UNL A   1      34.605  30.982  27.146  1.00  0.00    -0.463 OA
BRANCH   3   4
ATOM      4  C   UNL A   1      35.232  29.819  27.447  1.00  0.00     0.308 C 
ATOM      5  O   UNL A   1      36.393  29.729  27.822  1.00  0.00    -0.252 OA
BRANCH   4   6
ATOM      6  C   UNL A   1      34.333  28.620  27.230  1.00  0.00     0.157 C 
BRANCH   6   7
ATOM      7  C   UNL A   1      33.039  28.830  26.418  1.00  0.00     0.152 C 
BRANCH   7   8
ATOM      8  C   UNL A   1      32.438  27.514  25.816  1.00  0.00     0.145 C 
BRANCH   8   9
ATOM      9  N   UNL A   1      33.423  26.751  25.080  1.00  0.00    -0.312 N 
ATOM     10  C   UNL A   1      33.815  25.471  25.294  1.00  0.00     0.408 C 
ATOM     11  O   UNL A   1      34.727  25.007  24.616  1.00  0.00    -0.225 OA
ATOM     12  H   UNL A   1      33.862  27.219  24.333  1.00  0.00     0.167 HD
BRANCH  10  13
ATOM     13  O   UNL A   1      33.089  24.830  26.240  1.00  0.00    -0.444 OA
BRANCH  13  14
ATOM     14  C   UNL A   1      32.317  23.653  25.889  1.00  0.00     0.106 C 
ATOM     15  C   UNL A   1      33.166  22.431  26.246  1.00  0.00     0.056 C 
ATOM     16  C   UNL A   1      32.001  23.629  24.395  1.00  0.00     0.056 C 
ATOM     17  C   UNL A   1      31.059  23.584  26.742  1.00  0.00     0.056 C 
ENDBRANCH  13  14
ENDBRANCH  10  13
ENDBRANCH   8   9
BRANCH   8  18
ATOM     18  C   UNL A   1      31.227  27.779  24.917  1.00  0.00    -0.023 A 
ATOM     19  C   UNL A   1      31.067  28.988  24.220  1.00  0.00     0.006 A 
ATOM     20  C   UNL A   1      30.302  26.746  24.695  1.00  0.00     0.006 A 
ATOM     21  C   UNL A   1      30.026  29.142  23.301  1.00  0.00     0.000 A 
ATOM     22  C   UNL A   1      29.265  26.903  23.775  1.00  0.00     0.000 A 
ATOM     23  C   UNL A   1      29.131  28.097  23.072  1.00  0.00     0.000 A 
ENDBRANCH   8  18
ENDBRANCH   7   8
BRANCH   7  24
ATOM     24  O   UNL A   1      32.100  29.430  27.335  1.00  0.00    -0.390 OA
ATOM     25  H   UNL A   1      31.691  30.205  26.918  1.00  0.00     0.211 HD
ENDBRANCH   7  24
ENDBRANCH   6   7
ENDBRANCH   4   6
ENDBRANCH   3   4
ENDBRANCH   2   3
ENDBRANCH   1   2
BRANCH   1  26
ATOM     26  O   UNL A   1      34.000  34.321  28.648  1.00  0.00    -0.374 OA
BRANCH  26  27
ATOM     27  C   UNL A   1      33.506  34.774  29.904  1.00  0.00     0.202 C 
BRANCH  27  28
ATOM     28  C   UNL A   1      34.433  34.560  31.107  1.00  0.00     0.261 C 
BRANCH  28  29
ATOM     29  O   UNL A   1      34.007  33.475  31.948  1.00  0.00    -0.460 OA
BRANCH  29  30
ATOM     30  C   UNL A   1      34.935  32.498  32.130  1.00  0.00     0.338 C 
ATOM     31  O   UNL A   1      35.156  31.552  31.395  1.00  0.00    -0.246 OA
BRANCH  30  32
ATOM     32  C   UNL A   1      35.759  32.808  33.314  1.00  0.00     0.060 A 
ATOM     33  C   UNL A   1      35.366  33.845  34.170  1.00  0.00     0.016 A 
ATOM     34  C   UNL A   1      36.933  32.109  33.563  1.00  0.00     0.016 A 
ATOM     35  C   UNL A   1      36.139  34.174  35.297  1.00  0.00     0.010 A 
ATOM     36  C   UNL A   1      37.696  32.447  34.686  1.00  0.00     0.010 A 
ATOM     37  C   UNL A   1      37.314  33.470  35.588  1.00  0.00    -0.014 A 
BRANCH  37  38
ATOM     38  C   UNL A   1      38.183  33.785  36.780  1.00  0.00     0.031 A 
ATOM     39  C   UNL A   1      39.522  34.457  36.555  1.00  0.00     0.074 A 
ATOM     40  C   UNL A   1      37.867  33.426  38.048  1.00  0.00     0.049 A 
ATOM     41  N   UNL A   1      40.503  34.667  37.397  1.00  0.00    -0.248 NA
ATOM     42  C   UNL A   1      39.810  34.909  35.183  1.00  0.00     0.031 C 
ATOM     43  C   UNL A   1      36.638  32.758  38.476  1.00  0.00     0.029 A 
ATOM     44  N   UNL A   1      38.588  33.546  39.223  1.00  0.00    -0.354 N 
ATOM     45  C   UNL A   1      41.525  35.239  36.646  1.00  0.00     0.074 A 
ATOM     46  C   UNL A   1      41.089  35.231  35.269  1.00  0.00     0.031 C 
ATOM     47  C   UNL A   1      36.698  32.509  39.798  1.00  0.00     0.029 A 
ATOM     48  C   UNL A   1      37.977  32.981  40.324  1.00  0.00     0.049 A 
ATOM     49  H   UNL A   1      39.463  33.996  39.270  1.00  0.00     0.167 HD
ATOM     50  C   UNL A   1      42.694  35.789  37.053  1.00  0.00     0.031 A 
ATOM     51  C   UNL A   1      38.386  32.844  41.605  1.00  0.00     0.031 A 
ATOM     52  C   UNL A   1      43.117  35.884  38.422  1.00  0.00     0.049 A 
ATOM     53  C   UNL A   1      39.706  33.433  42.043  1.00  0.00     0.074 A 
ATOM     54  C   UNL A   1      44.231  36.530  38.929  1.00  0.00     0.029 A 
ATOM     55  N   UNL A   1      42.445  35.336  39.500  1.00  0.00    -0.354 N 
ATOM     56  N   UNL A   1      40.609  34.059  41.326  1.00  0.00    -0.248 NA
ATOM     57  C   UNL A   1      40.045  33.335  43.474  1.00  0.00     0.031 C 
ATOM     58  C   UNL A   1      44.263  36.324  40.311  1.00  0.00     0.029 A 
ATOM     59  C   UNL A   1      43.133  35.608  40.670  1.00  0.00     0.049 A 
ATOM     60  H   UNL A   1      41.603  34.828  39.443  1.00  0.00     0.167 HD
ATOM     61  C   UNL A   1      41.585  34.480  42.228  1.00  0.00     0.074 A 
ATOM     62  C   UNL A   1      41.170  34.034  43.539  1.00  0.00     0.031 C 
ATOM     63  C   UNL A   1      42.713  35.191  41.983  1.00  0.00     0.031 A 
BRANCH  50  64
ATOM     64  C   UNL A   1      43.583  36.379  35.989  1.00  0.00    -0.014 A 
ATOM     65  C   UNL A   1      44.584  35.604  35.374  1.00  0.00     0.010 A 
ATOM     66  C   UNL A   1      43.402  37.712  35.584  1.00  0.00     0.010 A 
ATOM     67  C   UNL A   1      45.435  36.171  34.425  1.00  0.00     0.020 A 
ATOM     68  C   UNL A   1      44.225  38.273  34.602  1.00  0.00     0.020 A 
ATOM     69  C   UNL A   1      45.251  37.504  34.048  1.00  0.00     0.054 A 
BRANCH  69  70
ATOM     70  S   UNL A   1      46.362  38.207  32.801  1.00  0.00     0.124 S 
ATOM     71  O   UNL A   1      47.599  38.372  33.561  1.00  0.00    -0.237 OA
ATOM     72  O   UNL A   1      46.391  37.167  31.776  1.00  0.00    -0.237 OA
ATOM     73  O   UNL A   1      45.702  39.449  32.408  1.00  0.00    -0.744 OA
ENDBRANCH  69  70
ENDBRANCH  50  64
BRANCH  51  74
ATOM     74  C   UNL A   1      37.526  32.144  42.609  1.00  0.00    -0.014 A 
ATOM     75  C   UNL A   1      36.401  32.787  43.160  1.00  0.00     0.010 A 
ATOM     76  C   UNL A   1      37.854  30.851  43.058  1.00  0.00     0.010 A 
ATOM     77  C   UNL A   1      35.638  32.164  44.154  1.00  0.00     0.020 A 
ATOM     78  C   UNL A   1      37.078  30.213  44.035  1.00  0.00     0.020 A 
ATOM     79  C   UNL A   1      35.980  30.879  44.584  1.00  0.00     0.054 A 
BRANCH  79  80
ATOM     80  S   UNL A   1      34.948  30.080  45.848  1.00  0.00     0.124 S 
ATOM     81  O   UNL A   1      33.668  29.948  45.161  1.00  0.00    -0.237 OA
ATOM     82  O   UNL A   1      35.666  28.832  46.093  1.00  0.00    -0.237 OA
ATOM     83  O   UNL A   1      34.968  31.030  46.958  1.00  0.00    -0.744 OA
ENDBRANCH  79  80
ENDBRANCH  51  74
BRANCH  63  84
ATOM     84  C   UNL A   1      43.567  35.611  43.154  1.00  0.00    -0.014 A 
ATOM     85  C   UNL A   1      44.653  34.835  43.594  1.00  0.00     0.010 A 
ATOM     86  C   UNL A   1      43.330  36.860  43.761  1.00  0.00     0.010 A 
ATOM     87  C   UNL A   1      45.475  35.293  44.629  1.00  0.00     0.020 A 
ATOM     88  C   UNL A   1      44.167  37.335  44.774  1.00  0.00     0.020 A 
ATOM     89  C   UNL A   1      45.231  36.543  45.208  1.00  0.00     0.054 A 
BRANCH  89  90
ATOM     90  S   UNL A   1      46.357  37.143  46.499  1.00  0.00     0.124 S 
ATOM     91  O   UNL A   1      47.478  36.217  46.381  1.00  0.00    -0.237 OA
ATOM     92  O   UNL A   1      46.626  38.515  46.073  1.00  0.00    -0.237 OA
ATOM     93  O   UNL A   1      45.575  37.022  47.727  1.00  0.00    -0.744 OA
ENDBRANCH  89  90
ENDBRANCH  63  84
ENDBRANCH  37  38
ENDBRANCH  30  32
ENDBRANCH  29  30
ENDBRANCH  28  29
ENDBRANCH  27  28
ENDBRANCH  26  27
ENDBRANCH   1  26
TORSDOF 24
ENDMDL
MODEL 3
REMARK VINA RESULT:      -7.2      9.342     16.757
REMARK SMILES CC(C)(C)OC(=O)N[C@H](c1ccccc1)[C@@H](O)CC(=O)OCCOCCOC(=O)c1ccc(-c2c3nc(c(-c4ccc(S(=O)(=O)[O-])cc4)c4ccc([nH]4)c(-c4ccc(S(=O)(=O)[O-])cc4)c4nc(c(-c5ccc(S(=O)(=O)[O-])cc5)c5ccc2[nH]5)C=C4)C=C3)cc1
REMARK SMILES IDX 23 1 22 2 21 3 19 4 20 5 18 6 16 7 9 8 8 9 6 10 7 11 5 13
REMARK SMILES IDX 2 14 1 15 3 16 4 17 10 18 11 19 15 20 12 21 14 22 13 23
REMARK SMILES IDX 17 24 24 26 25 27 26 28 27 29 28 30 29 31 30 32 31 33 89 34
REMARK SMILES IDX 32 35 88 36 33 37 34 38 35 39 82 40 36 41 87 42 81 43 83 44
REMARK SMILES IDX 37 45 86 46 80 47 79 48 38 50 68 51 49 52 67 53 50 54 53 55
REMARK SMILES IDX 66 56 84 57 51 58 52 59 65 61 85 62 54 63 39 64 40 65 48 66
REMARK SMILES IDX 41 67 47 68 42 69 43 70 44 71 45 72 46 73 69 74 70 75 78 76
REMARK SMILES IDX 71 77 77 78 72 79 73 80 74 81 75 82 76 83 55 84 56 85 64 86
REMARK SMILES IDX 57 87 63 88 58 89 59 90 60 91 61 92 62 93
REMARK H PARENT 8 12 17 25 83 49 53 60
REMARK Flexibility Score: inf
ROOT
ATOM      1  C   UNL A   1      34.538  29.559  27.026  1.00  0.00     0.202 C 
ENDROOT
BRANCH   1   2
ATOM      2  C   UNL A   1      33.949  28.276  26.433  1.00  0.00     0.261 C 
BRANCH   2   3
ATOM      3  O   UNL A   1      32.542  28.446  26.151  1.00  0.00    -0.463 OA
BRANCH   3   4
ATOM      4  C   UNL A   1      31.660  27.658  26.812  1.00  0.00     0.308 C 
ATOM      5  O   UNL A   1      31.109  27.955  27.863  1.00  0.00    -0.252 OA
BRANCH   4   6
ATOM      6  C   UNL A   1      31.457  26.329  26.114  1.00  0.00     0.157 C 
BRANCH   6   7
ATOM      7  C   UNL A   1      30.170  26.142  25.285  1.00  0.00     0.152 C 
BRANCH   7   8
ATOM      8  C   UNL A   1      30.257  26.707  23.826  1.00  0.00     0.145 C 
BRANCH   8   9
ATOM      9  N   UNL A   1      31.625  26.917  23.403  1.00  0.00    -0.312 N 
ATOM     10  C   UNL A   1      32.496  26.000  22.915  1.00  0.00     0.408 C 
ATOM     11  O   UNL A   1      33.651  26.343  22.679  1.00  0.00    -0.225 OA
ATOM     12  H   UNL A   1      31.964  27.839  23.479  1.00  0.00     0.167 HD
BRANCH  10  13
ATOM     13  O   UNL A   1      31.943  24.782  22.704  1.00  0.00    -0.444 OA
BRANCH  13  14
ATOM     14  C   UNL A   1      32.619  23.587  23.174  1.00  0.00     0.106 C 
ATOM     15  C   UNL A   1      33.702  23.246  22.147  1.00  0.00     0.056 C 
ATOM     16  C   UNL A   1      31.646  22.415  23.289  1.00  0.00     0.056 C 
ATOM     17  C   UNL A   1      33.327  23.875  24.488  1.00  0.00     0.056 C 
ENDBRANCH  13  14
ENDBRANCH  10  13
ENDBRANCH   8   9
BRANCH   8  18
ATOM     18  C   UNL A   1      29.466  28.005  23.652  1.00  0.00    -0.023 A 
ATOM     19  C   UNL A   1      30.082  29.267  23.710  1.00  0.00     0.006 A 
ATOM     20  C   UNL A   1      28.104  27.937  23.316  1.00  0.00     0.006 A 
ATOM     21  C   UNL A   1      29.357  30.423  23.407  1.00  0.00     0.000 A 
ATOM     22  C   UNL A   1      27.385  29.092  23.011  1.00  0.00     0.000 A 
ATOM     23  C   UNL A   1      28.012  30.334  23.049  1.00  0.00     0.000 A 
ENDBRANCH   8  18
ENDBRANCH   7   8
BRANCH   7  24
ATOM     24  O   UNL A   1      29.935  24.719  25.254  1.00  0.00    -0.390 OA
ATOM     25  H   UNL A   1      30.011  24.398  24.342  1.00  0.00     0.211 HD
ENDBRANCH   7  24
ENDBRANCH   6   7
ENDBRANCH   4   6
ENDBRANCH   3   4
ENDBRANCH   2   3
ENDBRANCH   1   2
BRANCH   1  26
ATOM     26  O   UNL A   1      35.314  29.366  28.212  1.00  0.00    -0.374 OA
BRANCH  26  27
ATOM     27  C   UNL A   1      36.154  30.451  28.592  1.00  0.00     0.202 C 
BRANCH  27  28
ATOM     28  C   UNL A   1      36.069  30.885  30.061  1.00  0.00     0.261 C 
BRANCH  28  29
ATOM     29  O   UNL A   1      35.940  32.308  30.211  1.00  0.00    -0.460 OA
BRANCH  29  30
ATOM     30  C   UNL A   1      35.533  32.716  31.443  1.00  0.00     0.338 C 
ATOM     31  O   UNL A   1      34.394  32.977  31.790  1.00  0.00    -0.246 OA
BRANCH  30  32
ATOM     32  C   UNL A   1      36.672  32.681  32.380  1.00  0.00     0.060 A 
ATOM     33  C   UNL A   1      36.531  32.020  33.607  1.00  0.00     0.016 A 
ATOM     34  C   UNL A   1      37.862  33.328  32.072  1.00  0.00     0.016 A 
ATOM     35  C   UNL A   1      37.594  31.984  34.526  1.00  0.00     0.010 A 
ATOM     36  C   UNL A   1      38.912  33.288  32.996  1.00  0.00     0.010 A 
ATOM     37  C   UNL A   1      38.814  32.604  34.233  1.00  0.00    -0.014 A 
BRANCH  37  38
ATOM     38  C   UNL A   1      39.984  32.600  35.185  1.00  0.00     0.031 A 
ATOM     39  C   UNL A   1      40.902  31.395  35.213  1.00  0.00     0.074 A 
ATOM     40  C   UNL A   1      40.218  33.587  36.084  1.00  0.00     0.049 A 
ATOM     41  N   UNL A   1      41.858  31.093  36.056  1.00  0.00    -0.248 NA
ATOM     42  C   UNL A   1      40.678  30.372  34.178  1.00  0.00     0.031 C 
ATOM     43  C   UNL A   1      39.445  34.820  36.233  1.00  0.00     0.029 A 
ATOM     44  N   UNL A   1      41.171  33.688  37.082  1.00  0.00    -0.354 N 
ATOM     45  C   UNL A   1      42.315  29.837  35.669  1.00  0.00     0.074 A 
ATOM     46  C   UNL A   1      41.457  29.389  34.597  1.00  0.00     0.031 C 
ATOM     47  C   UNL A   1      39.934  35.536  37.264  1.00  0.00     0.029 A 
ATOM     48  C   UNL A   1      41.048  34.813  37.871  1.00  0.00     0.049 A 
ATOM     49  H   UNL A   1      41.876  33.014  37.218  1.00  0.00     0.167 HD
ATOM     50  C   UNL A   1      43.390  29.136  36.104  1.00  0.00     0.031 A 
ATOM     51  C   UNL A   1      41.736  35.224  38.960  1.00  0.00     0.031 A 
ATOM     52  C   UNL A   1      44.308  29.591  37.110  1.00  0.00     0.049 A 
ATOM     53  C   UNL A   1      42.914  34.419  39.457  1.00  0.00     0.074 A 
ATOM     54  C   UNL A   1      45.486  28.996  37.525  1.00  0.00     0.029 A 
ATOM     55  N   UNL A   1      44.164  30.754  37.847  1.00  0.00    -0.354 N 
ATOM     56  N   UNL A   1      43.386  33.281  39.006  1.00  0.00    -0.248 NA
ATOM     57  C   UNL A   1      43.681  34.975  40.587  1.00  0.00     0.031 C 
ATOM     58  C   UNL A   1      46.028  29.770  38.554  1.00  0.00     0.029 A 
ATOM     59  C   UNL A   1      45.221  30.882  38.732  1.00  0.00     0.049 A 
ATOM     60  H   UNL A   1      43.421  31.394  37.756  1.00  0.00     0.167 HD
ATOM     61  C   UNL A   1      44.534  33.022  39.752  1.00  0.00     0.074 A 
ATOM     62  C   UNL A   1      44.683  34.114  40.689  1.00  0.00     0.031 C 
ATOM     63  C   UNL A   1      45.393  31.978  39.650  1.00  0.00     0.031 A 
BRANCH  50  64
ATOM     64  C   UNL A   1      43.655  27.807  35.445  1.00  0.00    -0.014 A 
ATOM     65  C   UNL A   1      44.514  27.711  34.335  1.00  0.00     0.010 A 
ATOM     66  C   UNL A   1      43.057  26.641  35.952  1.00  0.00     0.010 A 
ATOM     67  C   UNL A   1      44.715  26.485  33.700  1.00  0.00     0.020 A 
ATOM     68  C   UNL A   1      43.289  25.403  35.345  1.00  0.00     0.020 A 
ATOM     69  C   UNL A   1      44.099  25.339  34.208  1.00  0.00     0.054 A 
BRANCH  69  70
ATOM     70  S   UNL A   1      44.393  23.759  33.371  1.00  0.00     0.124 S 
ATOM     71  O   UNL A   1      43.290  22.943  33.876  1.00  0.00    -0.237 OA
ATOM     72  O   UNL A   1      44.306  24.126  31.960  1.00  0.00    -0.237 OA
ATOM     73  O   UNL A   1      45.721  23.364  33.831  1.00  0.00    -0.744 OA
ENDBRANCH  69  70
ENDBRANCH  50  64
BRANCH  51  74
ATOM     74  C   UNL A   1      41.367  36.492  39.662  1.00  0.00    -0.014 A 
ATOM     75  C   UNL A   1      40.412  36.486  40.696  1.00  0.00     0.010 A 
ATOM     76  C   UNL A   1      41.931  37.720  39.268  1.00  0.00     0.010 A 
ATOM     77  C   UNL A   1      40.009  37.681  41.303  1.00  0.00     0.020 A 
ATOM     78  C   UNL A   1      41.549  38.916  39.891  1.00  0.00     0.020 A 
ATOM     79  C   UNL A   1      40.583  38.890  40.899  1.00  0.00     0.054 A 
BRANCH  79  80
ATOM     80  S   UNL A   1      40.069  40.420  41.732  1.00  0.00     0.124 S 
ATOM     81  O   UNL A   1      39.433  41.161  40.647  1.00  0.00    -0.237 OA
ATOM     82  O   UNL A   1      39.171  39.923  42.771  1.00  0.00    -0.237 OA
ATOM     83  O   UNL A   1      41.326  40.983  42.220  1.00  0.00    -0.744 OA
ENDBRANCH  79  80
ENDBRANCH  51  74
BRANCH  63  84
ATOM     84  C   UNL A   1      46.628  31.975  40.515  1.00  0.00    -0.014 A 
ATOM     85  C   UNL A   1      46.678  31.272  41.731  1.00  0.00     0.010 A 
ATOM     86  C   UNL A   1      47.793  32.614  40.049  1.00  0.00     0.010 A 
ATOM     87  C   UNL A   1      47.864  31.221  42.471  1.00  0.00     0.020 A 
ATOM     88  C   UNL A   1      48.989  32.540  40.769  1.00  0.00     0.020 A 
ATOM     89  C   UNL A   1      49.014  31.849  41.981  1.00  0.00     0.054 A 
BRANCH  89  90
ATOM     90  S   UNL A   1      50.558  31.706  42.924  1.00  0.00     0.124 S 
ATOM     91  O   UNL A   1      50.982  33.099  43.030  1.00  0.00    -0.237 OA
ATOM     92  O   UNL A   1      50.113  31.088  44.171  1.00  0.00    -0.237 OA
ATOM     93  O   UNL A   1      51.403  30.860  42.084  1.00  0.00    -0.744 OA
ENDBRANCH  89  90
ENDBRANCH  63  84
ENDBRANCH  37  38
ENDBRANCH  30  32
ENDBRANCH  29  30
ENDBRANCH  28  29
ENDBRANCH  27  28
ENDBRANCH  26  27
ENDBRANCH   1  26
TORSDOF 24
ENDMDL
