MODEL 1
REMARK VINA RESULT:     -10.4      0.000      0.000
REMARK SMILES CS(=O)(=O)Nc1cc(C(=O)OCCOCCOC(=O)c2ccc(-c3c4nc(c(-c5ccc(S(=O)(=O)[O-])cc5)c5ccc([nH]5)c(-c5ccc(S(=O)(=O)[O-])cc5)c5nc(c(-c6ccc(S(=O)(=O)[O-])cc6)c6ccc3[nH]6)C=C5)C=C4)cc2)ccc1N1CC[NH+](CC(=O)N2CCCC2)CC1
REMARK SMILES IDX 14 1 13 2 12 3 11 4 9 5 10 6 8 7 6 8 7 9 82 10 81 11 80 12
REMARK SMILES IDX 5 13 2 15 1 16 3 17 4 18 83 19 84 20 96 21 85 22 95 23 86 24
REMARK SMILES IDX 87 26 88 27 89 28 90 29 91 30 94 31 92 32 93 33 15 34 16 35
REMARK SMILES IDX 17 36 18 37 19 38 20 39 21 40 79 41 22 42 78 43 23 44 24 45
REMARK SMILES IDX 25 46 72 47 26 48 77 49 71 50 73 51 27 52 76 53 70 54 69 55
REMARK SMILES IDX 28 57 58 58 39 59 57 60 40 61 43 62 56 63 74 64 41 65 42 66
REMARK SMILES IDX 55 68 75 69 44 70 29 71 30 72 38 73 31 74 37 75 32 76 33 77
REMARK SMILES IDX 34 78 35 79 36 80 59 81 60 82 68 83 61 84 67 85 62 86 63 87
REMARK SMILES IDX 64 88 65 89 66 90 45 91 46 92 54 93 47 94 53 95 48 96 49 97
REMARK SMILES IDX 50 98 51 99 52 100
REMARK H PARENT 5 14 86 25 73 56 43 67
REMARK Flexibility Score: inf
ROOT
ATOM      1  O   UNL A   1      34.211  31.809  27.998  1.00  0.00    -0.374 OA
ENDROOT
BRANCH   1   2
ATOM      2  C   UNL A   1      32.968  32.400  27.621  1.00  0.00     0.202 C 
BRANCH   2   3
ATOM      3  C   UNL A   1      32.020  31.562  26.760  1.00  0.00     0.261 C 
BRANCH   3   4
ATOM      4  O   UNL A   1      32.514  30.230  26.542  1.00  0.00    -0.460 OA
BRANCH   4   5
ATOM      5  C   UNL A   1      31.873  29.564  25.553  1.00  0.00     0.338 C 
ATOM      6  O   UNL A   1      31.035  30.018  24.788  1.00  0.00    -0.246 OA
BRANCH   5   7
ATOM      7  C   UNL A   1      32.436  28.211  25.364  1.00  0.00     0.062 A 
ATOM      8  C   UNL A   1      32.469  25.930  26.180  1.00  0.00     0.073 A 
ATOM      9  C   UNL A   1      31.975  27.231  26.240  1.00  0.00     0.044 A 
ATOM     10  C   UNL A   1      33.456  25.556  25.226  1.00  0.00     0.062 A 
ATOM     11  C   UNL A   1      33.876  26.566  24.332  1.00  0.00     0.029 A 
ATOM     12  C   UNL A   1      33.361  27.875  24.381  1.00  0.00     0.018 A 
BRANCH   8  13
ATOM     13  N   UNL A   1      31.758  25.013  27.004  1.00  0.00    -0.282 N 
ATOM     14  H   UNL A   1      32.029  24.945  27.948  1.00  0.00     0.180 HD
BRANCH  13  15
ATOM     15  S   UNL A   1      30.513  24.053  26.495  1.00  0.00     0.229 S 
ATOM     16  C   UNL A   1      30.744  23.677  24.768  1.00  0.00     0.183 C 
ATOM     17  O   UNL A   1      29.326  24.877  26.634  1.00  0.00    -0.207 OA
ATOM     18  O   UNL A   1      30.616  22.814  27.236  1.00  0.00    -0.207 OA
ENDBRANCH  13  15
ENDBRANCH   8  13
BRANCH  10  19
ATOM     19  N   UNL A   1      33.968  24.248  25.144  1.00  0.00    -0.359 N 
ATOM     20  C   UNL A   1      34.682  23.637  26.304  1.00  0.00     0.178 C 
ATOM     21  C   UNL A   1      34.637  23.939  23.883  1.00  0.00     0.178 C 
ATOM     22  C   UNL A   1      35.107  22.156  26.034  1.00  0.00     0.284 C 
ATOM     23  C   UNL A   1      34.803  22.436  23.664  1.00  0.00     0.284 C 
ATOM     24  N   UNL A   1      35.635  21.822  24.694  1.00  0.00    -0.324 N 
ATOM     25  H   UNL A   1      35.565  20.806  24.639  1.00  0.00     0.348 HD
BRANCH  24  26
ATOM     26  C   UNL A   1      37.083  21.994  24.461  1.00  0.00     0.363 C 
BRANCH  26  27
ATOM     27  C   UNL A   1      38.061  21.020  25.133  1.00  0.00     0.277 C 
ATOM     28  O   UNL A   1      37.988  19.816  24.861  1.00  0.00    -0.268 OA
ATOM     29  N   UNL A   1      39.071  21.499  25.957  1.00  0.00    -0.338 N 
ATOM     30  C   UNL A   1      39.201  22.771  26.668  1.00  0.00     0.119 C 
ATOM     31  C   UNL A   1      40.203  20.637  26.262  1.00  0.00     0.119 C 
ATOM     32  C   UNL A   1      40.642  22.823  27.141  1.00  0.00     0.023 C 
ATOM     33  C   UNL A   1      40.975  21.352  27.360  1.00  0.00     0.023 C 
ENDBRANCH  26  27
ENDBRANCH  24  26
ENDBRANCH  10  19
ENDBRANCH   5   7
ENDBRANCH   4   5
ENDBRANCH   3   4
ENDBRANCH   2   3
ENDBRANCH   1   2
BRANCH   1  34
ATOM     34  C   UNL A   1      34.886  32.365  29.127  1.00  0.00     0.202 C 
BRANCH  34  35
ATOM     35  C   UNL A   1      36.293  31.837  29.445  1.00  0.00     0.261 C 
BRANCH  35  36
ATOM     36  O   UNL A   1      36.566  30.566  28.830  1.00  0.00    -0.460 OA
BRANCH  36  37
ATOM     37  C   UNL A   1      37.083  29.629  29.663  1.00  0.00     0.338 C 
ATOM     38  O   UNL A   1      36.495  29.028  30.552  1.00  0.00    -0.246 OA
BRANCH  37  39
ATOM     39  C   UNL A   1      38.443  29.269  29.223  1.00  0.00     0.060 A 
ATOM     40  C   UNL A   1      39.339  28.794  30.191  1.00  0.00     0.016 A 
ATOM     41  C   UNL A   1      38.851  29.434  27.899  1.00  0.00     0.016 A 
ATOM     42  C   UNL A   1      40.658  28.509  29.841  1.00  0.00     0.010 A 
ATOM     43  C   UNL A   1      40.177  29.156  27.553  1.00  0.00     0.010 A 
ATOM     44  C   UNL A   1      41.094  28.716  28.526  1.00  0.00    -0.014 A 
BRANCH  44  45
ATOM     45  C   UNL A   1      42.530  28.565  28.186  1.00  0.00     0.031 A 
ATOM     46  C   UNL A   1      43.462  29.728  28.384  1.00  0.00     0.074 A 
ATOM     47  C   UNL A   1      42.998  27.397  27.706  1.00  0.00     0.049 A 
ATOM     48  N   UNL A   1      44.733  29.828  28.096  1.00  0.00    -0.248 NA
ATOM     49  C   UNL A   1      42.883  30.942  28.983  1.00  0.00     0.031 C 
ATOM     50  C   UNL A   1      42.203  26.185  27.509  1.00  0.00     0.029 A 
ATOM     51  N   UNL A   1      44.257  27.045  27.289  1.00  0.00    -0.354 N 
ATOM     52  C   UNL A   1      45.106  31.115  28.465  1.00  0.00     0.074 A 
ATOM     53  C   UNL A   1      43.918  31.769  28.973  1.00  0.00     0.031 C 
ATOM     54  C   UNL A   1      42.993  25.224  27.003  1.00  0.00     0.029 A 
ATOM     55  C   UNL A   1      44.335  25.764  26.798  1.00  0.00     0.049 A 
ATOM     56  H   UNL A   1      45.030  27.653  27.337  1.00  0.00     0.167 HD
ATOM     57  C   UNL A   1      46.327  31.698  28.392  1.00  0.00     0.031 A 
ATOM     58  C   UNL A   1      45.363  25.109  26.222  1.00  0.00     0.031 A 
ATOM     59  C   UNL A   1      47.501  31.046  27.873  1.00  0.00     0.049 A 
ATOM     60  C   UNL A   1      46.690  25.807  26.073  1.00  0.00     0.074 A 
ATOM     61  C   UNL A   1      48.789  31.543  27.778  1.00  0.00     0.029 A 
ATOM     62  N   UNL A   1      47.531  29.762  27.348  1.00  0.00    -0.354 N 
ATOM     63  N   UNL A   1      47.036  27.012  26.459  1.00  0.00    -0.248 NA
ATOM     64  C   UNL A   1      47.767  25.054  25.414  1.00  0.00     0.031 C 
ATOM     65  C   UNL A   1      49.581  30.588  27.133  1.00  0.00     0.029 A 
ATOM     66  C   UNL A   1      48.805  29.466  26.892  1.00  0.00     0.049 A 
ATOM     67  H   UNL A   1      46.760  29.152  27.306  1.00  0.00     0.167 HD
ATOM     68  C   UNL A   1      48.375  27.152  26.110  1.00  0.00     0.074 A 
ATOM     69  C   UNL A   1      48.782  25.902  25.501  1.00  0.00     0.031 C 
ATOM     70  C   UNL A   1      49.195  28.220  26.279  1.00  0.00     0.031 A 
BRANCH  57  71
ATOM     71  C   UNL A   1      46.448  33.128  28.849  1.00  0.00    -0.014 A 
ATOM     72  C   UNL A   1      46.198  34.202  27.975  1.00  0.00     0.010 A 
ATOM     73  C   UNL A   1      46.774  33.403  30.190  1.00  0.00     0.010 A 
ATOM     74  C   UNL A   1      46.310  35.521  28.423  1.00  0.00     0.020 A 
ATOM     75  C   UNL A   1      46.856  34.721  30.651  1.00  0.00     0.020 A 
ATOM     76  C   UNL A   1      46.640  35.772  29.758  1.00  0.00     0.054 A 
BRANCH  76  77
ATOM     77  S   UNL A   1      46.755  37.494  30.317  1.00  0.00     0.124 S 
ATOM     78  O   UNL A   1      48.164  37.795  30.073  1.00  0.00    -0.237 OA
ATOM     79  O   UNL A   1      45.807  38.178  29.442  1.00  0.00    -0.237 OA
ATOM     80  O   UNL A   1      46.368  37.431  31.724  1.00  0.00    -0.744 OA
ENDBRANCH  76  77
ENDBRANCH  57  71
BRANCH  58  81
ATOM     81  C   UNL A   1      45.171  23.722  25.718  1.00  0.00    -0.014 A 
ATOM     82  C   UNL A   1      45.149  22.631  26.603  1.00  0.00     0.010 A 
ATOM     83  C   UNL A   1      45.003  23.486  24.340  1.00  0.00     0.010 A 
ATOM     84  C   UNL A   1      44.975  21.329  26.121  1.00  0.00     0.020 A 
ATOM     85  C   UNL A   1      44.798  22.191  23.857  1.00  0.00     0.020 A 
ATOM     86  C   UNL A   1      44.796  21.119  24.751  1.00  0.00     0.054 A 
BRANCH  86  87
ATOM     87  S   UNL A   1      44.514  19.428  24.155  1.00  0.00     0.124 S 
ATOM     88  O   UNL A   1      44.467  19.621  22.709  1.00  0.00    -0.237 OA
ATOM     89  O   UNL A   1      45.684  18.717  24.663  1.00  0.00    -0.237 OA
ATOM     90  O   UNL A   1      43.247  19.053  24.778  1.00  0.00    -0.744 OA
ENDBRANCH  86  87
ENDBRANCH  58  81
BRANCH  70  91
ATOM     91  C   UNL A   1      50.625  28.082  25.822  1.00  0.00    -0.014 A 
ATOM     92  C   UNL A   1      51.631  27.634  26.696  1.00  0.00     0.010 A 
ATOM     93  C   UNL A   1      50.954  28.343  24.478  1.00  0.00     0.010 A 
ATOM     94  C   UNL A   1      52.945  27.477  26.242  1.00  0.00     0.020 A 
ATOM     95  C   UNL A   1      52.258  28.157  24.013  1.00  0.00     0.020 A 
ATOM     96  C   UNL A   1      53.248  27.736  24.902  1.00  0.00     0.054 A 
BRANCH  96  97
ATOM     97  S   UNL A   1      54.949  27.472  24.327  1.00  0.00     0.124 S 
ATOM     98  O   UNL A   1      55.728  27.814  25.514  1.00  0.00    -0.237 OA
ATOM     99  O   UNL A   1      54.946  26.057  23.964  1.00  0.00    -0.237 OA
ATOM    100  O   UNL A   1      55.084  28.397  23.205  1.00  0.00    -0.744 OA
ENDBRANCH  96  97
ENDBRANCH  70  91
ENDBRANCH  44  45
ENDBRANCH  37  39
ENDBRANCH  36  37
ENDBRANCH  35  36
ENDBRANCH  34  35
ENDBRANCH   1  34
TORSDOF 22
ENDMDL
MODEL 2
REMARK VINA RESULT:     -10.0      6.079     11.836
REMARK SMILES CS(=O)(=O)Nc1cc(C(=O)OCCOCCOC(=O)c2ccc(-c3c4nc(c(-c5ccc(S(=O)(=O)[O-])cc5)c5ccc([nH]5)c(-c5ccc(S(=O)(=O)[O-])cc5)c5nc(c(-c6ccc(S(=O)(=O)[O-])cc6)c6ccc3[nH]6)C=C5)C=C4)cc2)ccc1N1CC[NH+](CC(=O)N2CCCC2)CC1
REMARK SMILES IDX 14 1 13 2 12 3 11 4 9 5 10 6 8 7 6 8 7 9 82 10 81 11 80 12
REMARK SMILES IDX 5 13 2 15 1 16 3 17 4 18 83 19 84 20 96 21 85 22 95 23 86 24
REMARK SMILES IDX 87 26 88 27 89 28 90 29 91 30 94 31 92 32 93 33 15 34 16 35
REMARK SMILES IDX 17 36 18 37 19 38 20 39 21 40 79 41 22 42 78 43 23 44 24 45
REMARK SMILES IDX 25 46 72 47 26 48 77 49 71 50 73 51 27 52 76 53 70 54 69 55
REMARK SMILES IDX 28 57 58 58 39 59 57 60 40 61 43 62 56 63 74 64 41 65 42 66
REMARK SMILES IDX 55 68 75 69 44 70 29 71 30 72 38 73 31 74 37 75 32 76 33 77
REMARK SMILES IDX 34 78 35 79 36 80 59 81 60 82 68 83 61 84 67 85 62 86 63 87
REMARK SMILES IDX 64 88 65 89 66 90 45 91 46 92 54 93 47 94 53 95 48 96 49 97
REMARK SMILES IDX 50 98 51 99 52 100
REMARK H PARENT 5 14 86 25 73 56 43 67
REMARK Flexibility Score: inf
ROOT
ATOM      1  O   UNL A   1      41.948  22.175  25.456  1.00  0.00    -0.374 OA
ENDROOT
BRANCH   1   2
ATOM      2  C   UNL A   1      41.396  21.321  26.457  1.00  0.00     0.202 C 
BRANCH   2   3
ATOM      3  C   UNL A   1      40.063  20.635  26.146  1.00  0.00     0.261 C 
BRANCH   3   4
ATOM      4  O   UNL A   1      39.163  21.494  25.427  1.00  0.00    -0.460 OA
BRANCH   4   5
ATOM      5  C   UNL A   1      38.664  22.508  26.172  1.00  0.00     0.338 C 
ATOM      6  O   UNL A   1      39.284  23.220  26.948  1.00  0.00    -0.246 OA
BRANCH   5   7
ATOM      7  C   UNL A   1      37.260  22.799  25.813  1.00  0.00     0.062 A 
ATOM      8  C   UNL A   1      35.202  21.894  24.911  1.00  0.00     0.073 A 
ATOM      9  C   UNL A   1      36.522  21.725  25.321  1.00  0.00     0.044 A 
ATOM     10  C   UNL A   1      34.561  23.162  24.981  1.00  0.00     0.062 A 
ATOM     11  C   UNL A   1      35.329  24.222  25.516  1.00  0.00     0.029 A 
ATOM     12  C   UNL A   1      36.657  24.045  25.948  1.00  0.00     0.018 A 
BRANCH   8  13
ATOM     13  N   UNL A   1      34.533  20.671  24.624  1.00  0.00    -0.282 N 
ATOM     14  H   UNL A   1      34.909  20.103  23.912  1.00  0.00     0.180 HD
BRANCH  13  15
ATOM     15  S   UNL A   1      33.176  20.131  25.395  1.00  0.00     0.229 S 
ATOM     16  C   UNL A   1      33.193  18.349  25.411  1.00  0.00     0.183 C 
ATOM     17  O   UNL A   1      32.071  20.575  24.564  1.00  0.00    -0.207 OA
ATOM     18  O   UNL A   1      33.269  20.588  26.766  1.00  0.00    -0.207 OA
ENDBRANCH  13  15
ENDBRANCH   8  13
BRANCH  10  19
ATOM     19  N   UNL A   1      33.228  23.358  24.576  1.00  0.00    -0.359 N 
ATOM     20  C   UNL A   1      32.913  23.822  23.193  1.00  0.00     0.178 C 
ATOM     21  C   UNL A   1      32.387  24.025  25.567  1.00  0.00     0.178 C 
ATOM     22  C   UNL A   1      31.375  23.906  22.924  1.00  0.00     0.284 C 
ATOM     23  C   UNL A   1      30.897  23.850  25.281  1.00  0.00     0.284 C 
ATOM     24  N   UNL A   1      30.513  24.437  24.001  1.00  0.00    -0.324 N 
ATOM     25  H   UNL A   1      29.573  24.134  23.747  1.00  0.00     0.348 HD
BRANCH  24  26
ATOM     26  C   UNL A   1      30.306  25.898  24.062  1.00  0.00     0.363 C 
BRANCH  26  27
ATOM     27  C   UNL A   1      31.092  26.796  23.097  1.00  0.00     0.277 C 
ATOM     28  O   UNL A   1      30.641  26.995  21.963  1.00  0.00    -0.268 OA
ATOM     29  N   UNL A   1      32.238  27.452  23.528  1.00  0.00    -0.338 N 
ATOM     30  C   UNL A   1      33.129  27.176  24.654  1.00  0.00     0.119 C 
ATOM     31  C   UNL A   1      32.740  28.580  22.757  1.00  0.00     0.119 C 
ATOM     32  C   UNL A   1      34.012  28.405  24.780  1.00  0.00     0.023 C 
ATOM     33  C   UNL A   1      34.108  28.896  23.341  1.00  0.00     0.023 C 
ENDBRANCH  26  27
ENDBRANCH  24  26
ENDBRANCH  10  19
ENDBRANCH   5   7
ENDBRANCH   4   5
ENDBRANCH   3   4
ENDBRANCH   2   3
ENDBRANCH   1   2
BRANCH   1  34
ATOM     34  C   UNL A   1      43.139  22.889  25.786  1.00  0.00     0.202 C 
BRANCH  34  35
ATOM     35  C   UNL A   1      43.431  24.181  25.010  1.00  0.00     0.261 C 
BRANCH  35  36
ATOM     36  O   UNL A   1      43.344  25.359  25.830  1.00  0.00    -0.460 OA
BRANCH  36  37
ATOM     37  C   UNL A   1      42.085  25.820  26.033  1.00  0.00     0.338 C 
ATOM     38  O   UNL A   1      41.092  25.572  25.361  1.00  0.00    -0.246 OA
BRANCH  37  39
ATOM     39  C   UNL A   1      42.017  26.529  27.324  1.00  0.00     0.060 A 
ATOM     40  C   UNL A   1      41.101  26.064  28.278  1.00  0.00     0.016 A 
ATOM     41  C   UNL A   1      42.800  27.654  27.582  1.00  0.00     0.016 A 
ATOM     42  C   UNL A   1      40.946  26.742  29.486  1.00  0.00     0.010 A 
ATOM     43  C   UNL A   1      42.635  28.338  28.791  1.00  0.00     0.010 A 
ATOM     44  C   UNL A   1      41.691  27.901  29.739  1.00  0.00    -0.014 A 
BRANCH  44  45
ATOM     45  C   UNL A   1      41.417  28.713  30.949  1.00  0.00     0.031 A 
ATOM     46  C   UNL A   1      40.290  29.709  30.931  1.00  0.00     0.074 A 
ATOM     47  C   UNL A   1      42.167  28.559  32.057  1.00  0.00     0.049 A 
ATOM     48  N   UNL A   1      39.921  30.557  31.856  1.00  0.00    -0.248 NA
ATOM     49  C   UNL A   1      39.475  29.759  29.707  1.00  0.00     0.031 C 
ATOM     50  C   UNL A   1      43.259  27.599  32.212  1.00  0.00     0.029 A 
ATOM     51  N   UNL A   1      42.127  29.219  33.259  1.00  0.00    -0.354 N 
ATOM     52  C   UNL A   1      38.839  31.250  31.324  1.00  0.00     0.074 A 
ATOM     53  C   UNL A   1      38.630  30.742  29.985  1.00  0.00     0.031 C 
ATOM     54  C   UNL A   1      43.789  27.736  33.438  1.00  0.00     0.029 A 
ATOM     55  C   UNL A   1      43.106  28.823  34.138  1.00  0.00     0.049 A 
ATOM     56  H   UNL A   1      41.459  29.911  33.472  1.00  0.00     0.167 HD
ATOM     57  C   UNL A   1      38.087  32.217  31.901  1.00  0.00     0.031 A 
ATOM     58  C   UNL A   1      43.434  29.299  35.355  1.00  0.00     0.031 A 
ATOM     59  C   UNL A   1      38.310  32.728  33.229  1.00  0.00     0.049 A 
ATOM     60  C   UNL A   1      42.637  30.435  35.942  1.00  0.00     0.074 A 
ATOM     61  C   UNL A   1      37.588  33.691  33.912  1.00  0.00     0.029 A 
ATOM     62  N   UNL A   1      39.337  32.328  34.071  1.00  0.00    -0.354 N 
ATOM     63  N   UNL A   1      41.595  31.056  35.441  1.00  0.00    -0.248 NA
ATOM     64  C   UNL A   1      43.057  30.931  37.260  1.00  0.00     0.031 C 
ATOM     65  C   UNL A   1      38.220  33.924  35.138  1.00  0.00     0.029 A 
ATOM     66  C   UNL A   1      39.292  33.054  35.250  1.00  0.00     0.049 A 
ATOM     67  H   UNL A   1      40.001  31.632  33.862  1.00  0.00     0.167 HD
ATOM     68  C   UNL A   1      41.223  31.999  36.393  1.00  0.00     0.074 A 
ATOM     69  C   UNL A   1      42.138  31.853  37.507  1.00  0.00     0.031 C 
ATOM     70  C   UNL A   1      40.214  32.905  36.350  1.00  0.00     0.031 A 
BRANCH  57  71
ATOM     71  C   UNL A   1      36.973  32.819  31.083  1.00  0.00    -0.014 A 
ATOM     72  C   UNL A   1      37.239  33.677  30.001  1.00  0.00     0.010 A 
ATOM     73  C   UNL A   1      35.638  32.483  31.375  1.00  0.00     0.010 A 
ATOM     74  C   UNL A   1      36.190  34.218  29.251  1.00  0.00     0.020 A 
ATOM     75  C   UNL A   1      34.588  32.995  30.608  1.00  0.00     0.020 A 
ATOM     76  C   UNL A   1      34.871  33.874  29.561  1.00  0.00     0.054 A 
BRANCH  76  77
ATOM     77  S   UNL A   1      33.532  34.574  28.557  1.00  0.00     0.124 S 
ATOM     78  O   UNL A   1      33.174  33.442  27.705  1.00  0.00    -0.237 OA
ATOM     79  O   UNL A   1      32.538  34.943  29.561  1.00  0.00    -0.237 OA
ATOM     80  O   UNL A   1      34.164  35.696  27.867  1.00  0.00    -0.744 OA
ENDBRANCH  76  77
ENDBRANCH  57  71
BRANCH  58  81
ATOM     81  C   UNL A   1      44.592  28.720  36.091  1.00  0.00    -0.014 A 
ATOM     82  C   UNL A   1      45.885  29.242  35.924  1.00  0.00     0.010 A 
ATOM     83  C   UNL A   1      44.401  27.639  36.974  1.00  0.00     0.010 A 
ATOM     84  C   UNL A   1      46.969  28.687  36.613  1.00  0.00     0.020 A 
ATOM     85  C   UNL A   1      45.474  27.102  37.688  1.00  0.00     0.020 A 
ATOM     86  C   UNL A   1      46.755  27.624  37.495  1.00  0.00     0.054 A 
BRANCH  86  87
ATOM     87  S   UNL A   1      48.166  26.959  38.422  1.00  0.00     0.124 S 
ATOM     88  O   UNL A   1      48.949  28.162  38.685  1.00  0.00    -0.237 OA
ATOM     89  O   UNL A   1      47.520  26.356  39.586  1.00  0.00    -0.237 OA
ATOM     90  O   UNL A   1      48.769  26.009  37.492  1.00  0.00    -0.744 OA
ENDBRANCH  86  87
ENDBRANCH  58  81
BRANCH  70  91
ATOM     91  C   UNL A   1      40.025  33.798  37.549  1.00  0.00    -0.014 A 
ATOM     92  C   UNL A   1      40.755  34.990  37.694  1.00  0.00     0.010 A 
ATOM     93  C   UNL A   1      39.052  33.470  38.514  1.00  0.00     0.010 A 
ATOM     94  C   UNL A   1      40.538  35.824  38.796  1.00  0.00     0.020 A 
ATOM     95  C   UNL A   1      38.811  34.316  39.599  1.00  0.00     0.020 A 
ATOM     96  C   UNL A   1      39.564  35.483  39.739  1.00  0.00     0.054 A 
BRANCH  96  97
ATOM     97  S   UNL A   1      39.266  36.610  41.129  1.00  0.00     0.124 S 
ATOM     98  O   UNL A   1      38.489  35.773  42.039  1.00  0.00    -0.237 OA
ATOM     99  O   UNL A   1      40.619  36.934  41.572  1.00  0.00    -0.237 OA
ATOM    100  O   UNL A   1      38.532  37.720  40.525  1.00  0.00    -0.744 OA
ENDBRANCH  96  97
ENDBRANCH  70  91
ENDBRANCH  44  45
ENDBRANCH  37  39
ENDBRANCH  36  37
ENDBRANCH  35  36
ENDBRANCH  34  35
ENDBRANCH   1  34
TORSDOF 22
ENDMDL
MODEL 3
REMARK VINA RESULT:      -9.7      1.757      8.040
REMARK SMILES CS(=O)(=O)Nc1cc(C(=O)OCCOCCOC(=O)c2ccc(-c3c4nc(c(-c5ccc(S(=O)(=O)[O-])cc5)c5ccc([nH]5)c(-c5ccc(S(=O)(=O)[O-])cc5)c5nc(c(-c6ccc(S(=O)(=O)[O-])cc6)c6ccc3[nH]6)C=C5)C=C4)cc2)ccc1N1CC[NH+](CC(=O)N2CCCC2)CC1
REMARK SMILES IDX 14 1 13 2 12 3 11 4 9 5 10 6 8 7 6 8 7 9 82 10 81 11 80 12
REMARK SMILES IDX 5 13 2 15 1 16 3 17 4 18 83 19 84 20 96 21 85 22 95 23 86 24
REMARK SMILES IDX 87 26 88 27 89 28 90 29 91 30 94 31 92 32 93 33 15 34 16 35
REMARK SMILES IDX 17 36 18 37 19 38 20 39 21 40 79 41 22 42 78 43 23 44 24 45
REMARK SMILES IDX 25 46 72 47 26 48 77 49 71 50 73 51 27 52 76 53 70 54 69 55
REMARK SMILES IDX 28 57 58 58 39 59 57 60 40 61 43 62 56 63 74 64 41 65 42 66
REMARK SMILES IDX 55 68 75 69 44 70 29 71 30 72 38 73 31 74 37 75 32 76 33 77
REMARK SMILES IDX 34 78 35 79 36 80 59 81 60 82 68 83 61 84 67 85 62 86 63 87
REMARK SMILES IDX 64 88 65 89 66 90 45 91 46 92 54 93 47 94 53 95 48 96 49 97
REMARK SMILES IDX 50 98 51 99 52 100
REMARK H PARENT 5 14 86 25 73 56 43 67
REMARK Flexibility Score: inf
ROOT
ATOM      1  O   UNL A   1      34.534  29.904  27.215  1.00  0.00    -0.374 OA
ENDROOT
BRANCH   1   2
ATOM      2  C   UNL A   1      33.392  30.715  27.485  1.00  0.00     0.202 C 
BRANCH   2   3
ATOM      3  C   UNL A   1      32.052  30.270  26.893  1.00  0.00     0.261 C 
BRANCH   3   4
ATOM      4  O   UNL A   1      31.989  30.470  25.472  1.00  0.00    -0.460 OA
BRANCH   4   5
ATOM      5  C   UNL A   1      31.327  29.492  24.811  1.00  0.00     0.338 C 
ATOM      6  O   UNL A   1      30.217  29.571  24.307  1.00  0.00    -0.246 OA
BRANCH   5   7
ATOM      7  C   UNL A   1      32.189  28.311  24.596  1.00  0.00     0.062 A 
ATOM      8  C   UNL A   1      32.669  26.038  25.284  1.00  0.00     0.073 A 
ATOM      9  C   UNL A   1      31.896  27.193  25.373  1.00  0.00     0.044 A 
ATOM     10  C   UNL A   1      33.780  25.958  24.399  1.00  0.00     0.062 A 
ATOM     11  C   UNL A   1      34.028  27.098  23.602  1.00  0.00     0.029 A 
ATOM     12  C   UNL A   1      33.234  28.257  23.679  1.00  0.00     0.018 A 
BRANCH   8  13
ATOM     13  N   UNL A   1      32.123  24.930  25.990  1.00  0.00    -0.282 N 
ATOM     14  H   UNL A   1      32.716  24.452  26.615  1.00  0.00     0.180 HD
BRANCH  13  15
ATOM     15  S   UNL A   1      30.570  24.386  25.842  1.00  0.00     0.229 S 
ATOM     16  C   UNL A   1      30.376  22.921  26.838  1.00  0.00     0.183 C 
ATOM     17  O   UNL A   1      30.435  24.016  24.445  1.00  0.00    -0.207 OA
ATOM     18  O   UNL A   1      29.717  25.415  26.397  1.00  0.00    -0.207 OA
ENDBRANCH  13  15
ENDBRANCH   8  13
BRANCH  10  19
ATOM     19  N   UNL A   1      34.575  24.802  24.288  1.00  0.00    -0.359 N 
ATOM     20  C   UNL A   1      34.091  23.617  23.520  1.00  0.00     0.178 C 
ATOM     21  C   UNL A   1      35.233  24.401  25.529  1.00  0.00     0.178 C 
ATOM     22  C   UNL A   1      35.151  22.468  23.459  1.00  0.00     0.284 C 
ATOM     23  C   UNL A   1      36.384  23.425  25.289  1.00  0.00     0.284 C 
ATOM     24  N   UNL A   1      35.927  22.178  24.682  1.00  0.00    -0.324 N 
ATOM     25  H   UNL A   1      36.727  21.637  24.355  1.00  0.00     0.348 HD
BRANCH  24  26
ATOM     26  C   UNL A   1      35.353  21.227  25.655  1.00  0.00     0.363 C 
BRANCH  26  27
ATOM     27  C   UNL A   1      33.971  20.624  25.370  1.00  0.00     0.277 C 
ATOM     28  O   UNL A   1      32.961  21.283  25.646  1.00  0.00    -0.268 OA
ATOM     29  N   UNL A   1      33.861  19.399  24.724  1.00  0.00    -0.338 N 
ATOM     30  C   UNL A   1      34.826  18.311  24.571  1.00  0.00     0.119 C 
ATOM     31  C   UNL A   1      32.590  19.031  24.119  1.00  0.00     0.119 C 
ATOM     32  C   UNL A   1      34.231  17.390  23.521  1.00  0.00     0.023 C 
ATOM     33  C   UNL A   1      32.733  17.566  23.731  1.00  0.00     0.023 C 
ENDBRANCH  26  27
ENDBRANCH  24  26
ENDBRANCH  10  19
ENDBRANCH   5   7
ENDBRANCH   4   5
ENDBRANCH   3   4
ENDBRANCH   2   3
ENDBRANCH   1   2
BRANCH   1  34
ATOM     34  C   UNL A   1      35.738  30.211  27.917  1.00  0.00     0.202 C 
BRANCH  34  35
ATOM     35  C   UNL A   1      35.889  29.662  29.344  1.00  0.00     0.261 C 
BRANCH  35  36
ATOM     36  O   UNL A   1      36.222  30.681  30.303  1.00  0.00    -0.460 OA
BRANCH  36  37
ATOM     37  C   UNL A   1      37.004  30.265  31.329  1.00  0.00     0.338 C 
ATOM     38  O   UNL A   1      36.634  29.909  32.441  1.00  0.00    -0.246 OA
BRANCH  37  39
ATOM     39  C   UNL A   1      38.393  30.102  30.862  1.00  0.00     0.060 A 
ATOM     40  C   UNL A   1      38.766  30.757  29.680  1.00  0.00     0.016 A 
ATOM     41  C   UNL A   1      39.301  29.289  31.540  1.00  0.00     0.016 A 
ATOM     42  C   UNL A   1      40.046  30.578  29.157  1.00  0.00     0.010 A 
ATOM     43  C   UNL A   1      40.581  29.103  31.008  1.00  0.00     0.010 A 
ATOM     44  C   UNL A   1      40.952  29.726  29.801  1.00  0.00    -0.014 A 
BRANCH  44  45
ATOM     45  C   UNL A   1      42.255  29.409  29.167  1.00  0.00     0.031 A 
ATOM     46  C   UNL A   1      42.493  28.028  28.621  1.00  0.00     0.074 A 
ATOM     47  C   UNL A   1      43.216  30.347  29.077  1.00  0.00     0.049 A 
ATOM     48  N   UNL A   1      43.575  27.526  28.085  1.00  0.00    -0.248 NA
ATOM     49  C   UNL A   1      41.364  27.087  28.694  1.00  0.00     0.031 C 
ATOM     50  C   UNL A   1      43.090  31.732  29.531  1.00  0.00     0.029 A 
ATOM     51  N   UNL A   1      44.493  30.272  28.580  1.00  0.00    -0.354 N 
ATOM     52  C   UNL A   1      43.264  26.209  27.766  1.00  0.00     0.074 A 
ATOM     53  C   UNL A   1      41.901  25.982  28.195  1.00  0.00     0.031 C 
ATOM     54  C   UNL A   1      44.247  32.374  29.296  1.00  0.00     0.029 A 
ATOM     55  C   UNL A   1      45.207  31.437  28.718  1.00  0.00     0.049 A 
ATOM     56  H   UNL A   1      44.861  29.459  28.163  1.00  0.00     0.167 HD
ATOM     57  C   UNL A   1      44.042  25.276  27.167  1.00  0.00     0.031 A 
ATOM     58  C   UNL A   1      46.497  31.710  28.439  1.00  0.00     0.031 A 
ATOM     59  C   UNL A   1      45.403  25.505  26.755  1.00  0.00     0.049 A 
ATOM     60  C   UNL A   1      47.369  30.632  27.852  1.00  0.00     0.074 A 
ATOM     61  C   UNL A   1      46.267  24.632  26.118  1.00  0.00     0.029 A 
ATOM     62  N   UNL A   1      46.104  26.687  26.950  1.00  0.00    -0.354 N 
ATOM     63  N   UNL A   1      47.050  29.401  27.524  1.00  0.00    -0.248 NA
ATOM     64  C   UNL A   1      48.773  30.979  27.593  1.00  0.00     0.031 C 
ATOM     65  C   UNL A   1      47.511  25.259  25.992  1.00  0.00     0.029 A 
ATOM     66  C   UNL A   1      47.401  26.550  26.482  1.00  0.00     0.049 A 
ATOM     67  H   UNL A   1      45.734  27.501  27.360  1.00  0.00     0.167 HD
ATOM     68  C   UNL A   1      48.209  28.837  27.000  1.00  0.00     0.074 A 
ATOM     69  C   UNL A   1      49.228  29.865  27.035  1.00  0.00     0.031 C 
ATOM     70  C   UNL A   1      48.410  27.580  26.530  1.00  0.00     0.031 A 
BRANCH  57  71
ATOM     71  C   UNL A   1      43.454  23.905  26.955  1.00  0.00    -0.014 A 
ATOM     72  C   UNL A   1      43.092  23.453  25.673  1.00  0.00     0.010 A 
ATOM     73  C   UNL A   1      43.304  23.037  28.052  1.00  0.00     0.010 A 
ATOM     74  C   UNL A   1      42.555  22.174  25.499  1.00  0.00     0.020 A 
ATOM     75  C   UNL A   1      42.797  21.746  27.879  1.00  0.00     0.020 A 
ATOM     76  C   UNL A   1      42.410  21.329  26.604  1.00  0.00     0.054 A 
BRANCH  76  77
ATOM     77  S   UNL A   1      41.731  19.667  26.344  1.00  0.00     0.124 S 
ATOM     78  O   UNL A   1      40.302  19.942  26.219  1.00  0.00    -0.237 OA
ATOM     79  O   UNL A   1      42.398  19.238  25.118  1.00  0.00    -0.237 OA
ATOM     80  O   UNL A   1      42.121  18.940  27.550  1.00  0.00    -0.744 OA
ENDBRANCH  76  77
ENDBRANCH  57  71
BRANCH  58  81
ATOM     81  C   UNL A   1      47.052  33.060  28.737  1.00  0.00    -0.014 A 
ATOM     82  C   UNL A   1      47.158  34.033  27.730  1.00  0.00     0.010 A 
ATOM     83  C   UNL A   1      47.473  33.379  30.043  1.00  0.00     0.010 A 
ATOM     84  C   UNL A   1      47.687  35.297  28.016  1.00  0.00     0.020 A 
ATOM     85  C   UNL A   1      47.974  34.649  30.341  1.00  0.00     0.020 A 
ATOM     86  C   UNL A   1      48.087  35.597  29.322  1.00  0.00     0.054 A 
BRANCH  86  87
ATOM     87  S   UNL A   1      48.715  37.261  29.682  1.00  0.00     0.124 S 
ATOM     88  O   UNL A   1      48.966  37.185  31.118  1.00  0.00    -0.237 OA
ATOM     89  O   UNL A   1      49.901  37.339  28.834  1.00  0.00    -0.237 OA
ATOM     90  O   UNL A   1      47.615  38.135  29.284  1.00  0.00    -0.744 OA
ENDBRANCH  86  87
ENDBRANCH  58  81
BRANCH  70  91
ATOM     91  C   UNL A   1      49.778  27.246  25.993  1.00  0.00    -0.014 A 
ATOM     92  C   UNL A   1      50.742  26.610  26.794  1.00  0.00     0.010 A 
ATOM     93  C   UNL A   1      50.081  27.516  24.644  1.00  0.00     0.010 A 
ATOM     94  C   UNL A   1      51.993  26.274  26.266  1.00  0.00     0.020 A 
ATOM     95  C   UNL A   1      51.317  27.154  24.104  1.00  0.00     0.020 A 
ATOM     96  C   UNL A   1      52.270  26.545  24.922  1.00  0.00     0.054 A 
BRANCH  96  97
ATOM     97  S   UNL A   1      53.881  26.050  24.249  1.00  0.00     0.124 S 
ATOM     98  O   UNL A   1      54.109  24.770  24.915  1.00  0.00    -0.237 OA
ATOM     99  O   UNL A   1      53.617  25.975  22.814  1.00  0.00    -0.237 OA
ATOM    100  O   UNL A   1      54.775  27.132  24.657  1.00  0.00    -0.744 OA
ENDBRANCH  96  97
ENDBRANCH  70  91
ENDBRANCH  44  45
ENDBRANCH  37  39
ENDBRANCH  36  37
ENDBRANCH  35  36
ENDBRANCH  34  35
ENDBRANCH   1  34
TORSDOF 22
ENDMDL
