MODEL 1
REMARK VINA RESULT:     -10.3      0.000      0.000
REMARK SMILES C[C@@H]1[C@H](C)CCC[C@H]1NC(=O)C[N@@H+]1CCC[C@@H]1C(=O)OCCOCCOC(=O)c1ccc(-c2c3nc(c(-c4ccc(S(=O)(=O)[O-])cc4)c4ccc([nH]4)c(-c4ccc(S(=O)(=O)[O-])cc4)c4nc(c(-c5ccc(S(=O)(=O)[O-])cc5)c5ccc2[nH]5)C=C4)C=C3)cc1
REMARK SMILES IDX 23 1 22 2 21 3 20 4 18 5 19 6 17 7 13 8 14 9 15 11 16 12
REMARK SMILES IDX 12 13 10 14 9 15 11 17 8 18 1 19 2 20 3 21 4 22 5 23 7 24
REMARK SMILES IDX 6 25 24 26 25 27 26 28 27 29 28 30 29 31 30 32 88 33 31 34
REMARK SMILES IDX 87 35 32 36 33 37 34 38 81 39 35 40 86 41 80 42 82 43 36 44
REMARK SMILES IDX 85 45 79 46 78 47 37 49 67 50 48 51 66 52 49 53 52 54 65 55
REMARK SMILES IDX 83 56 50 57 51 58 64 60 84 61 53 62 38 63 39 64 47 65 40 66
REMARK SMILES IDX 46 67 41 68 42 69 43 70 44 71 45 72 68 73 69 74 77 75 70 76
REMARK SMILES IDX 76 77 71 78 72 79 73 80 74 81 75 82 54 83 55 84 63 85 56 86
REMARK SMILES IDX 62 87 57 88 58 89 59 90 60 91 61 92
REMARK H PARENT 13 10 9 16 82 48 52 59
REMARK Flexibility Score: inf
ROOT
ATOM      1  O   UNL A   1      39.311  21.915  25.906  1.00  0.00    -0.374 OA
ENDROOT
BRANCH   1   2
ATOM      2  C   UNL A   1      37.988  22.338  26.238  1.00  0.00     0.202 C 
BRANCH   2   3
ATOM      3  C   UNL A   1      37.695  23.831  26.050  1.00  0.00     0.261 C 
BRANCH   3   4
ATOM      4  O   UNL A   1      36.606  24.026  25.132  1.00  0.00    -0.459 OA
BRANCH   4   5
ATOM      5  C   UNL A   1      35.434  23.392  25.417  1.00  0.00     0.365 C 
ATOM      6  O   UNL A   1      34.919  23.340  26.529  1.00  0.00    -0.245 OA
BRANCH   5   7
ATOM      7  C   UNL A   1      34.835  22.711  24.173  1.00  0.00     0.295 C 
ATOM      8  N   UNL A   1      34.281  23.650  23.142  1.00  0.00    -0.315 N 
ATOM      9  C   UNL A   1      33.289  22.827  22.427  1.00  0.00     0.263 C 
ATOM     10  H   UNL A   1      34.991  24.024  22.512  1.00  0.00     0.349 HD
ATOM     11  C   UNL A   1      32.617  21.988  23.486  1.00  0.00     0.068 C 
ATOM     12  C   UNL A   1      33.751  21.654  24.436  1.00  0.00     0.083 C 
BRANCH   8  13
ATOM     13  C   UNL A   1      33.689  24.859  23.771  1.00  0.00     0.364 C 
BRANCH  13  14
ATOM     14  C   UNL A   1      33.235  25.924  22.780  1.00  0.00     0.275 C 
ATOM     15  N   UNL A   1      32.107  26.652  22.991  1.00  0.00    -0.348 N 
ATOM     16  H   UNL A   1      31.828  27.210  22.229  1.00  0.00     0.163 HD
ATOM     17  O   UNL A   1      33.877  26.137  21.748  1.00  0.00    -0.268 OA
BRANCH  15  18
ATOM     18  C   UNL A   1      31.239  26.742  24.166  1.00  0.00     0.085 C 
ATOM     19  C   UNL A   1      31.150  27.546  26.581  1.00  0.00     0.010 C 
ATOM     20  C   UNL A   1      31.871  27.678  25.230  1.00  0.00     0.011 C 
ATOM     21  C   UNL A   1      31.931  29.137  24.708  1.00  0.00    -0.009 C 
ATOM     22  C   UNL A   1      32.551  30.104  25.720  1.00  0.00     0.008 C 
ATOM     23  C   UNL A   1      30.558  29.644  24.244  1.00  0.00     0.004 C 
ATOM     24  C   UNL A   1      29.853  27.248  23.742  1.00  0.00     0.025 C 
ATOM     25  C   UNL A   1      29.883  28.697  23.252  1.00  0.00     0.002 C 
ENDBRANCH  15  18
ENDBRANCH  13  14
ENDBRANCH   8  13
ENDBRANCH   5   7
ENDBRANCH   4   5
ENDBRANCH   3   4
ENDBRANCH   2   3
ENDBRANCH   1   2
BRANCH   1  26
ATOM     26  C   UNL A   1      40.251  21.781  26.970  1.00  0.00     0.202 C 
BRANCH  26  27
ATOM     27  C   UNL A   1      41.629  22.426  26.763  1.00  0.00     0.261 C 
BRANCH  27  28
ATOM     28  O   UNL A   1      41.562  23.786  26.293  1.00  0.00    -0.460 OA
BRANCH  28  29
ATOM     29  C   UNL A   1      42.500  24.608  26.820  1.00  0.00     0.338 C 
ATOM     30  O   UNL A   1      43.711  24.562  26.622  1.00  0.00    -0.246 OA
BRANCH  29  31
ATOM     31  C   UNL A   1      41.889  25.707  27.587  1.00  0.00     0.060 A 
ATOM     32  C   UNL A   1      42.640  26.879  27.735  1.00  0.00     0.016 A 
ATOM     33  C   UNL A   1      40.688  25.544  28.280  1.00  0.00     0.016 A 
ATOM     34  C   UNL A   1      42.229  27.863  28.632  1.00  0.00     0.010 A 
ATOM     35  C   UNL A   1      40.279  26.533  29.185  1.00  0.00     0.010 A 
ATOM     36  C   UNL A   1      41.074  27.674  29.402  1.00  0.00    -0.014 A 
BRANCH  36  37
ATOM     37  C   UNL A   1      40.811  28.590  30.541  1.00  0.00     0.031 A 
ATOM     38  C   UNL A   1      41.668  28.489  31.776  1.00  0.00     0.074 A 
ATOM     39  C   UNL A   1      39.869  29.548  30.456  1.00  0.00     0.049 A 
ATOM     40  N   UNL A   1      41.646  29.218  32.864  1.00  0.00    -0.248 NA
ATOM     41  C   UNL A   1      42.690  27.429  31.785  1.00  0.00     0.031 C 
ATOM     42  C   UNL A   1      38.999  29.778  29.304  1.00  0.00     0.029 A 
ATOM     43  N   UNL A   1      39.495  30.511  31.360  1.00  0.00    -0.354 N 
ATOM     44  C   UNL A   1      42.642  28.704  33.687  1.00  0.00     0.074 A 
ATOM     45  C   UNL A   1      43.231  27.584  32.985  1.00  0.00     0.031 C 
ATOM     46  C   UNL A   1      38.192  30.819  29.570  1.00  0.00     0.029 A 
ATOM     47  C   UNL A   1      38.472  31.314  30.916  1.00  0.00     0.049 A 
ATOM     48  H   UNL A   1      39.919  30.616  32.242  1.00  0.00     0.167 HD
ATOM     49  C   UNL A   1      43.038  29.127  34.911  1.00  0.00     0.031 A 
ATOM     50  C   UNL A   1      37.826  32.326  31.529  1.00  0.00     0.031 A 
ATOM     51  C   UNL A   1      42.447  30.232  35.616  1.00  0.00     0.049 A 
ATOM     52  C   UNL A   1      38.244  32.744  32.915  1.00  0.00     0.074 A 
ATOM     53  C   UNL A   1      42.788  30.743  36.857  1.00  0.00     0.029 A 
ATOM     54  N   UNL A   1      41.388  30.994  35.149  1.00  0.00    -0.354 N 
ATOM     55  N   UNL A   1      39.206  32.263  33.667  1.00  0.00    -0.248 NA
ATOM     56  C   UNL A   1      37.497  33.850  33.529  1.00  0.00     0.031 C 
ATOM     57  C   UNL A   1      41.903  31.785  37.161  1.00  0.00     0.029 A 
ATOM     58  C   UNL A   1      41.046  31.955  36.085  1.00  0.00     0.049 A 
ATOM     59  H   UNL A   1      40.943  30.869  34.280  1.00  0.00     0.167 HD
ATOM     60  C   UNL A   1      39.195  33.024  34.831  1.00  0.00     0.074 A 
ATOM     61  C   UNL A   1      38.139  34.005  34.679  1.00  0.00     0.031 C 
ATOM     62  C   UNL A   1      39.991  32.924  35.924  1.00  0.00     0.031 A 
BRANCH  49  63
ATOM     63  C   UNL A   1      44.150  28.362  35.580  1.00  0.00    -0.014 A 
ATOM     64  C   UNL A   1      45.492  28.763  35.450  1.00  0.00     0.010 A 
ATOM     65  C   UNL A   1      43.843  27.239  36.369  1.00  0.00     0.010 A 
ATOM     66  C   UNL A   1      46.511  28.027  36.061  1.00  0.00     0.020 A 
ATOM     67  C   UNL A   1      44.858  26.515  37.002  1.00  0.00     0.020 A 
ATOM     68  C   UNL A   1      46.188  26.902  36.827  1.00  0.00     0.054 A 
BRANCH  68  69
ATOM     69  S   UNL A   1      47.528  25.965  37.613  1.00  0.00     0.124 S 
ATOM     70  O   UNL A   1      48.114  26.966  38.501  1.00  0.00    -0.237 OA
ATOM     71  O   UNL A   1      46.813  24.878  38.278  1.00  0.00    -0.237 OA
ATOM     72  O   UNL A   1      48.371  25.558  36.491  1.00  0.00    -0.744 OA
ENDBRANCH  68  69
ENDBRANCH  49  63
BRANCH  50  73
ATOM     73  C   UNL A   1      36.703  33.013  30.835  1.00  0.00    -0.014 A 
ATOM     74  C   UNL A   1      35.368  32.739  31.180  1.00  0.00     0.010 A 
ATOM     75  C   UNL A   1      36.969  33.957  29.826  1.00  0.00     0.010 A 
ATOM     76  C   UNL A   1      34.320  33.389  30.522  1.00  0.00     0.020 A 
ATOM     77  C   UNL A   1      35.925  34.627  29.183  1.00  0.00     0.020 A 
ATOM     78  C   UNL A   1      34.605  34.332  29.529  1.00  0.00     0.054 A 
BRANCH  78  79
ATOM     79  S   UNL A   1      33.231  35.209  28.731  1.00  0.00     0.124 S 
ATOM     80  O   UNL A   1      33.932  36.205  27.929  1.00  0.00    -0.237 OA
ATOM     81  O   UNL A   1      32.568  34.145  27.982  1.00  0.00    -0.237 OA
ATOM     82  O   UNL A   1      32.464  35.737  29.857  1.00  0.00    -0.744 OA
ENDBRANCH  78  79
ENDBRANCH  50  73
BRANCH  62  83
ATOM     83  C   UNL A   1      39.775  33.919  37.034  1.00  0.00    -0.014 A 
ATOM     84  C   UNL A   1      39.018  33.591  38.172  1.00  0.00     0.010 A 
ATOM     85  C   UNL A   1      40.383  35.186  36.957  1.00  0.00     0.010 A 
ATOM     86  C   UNL A   1      38.843  34.525  39.197  1.00  0.00     0.020 A 
ATOM     87  C   UNL A   1      40.231  36.114  37.990  1.00  0.00     0.020 A 
ATOM     88  C   UNL A   1      39.448  35.782  39.098  1.00  0.00     0.054 A 
BRANCH  88  89
ATOM     89  S   UNL A   1      39.237  36.967  40.457  1.00  0.00     0.124 S 
ATOM     90  O   UNL A   1      38.426  36.204  41.401  1.00  0.00    -0.237 OA
ATOM     91  O   UNL A   1      40.613  37.227  40.876  1.00  0.00    -0.237 OA
ATOM     92  O   UNL A   1      38.562  38.099  39.826  1.00  0.00    -0.744 OA
ENDBRANCH  88  89
ENDBRANCH  62  83
ENDBRANCH  36  37
ENDBRANCH  29  31
ENDBRANCH  28  29
ENDBRANCH  27  28
ENDBRANCH  26  27
ENDBRANCH   1  26
TORSDOF 20
ENDMDL
MODEL 2
REMARK VINA RESULT:      -9.8      5.869     10.600
REMARK SMILES C[C@@H]1[C@H](C)CCC[C@H]1NC(=O)C[N@@H+]1CCC[C@@H]1C(=O)OCCOCCOC(=O)c1ccc(-c2c3nc(c(-c4ccc(S(=O)(=O)[O-])cc4)c4ccc([nH]4)c(-c4ccc(S(=O)(=O)[O-])cc4)c4nc(c(-c5ccc(S(=O)(=O)[O-])cc5)c5ccc2[nH]5)C=C4)C=C3)cc1
REMARK SMILES IDX 23 1 22 2 21 3 20 4 18 5 19 6 17 7 13 8 14 9 15 11 16 12
REMARK SMILES IDX 12 13 10 14 9 15 11 17 8 18 1 19 2 20 3 21 4 22 5 23 7 24
REMARK SMILES IDX 6 25 24 26 25 27 26 28 27 29 28 30 29 31 30 32 88 33 31 34
REMARK SMILES IDX 87 35 32 36 33 37 34 38 81 39 35 40 86 41 80 42 82 43 36 44
REMARK SMILES IDX 85 45 79 46 78 47 37 49 67 50 48 51 66 52 49 53 52 54 65 55
REMARK SMILES IDX 83 56 50 57 51 58 64 60 84 61 53 62 38 63 39 64 47 65 40 66
REMARK SMILES IDX 46 67 41 68 42 69 43 70 44 71 45 72 68 73 69 74 77 75 70 76
REMARK SMILES IDX 76 77 71 78 72 79 73 80 74 81 75 82 54 83 55 84 63 85 56 86
REMARK SMILES IDX 62 87 57 88 58 89 59 90 60 91 61 92
REMARK H PARENT 13 10 9 16 82 48 52 59
REMARK Flexibility Score: inf
ROOT
ATOM      1  O   UNL A   1      38.068  22.690  25.080  1.00  0.00    -0.374 OA
ENDROOT
BRANCH   1   2
ATOM      2  C   UNL A   1      36.650  22.861  25.061  1.00  0.00     0.202 C 
BRANCH   2   3
ATOM      3  C   UNL A   1      36.090  23.689  23.899  1.00  0.00     0.261 C 
BRANCH   3   4
ATOM      4  O   UNL A   1      35.134  22.927  23.143  1.00  0.00    -0.459 OA
BRANCH   4   5
ATOM      5  C   UNL A   1      33.897  23.475  22.976  1.00  0.00     0.365 C 
ATOM      6  O   UNL A   1      33.681  24.574  22.478  1.00  0.00    -0.245 OA
BRANCH   5   7
ATOM      7  C   UNL A   1      32.787  22.557  23.519  1.00  0.00     0.295 C 
ATOM      8  N   UNL A   1      32.033  23.102  24.695  1.00  0.00    -0.315 N 
ATOM      9  C   UNL A   1      31.518  21.893  25.363  1.00  0.00     0.263 C 
ATOM     10  H   UNL A   1      31.282  23.742  24.435  1.00  0.00     0.349 HD
ATOM     11  C   UNL A   1      32.624  20.871  25.263  1.00  0.00     0.068 C 
ATOM     12  C   UNL A   1      33.212  21.128  23.889  1.00  0.00     0.083 C 
BRANCH   8  13
ATOM     13  C   UNL A   1      32.911  23.920  25.571  1.00  0.00     0.364 C 
BRANCH  13  14
ATOM     14  C   UNL A   1      32.165  24.890  26.480  1.00  0.00     0.275 C 
ATOM     15  N   UNL A   1      32.468  26.214  26.502  1.00  0.00    -0.348 N 
ATOM     16  H   UNL A   1      32.028  26.726  27.220  1.00  0.00     0.163 HD
ATOM     17  O   UNL A   1      31.276  24.487  27.234  1.00  0.00    -0.268 OA
BRANCH  15  18
ATOM     18  C   UNL A   1      33.341  27.005  25.633  1.00  0.00     0.085 C 
ATOM     19  C   UNL A   1      33.479  28.119  23.347  1.00  0.00     0.010 C 
ATOM     20  C   UNL A   1      32.539  27.559  24.426  1.00  0.00     0.011 C 
ATOM     21  C   UNL A   1      31.473  28.581  24.900  1.00  0.00    -0.009 C 
ATOM     22  C   UNL A   1      30.649  29.157  23.746  1.00  0.00     0.008 C 
ATOM     23  C   UNL A   1      32.087  29.708  25.745  1.00  0.00     0.004 C 
ATOM     24  C   UNL A   1      33.974  28.145  26.443  1.00  0.00     0.025 C 
ATOM     25  C   UNL A   1      32.944  29.183  26.895  1.00  0.00     0.002 C 
ENDBRANCH  15  18
ENDBRANCH  13  14
ENDBRANCH   8  13
ENDBRANCH   5   7
ENDBRANCH   4   5
ENDBRANCH   3   4
ENDBRANCH   2   3
ENDBRANCH   1   2
BRANCH   1  26
ATOM     26  C   UNL A   1      38.623  21.856  26.094  1.00  0.00     0.202 C 
BRANCH  26  27
ATOM     27  C   UNL A   1      38.960  20.412  25.697  1.00  0.00     0.261 C 
BRANCH  27  28
ATOM     28  O   UNL A   1      40.370  20.119  25.741  1.00  0.00    -0.460 OA
BRANCH  28  29
ATOM     29  C   UNL A   1      40.943  20.300  26.954  1.00  0.00     0.338 C 
ATOM     30  O   UNL A   1      40.778  19.604  27.954  1.00  0.00    -0.246 OA
BRANCH  29  31
ATOM     31  C   UNL A   1      41.940  21.383  26.929  1.00  0.00     0.060 A 
ATOM     32  C   UNL A   1      42.423  21.838  28.161  1.00  0.00     0.016 A 
ATOM     33  C   UNL A   1      42.275  22.049  25.748  1.00  0.00     0.016 A 
ATOM     34  C   UNL A   1      43.185  23.003  28.226  1.00  0.00     0.010 A 
ATOM     35  C   UNL A   1      43.038  23.223  25.815  1.00  0.00     0.010 A 
ATOM     36  C   UNL A   1      43.453  23.732  27.060  1.00  0.00    -0.014 A 
BRANCH  36  37
ATOM     37  C   UNL A   1      44.015  25.102  27.181  1.00  0.00     0.031 A 
ATOM     38  C   UNL A   1      43.131  26.216  27.678  1.00  0.00     0.074 A 
ATOM     39  C   UNL A   1      45.314  25.343  26.923  1.00  0.00     0.049 A 
ATOM     40  N   UNL A   1      43.425  27.471  27.906  1.00  0.00    -0.248 NA
ATOM     41  C   UNL A   1      41.727  25.869  27.959  1.00  0.00     0.031 C 
ATOM     42  C   UNL A   1      46.285  24.347  26.474  1.00  0.00     0.029 A 
ATOM     43  N   UNL A   1      46.037  26.507  27.008  1.00  0.00    -0.354 N 
ATOM     44  C   UNL A   1      42.249  28.064  28.351  1.00  0.00     0.074 A 
ATOM     45  C   UNL A   1      41.228  27.038  28.334  1.00  0.00     0.031 C 
ATOM     46  C   UNL A   1      47.481  24.942  26.326  1.00  0.00     0.029 A 
ATOM     47  C   UNL A   1      47.355  26.362  26.646  1.00  0.00     0.049 A 
ATOM     48  H   UNL A   1      45.649  27.362  27.302  1.00  0.00     0.167 HD
ATOM     49  C   UNL A   1      42.035  29.341  28.747  1.00  0.00     0.031 A 
ATOM     50  C   UNL A   1      48.346  27.274  26.570  1.00  0.00     0.031 A 
ATOM     51  C   UNL A   1      43.044  30.367  28.754  1.00  0.00     0.049 A 
ATOM     52  C   UNL A   1      48.072  28.703  26.959  1.00  0.00     0.074 A 
ATOM     53  C   UNL A   1      42.925  31.689  29.148  1.00  0.00     0.029 A 
ATOM     54  N   UNL A   1      44.355  30.189  28.342  1.00  0.00    -0.354 N 
ATOM     55  N   UNL A   1      46.959  29.239  27.403  1.00  0.00    -0.248 NA
ATOM     56  C   UNL A   1      49.193  29.647  26.849  1.00  0.00     0.031 C 
ATOM     57  C   UNL A   1      44.154  32.323  28.930  1.00  0.00     0.029 A 
ATOM     58  C   UNL A   1      45.052  31.381  28.450  1.00  0.00     0.049 A 
ATOM     59  H   UNL A   1      44.736  29.341  28.020  1.00  0.00     0.167 HD
ATOM     60  C   UNL A   1      47.254  30.576  27.648  1.00  0.00     0.074 A 
ATOM     61  C   UNL A   1      48.651  30.765  27.315  1.00  0.00     0.031 C 
ATOM     62  C   UNL A   1      46.441  31.558  28.112  1.00  0.00     0.031 A 
BRANCH  49  63
ATOM     63  C   UNL A   1      40.638  29.708  29.173  1.00  0.00    -0.014 A 
ATOM     64  C   UNL A   1      39.578  29.735  28.249  1.00  0.00     0.010 A 
ATOM     65  C   UNL A   1      40.379  30.009  30.523  1.00  0.00     0.010 A 
ATOM     66  C   UNL A   1      38.292  30.099  28.659  1.00  0.00     0.020 A 
ATOM     67  C   UNL A   1      39.089  30.350  30.941  1.00  0.00     0.020 A 
ATOM     68  C   UNL A   1      38.058  30.412  30.002  1.00  0.00     0.054 A 
BRANCH  68  69
ATOM     69  S   UNL A   1      36.380  30.878  30.512  1.00  0.00     0.124 S 
ATOM     70  O   UNL A   1      35.994  29.745  31.348  1.00  0.00    -0.237 OA
ATOM     71  O   UNL A   1      36.597  32.137  31.222  1.00  0.00    -0.237 OA
ATOM     72  O   UNL A   1      35.654  30.997  29.249  1.00  0.00    -0.744 OA
ENDBRANCH  68  69
ENDBRANCH  49  63
BRANCH  50  73
ATOM     73  C   UNL A   1      49.694  26.860  26.096  1.00  0.00    -0.014 A 
ATOM     74  C   UNL A   1      50.083  27.070  24.761  1.00  0.00     0.010 A 
ATOM     75  C   UNL A   1      50.603  26.260  26.987  1.00  0.00     0.010 A 
ATOM     76  C   UNL A   1      51.352  26.677  24.324  1.00  0.00     0.020 A 
ATOM     77  C   UNL A   1      51.881  25.890  26.560  1.00  0.00     0.020 A 
ATOM     78  C   UNL A   1      52.244  26.093  25.227  1.00  0.00     0.054 A 
BRANCH  78  79
ATOM     79  S   UNL A   1      53.908  25.648  24.654  1.00  0.00     0.124 S 
ATOM     80  O   UNL A   1      54.755  26.282  25.658  1.00  0.00    -0.237 OA
ATOM     81  O   UNL A   1      53.874  24.188  24.685  1.00  0.00    -0.237 OA
ATOM     82  O   UNL A   1      53.975  26.232  23.317  1.00  0.00    -0.744 OA
ENDBRANCH  78  79
ENDBRANCH  50  73
BRANCH  62  83
ATOM     83  C   UNL A   1      47.047  32.921  28.320  1.00  0.00    -0.014 A 
ATOM     84  C   UNL A   1      47.792  33.221  29.474  1.00  0.00     0.010 A 
ATOM     85  C   UNL A   1      46.911  33.901  27.319  1.00  0.00     0.010 A 
ATOM     86  C   UNL A   1      48.360  34.488  29.639  1.00  0.00     0.020 A 
ATOM     87  C   UNL A   1      47.497  35.160  27.469  1.00  0.00     0.020 A 
ATOM     88  C   UNL A   1      48.206  35.450  28.637  1.00  0.00     0.054 A 
BRANCH  88  89
ATOM     89  S   UNL A   1      48.981  37.077  28.856  1.00  0.00     0.124 S 
ATOM     90  O   UNL A   1      49.704  36.902  30.112  1.00  0.00    -0.237 OA
ATOM     91  O   UNL A   1      49.815  37.201  27.662  1.00  0.00    -0.237 OA
ATOM     92  O   UNL A   1      47.845  37.996  28.911  1.00  0.00    -0.744 OA
ENDBRANCH  88  89
ENDBRANCH  62  83
ENDBRANCH  36  37
ENDBRANCH  29  31
ENDBRANCH  28  29
ENDBRANCH  27  28
ENDBRANCH  26  27
ENDBRANCH   1  26
TORSDOF 20
ENDMDL
MODEL 3
REMARK VINA RESULT:      -9.7      5.708     11.712
REMARK SMILES C[C@@H]1[C@H](C)CCC[C@H]1NC(=O)C[N@@H+]1CCC[C@@H]1C(=O)OCCOCCOC(=O)c1ccc(-c2c3nc(c(-c4ccc(S(=O)(=O)[O-])cc4)c4ccc([nH]4)c(-c4ccc(S(=O)(=O)[O-])cc4)c4nc(c(-c5ccc(S(=O)(=O)[O-])cc5)c5ccc2[nH]5)C=C4)C=C3)cc1
REMARK SMILES IDX 23 1 22 2 21 3 20 4 18 5 19 6 17 7 13 8 14 9 15 11 16 12
REMARK SMILES IDX 12 13 10 14 9 15 11 17 8 18 1 19 2 20 3 21 4 22 5 23 7 24
REMARK SMILES IDX 6 25 24 26 25 27 26 28 27 29 28 30 29 31 30 32 88 33 31 34
REMARK SMILES IDX 87 35 32 36 33 37 34 38 81 39 35 40 86 41 80 42 82 43 36 44
REMARK SMILES IDX 85 45 79 46 78 47 37 49 67 50 48 51 66 52 49 53 52 54 65 55
REMARK SMILES IDX 83 56 50 57 51 58 64 60 84 61 53 62 38 63 39 64 47 65 40 66
REMARK SMILES IDX 46 67 41 68 42 69 43 70 44 71 45 72 68 73 69 74 77 75 70 76
REMARK SMILES IDX 76 77 71 78 72 79 73 80 74 81 75 82 54 83 55 84 63 85 56 86
REMARK SMILES IDX 62 87 57 88 58 89 59 90 60 91 61 92
REMARK H PARENT 13 10 9 16 82 48 52 59
REMARK Flexibility Score: inf
ROOT
ATOM      1  O   UNL A   1      34.489  31.953  27.921  1.00  0.00    -0.374 OA
ENDROOT
BRANCH   1   2
ATOM      2  C   UNL A   1      33.456  31.026  27.586  1.00  0.00     0.202 C 
BRANCH   2   3
ATOM      3  C   UNL A   1      33.768  30.062  26.436  1.00  0.00     0.261 C 
BRANCH   3   4
ATOM      4  O   UNL A   1      32.688  29.133  26.241  1.00  0.00    -0.459 OA
BRANCH   4   5
ATOM      5  C   UNL A   1      32.418  28.756  24.959  1.00  0.00     0.365 C 
ATOM      6  O   UNL A   1      32.824  29.338  23.960  1.00  0.00    -0.245 OA
BRANCH   5   7
ATOM      7  C   UNL A   1      31.506  27.517  24.907  1.00  0.00     0.295 C 
ATOM      8  N   UNL A   1      32.213  26.220  24.647  1.00  0.00    -0.315 N 
ATOM      9  C   UNL A   1      31.163  25.369  24.060  1.00  0.00     0.263 C 
ATOM     10  H   UNL A   1      32.617  25.803  25.485  1.00  0.00     0.349 HD
ATOM     11  C   UNL A   1      30.360  26.274  23.159  1.00  0.00     0.068 C 
ATOM     12  C   UNL A   1      30.328  27.585  23.922  1.00  0.00     0.083 C 
BRANCH   8  13
ATOM     13  C   UNL A   1      33.378  26.409  23.745  1.00  0.00     0.364 C 
BRANCH  13  14
ATOM     14  C   UNL A   1      33.758  25.171  22.940  1.00  0.00     0.275 C 
ATOM     15  N   UNL A   1      34.442  24.143  23.505  1.00  0.00    -0.348 N 
ATOM     16  H   UNL A   1      34.758  23.460  22.869  1.00  0.00     0.163 HD
ATOM     17  O   UNL A   1      33.465  25.085  21.744  1.00  0.00    -0.268 OA
BRANCH  15  18
ATOM     18  C   UNL A   1      34.786  23.883  24.904  1.00  0.00     0.085 C 
ATOM     19  C   UNL A   1      34.217  22.417  26.907  1.00  0.00     0.010 C 
ATOM     20  C   UNL A   1      34.138  22.555  25.378  1.00  0.00     0.011 C 
ATOM     21  C   UNL A   1      34.750  21.347  24.622  1.00  0.00    -0.009 C 
ATOM     22  C   UNL A   1      34.142  20.010  25.050  1.00  0.00     0.008 C 
ATOM     23  C   UNL A   1      36.281  21.309  24.733  1.00  0.00     0.004 C 
ATOM     24  C   UNL A   1      36.313  23.836  25.056  1.00  0.00     0.025 C 
ATOM     25  C   UNL A   1      36.935  22.634  24.343  1.00  0.00     0.002 C 
ENDBRANCH  15  18
ENDBRANCH  13  14
ENDBRANCH   8  13
ENDBRANCH   5   7
ENDBRANCH   4   5
ENDBRANCH   3   4
ENDBRANCH   2   3
ENDBRANCH   1   2
BRANCH   1  26
ATOM     26  C   UNL A   1      34.827  32.102  29.298  1.00  0.00     0.202 C 
BRANCH  26  27
ATOM     27  C   UNL A   1      35.581  33.379  29.694  1.00  0.00     0.261 C 
BRANCH  27  28
ATOM     28  O   UNL A   1      36.879  33.126  30.266  1.00  0.00    -0.460 OA
BRANCH  28  29
ATOM     29  C   UNL A   1      36.961  31.983  30.986  1.00  0.00     0.338 C 
ATOM     30  O   UNL A   1      36.219  31.638  31.902  1.00  0.00    -0.246 OA
BRANCH  29  31
ATOM     31  C   UNL A   1      37.994  31.079  30.454  1.00  0.00     0.060 A 
ATOM     32  C   UNL A   1      38.895  30.524  31.372  1.00  0.00     0.016 A 
ATOM     33  C   UNL A   1      38.185  30.902  29.081  1.00  0.00     0.016 A 
ATOM     34  C   UNL A   1      40.028  29.852  30.919  1.00  0.00     0.010 A 
ATOM     35  C   UNL A   1      39.328  30.229  28.628  1.00  0.00     0.010 A 
ATOM     36  C   UNL A   1      40.280  29.746  29.545  1.00  0.00    -0.014 A 
BRANCH  36  37
ATOM     37  C   UNL A   1      41.617  29.283  29.092  1.00  0.00     0.031 A 
ATOM     38  C   UNL A   1      42.776  30.245  29.124  1.00  0.00     0.074 A 
ATOM     39  C   UNL A   1      41.819  28.004  28.723  1.00  0.00     0.049 A 
ATOM     40  N   UNL A   1      44.034  30.041  28.822  1.00  0.00    -0.248 NA
ATOM     41  C   UNL A   1      42.480  31.621  29.559  1.00  0.00     0.031 C 
ATOM     42  C   UNL A   1      40.792  26.964  28.685  1.00  0.00     0.029 A 
ATOM     43  N   UNL A   1      42.964  27.365  28.315  1.00  0.00    -0.354 N 
ATOM     44  C   UNL A   1      44.676  31.257  29.024  1.00  0.00     0.074 A 
ATOM     45  C   UNL A   1      43.665  32.202  29.448  1.00  0.00     0.031 C 
ATOM     46  C   UNL A   1      41.355  25.813  28.278  1.00  0.00     0.029 A 
ATOM     47  C   UNL A   1      42.773  26.040  28.005  1.00  0.00     0.049 A 
ATOM     48  H   UNL A   1      43.837  27.814  28.252  1.00  0.00     0.167 HD
ATOM     49  C   UNL A   1      45.988  31.562  28.880  1.00  0.00     0.031 A 
ATOM     50  C   UNL A   1      43.640  25.117  27.544  1.00  0.00     0.031 A 
ATOM     51  C   UNL A   1      46.994  30.628  28.449  1.00  0.00     0.049 A 
ATOM     52  C   UNL A   1      45.084  25.492  27.335  1.00  0.00     0.074 A 
ATOM     53  C   UNL A   1      48.352  30.841  28.283  1.00  0.00     0.029 A 
ATOM     54  N   UNL A   1      46.753  29.307  28.107  1.00  0.00    -0.354 N 
ATOM     55  N   UNL A   1      45.678  26.641  27.557  1.00  0.00    -0.248 NA
ATOM     56  C   UNL A   1      45.976  24.441  26.825  1.00  0.00     0.031 C 
ATOM     57  C   UNL A   1      48.924  29.660  27.796  1.00  0.00     0.029 A 
ATOM     58  C   UNL A   1      47.930  28.698  27.709  1.00  0.00     0.049 A 
ATOM     59  H   UNL A   1      45.873  28.866  28.141  1.00  0.00     0.167 HD
ATOM     60  C   UNL A   1      47.018  26.443  27.237  1.00  0.00     0.074 A 
ATOM     61  C   UNL A   1      47.148  25.061  26.819  1.00  0.00     0.031 C 
ATOM     62  C   UNL A   1      48.048  27.324  27.291  1.00  0.00     0.031 A 
BRANCH  49  63
ATOM     63  C   UNL A   1      46.403  32.982  29.162  1.00  0.00    -0.014 A 
ATOM     64  C   UNL A   1      46.350  33.969  28.160  1.00  0.00     0.010 A 
ATOM     65  C   UNL A   1      46.830  33.339  30.453  1.00  0.00     0.010 A 
ATOM     66  C   UNL A   1      46.759  35.277  28.434  1.00  0.00     0.020 A 
ATOM     67  C   UNL A   1      47.217  34.652  30.737  1.00  0.00     0.020 A 
ATOM     68  C   UNL A   1      47.198  35.608  29.720  1.00  0.00     0.054 A 
BRANCH  68  69
ATOM     69  S   UNL A   1      47.721  37.313  30.053  1.00  0.00     0.124 S 
ATOM     70  O   UNL A   1      46.446  37.971  30.326  1.00  0.00    -0.237 OA
ATOM     71  O   UNL A   1      48.607  37.159  31.206  1.00  0.00    -0.237 OA
ATOM     72  O   UNL A   1      48.381  37.722  28.816  1.00  0.00    -0.744 OA
ENDBRANCH  68  69
ENDBRANCH  49  63
BRANCH  50  73
ATOM     73  C   UNL A   1      43.160  23.741  27.239  1.00  0.00    -0.014 A 
ATOM     74  C   UNL A   1      42.896  23.349  25.914  1.00  0.00     0.010 A 
ATOM     75  C   UNL A   1      42.975  22.811  28.278  1.00  0.00     0.010 A 
ATOM     76  C   UNL A   1      42.445  22.055  25.637  1.00  0.00     0.020 A 
ATOM     77  C   UNL A   1      42.549  21.510  28.002  1.00  0.00     0.020 A 
ATOM     78  C   UNL A   1      42.277  21.142  26.683  1.00  0.00     0.054 A 
BRANCH  78  79
ATOM     79  S   UNL A   1      41.751  19.449  26.294  1.00  0.00     0.124 S 
ATOM     80  O   UNL A   1      42.135  18.727  27.501  1.00  0.00    -0.237 OA
ATOM     81  O   UNL A   1      40.314  19.605  26.079  1.00  0.00    -0.237 OA
ATOM     82  O   UNL A   1      42.519  19.121  25.095  1.00  0.00    -0.744 OA
ENDBRANCH  78  79
ENDBRANCH  50  73
BRANCH  62  83
ATOM     83  C   UNL A   1      49.416  26.816  26.919  1.00  0.00    -0.014 A 
ATOM     84  C   UNL A   1      50.285  26.282  27.886  1.00  0.00     0.010 A 
ATOM     85  C   UNL A   1      49.817  26.828  25.570  1.00  0.00     0.010 A 
ATOM     86  C   UNL A   1      51.545  25.801  27.516  1.00  0.00     0.020 A 
ATOM     87  C   UNL A   1      51.065  26.327  25.192  1.00  0.00     0.020 A 
ATOM     88  C   UNL A   1      51.928  25.830  26.171  1.00  0.00     0.054 A 
BRANCH  88  89
ATOM     89  S   UNL A   1      53.553  25.169  25.708  1.00  0.00     0.124 S 
ATOM     90  O   UNL A   1      54.283  25.247  26.970  1.00  0.00    -0.237 OA
ATOM     91  O   UNL A   1      53.234  23.819  25.248  1.00  0.00    -0.237 OA
ATOM     92  O   UNL A   1      54.013  26.083  24.664  1.00  0.00    -0.744 OA
ENDBRANCH  88  89
ENDBRANCH  62  83
ENDBRANCH  36  37
ENDBRANCH  29  31
ENDBRANCH  28  29
ENDBRANCH  27  28
ENDBRANCH  26  27
ENDBRANCH   1  26
TORSDOF 20
ENDMDL
