MODEL 1
REMARK VINA RESULT:     -10.5      0.000      0.000
REMARK SMILES C[C@@](NC(=O)CCOC1CC[NH2+]CC1)(C(=O)OCCOCCOC(=O)c1ccc(-c2c3nc(c(-c4ccc(S(=O)(=O)[O-])cc4)c4ccc([nH]4)c(-c4ccc(S(=O)(=O)[O-])cc4)c4nc(c(-c5ccc(S(=O)(=O)[O-])cc5)c5ccc2[nH]5)C=C4)C=C3)cc1)C(F)(F)F
REMARK SMILES IDX 19 1 18 2 17 3 15 4 16 5 2 6 1 7 3 8 4 9 5 11 6 12 7 13 8 14
REMARK SMILES IDX 9 15 10 16 14 17 11 18 13 19 12 20 86 23 87 24 88 25 89 26
REMARK SMILES IDX 20 27 21 28 22 29 23 30 24 31 25 32 26 33 27 34 85 35 28 36
REMARK SMILES IDX 84 37 29 38 30 39 31 40 78 41 32 42 83 43 77 44 79 45 33 46
REMARK SMILES IDX 82 47 76 48 75 49 34 51 64 52 45 53 63 54 46 55 49 56 62 57
REMARK SMILES IDX 80 58 47 59 48 60 61 62 81 63 50 64 35 65 36 66 44 67 37 68
REMARK SMILES IDX 43 69 38 70 39 71 40 72 41 73 42 74 65 75 66 76 74 77 67 78
REMARK SMILES IDX 73 79 68 80 69 81 70 82 71 83 72 84 51 85 52 86 60 87 53 88
REMARK SMILES IDX 59 89 54 90 55 91 56 92 57 93 58 94
REMARK H PARENT 3 10 12 21 12 22 79 50 49 61
REMARK Flexibility Score: inf
ROOT
ATOM      1  C   UNL A   1      37.718  22.031  25.100  1.00  0.00     0.202 C 
ENDROOT
BRANCH   1   2
ATOM      2  C   UNL A   1      36.806  23.031  24.381  1.00  0.00     0.261 C 
BRANCH   2   3
ATOM      3  O   UNL A   1      36.181  24.140  25.081  1.00  0.00    -0.461 OA
BRANCH   3   4
ATOM      4  C   UNL A   1      34.781  24.170  25.386  1.00  0.00     0.341 C 
ATOM      5  O   UNL A   1      34.543  25.385  25.175  1.00  0.00    -0.249 OA
BRANCH   4   6
ATOM      6  C   UNL A   1      33.567  22.526  26.011  1.00  0.00     0.231 C 
ATOM      7  C   UNL A   1      33.980  21.385  27.237  1.00  0.00     0.058 C 
BRANCH   6   8
ATOM      8  N   UNL A   1      31.838  22.652  26.607  1.00  0.00    -0.333 N 
ATOM      9  C   UNL A   1      30.731  23.436  26.827  1.00  0.00     0.223 C 
ATOM     10  H   UNL A   1      31.591  21.746  26.903  1.00  0.00     0.164 HD
ATOM     11  O   UNL A   1      29.832  22.886  27.476  1.00  0.00    -0.275 OA
BRANCH   9  12
ATOM     12  C   UNL A   1      30.466  24.856  26.266  1.00  0.00     0.128 C 
BRANCH  12  13
ATOM     13  C   UNL A   1      30.327  25.004  24.752  1.00  0.00     0.170 C 
BRANCH  13  14
ATOM     14  O   UNL A   1      31.580  25.056  24.053  1.00  0.00    -0.377 OA
BRANCH  14  15
ATOM     15  C   UNL A   1      31.750  26.354  23.497  1.00  0.00     0.129 C 
ATOM     16  C   UNL A   1      32.983  26.600  22.015  1.00  0.00     0.093 C 
ATOM     17  C   UNL A   1      31.789  27.685  24.991  1.00  0.00     0.093 C 
ATOM     18  C   UNL A   1      34.026  28.202  22.022  1.00  0.00     0.263 C 
ATOM     19  C   UNL A   1      32.828  29.302  24.790  1.00  0.00     0.263 C 
ATOM     20  N   UNL A   1      33.693  29.557  23.176  1.00  0.00    -0.346 N 
ATOM     21  H   UNL A   1      33.134  30.236  22.660  1.00  0.00     0.346 HD
ATOM     22  H   UNL A   1      34.633  29.806  23.481  1.00  0.00     0.346 HD
ENDBRANCH  14  15
ENDBRANCH  13  14
ENDBRANCH  12  13
ENDBRANCH   9  12
ENDBRANCH   6   8
BRANCH   6  23
ATOM     23  C   UNL A   1      32.943  21.165  24.981  1.00  0.00     0.422 C 
ATOM     24  F   UNL A   1      32.056  20.285  25.471  1.00  0.00    -0.168 F 
ATOM     25  F   UNL A   1      32.286  21.721  23.889  1.00  0.00    -0.168 F 
ATOM     26  F   UNL A   1      33.927  20.503  24.305  1.00  0.00    -0.168 F 
ENDBRANCH   6  23
ENDBRANCH   4   6
ENDBRANCH   3   4
ENDBRANCH   2   3
ENDBRANCH   1   2
BRANCH   1  27
ATOM     27  O   UNL A   1      38.884  22.469  25.768  1.00  0.00    -0.374 OA
BRANCH  27  28
ATOM     28  C   UNL A   1      39.816  21.520  26.267  1.00  0.00     0.202 C 
BRANCH  28  29
ATOM     29  C   UNL A   1      41.329  21.698  26.098  1.00  0.00     0.261 C 
BRANCH  29  30
ATOM     30  O   UNL A   1      41.927  22.738  26.891  1.00  0.00    -0.460 OA
BRANCH  30  31
ATOM     31  C   UNL A   1      42.166  23.874  26.188  1.00  0.00     0.338 C 
ATOM     32  O   UNL A   1      42.707  23.954  25.095  1.00  0.00    -0.246 OA
BRANCH  31  33
ATOM     33  C   UNL A   1      41.549  25.062  26.800  1.00  0.00     0.060 A 
ATOM     34  C   UNL A   1      42.327  26.226  26.845  1.00  0.00     0.016 A 
ATOM     35  C   UNL A   1      40.383  24.957  27.559  1.00  0.00     0.016 A 
ATOM     36  C   UNL A   1      42.004  27.246  27.733  1.00  0.00     0.010 A 
ATOM     37  C   UNL A   1      40.058  25.988  28.452  1.00  0.00     0.010 A 
ATOM     38  C   UNL A   1      40.909  27.101  28.595  1.00  0.00    -0.014 A 
BRANCH  38  39
ATOM     39  C   UNL A   1      40.813  28.004  29.772  1.00  0.00     0.031 A 
ATOM     40  C   UNL A   1      41.833  27.877  30.879  1.00  0.00     0.074 A 
ATOM     41  C   UNL A   1      39.904  28.994  29.812  1.00  0.00     0.049 A 
ATOM     42  N   UNL A   1      41.963  28.584  31.972  1.00  0.00    -0.248 NA
ATOM     43  C   UNL A   1      42.846  26.818  30.729  1.00  0.00     0.031 C 
ATOM     44  C   UNL A   1      38.913  29.273  28.773  1.00  0.00     0.029 A 
ATOM     45  N   UNL A   1      39.681  29.962  30.760  1.00  0.00    -0.354 N 
ATOM     46  C   UNL A   1      43.059  28.051  32.645  1.00  0.00     0.074 A 
ATOM     47  C   UNL A   1      43.539  26.941  31.851  1.00  0.00     0.031 C 
ATOM     48  C   UNL A   1      38.191  30.346  29.139  1.00  0.00     0.029 A 
ATOM     49  C   UNL A   1      38.643  30.806  30.452  1.00  0.00     0.049 A 
ATOM     50  H   UNL A   1      40.215  30.042  31.584  1.00  0.00     0.167 HD
ATOM     51  C   UNL A   1      43.622  28.451  33.811  1.00  0.00     0.031 A 
ATOM     52  C   UNL A   1      38.104  31.825  31.153  1.00  0.00     0.031 A 
ATOM     53  C   UNL A   1      43.144  29.555  34.602  1.00  0.00     0.049 A 
ATOM     54  C   UNL A   1      38.694  32.198  32.488  1.00  0.00     0.074 A 
ATOM     55  C   UNL A   1      43.653  30.041  35.794  1.00  0.00     0.029 A 
ATOM     56  N   UNL A   1      42.047  30.342  34.285  1.00  0.00    -0.354 N 
ATOM     57  N   UNL A   1      39.732  31.686  33.105  1.00  0.00    -0.248 NA
ATOM     58  C   UNL A   1      38.042  33.296  33.217  1.00  0.00     0.031 C 
ATOM     59  C   UNL A   1      42.824  31.081  36.231  1.00  0.00     0.029 A 
ATOM     60  C   UNL A   1      41.842  31.289  35.276  1.00  0.00     0.049 A 
ATOM     61  H   UNL A   1      41.494  30.241  33.478  1.00  0.00     0.167 HD
ATOM     62  C   UNL A   1      39.875  32.418  34.280  1.00  0.00     0.074 A 
ATOM     63  C   UNL A   1      38.827  33.417  34.278  1.00  0.00     0.031 C 
ATOM     64  C   UNL A   1      40.794  32.279  35.268  1.00  0.00     0.031 A 
BRANCH  51  65
ATOM     65  C   UNL A   1      44.797  27.660  34.328  1.00  0.00    -0.014 A 
ATOM     66  C   UNL A   1      44.638  26.654  35.298  1.00  0.00     0.010 A 
ATOM     67  C   UNL A   1      46.079  27.901  33.799  1.00  0.00     0.010 A 
ATOM     68  C   UNL A   1      45.745  25.934  35.759  1.00  0.00     0.020 A 
ATOM     69  C   UNL A   1      47.183  27.163  34.234  1.00  0.00     0.020 A 
ATOM     70  C   UNL A   1      47.011  26.195  35.225  1.00  0.00     0.054 A 
BRANCH  70  71
ATOM     71  S   UNL A   1      48.427  25.234  35.827  1.00  0.00     0.124 S 
ATOM     72  O   UNL A   1      48.432  24.097  34.909  1.00  0.00    -0.237 OA
ATOM     73  O   UNL A   1      49.538  26.169  35.673  1.00  0.00    -0.237 OA
ATOM     74  O   UNL A   1      48.072  24.916  37.207  1.00  0.00    -0.744 OA
ENDBRANCH  70  71
ENDBRANCH  51  65
BRANCH  52  75
ATOM     75  C   UNL A   1      36.923  32.551  30.613  1.00  0.00    -0.014 A 
ATOM     76  C   UNL A   1      35.619  32.214  31.016  1.00  0.00     0.010 A 
ATOM     77  C   UNL A   1      37.102  33.592  29.682  1.00  0.00     0.010 A 
ATOM     78  C   UNL A   1      34.516  32.893  30.487  1.00  0.00     0.020 A 
ATOM     79  C   UNL A   1      36.005  34.293  29.175  1.00  0.00     0.020 A 
ATOM     80  C   UNL A   1      34.718  33.931  29.573  1.00  0.00     0.054 A 
BRANCH  80  81
ATOM     81  S   UNL A   1      33.277  34.835  28.941  1.00  0.00     0.124 S 
ATOM     82  O   UNL A   1      32.500  35.054  30.157  1.00  0.00    -0.237 OA
ATOM     83  O   UNL A   1      33.886  36.025  28.352  1.00  0.00    -0.237 OA
ATOM     84  O   UNL A   1      32.688  33.906  27.979  1.00  0.00    -0.744 OA
ENDBRANCH  80  81
ENDBRANCH  52  75
BRANCH  64  85
ATOM     85  C   UNL A   1      40.736  33.253  36.418  1.00  0.00    -0.014 A 
ATOM     86  C   UNL A   1      41.455  34.460  36.395  1.00  0.00     0.010 A 
ATOM     87  C   UNL A   1      39.910  32.971  37.522  1.00  0.00     0.010 A 
ATOM     88  C   UNL A   1      41.380  35.349  37.472  1.00  0.00     0.020 A 
ATOM     89  C   UNL A   1      39.806  33.871  38.585  1.00  0.00     0.020 A 
ATOM     90  C   UNL A   1      40.557  35.048  38.561  1.00  0.00     0.054 A 
BRANCH  90  91
ATOM     91  S   UNL A   1      40.451  36.233  39.931  1.00  0.00     0.124 S 
ATOM     92  O   UNL A   1      41.556  35.807  40.786  1.00  0.00    -0.237 OA
ATOM     93  O   UNL A   1      40.636  37.516  39.259  1.00  0.00    -0.237 OA
ATOM     94  O   UNL A   1      39.116  36.010  40.481  1.00  0.00    -0.744 OA
ENDBRANCH  90  91
ENDBRANCH  64  85
ENDBRANCH  38  39
ENDBRANCH  31  33
ENDBRANCH  30  31
ENDBRANCH  29  30
ENDBRANCH  28  29
ENDBRANCH  27  28
ENDBRANCH   1  27
TORSDOF 23
ENDMDL
MODEL 2
REMARK VINA RESULT:     -10.5      1.709      2.266
REMARK SMILES C[C@@](NC(=O)CCOC1CC[NH2+]CC1)(C(=O)OCCOCCOC(=O)c1ccc(-c2c3nc(c(-c4ccc(S(=O)(=O)[O-])cc4)c4ccc([nH]4)c(-c4ccc(S(=O)(=O)[O-])cc4)c4nc(c(-c5ccc(S(=O)(=O)[O-])cc5)c5ccc2[nH]5)C=C4)C=C3)cc1)C(F)(F)F
REMARK SMILES IDX 19 1 18 2 17 3 15 4 16 5 2 6 1 7 3 8 4 9 5 11 6 12 7 13 8 14
REMARK SMILES IDX 9 15 10 16 14 17 11 18 13 19 12 20 86 23 87 24 88 25 89 26
REMARK SMILES IDX 20 27 21 28 22 29 23 30 24 31 25 32 26 33 27 34 85 35 28 36
REMARK SMILES IDX 84 37 29 38 30 39 31 40 78 41 32 42 83 43 77 44 79 45 33 46
REMARK SMILES IDX 82 47 76 48 75 49 34 51 64 52 45 53 63 54 46 55 49 56 62 57
REMARK SMILES IDX 80 58 47 59 48 60 61 62 81 63 50 64 35 65 36 66 44 67 37 68
REMARK SMILES IDX 43 69 38 70 39 71 40 72 41 73 42 74 65 75 66 76 74 77 67 78
REMARK SMILES IDX 73 79 68 80 69 81 70 82 71 83 72 84 51 85 52 86 60 87 53 88
REMARK SMILES IDX 59 89 54 90 55 91 56 92 57 93 58 94
REMARK H PARENT 3 10 12 21 12 22 79 50 49 61
REMARK Flexibility Score: inf
ROOT
ATOM      1  C   UNL A   1      38.319  22.594  25.709  1.00  0.00     0.202 C 
ENDROOT
BRANCH   1   2
ATOM      2  C   UNL A   1      36.984  23.347  25.716  1.00  0.00     0.261 C 
BRANCH   2   3
ATOM      3  O   UNL A   1      35.952  23.070  26.701  1.00  0.00    -0.461 OA
BRANCH   3   4
ATOM      4  C   UNL A   1      34.669  22.540  26.346  1.00  0.00     0.341 C 
ATOM      5  O   UNL A   1      34.398  21.914  27.400  1.00  0.00    -0.249 OA
BRANCH   4   6
ATOM      6  C   UNL A   1      33.628  22.823  24.501  1.00  0.00     0.231 C 
ATOM      7  C   UNL A   1      32.801  21.593  23.618  1.00  0.00     0.058 C 
BRANCH   6   8
ATOM      8  N   UNL A   1      32.281  24.034  24.220  1.00  0.00    -0.333 N 
ATOM      9  C   UNL A   1      31.480  25.030  24.724  1.00  0.00     0.223 C 
ATOM     10  H   UNL A   1      32.008  23.917  23.281  1.00  0.00     0.164 HD
ATOM     11  O   UNL A   1      30.552  25.371  23.979  1.00  0.00    -0.275 OA
BRANCH   9  12
ATOM     12  C   UNL A   1      31.685  25.816  26.044  1.00  0.00     0.128 C 
BRANCH  12  13
ATOM     13  C   UNL A   1      33.113  26.211  26.416  1.00  0.00     0.170 C 
BRANCH  13  14
ATOM     14  O   UNL A   1      33.538  27.460  25.852  1.00  0.00    -0.377 OA
BRANCH  14  15
ATOM     15  C   UNL A   1      33.023  28.528  26.638  1.00  0.00     0.129 C 
ATOM     16  C   UNL A   1      31.552  29.594  25.948  1.00  0.00     0.093 C 
ATOM     17  C   UNL A   1      34.557  29.479  27.501  1.00  0.00     0.093 C 
ATOM     18  C   UNL A   1      31.611  31.471  26.303  1.00  0.00     0.263 C 
ATOM     19  C   UNL A   1      34.409  31.369  27.874  1.00  0.00     0.263 C 
ATOM     20  N   UNL A   1      32.805  32.191  27.458  1.00  0.00    -0.346 N 
ATOM     21  H   UNL A   1      32.309  32.306  28.342  1.00  0.00     0.346 HD
ATOM     22  H   UNL A   1      33.120  33.014  26.946  1.00  0.00     0.346 HD
ENDBRANCH  14  15
ENDBRANCH  13  14
ENDBRANCH  12  13
ENDBRANCH   9  12
ENDBRANCH   6   8
BRANCH   6  23
ATOM     23  C   UNL A   1      34.308  23.460  22.940  1.00  0.00     0.422 C 
ATOM     24  F   UNL A   1      34.547  24.771  22.780  1.00  0.00    -0.168 F 
ATOM     25  F   UNL A   1      35.552  22.872  22.744  1.00  0.00    -0.168 F 
ATOM     26  F   UNL A   1      33.677  22.967  21.835  1.00  0.00    -0.168 F 
ENDBRANCH   6  23
ENDBRANCH   4   6
ENDBRANCH   3   4
ENDBRANCH   2   3
ENDBRANCH   1   2
BRANCH   1  27
ATOM     27  O   UNL A   1      39.409  23.049  26.485  1.00  0.00    -0.374 OA
BRANCH  27  28
ATOM     28  C   UNL A   1      40.524  22.200  26.712  1.00  0.00     0.202 C 
BRANCH  28  29
ATOM     29  C   UNL A   1      41.968  22.709  26.622  1.00  0.00     0.261 C 
BRANCH  29  30
ATOM     30  O   UNL A   1      42.231  23.956  27.289  1.00  0.00    -0.460 OA
BRANCH  30  31
ATOM     31  C   UNL A   1      42.025  25.039  26.495  1.00  0.00     0.338 C 
ATOM     32  O   UNL A   1      42.306  25.138  25.311  1.00  0.00    -0.246 OA
BRANCH  31  33
ATOM     33  C   UNL A   1      41.249  26.095  27.165  1.00  0.00     0.060 A 
ATOM     34  C   UNL A   1      41.786  27.388  27.137  1.00  0.00     0.016 A 
ATOM     35  C   UNL A   1      40.202  25.779  28.032  1.00  0.00     0.016 A 
ATOM     36  C   UNL A   1      41.354  28.342  28.053  1.00  0.00     0.010 A 
ATOM     37  C   UNL A   1      39.767  26.743  28.953  1.00  0.00     0.010 A 
ATOM     38  C   UNL A   1      40.394  28.002  29.015  1.00  0.00    -0.014 A 
BRANCH  38  39
ATOM     39  C   UNL A   1      40.235  28.890  30.197  1.00  0.00     0.031 A 
ATOM     40  C   UNL A   1      41.168  28.720  31.374  1.00  0.00     0.074 A 
ATOM     41  C   UNL A   1      39.350  29.903  30.187  1.00  0.00     0.049 A 
ATOM     42  N   UNL A   1      41.234  29.407  32.485  1.00  0.00    -0.248 NA
ATOM     43  C   UNL A   1      42.162  27.636  31.280  1.00  0.00     0.031 C 
ATOM     44  C   UNL A   1      38.446  30.223  29.083  1.00  0.00     0.029 A 
ATOM     45  N   UNL A   1      39.083  30.862  31.132  1.00  0.00    -0.354 N 
ATOM     46  C   UNL A   1      42.264  28.835  33.226  1.00  0.00     0.074 A 
ATOM     47  C   UNL A   1      42.773  27.725  32.451  1.00  0.00     0.031 C 
ATOM     48  C   UNL A   1      37.726  31.309  29.413  1.00  0.00     0.029 A 
ATOM     49  C   UNL A   1      38.092  31.738  30.763  1.00  0.00     0.049 A 
ATOM     50  H   UNL A   1      39.557  30.915  31.994  1.00  0.00     0.167 HD
ATOM     51  C   UNL A   1      42.750  29.203  34.437  1.00  0.00     0.031 A 
ATOM     52  C   UNL A   1      37.529  32.759  31.440  1.00  0.00     0.031 A 
ATOM     53  C   UNL A   1      42.243  30.308  35.209  1.00  0.00     0.049 A 
ATOM     54  C   UNL A   1      38.029  33.097  32.820  1.00  0.00     0.074 A 
ATOM     55  C   UNL A   1      42.675  30.762  36.443  1.00  0.00     0.029 A 
ATOM     56  N   UNL A   1      41.192  31.127  34.827  1.00  0.00    -0.354 N 
ATOM     57  N   UNL A   1      39.005  32.549  33.503  1.00  0.00    -0.248 NA
ATOM     58  C   UNL A   1      37.352  34.201  33.518  1.00  0.00     0.031 C 
ATOM     59  C   UNL A   1      41.842  31.817  36.836  1.00  0.00     0.029 A 
ATOM     60  C   UNL A   1      40.940  32.065  35.815  1.00  0.00     0.049 A 
ATOM     61  H   UNL A   1      40.698  31.053  33.979  1.00  0.00     0.167 HD
ATOM     62  C   UNL A   1      39.079  33.260  34.697  1.00  0.00     0.074 A 
ATOM     63  C   UNL A   1      38.060  34.286  34.636  1.00  0.00     0.031 C 
ATOM     64  C   UNL A   1      39.920  33.082  35.747  1.00  0.00     0.031 A 
BRANCH  51  65
ATOM     65  C   UNL A   1      43.863  28.374  35.025  1.00  0.00    -0.014 A 
ATOM     66  C   UNL A   1      43.620  27.110  35.593  1.00  0.00     0.010 A 
ATOM     67  C   UNL A   1      45.186  28.853  34.968  1.00  0.00     0.010 A 
ATOM     68  C   UNL A   1      44.672  26.361  36.130  1.00  0.00     0.020 A 
ATOM     69  C   UNL A   1      46.245  28.094  35.476  1.00  0.00     0.020 A 
ATOM     70  C   UNL A   1      45.977  26.859  36.070  1.00  0.00     0.054 A 
BRANCH  70  71
ATOM     71  S   UNL A   1      47.326  25.859  36.757  1.00  0.00     0.124 S 
ATOM     72  O   UNL A   1      48.019  25.417  35.549  1.00  0.00    -0.237 OA
ATOM     73  O   UNL A   1      48.052  26.822  37.580  1.00  0.00    -0.237 OA
ATOM     74  O   UNL A   1      46.637  24.805  37.498  1.00  0.00    -0.744 OA
ENDBRANCH  70  71
ENDBRANCH  51  65
BRANCH  52  75
ATOM     75  C   UNL A   1      36.409  33.525  30.827  1.00  0.00    -0.014 A 
ATOM     76  C   UNL A   1      36.572  34.187  29.598  1.00  0.00     0.010 A 
ATOM     77  C   UNL A   1      35.164  33.596  31.481  1.00  0.00     0.010 A 
ATOM     78  C   UNL A   1      35.516  34.918  29.042  1.00  0.00     0.020 A 
ATOM     79  C   UNL A   1      34.099  34.299  30.915  1.00  0.00     0.020 A 
ATOM     80  C   UNL A   1      34.285  34.965  29.704  1.00  0.00     0.054 A 
BRANCH  80  81
ATOM     81  S   UNL A   1      32.913  35.873  28.938  1.00  0.00     0.124 S 
ATOM     82  O   UNL A   1      32.127  36.273  30.101  1.00  0.00    -0.237 OA
ATOM     83  O   UNL A   1      33.604  36.952  28.237  1.00  0.00    -0.237 OA
ATOM     84  O   UNL A   1      32.288  34.878  28.071  1.00  0.00    -0.744 OA
ENDBRANCH  80  81
ENDBRANCH  52  75
BRANCH  64  85
ATOM     85  C   UNL A   1      39.802  34.040  36.906  1.00  0.00    -0.014 A 
ATOM     86  C   UNL A   1      40.537  35.238  36.947  1.00  0.00     0.010 A 
ATOM     87  C   UNL A   1      38.905  33.753  37.951  1.00  0.00     0.010 A 
ATOM     88  C   UNL A   1      40.405  36.112  38.030  1.00  0.00     0.020 A 
ATOM     89  C   UNL A   1      38.746  34.640  39.020  1.00  0.00     0.020 A 
ATOM     90  C   UNL A   1      39.511  35.806  39.060  1.00  0.00     0.054 A 
BRANCH  90  91
ATOM     91  S   UNL A   1      39.335  36.973  40.439  1.00  0.00     0.124 S 
ATOM     92  O   UNL A   1      38.597  36.178  41.417  1.00  0.00    -0.237 OA
ATOM     93  O   UNL A   1      40.722  37.268  40.787  1.00  0.00    -0.237 OA
ATOM     94  O   UNL A   1      38.593  38.089  39.857  1.00  0.00    -0.744 OA
ENDBRANCH  90  91
ENDBRANCH  64  85
ENDBRANCH  38  39
ENDBRANCH  31  33
ENDBRANCH  30  31
ENDBRANCH  29  30
ENDBRANCH  28  29
ENDBRANCH  27  28
ENDBRANCH   1  27
TORSDOF 23
ENDMDL
MODEL 3
REMARK VINA RESULT:      -9.3      5.288      7.865
REMARK SMILES C[C@@](NC(=O)CCOC1CC[NH2+]CC1)(C(=O)OCCOCCOC(=O)c1ccc(-c2c3nc(c(-c4ccc(S(=O)(=O)[O-])cc4)c4ccc([nH]4)c(-c4ccc(S(=O)(=O)[O-])cc4)c4nc(c(-c5ccc(S(=O)(=O)[O-])cc5)c5ccc2[nH]5)C=C4)C=C3)cc1)C(F)(F)F
REMARK SMILES IDX 19 1 18 2 17 3 15 4 16 5 2 6 1 7 3 8 4 9 5 11 6 12 7 13 8 14
REMARK SMILES IDX 9 15 10 16 14 17 11 18 13 19 12 20 86 23 87 24 88 25 89 26
REMARK SMILES IDX 20 27 21 28 22 29 23 30 24 31 25 32 26 33 27 34 85 35 28 36
REMARK SMILES IDX 84 37 29 38 30 39 31 40 78 41 32 42 83 43 77 44 79 45 33 46
REMARK SMILES IDX 82 47 76 48 75 49 34 51 64 52 45 53 63 54 46 55 49 56 62 57
REMARK SMILES IDX 80 58 47 59 48 60 61 62 81 63 50 64 35 65 36 66 44 67 37 68
REMARK SMILES IDX 43 69 38 70 39 71 40 72 41 73 42 74 65 75 66 76 74 77 67 78
REMARK SMILES IDX 73 79 68 80 69 81 70 82 71 83 72 84 51 85 52 86 60 87 53 88
REMARK SMILES IDX 59 89 54 90 55 91 56 92 57 93 58 94
REMARK H PARENT 3 10 12 21 12 22 79 50 49 61
REMARK Flexibility Score: inf
ROOT
ATOM      1  C   UNL A   1      46.727  25.916  26.136  1.00  0.00     0.202 C 
ENDROOT
BRANCH   1   2
ATOM      2  C   UNL A   1      46.289  27.128  25.305  1.00  0.00     0.261 C 
BRANCH   2   3
ATOM      3  O   UNL A   1      47.134  28.300  25.155  1.00  0.00    -0.461 OA
BRANCH   3   4
ATOM      4  C   UNL A   1      47.029  29.441  26.015  1.00  0.00     0.341 C 
ATOM      5  O   UNL A   1      46.247  30.150  25.336  1.00  0.00    -0.249 OA
BRANCH   4   6
ATOM      6  C   UNL A   1      47.993  29.719  27.902  1.00  0.00     0.231 C 
ATOM      7  C   UNL A   1      49.183  30.919  28.253  1.00  0.00     0.058 C 
BRANCH   6   8
ATOM      8  N   UNL A   1      47.136  29.997  29.498  1.00  0.00    -0.333 N 
ATOM      9  C   UNL A   1      45.984  30.342  30.163  1.00  0.00     0.223 C 
ATOM     10  H   UNL A   1      47.806  29.815  30.197  1.00  0.00     0.164 HD
ATOM     11  O   UNL A   1      46.123  30.514  31.381  1.00  0.00    -0.275 OA
BRANCH   9  12
ATOM     12  C   UNL A   1      44.554  30.427  29.571  1.00  0.00     0.128 C 
BRANCH  12  13
ATOM     13  C   UNL A   1      43.629  31.517  30.110  1.00  0.00     0.170 C 
BRANCH  13  14
ATOM     14  O   UNL A   1      44.035  32.850  29.767  1.00  0.00    -0.377 OA
BRANCH  14  15
ATOM     15  C   UNL A   1      43.329  33.269  28.606  1.00  0.00     0.129 C 
ATOM     16  C   UNL A   1      44.206  33.179  26.874  1.00  0.00     0.093 C 
ATOM     17  C   UNL A   1      42.292  34.920  29.056  1.00  0.00     0.093 C 
ATOM     18  C   UNL A   1      43.863  34.616  25.662  1.00  0.00     0.263 C 
ATOM     19  C   UNL A   1      41.957  36.232  27.678  1.00  0.00     0.263 C 
ATOM     20  N   UNL A   1      42.576  35.849  25.977  1.00  0.00    -0.346 N 
ATOM     21  H   UNL A   1      41.761  35.551  25.441  1.00  0.00     0.346 HD
ATOM     22  H   UNL A   1      43.052  36.716  25.730  1.00  0.00     0.346 HD
ENDBRANCH  14  15
ENDBRANCH  13  14
ENDBRANCH  12  13
ENDBRANCH   9  12
ENDBRANCH   6   8
BRANCH   6  23
ATOM     23  C   UNL A   1      48.976  28.501  28.826  1.00  0.00     0.422 C 
ATOM     24  F   UNL A   1      48.377  27.541  29.547  1.00  0.00    -0.168 F 
ATOM     25  F   UNL A   1      49.749  27.793  27.912  1.00  0.00    -0.168 F 
ATOM     26  F   UNL A   1      49.988  29.061  29.551  1.00  0.00    -0.168 F 
ENDBRANCH   6  23
ENDBRANCH   4   6
ENDBRANCH   3   4
ENDBRANCH   2   3
ENDBRANCH   1   2
BRANCH   1  27
ATOM     27  O   UNL A   1      46.880  24.646  25.534  1.00  0.00    -0.374 OA
BRANCH  27  28
ATOM     28  C   UNL A   1      45.828  23.694  25.604  1.00  0.00     0.202 C 
BRANCH  28  29
ATOM     29  C   UNL A   1      44.689  23.662  24.578  1.00  0.00     0.261 C 
BRANCH  29  30
ATOM     30  O   UNL A   1      43.664  24.655  24.754  1.00  0.00    -0.460 OA
BRANCH  30  31
ATOM     31  C   UNL A   1      42.562  24.178  25.387  1.00  0.00     0.338 C 
ATOM     32  O   UNL A   1      42.228  23.007  25.485  1.00  0.00    -0.246 OA
BRANCH  31  33
ATOM     33  C   UNL A   1      41.836  25.222  26.129  1.00  0.00     0.060 A 
ATOM     34  C   UNL A   1      42.378  26.513  26.095  1.00  0.00     0.016 A 
ATOM     35  C   UNL A   1      40.845  24.891  27.053  1.00  0.00     0.016 A 
ATOM     36  C   UNL A   1      42.012  27.447  27.058  1.00  0.00     0.010 A 
ATOM     37  C   UNL A   1      40.476  25.835  28.022  1.00  0.00     0.010 A 
ATOM     38  C   UNL A   1      41.113  27.090  28.072  1.00  0.00    -0.014 A 
BRANCH  38  39
ATOM     39  C   UNL A   1      41.035  27.951  29.281  1.00  0.00     0.031 A 
ATOM     40  C   UNL A   1      42.082  27.800  30.359  1.00  0.00     0.074 A 
ATOM     41  C   UNL A   1      40.115  28.929  29.376  1.00  0.00     0.049 A 
ATOM     42  N   UNL A   1      42.229  28.471  31.473  1.00  0.00    -0.248 NA
ATOM     43  C   UNL A   1      43.103  26.758  30.149  1.00  0.00     0.031 C 
ATOM     44  C   UNL A   1      39.096  29.230  28.371  1.00  0.00     0.029 A 
ATOM     45  N   UNL A   1      39.904  29.860  30.361  1.00  0.00    -0.354 N 
ATOM     46  C   UNL A   1      43.347  27.928  32.101  1.00  0.00     0.074 A 
ATOM     47  C   UNL A   1      43.821  26.852  31.259  1.00  0.00     0.031 C 
ATOM     48  C   UNL A   1      38.371  30.281  28.790  1.00  0.00     0.029 A 
ATOM     49  C   UNL A   1      38.849  30.702  30.106  1.00  0.00     0.049 A 
ATOM     50  H   UNL A   1      40.456  29.919  31.175  1.00  0.00     0.167 HD
ATOM     51  C   UNL A   1      43.932  28.296  33.266  1.00  0.00     0.031 A 
ATOM     52  C   UNL A   1      38.315  31.689  30.854  1.00  0.00     0.031 A 
ATOM     53  C   UNL A   1      43.461  29.366  34.106  1.00  0.00     0.049 A 
ATOM     54  C   UNL A   1      38.932  32.024  32.187  1.00  0.00     0.074 A 
ATOM     55  C   UNL A   1      43.992  29.818  35.301  1.00  0.00     0.029 A 
ATOM     56  N   UNL A   1      42.347  30.149  33.842  1.00  0.00    -0.354 N 
ATOM     57  N   UNL A   1      39.990  31.504  32.763  1.00  0.00    -0.248 NA
ATOM     58  C   UNL A   1      38.285  33.088  32.968  1.00  0.00     0.031 C 
ATOM     59  C   UNL A   1      43.161  30.831  35.794  1.00  0.00     0.029 A 
ATOM     60  C   UNL A   1      42.156  31.060  34.868  1.00  0.00     0.049 A 
ATOM     61  H   UNL A   1      41.777  30.070  33.044  1.00  0.00     0.167 HD
ATOM     62  C   UNL A   1      40.152  32.198  33.958  1.00  0.00     0.074 A 
ATOM     63  C   UNL A   1      39.093  33.184  34.015  1.00  0.00     0.031 C 
ATOM     64  C   UNL A   1      41.096  32.036  34.919  1.00  0.00     0.031 A 
BRANCH  51  65
ATOM     65  C   UNL A   1      45.128  27.502  33.729  1.00  0.00    -0.014 A 
ATOM     66  C   UNL A   1      44.996  26.196  34.234  1.00  0.00     0.010 A 
ATOM     67  C   UNL A   1      46.415  28.061  33.614  1.00  0.00     0.010 A 
ATOM     68  C   UNL A   1      46.122  25.482  34.654  1.00  0.00     0.020 A 
ATOM     69  C   UNL A   1      47.547  27.339  34.004  1.00  0.00     0.020 A 
ATOM     70  C   UNL A   1      47.390  26.059  34.538  1.00  0.00     0.054 A 
BRANCH  70  71
ATOM     71  S   UNL A   1      48.837  25.103  35.073  1.00  0.00     0.124 S 
ATOM     72  O   UNL A   1      48.825  23.987  34.130  1.00  0.00    -0.237 OA
ATOM     73  O   UNL A   1      49.930  26.056  34.904  1.00  0.00    -0.237 OA
ATOM     74  O   UNL A   1      48.530  24.750  36.457  1.00  0.00    -0.744 OA
ENDBRANCH  70  71
ENDBRANCH  51  65
BRANCH  52  75
ATOM     75  C   UNL A   1      37.113  32.419  30.367  1.00  0.00    -0.014 A 
ATOM     76  C   UNL A   1      35.821  32.030  30.761  1.00  0.00     0.010 A 
ATOM     77  C   UNL A   1      37.260  33.516  29.497  1.00  0.00     0.010 A 
ATOM     78  C   UNL A   1      34.698  32.713  30.281  1.00  0.00     0.020 A 
ATOM     79  C   UNL A   1      36.144  34.220  29.040  1.00  0.00     0.020 A 
ATOM     80  C   UNL A   1      34.869  33.807  29.427  1.00  0.00     0.054 A 
BRANCH  80  81
ATOM     81  S   UNL A   1      33.402  34.713  28.860  1.00  0.00     0.124 S 
ATOM     82  O   UNL A   1      33.990  35.935  28.320  1.00  0.00    -0.237 OA
ATOM     83  O   UNL A   1      32.827  33.797  27.878  1.00  0.00    -0.237 OA
ATOM     84  O   UNL A   1      32.614  34.882  30.079  1.00  0.00    -0.744 OA
ENDBRANCH  80  81
ENDBRANCH  52  75
BRANCH  64  85
ATOM     85  C   UNL A   1      41.054  32.970  36.102  1.00  0.00    -0.014 A 
ATOM     86  C   UNL A   1      41.767  34.182  36.109  1.00  0.00     0.010 A 
ATOM     87  C   UNL A   1      40.249  32.646  37.210  1.00  0.00     0.010 A 
ATOM     88  C   UNL A   1      41.706  35.033  37.216  1.00  0.00     0.020 A 
ATOM     89  C   UNL A   1      40.160  33.508  38.306  1.00  0.00     0.020 A 
ATOM     90  C   UNL A   1      40.904  34.689  38.309  1.00  0.00     0.054 A 
BRANCH  90  91
ATOM     91  S   UNL A   1      40.818  35.826  39.721  1.00  0.00     0.124 S 
ATOM     92  O   UNL A   1      39.407  35.746  40.090  1.00  0.00    -0.237 OA
ATOM     93  O   UNL A   1      41.751  35.226  40.671  1.00  0.00    -0.237 OA
ATOM     94  O   UNL A   1      41.243  37.107  39.162  1.00  0.00    -0.744 OA
ENDBRANCH  90  91
ENDBRANCH  64  85
ENDBRANCH  38  39
ENDBRANCH  31  33
ENDBRANCH  30  31
ENDBRANCH  29  30
ENDBRANCH  28  29
ENDBRANCH  27  28
ENDBRANCH   1  27
TORSDOF 23
ENDMDL
