MODEL 1
REMARK VINA RESULT:     -10.5      0.000      0.000
REMARK SMILES CC(C)Cn1ncnc1C[N@H+]1CC[C@H](C(=O)OCCOCCOC(=O)c2ccc(-c3c4nc(c(-c5ccc(S(=O)(=O)[O-])cc5)c5ccc([nH]5)c(-c5ccc(S(=O)(=O)[O-])cc5)c5nc(c(-c6ccc(S(=O)(=O)[O-])cc6)c6ccc3[nH]6)C=C5)C=C4)cc2)[C@@H]1C
REMARK SMILES IDX 19 1 18 2 17 3 15 4 16 5 14 6 11 7 12 8 86 9 13 11 87 12
REMARK SMILES IDX 10 13 9 14 5 15 6 16 7 17 8 18 4 19 2 20 1 21 3 22 20 23
REMARK SMILES IDX 21 24 22 25 23 26 24 27 25 28 26 29 27 30 85 31 28 32 84 33
REMARK SMILES IDX 29 34 30 35 31 36 78 37 32 38 83 39 77 40 79 41 33 42 82 43
REMARK SMILES IDX 76 44 75 45 34 47 64 48 45 49 63 50 46 51 49 52 62 53 80 54
REMARK SMILES IDX 47 55 48 56 61 58 81 59 50 60 35 61 36 62 44 63 37 64 43 65
REMARK SMILES IDX 38 66 39 67 40 68 41 69 42 70 65 71 66 72 74 73 67 74 73 75
REMARK SMILES IDX 68 76 69 77 70 78 71 79 72 80 51 81 52 82 60 83 53 84 59 85
REMARK SMILES IDX 54 86 55 87 56 88 57 89 58 90
REMARK H PARENT 11 10 79 46 49 57
REMARK Flexibility Score: inf
ROOT
ATOM      1  C   UNL A   1      39.675  20.922  26.432  1.00  0.00     0.202 C 
ENDROOT
BRANCH   1   2
ATOM      2  C   UNL A   1      38.545  21.406  25.529  1.00  0.00     0.261 C 
BRANCH   2   3
ATOM      3  O   UNL A   1      37.774  22.442  26.154  1.00  0.00    -0.463 OA
BRANCH   3   4
ATOM      4  C   UNL A   1      36.638  22.818  25.508  1.00  0.00     0.315 C 
ATOM      5  O   UNL A   1      36.494  23.867  24.892  1.00  0.00    -0.252 OA
BRANCH   4   6
ATOM      6  C   UNL A   1      35.534  21.794  25.660  1.00  0.00     0.162 C 
ATOM      7  N   UNL A   1      33.226  21.770  24.951  1.00  0.00    -0.326 N 
ATOM      8  C   UNL A   1      33.347  22.571  26.165  1.00  0.00     0.263 C 
ATOM      9  C   UNL A   1      34.608  21.679  24.428  1.00  0.00     0.195 C 
ATOM     10  H   UNL A   1      32.605  22.216  24.276  1.00  0.00     0.348 HD
ATOM     11  C   UNL A   1      34.601  22.061  26.843  1.00  0.00     0.083 C 
ATOM     12  C   UNL A   1      34.760  22.795  23.385  1.00  0.00     0.076 C 
BRANCH   7  13
ATOM     13  C   UNL A   1      32.509  20.480  25.102  1.00  0.00     0.340 C 
BRANCH  13  14
ATOM     14  C   UNL A   1      32.468  19.534  23.933  1.00  0.00     0.182 A 
ATOM     15  N   UNL A   1      32.630  18.163  23.988  1.00  0.00    -0.245 N 
ATOM     16  N   UNL A   1      32.548  17.627  22.749  1.00  0.00    -0.159 NA
ATOM     17  C   UNL A   1      32.293  18.695  22.000  1.00  0.00     0.246 A 
ATOM     18  N   UNL A   1      32.214  19.869  22.678  1.00  0.00    -0.214 NA
BRANCH  15  19
ATOM     19  C   UNL A   1      32.720  17.263  25.126  1.00  0.00     0.149 C 
BRANCH  19  20
ATOM     20  C   UNL A   1      33.371  15.897  24.836  1.00  0.00     0.004 C 
ATOM     21  C   UNL A   1      34.854  15.896  25.162  1.00  0.00     0.009 C 
ATOM     22  C   UNL A   1      32.695  14.787  25.639  1.00  0.00     0.009 C 
ENDBRANCH  19  20
ENDBRANCH  15  19
ENDBRANCH  13  14
ENDBRANCH   7  13
ENDBRANCH   4   6
ENDBRANCH   3   4
ENDBRANCH   2   3
ENDBRANCH   1   2
BRANCH   1  23
ATOM     23  O   UNL A   1      40.730  20.168  25.838  1.00  0.00    -0.374 OA
BRANCH  23  24
ATOM     24  C   UNL A   1      42.086  20.582  25.997  1.00  0.00     0.202 C 
BRANCH  24  25
ATOM     25  C   UNL A   1      42.367  21.748  26.944  1.00  0.00     0.261 C 
BRANCH  25  26
ATOM     26  O   UNL A   1      42.456  22.968  26.223  1.00  0.00    -0.460 OA
BRANCH  26  27
ATOM     27  C   UNL A   1      41.682  23.963  26.704  1.00  0.00     0.338 C 
ATOM     28  O   UNL A   1      40.601  23.849  27.273  1.00  0.00    -0.246 OA
BRANCH  27  29
ATOM     29  C   UNL A   1      42.310  25.254  26.383  1.00  0.00     0.060 A 
ATOM     30  C   UNL A   1      43.329  25.602  27.264  1.00  0.00     0.016 A 
ATOM     31  C   UNL A   1      41.536  26.213  25.716  1.00  0.00     0.016 A 
ATOM     32  C   UNL A   1      43.225  26.832  27.855  1.00  0.00     0.010 A 
ATOM     33  C   UNL A   1      41.447  27.451  26.289  1.00  0.00     0.010 A 
ATOM     34  C   UNL A   1      42.180  27.667  27.450  1.00  0.00    -0.014 A 
BRANCH  34  35
ATOM     35  C   UNL A   1      41.881  28.818  28.263  1.00  0.00     0.031 A 
ATOM     36  C   UNL A   1      42.952  29.822  28.164  1.00  0.00     0.074 A 
ATOM     37  C   UNL A   1      40.717  28.955  28.923  1.00  0.00     0.049 A 
ATOM     38  N   UNL A   1      43.890  30.054  29.020  1.00  0.00    -0.248 NA
ATOM     39  C   UNL A   1      43.164  30.431  26.840  1.00  0.00     0.031 C 
ATOM     40  C   UNL A   1      39.502  28.135  28.855  1.00  0.00     0.029 A 
ATOM     41  N   UNL A   1      40.345  29.959  29.751  1.00  0.00    -0.354 N 
ATOM     42  C   UNL A   1      44.676  31.024  28.418  1.00  0.00     0.074 A 
ATOM     43  C   UNL A   1      44.359  30.992  27.013  1.00  0.00     0.031 C 
ATOM     44  C   UNL A   1      38.469  28.824  29.402  1.00  0.00     0.029 A 
ATOM     45  C   UNL A   1      38.979  30.060  29.976  1.00  0.00     0.049 A 
ATOM     46  H   UNL A   1      40.995  30.573  30.163  1.00  0.00     0.167 HD
ATOM     47  C   UNL A   1      45.267  32.010  29.144  1.00  0.00     0.031 A 
ATOM     48  C   UNL A   1      38.342  31.133  30.515  1.00  0.00     0.031 A 
ATOM     49  C   UNL A   1      45.273  31.710  30.551  1.00  0.00     0.049 A 
ATOM     50  C   UNL A   1      39.381  31.937  31.218  1.00  0.00     0.074 A 
ATOM     51  C   UNL A   1      45.842  30.724  31.331  1.00  0.00     0.029 A 
ATOM     52  N   UNL A   1      44.257  32.257  31.303  1.00  0.00    -0.354 N 
ATOM     53  N   UNL A   1      40.036  31.496  32.257  1.00  0.00    -0.248 NA
ATOM     54  C   UNL A   1      40.050  32.992  30.469  1.00  0.00     0.031 C 
ATOM     55  C   UNL A   1      44.860  30.422  32.321  1.00  0.00     0.029 A 
ATOM     56  C   UNL A   1      43.772  31.280  32.137  1.00  0.00     0.049 A 
ATOM     57  H   UNL A   1      43.935  33.185  31.251  1.00  0.00     0.167 HD
ATOM     58  C   UNL A   1      41.350  31.904  32.062  1.00  0.00     0.074 A 
ATOM     59  C   UNL A   1      41.280  32.889  30.982  1.00  0.00     0.031 C 
ATOM     60  C   UNL A   1      42.396  31.195  32.583  1.00  0.00     0.031 A 
BRANCH  47  61
ATOM     61  C   UNL A   1      45.411  33.412  28.610  1.00  0.00    -0.014 A 
ATOM     62  C   UNL A   1      46.577  34.137  28.905  1.00  0.00     0.010 A 
ATOM     63  C   UNL A   1      44.331  34.130  28.048  1.00  0.00     0.010 A 
ATOM     64  C   UNL A   1      46.637  35.520  28.688  1.00  0.00     0.020 A 
ATOM     65  C   UNL A   1      44.396  35.493  27.781  1.00  0.00     0.020 A 
ATOM     66  C   UNL A   1      45.541  36.188  28.134  1.00  0.00     0.054 A 
BRANCH  66  67
ATOM     67  S   UNL A   1      45.587  37.984  27.951  1.00  0.00     0.124 S 
ATOM     68  O   UNL A   1      46.838  38.321  28.621  1.00  0.00    -0.237 OA
ATOM     69  O   UNL A   1      45.576  38.144  26.500  1.00  0.00    -0.237 OA
ATOM     70  O   UNL A   1      44.372  38.428  28.631  1.00  0.00    -0.744 OA
ENDBRANCH  66  67
ENDBRANCH  47  61
BRANCH  48  71
ATOM     71  C   UNL A   1      37.034  31.708  30.093  1.00  0.00    -0.014 A 
ATOM     72  C   UNL A   1      36.036  32.046  31.028  1.00  0.00     0.010 A 
ATOM     73  C   UNL A   1      36.882  32.194  28.777  1.00  0.00     0.010 A 
ATOM     74  C   UNL A   1      34.952  32.875  30.669  1.00  0.00     0.020 A 
ATOM     75  C   UNL A   1      35.809  33.017  28.413  1.00  0.00     0.020 A 
ATOM     76  C   UNL A   1      34.856  33.370  29.366  1.00  0.00     0.054 A 
BRANCH  76  77
ATOM     77  S   UNL A   1      33.554  34.569  28.944  1.00  0.00     0.124 S 
ATOM     78  O   UNL A   1      34.325  35.707  28.452  1.00  0.00    -0.237 OA
ATOM     79  O   UNL A   1      32.772  33.853  27.940  1.00  0.00    -0.237 OA
ATOM     80  O   UNL A   1      32.867  34.791  30.216  1.00  0.00    -0.744 OA
ENDBRANCH  76  77
ENDBRANCH  48  71
BRANCH  60  81
ATOM     81  C   UNL A   1      42.077  30.076  33.554  1.00  0.00    -0.014 A 
ATOM     82  C   UNL A   1      41.760  28.760  33.157  1.00  0.00     0.010 A 
ATOM     83  C   UNL A   1      42.272  30.331  34.921  1.00  0.00     0.010 A 
ATOM     84  C   UNL A   1      41.630  27.732  34.107  1.00  0.00     0.020 A 
ATOM     85  C   UNL A   1      42.157  29.312  35.870  1.00  0.00     0.020 A 
ATOM     86  C   UNL A   1      41.831  28.018  35.461  1.00  0.00     0.054 A 
BRANCH  86  87
ATOM     87  S   UNL A   1      41.720  26.681  36.686  1.00  0.00     0.124 S 
ATOM     88  O   UNL A   1      40.492  27.009  37.404  1.00  0.00    -0.237 OA
ATOM     89  O   UNL A   1      41.662  25.481  35.854  1.00  0.00    -0.237 OA
ATOM     90  O   UNL A   1      42.949  26.822  37.467  1.00  0.00    -0.744 OA
ENDBRANCH  86  87
ENDBRANCH  60  81
ENDBRANCH  34  35
ENDBRANCH  27  29
ENDBRANCH  26  27
ENDBRANCH  25  26
ENDBRANCH  24  25
ENDBRANCH  23  24
ENDBRANCH   1  23
TORSDOF 21
ENDMDL
MODEL 2
REMARK VINA RESULT:     -10.5      3.013      4.571
REMARK SMILES CC(C)Cn1ncnc1C[N@H+]1CC[C@H](C(=O)OCCOCCOC(=O)c2ccc(-c3c4nc(c(-c5ccc(S(=O)(=O)[O-])cc5)c5ccc([nH]5)c(-c5ccc(S(=O)(=O)[O-])cc5)c5nc(c(-c6ccc(S(=O)(=O)[O-])cc6)c6ccc3[nH]6)C=C5)C=C4)cc2)[C@@H]1C
REMARK SMILES IDX 19 1 18 2 17 3 15 4 16 5 14 6 11 7 12 8 86 9 13 11 87 12
REMARK SMILES IDX 10 13 9 14 5 15 6 16 7 17 8 18 4 19 2 20 1 21 3 22 20 23
REMARK SMILES IDX 21 24 22 25 23 26 24 27 25 28 26 29 27 30 85 31 28 32 84 33
REMARK SMILES IDX 29 34 30 35 31 36 78 37 32 38 83 39 77 40 79 41 33 42 82 43
REMARK SMILES IDX 76 44 75 45 34 47 64 48 45 49 63 50 46 51 49 52 62 53 80 54
REMARK SMILES IDX 47 55 48 56 61 58 81 59 50 60 35 61 36 62 44 63 37 64 43 65
REMARK SMILES IDX 38 66 39 67 40 68 41 69 42 70 65 71 66 72 74 73 67 74 73 75
REMARK SMILES IDX 68 76 69 77 70 78 71 79 72 80 51 81 52 82 60 83 53 84 59 85
REMARK SMILES IDX 54 86 55 87 56 88 57 89 58 90
REMARK H PARENT 11 10 79 46 49 57
REMARK Flexibility Score: inf
ROOT
ATOM      1  C   UNL A   1      37.970  21.454  25.457  1.00  0.00     0.202 C 
ENDROOT
BRANCH   1   2
ATOM      2  C   UNL A   1      37.028  22.543  24.956  1.00  0.00     0.261 C 
BRANCH   2   3
ATOM      3  O   UNL A   1      35.886  22.692  25.811  1.00  0.00    -0.463 OA
BRANCH   3   4
ATOM      4  C   UNL A   1      34.790  21.956  25.485  1.00  0.00     0.315 C 
ATOM      5  O   UNL A   1      34.759  20.732  25.422  1.00  0.00    -0.252 OA
BRANCH   4   6
ATOM      6  C   UNL A   1      33.594  22.827  25.170  1.00  0.00     0.162 C 
ATOM      7  N   UNL A   1      31.413  23.029  26.186  1.00  0.00    -0.326 N 
ATOM      8  C   UNL A   1      31.432  21.856  25.316  1.00  0.00     0.263 C 
ATOM      9  C   UNL A   1      32.842  23.340  26.418  1.00  0.00     0.195 C 
ATOM     10  H   UNL A   1      30.932  22.830  27.063  1.00  0.00     0.348 HD
ATOM     11  C   UNL A   1      32.531  22.133  24.314  1.00  0.00     0.083 C 
ATOM     12  C   UNL A   1      33.231  22.666  27.742  1.00  0.00     0.076 C 
BRANCH   7  13
ATOM     13  C   UNL A   1      30.577  24.161  25.718  1.00  0.00     0.340 C 
BRANCH  13  14
ATOM     14  C   UNL A   1      31.109  25.561  25.861  1.00  0.00     0.182 A 
ATOM     15  N   UNL A   1      31.480  26.401  24.827  1.00  0.00    -0.245 N 
ATOM     16  N   UNL A   1      31.927  27.581  25.314  1.00  0.00    -0.159 NA
ATOM     17  C   UNL A   1      31.765  27.421  26.624  1.00  0.00     0.246 A 
ATOM     18  N   UNL A   1      31.253  26.220  26.999  1.00  0.00    -0.214 NA
BRANCH  15  19
ATOM     19  C   UNL A   1      31.326  26.260  23.389  1.00  0.00     0.149 C 
BRANCH  19  20
ATOM     20  C   UNL A   1      32.625  26.395  22.571  1.00  0.00     0.004 C 
ATOM     21  C   UNL A   1      33.839  25.926  23.355  1.00  0.00     0.009 C 
ATOM     22  C   UNL A   1      32.542  25.589  21.275  1.00  0.00     0.009 C 
ENDBRANCH  19  20
ENDBRANCH  15  19
ENDBRANCH  13  14
ENDBRANCH   7  13
ENDBRANCH   4   6
ENDBRANCH   3   4
ENDBRANCH   2   3
ENDBRANCH   1   2
BRANCH   1  23
ATOM     23  O   UNL A   1      39.347  21.785  25.627  1.00  0.00    -0.374 OA
BRANCH  23  24
ATOM     24  C   UNL A   1      40.042  21.382  26.806  1.00  0.00     0.202 C 
BRANCH  24  25
ATOM     25  C   UNL A   1      41.558  21.567  26.836  1.00  0.00     0.261 C 
BRANCH  25  26
ATOM     26  O   UNL A   1      42.100  21.472  25.527  1.00  0.00    -0.460 OA
BRANCH  26  27
ATOM     27  C   UNL A   1      43.399  21.112  25.481  1.00  0.00     0.338 C 
ATOM     28  O   UNL A   1      43.857  19.981  25.602  1.00  0.00    -0.246 OA
BRANCH  27  29
ATOM     29  C   UNL A   1      44.223  22.320  25.320  1.00  0.00     0.060 A 
ATOM     30  C   UNL A   1      45.085  22.541  26.391  1.00  0.00     0.016 A 
ATOM     31  C   UNL A   1      43.710  23.366  24.542  1.00  0.00     0.016 A 
ATOM     32  C   UNL A   1      45.012  23.773  26.982  1.00  0.00     0.010 A 
ATOM     33  C   UNL A   1      43.657  24.605  25.119  1.00  0.00     0.010 A 
ATOM     34  C   UNL A   1      44.170  24.729  26.404  1.00  0.00    -0.014 A 
BRANCH  34  35
ATOM     35  C   UNL A   1      43.855  25.904  27.174  1.00  0.00     0.031 A 
ATOM     36  C   UNL A   1      44.876  26.946  26.982  1.00  0.00     0.074 A 
ATOM     37  C   UNL A   1      42.714  26.025  27.877  1.00  0.00     0.049 A 
ATOM     38  N   UNL A   1      45.837  27.259  27.784  1.00  0.00    -0.248 NA
ATOM     39  C   UNL A   1      45.006  27.497  25.622  1.00  0.00     0.031 C 
ATOM     40  C   UNL A   1      41.535  25.153  27.901  1.00  0.00     0.029 A 
ATOM     41  N   UNL A   1      42.333  27.052  28.671  1.00  0.00    -0.354 N 
ATOM     42  C   UNL A   1      46.555  28.230  27.103  1.00  0.00     0.074 A 
ATOM     43  C   UNL A   1      46.182  28.116  25.717  1.00  0.00     0.031 C 
ATOM     44  C   UNL A   1      40.496  25.824  28.458  1.00  0.00     0.029 A 
ATOM     45  C   UNL A   1      40.974  27.107  28.951  1.00  0.00     0.049 A 
ATOM     46  H   UNL A   1      42.972  27.713  29.025  1.00  0.00     0.167 HD
ATOM     47  C   UNL A   1      47.131  29.275  27.756  1.00  0.00     0.031 A 
ATOM     48  C   UNL A   1      40.314  28.178  29.465  1.00  0.00     0.031 A 
ATOM     49  C   UNL A   1      47.209  29.045  29.174  1.00  0.00     0.049 A 
ATOM     50  C   UNL A   1      41.345  29.058  30.083  1.00  0.00     0.074 A 
ATOM     51  C   UNL A   1      47.852  28.123  29.974  1.00  0.00     0.029 A 
ATOM     52  N   UNL A   1      46.202  29.585  29.942  1.00  0.00    -0.354 N 
ATOM     53  N   UNL A   1      42.060  28.697  31.113  1.00  0.00    -0.248 NA
ATOM     54  C   UNL A   1      41.935  30.102  29.257  1.00  0.00     0.031 C 
ATOM     55  C   UNL A   1      46.926  27.829  31.019  1.00  0.00     0.029 A 
ATOM     56  C   UNL A   1      45.795  28.631  30.841  1.00  0.00     0.049 A 
ATOM     57  H   UNL A   1      45.838  30.495  29.860  1.00  0.00     0.167 HD
ATOM     58  C   UNL A   1      43.346  29.149  30.842  1.00  0.00     0.074 A 
ATOM     59  C   UNL A   1      43.189  30.076  29.720  1.00  0.00     0.031 C 
ATOM     60  C   UNL A   1      44.443  28.511  31.350  1.00  0.00     0.031 A 
BRANCH  47  61
ATOM     61  C   UNL A   1      47.192  30.653  27.150  1.00  0.00    -0.014 A 
ATOM     62  C   UNL A   1      48.400  31.368  27.201  1.00  0.00     0.010 A 
ATOM     63  C   UNL A   1      46.036  31.369  26.765  1.00  0.00     0.010 A 
ATOM     64  C   UNL A   1      48.435  32.740  26.922  1.00  0.00     0.020 A 
ATOM     65  C   UNL A   1      46.067  32.721  26.438  1.00  0.00     0.020 A 
ATOM     66  C   UNL A   1      47.264  33.407  26.550  1.00  0.00     0.054 A 
BRANCH  66  67
ATOM     67  S   UNL A   1      47.297  35.194  26.292  1.00  0.00     0.124 S 
ATOM     68  O   UNL A   1      48.448  35.349  25.411  1.00  0.00    -0.237 OA
ATOM     69  O   UNL A   1      45.991  35.440  25.686  1.00  0.00    -0.237 OA
ATOM     70  O   UNL A   1      47.462  35.731  27.642  1.00  0.00    -0.744 OA
ENDBRANCH  66  67
ENDBRANCH  47  61
BRANCH  48  71
ATOM     71  C   UNL A   1      38.966  28.677  29.074  1.00  0.00    -0.014 A 
ATOM     72  C   UNL A   1      37.916  28.791  30.007  1.00  0.00     0.010 A 
ATOM     73  C   UNL A   1      38.798  29.317  27.827  1.00  0.00     0.010 A 
ATOM     74  C   UNL A   1      36.765  29.552  29.718  1.00  0.00     0.020 A 
ATOM     75  C   UNL A   1      37.657  30.075  27.534  1.00  0.00     0.020 A 
ATOM     76  C   UNL A   1      36.652  30.205  28.488  1.00  0.00     0.054 A 
BRANCH  76  77
ATOM     77  S   UNL A   1      35.247  31.320  28.178  1.00  0.00     0.124 S 
ATOM     78  O   UNL A   1      34.372  30.497  27.348  1.00  0.00    -0.237 OA
ATOM     79  O   UNL A   1      34.759  31.602  29.526  1.00  0.00    -0.237 OA
ATOM     80  O   UNL A   1      35.857  32.460  27.494  1.00  0.00    -0.744 OA
ENDBRANCH  76  77
ENDBRANCH  48  71
BRANCH  60  81
ATOM     81  C   UNL A   1      44.214  27.429  32.387  1.00  0.00    -0.014 A 
ATOM     82  C   UNL A   1      44.160  26.052  32.083  1.00  0.00     0.010 A 
ATOM     83  C   UNL A   1      44.222  27.814  33.736  1.00  0.00     0.010 A 
ATOM     84  C   UNL A   1      44.103  25.091  33.107  1.00  0.00     0.020 A 
ATOM     85  C   UNL A   1      44.178  26.863  34.760  1.00  0.00     0.020 A 
ATOM     86  C   UNL A   1      44.114  25.506  34.442  1.00  0.00     0.054 A 
BRANCH  86  87
ATOM     87  S   UNL A   1      44.098  24.264  35.768  1.00  0.00     0.124 S 
ATOM     88  O   UNL A   1      43.627  23.067  35.077  1.00  0.00    -0.237 OA
ATOM     89  O   UNL A   1      45.493  24.233  36.202  1.00  0.00    -0.237 OA
ATOM     90  O   UNL A   1      43.166  24.817  36.750  1.00  0.00    -0.744 OA
ENDBRANCH  86  87
ENDBRANCH  60  81
ENDBRANCH  34  35
ENDBRANCH  27  29
ENDBRANCH  26  27
ENDBRANCH  25  26
ENDBRANCH  24  25
ENDBRANCH  23  24
ENDBRANCH   1  23
TORSDOF 21
ENDMDL
MODEL 3
REMARK VINA RESULT:     -10.5      3.037      9.337
REMARK SMILES CC(C)Cn1ncnc1C[N@H+]1CC[C@H](C(=O)OCCOCCOC(=O)c2ccc(-c3c4nc(c(-c5ccc(S(=O)(=O)[O-])cc5)c5ccc([nH]5)c(-c5ccc(S(=O)(=O)[O-])cc5)c5nc(c(-c6ccc(S(=O)(=O)[O-])cc6)c6ccc3[nH]6)C=C5)C=C4)cc2)[C@@H]1C
REMARK SMILES IDX 19 1 18 2 17 3 15 4 16 5 14 6 11 7 12 8 86 9 13 11 87 12
REMARK SMILES IDX 10 13 9 14 5 15 6 16 7 17 8 18 4 19 2 20 1 21 3 22 20 23
REMARK SMILES IDX 21 24 22 25 23 26 24 27 25 28 26 29 27 30 85 31 28 32 84 33
REMARK SMILES IDX 29 34 30 35 31 36 78 37 32 38 83 39 77 40 79 41 33 42 82 43
REMARK SMILES IDX 76 44 75 45 34 47 64 48 45 49 63 50 46 51 49 52 62 53 80 54
REMARK SMILES IDX 47 55 48 56 61 58 81 59 50 60 35 61 36 62 44 63 37 64 43 65
REMARK SMILES IDX 38 66 39 67 40 68 41 69 42 70 65 71 66 72 74 73 67 74 73 75
REMARK SMILES IDX 68 76 69 77 70 78 71 79 72 80 51 81 52 82 60 83 53 84 59 85
REMARK SMILES IDX 54 86 55 87 56 88 57 89 58 90
REMARK H PARENT 11 10 79 46 49 57
REMARK Flexibility Score: inf
ROOT
ATOM      1  C   UNL A   1      31.378  29.782  24.954  1.00  0.00     0.202 C 
ENDROOT
BRANCH   1   2
ATOM      2  C   UNL A   1      31.056  28.684  23.947  1.00  0.00     0.261 C 
BRANCH   2   3
ATOM      3  O   UNL A   1      31.238  27.377  24.510  1.00  0.00    -0.463 OA
BRANCH   3   4
ATOM      4  C   UNL A   1      32.333  26.689  24.091  1.00  0.00     0.315 C 
ATOM      5  O   UNL A   1      32.995  26.959  23.095  1.00  0.00    -0.252 OA
BRANCH   4   6
ATOM      6  C   UNL A   1      32.640  25.510  24.988  1.00  0.00     0.162 C 
ATOM      7  N   UNL A   1      31.423  23.486  25.492  1.00  0.00    -0.326 N 
ATOM      8  C   UNL A   1      30.866  24.588  26.271  1.00  0.00     0.263 C 
ATOM      9  C   UNL A   1      32.193  24.147  24.413  1.00  0.00     0.195 C 
ATOM     10  H   UNL A   1      30.685  22.895  25.109  1.00  0.00     0.348 HD
ATOM     11  C   UNL A   1      31.989  25.599  26.371  1.00  0.00     0.083 C 
ATOM     12  C   UNL A   1      31.265  24.222  23.191  1.00  0.00     0.076 C 
BRANCH   7  13
ATOM     13  C   UNL A   1      32.158  22.458  26.268  1.00  0.00     0.340 C 
BRANCH  13  14
ATOM     14  C   UNL A   1      32.681  21.245  25.548  1.00  0.00     0.182 A 
ATOM     15  N   UNL A   1      33.998  21.010  25.199  1.00  0.00    -0.245 N 
ATOM     16  N   UNL A   1      34.112  19.829  24.550  1.00  0.00    -0.159 NA
ATOM     17  C   UNL A   1      32.861  19.377  24.574  1.00  0.00     0.246 A 
ATOM     18  N   UNL A   1      31.965  20.192  25.187  1.00  0.00    -0.214 NA
BRANCH  15  19
ATOM     19  C   UNL A   1      35.213  21.730  25.540  1.00  0.00     0.149 C 
BRANCH  19  20
ATOM     20  C   UNL A   1      36.340  21.656  24.492  1.00  0.00     0.004 C 
ATOM     21  C   UNL A   1      36.386  22.899  23.621  1.00  0.00     0.009 C 
ATOM     22  C   UNL A   1      37.701  21.480  25.163  1.00  0.00     0.009 C 
ENDBRANCH  19  20
ENDBRANCH  15  19
ENDBRANCH  13  14
ENDBRANCH   7  13
ENDBRANCH   4   6
ENDBRANCH   3   4
ENDBRANCH   2   3
ENDBRANCH   1   2
BRANCH   1  23
ATOM     23  O   UNL A   1      32.647  29.743  25.605  1.00  0.00    -0.374 OA
BRANCH  23  24
ATOM     24  C   UNL A   1      32.744  29.997  27.006  1.00  0.00     0.202 C 
BRANCH  24  25
ATOM     25  C   UNL A   1      33.623  31.160  27.459  1.00  0.00     0.261 C 
BRANCH  25  26
ATOM     26  O   UNL A   1      34.996  30.798  27.412  1.00  0.00    -0.460 OA
BRANCH  26  27
ATOM     27  C   UNL A   1      35.825  31.652  28.047  1.00  0.00     0.338 C 
ATOM     28  O   UNL A   1      36.138  32.783  27.688  1.00  0.00    -0.246 OA
BRANCH  27  29
ATOM     29  C   UNL A   1      36.369  30.989  29.243  1.00  0.00     0.060 A 
ATOM     30  C   UNL A   1      37.280  31.778  29.939  1.00  0.00     0.016 A 
ATOM     31  C   UNL A   1      36.434  29.589  29.245  1.00  0.00     0.016 A 
ATOM     32  C   UNL A   1      38.503  31.217  30.186  1.00  0.00     0.010 A 
ATOM     33  C   UNL A   1      37.649  29.022  29.514  1.00  0.00     0.010 A 
ATOM     34  C   UNL A   1      38.697  29.881  29.819  1.00  0.00    -0.014 A 
BRANCH  34  35
ATOM     35  C   UNL A   1      40.046  29.378  29.793  1.00  0.00     0.031 A 
ATOM     36  C   UNL A   1      40.572  29.217  31.158  1.00  0.00     0.074 A 
ATOM     37  C   UNL A   1      40.663  29.019  28.652  1.00  0.00     0.049 A 
ATOM     38  N   UNL A   1      41.384  30.002  31.783  1.00  0.00    -0.248 NA
ATOM     39  C   UNL A   1      39.894  28.227  32.012  1.00  0.00     0.031 C 
ATOM     40  C   UNL A   1      40.118  28.894  27.296  1.00  0.00     0.029 A 
ATOM     41  N   UNL A   1      41.934  28.582  28.498  1.00  0.00    -0.354 N 
ATOM     42  C   UNL A   1      41.493  29.450  33.050  1.00  0.00     0.074 A 
ATOM     43  C   UNL A   1      40.364  28.571  33.210  1.00  0.00     0.031 C 
ATOM     44  C   UNL A   1      40.981  28.174  26.535  1.00  0.00     0.029 A 
ATOM     45  C   UNL A   1      42.186  27.914  27.307  1.00  0.00     0.049 A 
ATOM     46  H   UNL A   1      42.630  28.728  29.179  1.00  0.00     0.167 HD
ATOM     47  C   UNL A   1      42.665  29.480  33.738  1.00  0.00     0.031 A 
ATOM     48  C   UNL A   1      43.273  27.141  27.047  1.00  0.00     0.031 A 
ATOM     49  C   UNL A   1      43.596  30.420  33.173  1.00  0.00     0.049 A 
ATOM     50  C   UNL A   1      44.312  27.516  28.048  1.00  0.00     0.074 A 
ATOM     51  C   UNL A   1      43.606  31.789  32.995  1.00  0.00     0.029 A 
ATOM     52  N   UNL A   1      44.533  29.912  32.302  1.00  0.00    -0.354 N 
ATOM     53  N   UNL A   1      44.860  28.700  28.090  1.00  0.00    -0.248 NA
ATOM     54  C   UNL A   1      44.358  26.769  29.297  1.00  0.00     0.031 C 
ATOM     55  C   UNL A   1      44.214  31.992  31.720  1.00  0.00     0.029 A 
ATOM     56  C   UNL A   1      44.601  30.748  31.215  1.00  0.00     0.049 A 
ATOM     57  H   UNL A   1      45.062  29.093  32.435  1.00  0.00     0.167 HD
ATOM     58  C   UNL A   1      44.943  29.016  29.441  1.00  0.00     0.074 A 
ATOM     59  C   UNL A   1      44.691  27.754  30.138  1.00  0.00     0.031 C 
ATOM     60  C   UNL A   1      44.914  30.314  29.868  1.00  0.00     0.031 A 
BRANCH  47  61
ATOM     61  C   UNL A   1      43.097  28.337  34.619  1.00  0.00    -0.014 A 
ATOM     62  C   UNL A   1      43.081  28.506  36.013  1.00  0.00     0.010 A 
ATOM     63  C   UNL A   1      43.763  27.195  34.118  1.00  0.00     0.010 A 
ATOM     64  C   UNL A   1      43.737  27.599  36.855  1.00  0.00     0.020 A 
ATOM     65  C   UNL A   1      44.375  26.261  34.946  1.00  0.00     0.020 A 
ATOM     66  C   UNL A   1      44.387  26.487  36.312  1.00  0.00     0.054 A 
BRANCH  66  67
ATOM     67  S   UNL A   1      45.316  25.378  37.393  1.00  0.00     0.124 S 
ATOM     68  O   UNL A   1      46.665  25.489  36.848  1.00  0.00    -0.237 OA
ATOM     69  O   UNL A   1      45.107  25.984  38.705  1.00  0.00    -0.237 OA
ATOM     70  O   UNL A   1      44.665  24.085  37.198  1.00  0.00    -0.744 OA
ENDBRANCH  66  67
ENDBRANCH  47  61
BRANCH  48  71
ATOM     71  C   UNL A   1      43.302  25.846  26.311  1.00  0.00    -0.014 A 
ATOM     72  C   UNL A   1      44.228  25.600  25.278  1.00  0.00     0.010 A 
ATOM     73  C   UNL A   1      42.596  24.739  26.827  1.00  0.00     0.010 A 
ATOM     74  C   UNL A   1      44.468  24.291  24.811  1.00  0.00     0.020 A 
ATOM     75  C   UNL A   1      42.830  23.435  26.369  1.00  0.00     0.020 A 
ATOM     76  C   UNL A   1      43.779  23.214  25.375  1.00  0.00     0.054 A 
BRANCH  76  77
ATOM     77  S   UNL A   1      44.206  21.511  24.892  1.00  0.00     0.124 S 
ATOM     78  O   UNL A   1      45.431  21.271  25.649  1.00  0.00    -0.237 OA
ATOM     79  O   UNL A   1      43.035  20.753  25.326  1.00  0.00    -0.237 OA
ATOM     80  O   UNL A   1      44.380  21.599  23.443  1.00  0.00    -0.744 OA
ENDBRANCH  76  77
ENDBRANCH  48  71
BRANCH  60  81
ATOM     81  C   UNL A   1      45.003  31.404  28.819  1.00  0.00    -0.014 A 
ATOM     82  C   UNL A   1      46.127  31.606  27.991  1.00  0.00     0.010 A 
ATOM     83  C   UNL A   1      43.838  32.141  28.553  1.00  0.00     0.010 A 
ATOM     84  C   UNL A   1      46.086  32.530  26.933  1.00  0.00     0.020 A 
ATOM     85  C   UNL A   1      43.785  33.052  27.494  1.00  0.00     0.020 A 
ATOM     86  C   UNL A   1      44.910  33.248  26.692  1.00  0.00     0.054 A 
BRANCH  86  87
ATOM     87  S   UNL A   1      44.835  34.402  25.291  1.00  0.00     0.124 S 
ATOM     88  O   UNL A   1      46.094  35.131  25.411  1.00  0.00    -0.237 OA
ATOM     89  O   UNL A   1      44.731  33.509  24.139  1.00  0.00    -0.237 OA
ATOM     90  O   UNL A   1      43.634  35.194  25.558  1.00  0.00    -0.744 OA
ENDBRANCH  86  87
ENDBRANCH  60  81
ENDBRANCH  34  35
ENDBRANCH  27  29
ENDBRANCH  26  27
ENDBRANCH  25  26
ENDBRANCH  24  25
ENDBRANCH  23  24
ENDBRANCH   1  23
TORSDOF 21
ENDMDL
