MODEL 1
REMARK VINA RESULT:     -11.2      0.000      0.000
REMARK SMILES O=C(OCCOCCOC(=O)[C@H]1[C@@H](C(=O)NN2CCOCC2)[C@H]2C=C[C@@H]1CC2)c1ccc(-c2c3nc(c(-c4ccc(S(=O)(=O)[O-])cc4)c4ccc([nH]4)c(-c4ccc(S(=O)(=O)[O-])cc4)c4nc(c(-c5ccc(S(=O)(=O)[O-])cc5)c5ccc2[nH]5)C=C4)C=C3)cc1
REMARK SMILES IDX 5 1 4 2 3 3 2 4 1 5 29 6 30 7 88 8 31 9 87 10 32 11 33 12
REMARK SMILES IDX 34 13 81 14 35 15 86 16 80 17 82 18 36 19 85 20 79 21 78 22
REMARK SMILES IDX 37 24 67 25 48 26 66 27 49 28 52 29 65 30 83 31 50 32 51 33
REMARK SMILES IDX 64 35 84 36 53 37 38 38 39 39 47 40 40 41 46 42 41 43 42 44
REMARK SMILES IDX 43 45 44 46 45 47 68 48 69 49 77 50 70 51 76 52 71 53 72 54
REMARK SMILES IDX 73 55 74 56 75 57 54 58 55 59 63 60 56 61 62 62 57 63 58 64
REMARK SMILES IDX 59 65 60 66 61 67 6 68 7 69 8 70 9 71 10 72 11 73 12 74
REMARK SMILES IDX 13 75 26 76 23 77 25 78 27 79 24 80 28 81 14 82 15 83 16 84
REMARK SMILES IDX 17 86 18 87 22 88 19 89 21 90 20 91
REMARK H PARENT 82 23 52 34 16 85
REMARK Flexibility Score: inf
ROOT
ATOM      1  C   UNL A   1      40.701  22.789  27.127  1.00  0.00     0.202 C 
ENDROOT
BRANCH   1   2
ATOM      2  C   UNL A   1      41.844  23.245  26.217  1.00  0.00     0.261 C 
BRANCH   2   3
ATOM      3  O   UNL A   1      42.282  24.583  26.510  1.00  0.00    -0.460 OA
BRANCH   3   4
ATOM      4  C   UNL A   1      41.478  25.676  26.406  1.00  0.00     0.338 C 
ATOM      5  O   UNL A   1      40.887  25.926  25.364  1.00  0.00    -0.246 OA
BRANCH   4   6
ATOM      6  C   UNL A   1      41.325  26.571  27.580  1.00  0.00     0.060 A 
ATOM      7  C   UNL A   1      40.540  26.188  28.655  1.00  0.00     0.016 A 
ATOM      8  C   UNL A   1      41.999  27.783  27.662  1.00  0.00     0.016 A 
ATOM      9  C   UNL A   1      40.194  27.042  29.667  1.00  0.00     0.010 A 
ATOM     10  C   UNL A   1      41.851  28.565  28.813  1.00  0.00     0.010 A 
ATOM     11  C   UNL A   1      40.935  28.194  29.815  1.00  0.00    -0.014 A 
BRANCH  11  12
ATOM     12  C   UNL A   1      40.718  28.966  31.048  1.00  0.00     0.031 A 
ATOM     13  C   UNL A   1      39.566  29.908  31.088  1.00  0.00     0.074 A 
ATOM     14  C   UNL A   1      41.505  28.738  32.122  1.00  0.00     0.049 A 
ATOM     15  N   UNL A   1      39.292  30.829  31.965  1.00  0.00    -0.248 NA
ATOM     16  C   UNL A   1      38.599  29.814  29.979  1.00  0.00     0.031 C 
ATOM     17  C   UNL A   1      42.564  27.717  32.211  1.00  0.00     0.029 A 
ATOM     18  N   UNL A   1      41.519  29.316  33.360  1.00  0.00    -0.354 N 
ATOM     19  C   UNL A   1      38.176  31.487  31.468  1.00  0.00     0.074 A 
ATOM     20  C   UNL A   1      37.813  30.850  30.224  1.00  0.00     0.031 C 
ATOM     21  C   UNL A   1      43.071  27.704  33.452  1.00  0.00     0.029 A 
ATOM     22  C   UNL A   1      42.481  28.799  34.199  1.00  0.00     0.049 A 
ATOM     23  H   UNL A   1      40.901  30.035  33.626  1.00  0.00     0.167 HD
ATOM     24  C   UNL A   1      37.545  32.552  32.009  1.00  0.00     0.031 A 
ATOM     25  C   UNL A   1      42.878  29.214  35.415  1.00  0.00     0.031 A 
ATOM     26  C   UNL A   1      37.951  33.132  33.259  1.00  0.00     0.049 A 
ATOM     27  C   UNL A   1      42.210  30.443  35.958  1.00  0.00     0.074 A 
ATOM     28  C   UNL A   1      37.443  34.238  33.908  1.00  0.00     0.029 A 
ATOM     29  N   UNL A   1      38.974  32.628  34.057  1.00  0.00    -0.354 N 
ATOM     30  N   UNL A   1      41.223  31.138  35.437  1.00  0.00    -0.248 NA
ATOM     31  C   UNL A   1      42.717  30.962  37.230  1.00  0.00     0.031 C 
ATOM     32  C   UNL A   1      38.191  34.432  35.074  1.00  0.00     0.029 A 
ATOM     33  C   UNL A   1      39.123  33.408  35.186  1.00  0.00     0.049 A 
ATOM     34  H   UNL A   1      39.513  31.831  33.846  1.00  0.00     0.167 HD
ATOM     35  C   UNL A   1      40.973  32.168  36.331  1.00  0.00     0.074 A 
ATOM     36  C   UNL A   1      41.903  31.990  37.433  1.00  0.00     0.031 C 
ATOM     37  C   UNL A   1      40.065  33.172  36.255  1.00  0.00     0.031 A 
BRANCH  24  38
ATOM     38  C   UNL A   1      36.457  33.186  31.188  1.00  0.00    -0.014 A 
ATOM     39  C   UNL A   1      36.676  33.623  29.869  1.00  0.00     0.010 A 
ATOM     40  C   UNL A   1      35.203  33.412  31.783  1.00  0.00     0.010 A 
ATOM     41  C   UNL A   1      35.680  34.324  29.183  1.00  0.00     0.020 A 
ATOM     42  C   UNL A   1      34.193  34.083  31.089  1.00  0.00     0.020 A 
ATOM     43  C   UNL A   1      34.447  34.556  29.801  1.00  0.00     0.054 A 
BRANCH  43  44
ATOM     44  S   UNL A   1      33.175  35.478  28.894  1.00  0.00     0.124 S 
ATOM     45  O   UNL A   1      32.533  34.421  28.118  1.00  0.00    -0.237 OA
ATOM     46  O   UNL A   1      32.366  36.047  29.970  1.00  0.00    -0.237 OA
ATOM     47  O   UNL A   1      33.939  36.448  28.114  1.00  0.00    -0.744 OA
ENDBRANCH  43  44
ENDBRANCH  24  38
BRANCH  25  48
ATOM     48  C   UNL A   1      43.980  28.519  36.142  1.00  0.00    -0.014 A 
ATOM     49  C   UNL A   1      45.314  28.936  35.984  1.00  0.00     0.010 A 
ATOM     50  C   UNL A   1      43.708  27.439  37.004  1.00  0.00     0.010 A 
ATOM     51  C   UNL A   1      46.351  28.275  36.655  1.00  0.00     0.020 A 
ATOM     52  C   UNL A   1      44.737  26.797  37.702  1.00  0.00     0.020 A 
ATOM     53  C   UNL A   1      46.055  27.210  37.510  1.00  0.00     0.054 A 
BRANCH  53  54
ATOM     54  S   UNL A   1      47.415  26.387  38.387  1.00  0.00     0.124 S 
ATOM     55  O   UNL A   1      46.944  25.008  38.453  1.00  0.00    -0.237 OA
ATOM     56  O   UNL A   1      48.552  26.626  37.501  1.00  0.00    -0.237 OA
ATOM     57  O   UNL A   1      47.474  27.091  39.667  1.00  0.00    -0.744 OA
ENDBRANCH  53  54
ENDBRANCH  25  48
BRANCH  37  58
ATOM     58  C   UNL A   1      40.004  34.105  37.428  1.00  0.00    -0.014 A 
ATOM     59  C   UNL A   1      39.119  33.882  38.495  1.00  0.00     0.010 A 
ATOM     60  C   UNL A   1      40.892  35.194  37.474  1.00  0.00     0.010 A 
ATOM     61  C   UNL A   1      39.100  34.759  39.580  1.00  0.00     0.020 A 
ATOM     62  C   UNL A   1      40.900  36.052  38.573  1.00  0.00     0.020 A 
ATOM     63  C   UNL A   1      39.993  35.836  39.612  1.00  0.00     0.054 A 
BRANCH  63  64
ATOM     64  S   UNL A   1      39.984  36.932  41.053  1.00  0.00     0.124 S 
ATOM     65  O   UNL A   1      39.079  37.993  40.620  1.00  0.00    -0.237 OA
ATOM     66  O   UNL A   1      39.474  36.064  42.111  1.00  0.00    -0.237 OA
ATOM     67  O   UNL A   1      41.383  37.325  41.198  1.00  0.00    -0.744 OA
ENDBRANCH  63  64
ENDBRANCH  37  58
ENDBRANCH  11  12
ENDBRANCH   4   6
ENDBRANCH   3   4
ENDBRANCH   2   3
ENDBRANCH   1   2
BRANCH   1  68
ATOM     68  O   UNL A   1      39.619  22.072  26.559  1.00  0.00    -0.374 OA
BRANCH  68  69
ATOM     69  C   UNL A   1      38.582  22.847  25.987  1.00  0.00     0.202 C 
BRANCH  69  70
ATOM     70  C   UNL A   1      37.712  21.933  25.141  1.00  0.00     0.261 C 
BRANCH  70  71
ATOM     71  O   UNL A   1      36.422  21.795  25.765  1.00  0.00    -0.463 OA
BRANCH  71  72
ATOM     72  C   UNL A   1      35.454  22.723  25.509  1.00  0.00     0.310 C 
ATOM     73  O   UNL A   1      35.263  23.746  26.146  1.00  0.00    -0.252 OA
BRANCH  72  74
ATOM     74  C   UNL A   1      34.560  22.284  24.358  1.00  0.00     0.119 C 
ATOM     75  C   UNL A   1      33.582  21.051  24.505  1.00  0.00     0.101 C 
ATOM     76  C   UNL A   1      33.784  23.492  23.727  1.00  0.00     0.026 C 
ATOM     77  C   UNL A   1      32.178  21.472  23.943  1.00  0.00     0.025 C 
ATOM     78  C   UNL A   1      32.550  23.767  24.561  1.00  0.00    -0.027 C 
ATOM     79  C   UNL A   1      33.300  23.055  22.329  1.00  0.00     0.009 C 
ATOM     80  C   UNL A   1      31.715  22.725  24.664  1.00  0.00    -0.027 C 
ATOM     81  C   UNL A   1      32.357  21.843  22.457  1.00  0.00     0.009 C 
BRANCH  75  82
ATOM     82  C   UNL A   1      33.315  20.305  25.822  1.00  0.00     0.238 C 
ATOM     83  O   UNL A   1      33.292  20.934  26.894  1.00  0.00    -0.273 OA
ATOM     84  N   UNL A   1      33.057  18.977  25.979  1.00  0.00    -0.288 N 
ATOM     85  H   UNL A   1      33.396  18.623  26.832  1.00  0.00     0.185 HD
BRANCH  84  86
ATOM     86  N   UNL A   1      32.421  18.002  25.205  1.00  0.00    -0.217 NA
ATOM     87  C   UNL A   1      32.320  16.621  25.665  1.00  0.00     0.136 C 
ATOM     88  C   UNL A   1      32.884  18.041  23.797  1.00  0.00     0.136 C 
ATOM     89  C   UNL A   1      33.555  15.763  25.330  1.00  0.00     0.177 C 
ATOM     90  C   UNL A   1      34.153  17.210  23.582  1.00  0.00     0.177 C 
ATOM     91  O   UNL A   1      33.915  15.842  23.946  1.00  0.00    -0.379 OA
ENDBRANCH  84  86
ENDBRANCH  75  82
ENDBRANCH  72  74
ENDBRANCH  71  72
ENDBRANCH  70  71
ENDBRANCH  69  70
ENDBRANCH  68  69
ENDBRANCH   1  68
TORSDOF 19
ENDMDL
MODEL 2
REMARK VINA RESULT:     -11.1      6.221      8.686
REMARK SMILES O=C(OCCOCCOC(=O)[C@H]1[C@@H](C(=O)NN2CCOCC2)[C@H]2C=C[C@@H]1CC2)c1ccc(-c2c3nc(c(-c4ccc(S(=O)(=O)[O-])cc4)c4ccc([nH]4)c(-c4ccc(S(=O)(=O)[O-])cc4)c4nc(c(-c5ccc(S(=O)(=O)[O-])cc5)c5ccc2[nH]5)C=C4)C=C3)cc1
REMARK SMILES IDX 5 1 4 2 3 3 2 4 1 5 29 6 30 7 88 8 31 9 87 10 32 11 33 12
REMARK SMILES IDX 34 13 81 14 35 15 86 16 80 17 82 18 36 19 85 20 79 21 78 22
REMARK SMILES IDX 37 24 67 25 48 26 66 27 49 28 52 29 65 30 83 31 50 32 51 33
REMARK SMILES IDX 64 35 84 36 53 37 38 38 39 39 47 40 40 41 46 42 41 43 42 44
REMARK SMILES IDX 43 45 44 46 45 47 68 48 69 49 77 50 70 51 76 52 71 53 72 54
REMARK SMILES IDX 73 55 74 56 75 57 54 58 55 59 63 60 56 61 62 62 57 63 58 64
REMARK SMILES IDX 59 65 60 66 61 67 6 68 7 69 8 70 9 71 10 72 11 73 12 74
REMARK SMILES IDX 13 75 26 76 23 77 25 78 27 79 24 80 28 81 14 82 15 83 16 84
REMARK SMILES IDX 17 86 18 87 22 88 19 89 21 90 20 91
REMARK H PARENT 82 23 52 34 16 85
REMARK Flexibility Score: inf
ROOT
ATOM      1  C   UNL A   1      37.890  20.529  25.234  1.00  0.00     0.202 C 
ENDROOT
BRANCH   1   2
ATOM      2  C   UNL A   1      39.199  21.058  25.825  1.00  0.00     0.261 C 
BRANCH   2   3
ATOM      3  O   UNL A   1      40.132  20.007  26.129  1.00  0.00    -0.460 OA
BRANCH   3   4
ATOM      4  C   UNL A   1      41.475  20.120  25.950  1.00  0.00     0.338 C 
ATOM      5  O   UNL A   1      42.124  19.205  25.459  1.00  0.00    -0.246 OA
BRANCH   4   6
ATOM      6  C   UNL A   1      42.154  21.375  26.361  1.00  0.00     0.060 A 
ATOM      7  C   UNL A   1      42.343  22.399  25.448  1.00  0.00     0.016 A 
ATOM      8  C   UNL A   1      42.567  21.582  27.671  1.00  0.00     0.016 A 
ATOM      9  C   UNL A   1      43.134  23.487  25.702  1.00  0.00     0.010 A 
ATOM     10  C   UNL A   1      43.161  22.802  28.010  1.00  0.00     0.010 A 
ATOM     11  C   UNL A   1      43.453  23.754  27.016  1.00  0.00    -0.014 A 
BRANCH  11  12
ATOM     12  C   UNL A   1      44.082  25.055  27.292  1.00  0.00     0.031 A 
ATOM     13  C   UNL A   1      43.233  26.133  27.869  1.00  0.00     0.074 A 
ATOM     14  C   UNL A   1      45.412  25.203  27.101  1.00  0.00     0.049 A 
ATOM     15  N   UNL A   1      43.500  27.399  28.006  1.00  0.00    -0.248 NA
ATOM     16  C   UNL A   1      41.892  25.737  28.336  1.00  0.00     0.031 C 
ATOM     17  C   UNL A   1      46.344  24.142  26.681  1.00  0.00     0.029 A 
ATOM     18  N   UNL A   1      46.224  26.289  27.268  1.00  0.00    -0.354 N 
ATOM     19  C   UNL A   1      42.331  27.969  28.488  1.00  0.00     0.074 A 
ATOM     20  C   UNL A   1      41.359  26.910  28.636  1.00  0.00     0.031 C 
ATOM     21  C   UNL A   1      47.598  24.618  26.689  1.00  0.00     0.029 A 
ATOM     22  C   UNL A   1      47.546  26.040  26.973  1.00  0.00     0.049 A 
ATOM     23  H   UNL A   1      45.894  27.167  27.571  1.00  0.00     0.167 HD
ATOM     24  C   UNL A   1      42.103  29.275  28.748  1.00  0.00     0.031 A 
ATOM     25  C   UNL A   1      48.584  26.889  26.882  1.00  0.00     0.031 A 
ATOM     26  C   UNL A   1      43.119  30.278  28.592  1.00  0.00     0.049 A 
ATOM     27  C   UNL A   1      48.286  28.343  27.104  1.00  0.00     0.074 A 
ATOM     28  C   UNL A   1      43.026  31.643  28.769  1.00  0.00     0.029 A 
ATOM     29  N   UNL A   1      44.434  30.005  28.225  1.00  0.00    -0.354 N 
ATOM     30  N   UNL A   1      47.149  28.903  27.454  1.00  0.00    -0.248 NA
ATOM     31  C   UNL A   1      49.390  29.282  26.895  1.00  0.00     0.031 C 
ATOM     32  C   UNL A   1      44.271  32.201  28.461  1.00  0.00     0.029 A 
ATOM     33  C   UNL A   1      45.160  31.177  28.157  1.00  0.00     0.049 A 
ATOM     34  H   UNL A   1      44.794  29.107  28.042  1.00  0.00     0.167 HD
ATOM     35  C   UNL A   1      47.405  30.263  27.531  1.00  0.00     0.074 A 
ATOM     36  C   UNL A   1      48.812  30.434  27.208  1.00  0.00     0.031 C 
ATOM     37  C   UNL A   1      46.564  31.282  27.837  1.00  0.00     0.031 A 
BRANCH  24  38
ATOM     38  C   UNL A   1      40.695  29.661  29.106  1.00  0.00    -0.014 A 
ATOM     39  C   UNL A   1      40.306  29.919  30.433  1.00  0.00     0.010 A 
ATOM     40  C   UNL A   1      39.723  29.698  28.089  1.00  0.00     0.010 A 
ATOM     41  C   UNL A   1      38.962  30.148  30.743  1.00  0.00     0.020 A 
ATOM     42  C   UNL A   1      38.384  29.959  28.391  1.00  0.00     0.020 A 
ATOM     43  C   UNL A   1      38.008  30.159  29.720  1.00  0.00     0.054 A 
BRANCH  43  44
ATOM     44  S   UNL A   1      36.270  30.447  30.150  1.00  0.00     0.124 S 
ATOM     45  O   UNL A   1      35.575  29.779  29.052  1.00  0.00    -0.237 OA
ATOM     46  O   UNL A   1      36.152  29.799  31.453  1.00  0.00    -0.237 OA
ATOM     47  O   UNL A   1      36.153  31.903  30.168  1.00  0.00    -0.744 OA
ENDBRANCH  43  44
ENDBRANCH  24  38
BRANCH  25  48
ATOM     48  C   UNL A   1      49.943  26.403  26.506  1.00  0.00    -0.014 A 
ATOM     49  C   UNL A   1      50.822  25.906  27.485  1.00  0.00     0.010 A 
ATOM     50  C   UNL A   1      50.372  26.425  25.164  1.00  0.00     0.010 A 
ATOM     51  C   UNL A   1      52.103  25.464  27.135  1.00  0.00     0.020 A 
ATOM     52  C   UNL A   1      51.639  25.953  24.804  1.00  0.00     0.020 A 
ATOM     53  C   UNL A   1      52.504  25.489  25.796  1.00  0.00     0.054 A 
BRANCH  53  54
ATOM     54  S   UNL A   1      54.160  24.885  25.365  1.00  0.00     0.124 S 
ATOM     55  O   UNL A   1      54.527  25.765  24.260  1.00  0.00    -0.237 OA
ATOM     56  O   UNL A   1      54.903  25.086  26.608  1.00  0.00    -0.237 OA
ATOM     57  O   UNL A   1      53.933  23.487  25.003  1.00  0.00    -0.744 OA
ENDBRANCH  53  54
ENDBRANCH  25  48
BRANCH  37  58
ATOM     58  C   UNL A   1      47.171  32.652  27.893  1.00  0.00    -0.014 A 
ATOM     59  C   UNL A   1      47.197  33.487  26.765  1.00  0.00     0.010 A 
ATOM     60  C   UNL A   1      47.675  33.120  29.119  1.00  0.00     0.010 A 
ATOM     61  C   UNL A   1      47.752  34.764  26.855  1.00  0.00     0.020 A 
ATOM     62  C   UNL A   1      48.199  34.408  29.221  1.00  0.00     0.020 A 
ATOM     63  C   UNL A   1      48.248  35.215  28.084  1.00  0.00     0.054 A 
BRANCH  63  64
ATOM     64  S   UNL A   1      48.919  36.894  28.188  1.00  0.00     0.124 S 
ATOM     65  O   UNL A   1      50.357  36.642  28.214  1.00  0.00    -0.237 OA
ATOM     66  O   UNL A   1      48.410  37.518  26.969  1.00  0.00    -0.237 OA
ATOM     67  O   UNL A   1      48.354  37.416  29.430  1.00  0.00    -0.744 OA
ENDBRANCH  63  64
ENDBRANCH  37  58
ENDBRANCH  11  12
ENDBRANCH   4   6
ENDBRANCH   3   4
ENDBRANCH   2   3
ENDBRANCH   1   2
BRANCH   1  68
ATOM     68  O   UNL A   1      37.257  21.268  24.204  1.00  0.00    -0.374 OA
BRANCH  68  69
ATOM     69  C   UNL A   1      36.757  22.543  24.561  1.00  0.00     0.202 C 
BRANCH  69  70
ATOM     70  C   UNL A   1      35.734  22.966  23.519  1.00  0.00     0.261 C 
BRANCH  70  71
ATOM     71  O   UNL A   1      34.547  22.165  23.667  1.00  0.00    -0.463 OA
BRANCH  71  72
ATOM     72  C   UNL A   1      33.373  22.607  23.128  1.00  0.00     0.310 C 
ATOM     73  O   UNL A   1      33.209  22.957  21.971  1.00  0.00    -0.252 OA
BRANCH  72  74
ATOM     74  C   UNL A   1      32.281  22.694  24.184  1.00  0.00     0.119 C 
ATOM     75  C   UNL A   1      32.265  21.720  25.428  1.00  0.00     0.101 C 
ATOM     76  C   UNL A   1      32.057  24.168  24.673  1.00  0.00     0.026 C 
ATOM     77  C   UNL A   1      32.008  22.579  26.718  1.00  0.00     0.025 C 
ATOM     78  C   UNL A   1      33.089  24.490  25.734  1.00  0.00    -0.027 C 
ATOM     79  C   UNL A   1      30.673  24.228  25.351  1.00  0.00     0.009 C 
ATOM     80  C   UNL A   1      33.056  23.674  26.796  1.00  0.00    -0.027 C 
ATOM     81  C   UNL A   1      30.640  23.271  26.558  1.00  0.00     0.009 C 
BRANCH  75  82
ATOM     82  C   UNL A   1      33.395  20.740  25.780  1.00  0.00     0.238 C 
ATOM     83  O   UNL A   1      34.275  21.079  26.590  1.00  0.00    -0.273 OA
ATOM     84  N   UNL A   1      33.556  19.469  25.320  1.00  0.00    -0.288 N 
ATOM     85  H   UNL A   1      34.502  19.209  25.244  1.00  0.00     0.185 HD
BRANCH  84  86
ATOM     86  N   UNL A   1      32.685  18.447  24.930  1.00  0.00    -0.217 NA
ATOM     87  C   UNL A   1      32.529  17.240  25.735  1.00  0.00     0.136 C 
ATOM     88  C   UNL A   1      32.871  18.092  23.502  1.00  0.00     0.136 C 
ATOM     89  C   UNL A   1      33.581  16.154  25.435  1.00  0.00     0.177 C 
ATOM     90  C   UNL A   1      33.980  17.055  23.305  1.00  0.00     0.177 C 
ATOM     91  O   UNL A   1      33.674  15.859  24.036  1.00  0.00    -0.379 OA
ENDBRANCH  84  86
ENDBRANCH  75  82
ENDBRANCH  72  74
ENDBRANCH  71  72
ENDBRANCH  70  71
ENDBRANCH  69  70
ENDBRANCH  68  69
ENDBRANCH   1  68
TORSDOF 19
ENDMDL
MODEL 3
REMARK VINA RESULT:     -11.1      7.354     12.831
REMARK SMILES O=C(OCCOCCOC(=O)[C@H]1[C@@H](C(=O)NN2CCOCC2)[C@H]2C=C[C@@H]1CC2)c1ccc(-c2c3nc(c(-c4ccc(S(=O)(=O)[O-])cc4)c4ccc([nH]4)c(-c4ccc(S(=O)(=O)[O-])cc4)c4nc(c(-c5ccc(S(=O)(=O)[O-])cc5)c5ccc2[nH]5)C=C4)C=C3)cc1
REMARK SMILES IDX 5 1 4 2 3 3 2 4 1 5 29 6 30 7 88 8 31 9 87 10 32 11 33 12
REMARK SMILES IDX 34 13 81 14 35 15 86 16 80 17 82 18 36 19 85 20 79 21 78 22
REMARK SMILES IDX 37 24 67 25 48 26 66 27 49 28 52 29 65 30 83 31 50 32 51 33
REMARK SMILES IDX 64 35 84 36 53 37 38 38 39 39 47 40 40 41 46 42 41 43 42 44
REMARK SMILES IDX 43 45 44 46 45 47 68 48 69 49 77 50 70 51 76 52 71 53 72 54
REMARK SMILES IDX 73 55 74 56 75 57 54 58 55 59 63 60 56 61 62 62 57 63 58 64
REMARK SMILES IDX 59 65 60 66 61 67 6 68 7 69 8 70 9 71 10 72 11 73 12 74
REMARK SMILES IDX 13 75 26 76 23 77 25 78 27 79 24 80 28 81 14 82 15 83 16 84
REMARK SMILES IDX 17 86 18 87 22 88 19 89 21 90 20 91
REMARK H PARENT 82 23 52 34 16 85
REMARK Flexibility Score: inf
ROOT
ATOM      1  C   UNL A   1      35.257  32.519  28.094  1.00  0.00     0.202 C 
ENDROOT
BRANCH   1   2
ATOM      2  C   UNL A   1      36.024  32.000  29.312  1.00  0.00     0.261 C 
BRANCH   2   3
ATOM      3  O   UNL A   1      35.881  30.579  29.489  1.00  0.00    -0.460 OA
BRANCH   3   4
ATOM      4  C   UNL A   1      36.780  29.812  30.163  1.00  0.00     0.338 C 
ATOM      5  O   UNL A   1      36.496  29.313  31.243  1.00  0.00    -0.246 OA
BRANCH   4   6
ATOM      6  C   UNL A   1      38.122  29.587  29.570  1.00  0.00     0.060 A 
ATOM      7  C   UNL A   1      39.193  29.235  30.375  1.00  0.00     0.016 A 
ATOM      8  C   UNL A   1      38.333  29.667  28.199  1.00  0.00     0.016 A 
ATOM      9  C   UNL A   1      40.486  29.214  29.928  1.00  0.00     0.010 A 
ATOM     10  C   UNL A   1      39.610  29.400  27.693  1.00  0.00     0.010 A 
ATOM     11  C   UNL A   1      40.693  29.182  28.566  1.00  0.00    -0.014 A 
BRANCH  11  12
ATOM     12  C   UNL A   1      42.063  28.904  28.111  1.00  0.00     0.031 A 
ATOM     13  C   UNL A   1      42.372  27.533  27.622  1.00  0.00     0.074 A 
ATOM     14  C   UNL A   1      42.965  29.910  28.067  1.00  0.00     0.049 A 
ATOM     15  N   UNL A   1      43.530  26.997  27.366  1.00  0.00    -0.248 NA
ATOM     16  C   UNL A   1      41.223  26.634  27.411  1.00  0.00     0.031 C 
ATOM     17  C   UNL A   1      42.695  31.323  28.386  1.00  0.00     0.029 A 
ATOM     18  N   UNL A   1      44.282  29.916  27.701  1.00  0.00    -0.354 N 
ATOM     19  C   UNL A   1      43.259  25.672  27.054  1.00  0.00     0.074 A 
ATOM     20  C   UNL A   1      41.828  25.490  27.135  1.00  0.00     0.031 C 
ATOM     21  C   UNL A   1      43.790  32.056  28.140  1.00  0.00     0.029 A 
ATOM     22  C   UNL A   1      44.872  31.157  27.785  1.00  0.00     0.049 A 
ATOM     23  H   UNL A   1      44.762  29.108  27.407  1.00  0.00     0.167 HD
ATOM     24  C   UNL A   1      44.151  24.702  26.759  1.00  0.00     0.031 A 
ATOM     25  C   UNL A   1      46.162  31.509  27.649  1.00  0.00     0.031 A 
ATOM     26  C   UNL A   1      45.563  24.953  26.682  1.00  0.00     0.049 A 
ATOM     27  C   UNL A   1      47.140  30.399  27.395  1.00  0.00     0.074 A 
ATOM     28  C   UNL A   1      46.591  24.065  26.443  1.00  0.00     0.029 A 
ATOM     29  N   UNL A   1      46.140  26.210  26.839  1.00  0.00    -0.354 N 
ATOM     30  N   UNL A   1      46.898  29.121  27.208  1.00  0.00    -0.248 NA
ATOM     31  C   UNL A   1      48.557  30.764  27.358  1.00  0.00     0.031 C 
ATOM     32  C   UNL A   1      47.795  24.776  26.504  1.00  0.00     0.029 A 
ATOM     33  C   UNL A   1      47.512  26.120  26.715  1.00  0.00     0.049 A 
ATOM     34  H   UNL A   1      45.643  27.042  27.013  1.00  0.00     0.167 HD
ATOM     35  C   UNL A   1      48.135  28.528  27.007  1.00  0.00     0.074 A 
ATOM     36  C   UNL A   1      49.118  29.595  27.079  1.00  0.00     0.031 C 
ATOM     37  C   UNL A   1      48.440  27.224  26.788  1.00  0.00     0.031 A 
BRANCH  24  38
ATOM     38  C   UNL A   1      43.614  23.305  26.621  1.00  0.00    -0.014 A 
ATOM     39  C   UNL A   1      43.119  22.582  27.722  1.00  0.00     0.010 A 
ATOM     40  C   UNL A   1      43.671  22.677  25.363  1.00  0.00     0.010 A 
ATOM     41  C   UNL A   1      42.749  21.242  27.579  1.00  0.00     0.020 A 
ATOM     42  C   UNL A   1      43.271  21.347  25.209  1.00  0.00     0.020 A 
ATOM     43  C   UNL A   1      42.835  20.631  26.324  1.00  0.00     0.054 A 
BRANCH  43  44
ATOM     44  S   UNL A   1      42.359  18.888  26.167  1.00  0.00     0.124 S 
ATOM     45  O   UNL A   1      42.513  18.409  27.538  1.00  0.00    -0.237 OA
ATOM     46  O   UNL A   1      40.984  18.975  25.683  1.00  0.00    -0.237 OA
ATOM     47  O   UNL A   1      43.321  18.351  25.208  1.00  0.00    -0.744 OA
ENDBRANCH  43  44
ENDBRANCH  24  38
BRANCH  25  48
ATOM     48  C   UNL A   1      46.594  32.927  27.820  1.00  0.00    -0.014 A 
ATOM     49  C   UNL A   1      46.943  33.421  29.090  1.00  0.00     0.010 A 
ATOM     50  C   UNL A   1      46.667  33.798  26.715  1.00  0.00     0.010 A 
ATOM     51  C   UNL A   1      47.334  34.755  29.254  1.00  0.00     0.020 A 
ATOM     52  C   UNL A   1      47.089  35.122  26.868  1.00  0.00     0.020 A 
ATOM     53  C   UNL A   1      47.405  35.598  28.141  1.00  0.00     0.054 A 
BRANCH  53  54
ATOM     54  S   UNL A   1      47.940  37.316  28.376  1.00  0.00     0.124 S 
ATOM     55  O   UNL A   1      48.757  37.219  29.581  1.00  0.00    -0.237 OA
ATOM     56  O   UNL A   1      48.667  37.593  27.139  1.00  0.00    -0.237 OA
ATOM     57  O   UNL A   1      46.684  38.049  28.528  1.00  0.00    -0.744 OA
ENDBRANCH  53  54
ENDBRANCH  25  48
BRANCH  37  58
ATOM     58  C   UNL A   1      49.887  26.910  26.549  1.00  0.00    -0.014 A 
ATOM     59  C   UNL A   1      50.753  26.599  27.609  1.00  0.00     0.010 A 
ATOM     60  C   UNL A   1      50.364  26.880  25.227  1.00  0.00     0.010 A 
ATOM     61  C   UNL A   1      52.089  26.293  27.352  1.00  0.00     0.020 A 
ATOM     62  C   UNL A   1      51.690  26.540  24.963  1.00  0.00     0.020 A 
ATOM     63  C   UNL A   1      52.548  26.264  26.030  1.00  0.00     0.054 A 
BRANCH  63  64
ATOM     64  S   UNL A   1      54.274  25.817  25.717  1.00  0.00     0.124 S 
ATOM     65  O   UNL A   1      54.136  24.771  24.707  1.00  0.00    -0.237 OA
ATOM     66  O   UNL A   1      54.850  27.074  25.246  1.00  0.00    -0.237 OA
ATOM     67  O   UNL A   1      54.757  25.367  27.020  1.00  0.00    -0.744 OA
ENDBRANCH  63  64
ENDBRANCH  37  58
ENDBRANCH  11  12
ENDBRANCH   4   6
ENDBRANCH   3   4
ENDBRANCH   2   3
ENDBRANCH   1   2
BRANCH   1  68
ATOM     68  O   UNL A   1      34.676  31.584  27.202  1.00  0.00    -0.374 OA
BRANCH  68  69
ATOM     69  C   UNL A   1      33.749  30.674  27.763  1.00  0.00     0.202 C 
BRANCH  69  70
ATOM     70  C   UNL A   1      32.487  30.692  26.916  1.00  0.00     0.261 C 
BRANCH  70  71
ATOM     71  O   UNL A   1      32.795  30.208  25.596  1.00  0.00    -0.463 OA
BRANCH  71  72
ATOM     72  C   UNL A   1      32.970  28.868  25.400  1.00  0.00     0.310 C 
ATOM     73  O   UNL A   1      34.045  28.297  25.305  1.00  0.00    -0.252 OA
BRANCH  72  74
ATOM     74  C   UNL A   1      31.636  28.158  25.225  1.00  0.00     0.119 C 
ATOM     75  C   UNL A   1      30.773  28.349  23.914  1.00  0.00     0.101 C 
ATOM     76  C   UNL A   1      31.738  26.630  25.564  1.00  0.00     0.026 C 
ATOM     77  C   UNL A   1      30.304  26.932  23.428  1.00  0.00     0.025 C 
ATOM     78  C   UNL A   1      32.270  25.897  24.350  1.00  0.00    -0.027 C 
ATOM     79  C   UNL A   1      30.306  26.113  25.815  1.00  0.00     0.009 C 
ATOM     80  C   UNL A   1      31.522  26.045  23.248  1.00  0.00    -0.027 C 
ATOM     81  C   UNL A   1      29.449  26.308  24.549  1.00  0.00     0.009 C 
BRANCH  75  82
ATOM     82  C   UNL A   1      31.249  29.100  22.661  1.00  0.00     0.238 C 
ATOM     83  O   UNL A   1      32.398  28.910  22.227  1.00  0.00    -0.273 OA
ATOM     84  N   UNL A   1      30.532  29.976  21.904  1.00  0.00    -0.288 N 
ATOM     85  H   UNL A   1      31.093  30.679  21.503  1.00  0.00     0.185 HD
BRANCH  84  86
ATOM     86  N   UNL A   1      29.182  30.105  21.565  1.00  0.00    -0.217 NA
ATOM     87  C   UNL A   1      28.696  31.267  20.827  1.00  0.00     0.136 C 
ATOM     88  C   UNL A   1      28.303  29.832  22.728  1.00  0.00     0.136 C 
ATOM     89  C   UNL A   1      28.357  32.474  21.723  1.00  0.00     0.177 C 
ATOM     90  C   UNL A   1      28.080  31.079  23.590  1.00  0.00     0.177 C 
ATOM     91  O   UNL A   1      27.486  32.122  22.804  1.00  0.00    -0.379 OA
ENDBRANCH  84  86
ENDBRANCH  75  82
ENDBRANCH  72  74
ENDBRANCH  71  72
ENDBRANCH  70  71
ENDBRANCH  69  70
ENDBRANCH  68  69
ENDBRANCH   1  68
TORSDOF 19
ENDMDL
