MODEL 1
REMARK VINA RESULT:     -11.8      0.000      0.000
REMARK SMILES COc1cccc(-c2c(C(=O)OCCOCCOC(=O)c3ccc(-c4c5nc(c(-c6ccc(S(=O)(=O)[O-])cc6)c6ccc([nH]6)c(-c6ccc(S(=O)(=O)[O-])cc6)c6nc(c(-c7ccc(S(=O)(=O)[O-])cc7)c7ccc4[nH]7)C=C6)C=C5)cc3)nnn2-c2ccc(OC(F)(F)F)cc2)c1
REMARK SMILES IDX 15 1 14 2 13 3 12 4 10 5 11 6 9 7 8 8 83 9 81 10 82 11 7 12
REMARK SMILES IDX 3 13 4 14 95 15 5 16 6 17 2 18 1 19 84 20 85 21 94 22 86 23
REMARK SMILES IDX 93 24 87 25 88 26 89 27 90 28 91 29 92 30 16 31 17 32 18 33
REMARK SMILES IDX 19 34 20 35 21 36 22 37 80 38 23 39 79 40 24 41 25 42 26 43
REMARK SMILES IDX 73 44 27 45 78 46 72 47 74 48 28 49 77 50 71 51 70 52 29 54
REMARK SMILES IDX 59 55 40 56 58 57 41 58 44 59 57 60 75 61 42 62 43 63 56 65
REMARK SMILES IDX 76 66 45 67 30 68 31 69 39 70 32 71 38 72 33 73 34 74 35 75
REMARK SMILES IDX 36 76 37 77 60 78 61 79 69 80 62 81 68 82 63 83 64 84 65 85
REMARK SMILES IDX 66 86 67 87 46 88 47 89 55 90 48 91 54 92 49 93 50 94 51 95
REMARK SMILES IDX 52 96 53 97
REMARK H PARENT 74 53 44 64
REMARK Flexibility Score: inf
ROOT
ATOM      1  O   UNL A   1      35.361  21.191  25.497  1.00  0.00    -0.374 OA
ENDROOT
BRANCH   1   2
ATOM      2  C   UNL A   1      34.118  20.617  25.100  1.00  0.00     0.202 C 
BRANCH   2   3
ATOM      3  C   UNL A   1      32.989  21.580  24.724  1.00  0.00     0.261 C 
BRANCH   3   4
ATOM      4  O   UNL A   1      33.077  22.830  25.426  1.00  0.00    -0.458 OA
BRANCH   4   5
ATOM      5  C   UNL A   1      33.357  23.919  24.642  1.00  0.00     0.361 C 
ATOM      6  O   UNL A   1      34.470  24.230  24.266  1.00  0.00    -0.244 OA
BRANCH   5   7
ATOM      7  C   UNL A   1      32.157  24.622  24.209  1.00  0.00     0.198 A 
ATOM      8  C   UNL A   1      31.656  25.864  24.575  1.00  0.00     0.109 A 
ATOM      9  N   UNL A   1      30.597  26.030  23.684  1.00  0.00    -0.212 N 
ATOM     10  N   UNL A   1      31.281  24.022  23.330  1.00  0.00    -0.122 NA
ATOM     11  N   UNL A   1      30.265  24.847  23.128  1.00  0.00    -0.061 NA
BRANCH   8  12
ATOM     12  C   UNL A   1      32.058  26.872  25.561  1.00  0.00     0.007 A 
ATOM     13  C   UNL A   1      33.759  28.398  26.420  1.00  0.00     0.119 A 
ATOM     14  C   UNL A   1      32.968  28.616  27.548  1.00  0.00     0.046 A 
ATOM     15  C   UNL A   1      33.292  27.544  25.421  1.00  0.00     0.056 A 
ATOM     16  C   UNL A   1      31.723  28.002  27.675  1.00  0.00     0.005 A 
ATOM     17  C   UNL A   1      31.270  27.127  26.687  1.00  0.00     0.011 A 
BRANCH  13  18
ATOM     18  O   UNL A   1      34.973  29.021  26.451  1.00  0.00    -0.497 OA
ATOM     19  C   UNL A   1      35.588  29.219  27.718  1.00  0.00     0.278 C 
ENDBRANCH  13  18
ENDBRANCH   8  12
BRANCH   9  20
ATOM     20  C   UNL A   1      30.002  27.231  23.236  1.00  0.00     0.067 A 
ATOM     21  C   UNL A   1      28.646  27.469  23.458  1.00  0.00     0.032 A 
ATOM     22  C   UNL A   1      30.781  28.169  22.548  1.00  0.00     0.032 A 
ATOM     23  C   UNL A   1      28.097  28.691  23.054  1.00  0.00     0.049 A 
ATOM     24  C   UNL A   1      30.212  29.363  22.108  1.00  0.00     0.049 A 
ATOM     25  C   UNL A   1      28.874  29.644  22.382  1.00  0.00     0.129 A 
BRANCH  25  26
ATOM     26  O   UNL A   1      28.213  30.794  22.054  1.00  0.00    -0.406 OA
BRANCH  26  27
ATOM     27  C   UNL A   1      28.176  31.828  23.024  1.00  0.00     0.573 C 
ATOM     28  F   UNL A   1      29.066  31.613  24.016  1.00  0.00    -0.132 F 
ATOM     29  F   UNL A   1      28.424  33.029  22.453  1.00  0.00    -0.132 F 
ATOM     30  F   UNL A   1      26.940  31.874  23.569  1.00  0.00    -0.132 F 
ENDBRANCH  26  27
ENDBRANCH  25  26
ENDBRANCH   9  20
ENDBRANCH   5   7
ENDBRANCH   4   5
ENDBRANCH   3   4
ENDBRANCH   2   3
ENDBRANCH   1   2
BRANCH   1  31
ATOM     31  C   UNL A   1      36.571  20.494  25.223  1.00  0.00     0.202 C 
BRANCH  31  32
ATOM     32  C   UNL A   1      37.851  21.300  25.036  1.00  0.00     0.261 C 
BRANCH  32  33
ATOM     33  O   UNL A   1      38.088  22.249  26.071  1.00  0.00    -0.460 OA
BRANCH  33  34
ATOM     34  C   UNL A   1      39.325  22.151  26.617  1.00  0.00     0.338 C 
ATOM     35  O   UNL A   1      39.882  21.128  26.978  1.00  0.00    -0.246 OA
BRANCH  34  36
ATOM     36  C   UNL A   1      39.838  23.500  26.894  1.00  0.00     0.060 A 
ATOM     37  C   UNL A   1      41.017  23.586  27.635  1.00  0.00     0.016 A 
ATOM     38  C   UNL A   1      39.053  24.634  26.636  1.00  0.00     0.016 A 
ATOM     39  C   UNL A   1      41.324  24.782  28.252  1.00  0.00     0.010 A 
ATOM     40  C   UNL A   1      39.358  25.825  27.263  1.00  0.00     0.010 A 
ATOM     41  C   UNL A   1      40.454  25.875  28.116  1.00  0.00    -0.014 A 
BRANCH  41  42
ATOM     42  C   UNL A   1      40.837  27.134  28.730  1.00  0.00     0.031 A 
ATOM     43  C   UNL A   1      41.949  27.779  28.000  1.00  0.00     0.074 A 
ATOM     44  C   UNL A   1      40.242  27.704  29.797  1.00  0.00     0.049 A 
ATOM     45  N   UNL A   1      43.189  27.767  28.355  1.00  0.00    -0.248 NA
ATOM     46  C   UNL A   1      41.711  28.282  26.639  1.00  0.00     0.031 C 
ATOM     47  C   UNL A   1      39.018  27.297  30.489  1.00  0.00     0.029 A 
ATOM     48  N   UNL A   1      40.592  28.847  30.453  1.00  0.00    -0.354 N 
ATOM     49  C   UNL A   1      43.853  28.508  27.391  1.00  0.00     0.074 A 
ATOM     50  C   UNL A   1      42.952  28.606  26.268  1.00  0.00     0.031 C 
ATOM     51  C   UNL A   1      38.612  28.299  31.308  1.00  0.00     0.029 A 
ATOM     52  C   UNL A   1      39.616  29.351  31.307  1.00  0.00     0.049 A 
ATOM     53  H   UNL A   1      41.468  29.281  30.331  1.00  0.00     0.167 HD
ATOM     54  C   UNL A   1      44.950  29.237  27.726  1.00  0.00     0.031 A 
ATOM     55  C   UNL A   1      39.627  30.555  31.943  1.00  0.00     0.031 A 
ATOM     56  C   UNL A   1      45.499  28.826  28.996  1.00  0.00     0.049 A 
ATOM     57  C   UNL A   1      41.044  30.978  32.048  1.00  0.00     0.074 A 
ATOM     58  C   UNL A   1      45.950  27.628  29.519  1.00  0.00     0.029 A 
ATOM     59  N   UNL A   1      45.245  29.638  30.077  1.00  0.00    -0.354 N 
ATOM     60  N   UNL A   1      41.912  30.359  32.797  1.00  0.00    -0.248 NA
ATOM     61  C   UNL A   1      41.607  31.777  30.973  1.00  0.00     0.031 C 
ATOM     62  C   UNL A   1      45.488  27.617  30.869  1.00  0.00     0.029 A 
ATOM     63  C   UNL A   1      44.863  28.840  31.124  1.00  0.00     0.049 A 
ATOM     64  H   UNL A   1      45.323  30.619  30.095  1.00  0.00     0.167 HD
ATOM     65  C   UNL A   1      43.057  30.292  32.018  1.00  0.00     0.074 A 
ATOM     66  C   UNL A   1      42.840  31.265  30.946  1.00  0.00     0.031 C 
ATOM     67  C   UNL A   1      43.941  29.260  32.157  1.00  0.00     0.031 A 
BRANCH  54  68
ATOM     68  C   UNL A   1      45.205  30.607  27.150  1.00  0.00    -0.014 A 
ATOM     69  C   UNL A   1      46.523  30.957  26.802  1.00  0.00     0.010 A 
ATOM     70  C   UNL A   1      44.258  31.651  27.218  1.00  0.00     0.010 A 
ATOM     71  C   UNL A   1      46.885  32.295  26.601  1.00  0.00     0.020 A 
ATOM     72  C   UNL A   1      44.598  32.980  26.975  1.00  0.00     0.020 A 
ATOM     73  C   UNL A   1      45.919  33.296  26.697  1.00  0.00     0.054 A 
BRANCH  73  74
ATOM     74  S   UNL A   1      46.411  35.024  26.500  1.00  0.00     0.124 S 
ATOM     75  O   UNL A   1      45.121  35.686  26.335  1.00  0.00    -0.237 OA
ATOM     76  O   UNL A   1      47.106  35.287  27.756  1.00  0.00    -0.237 OA
ATOM     77  O   UNL A   1      47.265  35.002  25.314  1.00  0.00    -0.744 OA
ENDBRANCH  73  74
ENDBRANCH  54  68
BRANCH  55  78
ATOM     78  C   UNL A   1      38.504  31.510  32.154  1.00  0.00    -0.014 A 
ATOM     79  C   UNL A   1      38.372  32.666  31.356  1.00  0.00     0.010 A 
ATOM     80  C   UNL A   1      37.388  31.121  32.921  1.00  0.00     0.010 A 
ATOM     81  C   UNL A   1      37.147  33.354  31.265  1.00  0.00     0.020 A 
ATOM     82  C   UNL A   1      36.168  31.803  32.839  1.00  0.00     0.020 A 
ATOM     83  C   UNL A   1      36.042  32.899  31.988  1.00  0.00     0.054 A 
BRANCH  83  84
ATOM     84  S   UNL A   1      34.409  33.653  31.712  1.00  0.00     0.124 S 
ATOM     85  O   UNL A   1      34.681  35.072  31.913  1.00  0.00    -0.237 OA
ATOM     86  O   UNL A   1      34.100  33.256  30.341  1.00  0.00    -0.237 OA
ATOM     87  O   UNL A   1      33.568  33.032  32.735  1.00  0.00    -0.744 OA
ENDBRANCH  83  84
ENDBRANCH  55  78
BRANCH  67  88
ATOM     88  C   UNL A   1      43.839  28.383  33.386  1.00  0.00    -0.014 A 
ATOM     89  C   UNL A   1      42.897  27.350  33.563  1.00  0.00     0.010 A 
ATOM     90  C   UNL A   1      44.812  28.571  34.384  1.00  0.00     0.010 A 
ATOM     91  C   UNL A   1      42.892  26.574  34.735  1.00  0.00     0.020 A 
ATOM     92  C   UNL A   1      44.827  27.790  35.540  1.00  0.00     0.020 A 
ATOM     93  C   UNL A   1      43.853  26.810  35.723  1.00  0.00     0.054 A 
BRANCH  93  94
ATOM     94  S   UNL A   1      43.827  25.835  37.252  1.00  0.00     0.124 S 
ATOM     95  O   UNL A   1      45.009  26.321  37.958  1.00  0.00    -0.237 OA
ATOM     96  O   UNL A   1      42.544  26.198  37.847  1.00  0.00    -0.237 OA
ATOM     97  O   UNL A   1      43.914  24.452  36.785  1.00  0.00    -0.744 OA
ENDBRANCH  93  94
ENDBRANCH  67  88
ENDBRANCH  41  42
ENDBRANCH  34  36
ENDBRANCH  33  34
ENDBRANCH  32  33
ENDBRANCH  31  32
ENDBRANCH   1  31
TORSDOF 22
ENDMDL
MODEL 2
REMARK VINA RESULT:     -11.3      2.132      3.362
REMARK SMILES COc1cccc(-c2c(C(=O)OCCOCCOC(=O)c3ccc(-c4c5nc(c(-c6ccc(S(=O)(=O)[O-])cc6)c6ccc([nH]6)c(-c6ccc(S(=O)(=O)[O-])cc6)c6nc(c(-c7ccc(S(=O)(=O)[O-])cc7)c7ccc4[nH]7)C=C6)C=C5)cc3)nnn2-c2ccc(OC(F)(F)F)cc2)c1
REMARK SMILES IDX 15 1 14 2 13 3 12 4 10 5 11 6 9 7 8 8 83 9 81 10 82 11 7 12
REMARK SMILES IDX 3 13 4 14 95 15 5 16 6 17 2 18 1 19 84 20 85 21 94 22 86 23
REMARK SMILES IDX 93 24 87 25 88 26 89 27 90 28 91 29 92 30 16 31 17 32 18 33
REMARK SMILES IDX 19 34 20 35 21 36 22 37 80 38 23 39 79 40 24 41 25 42 26 43
REMARK SMILES IDX 73 44 27 45 78 46 72 47 74 48 28 49 77 50 71 51 70 52 29 54
REMARK SMILES IDX 59 55 40 56 58 57 41 58 44 59 57 60 75 61 42 62 43 63 56 65
REMARK SMILES IDX 76 66 45 67 30 68 31 69 39 70 32 71 38 72 33 73 34 74 35 75
REMARK SMILES IDX 36 76 37 77 60 78 61 79 69 80 62 81 68 82 63 83 64 84 65 85
REMARK SMILES IDX 66 86 67 87 46 88 47 89 55 90 48 91 54 92 49 93 50 94 51 95
REMARK SMILES IDX 52 96 53 97
REMARK H PARENT 74 53 44 64
REMARK Flexibility Score: inf
ROOT
ATOM      1  O   UNL A   1      35.980  21.776  25.495  1.00  0.00    -0.374 OA
ENDROOT
BRANCH   1   2
ATOM      2  C   UNL A   1      34.803  21.471  26.239  1.00  0.00     0.202 C 
BRANCH   2   3
ATOM      3  C   UNL A   1      33.476  21.450  25.477  1.00  0.00     0.261 C 
BRANCH   3   4
ATOM      4  O   UNL A   1      33.661  21.427  24.053  1.00  0.00    -0.458 OA
BRANCH   4   5
ATOM      5  C   UNL A   1      32.868  22.293  23.348  1.00  0.00     0.361 C 
ATOM      6  O   UNL A   1      31.851  21.976  22.761  1.00  0.00    -0.244 OA
BRANCH   5   7
ATOM      7  C   UNL A   1      33.311  23.676  23.457  1.00  0.00     0.198 A 
ATOM      8  C   UNL A   1      32.651  24.800  23.934  1.00  0.00     0.109 A 
ATOM      9  N   UNL A   1      33.665  25.758  23.941  1.00  0.00    -0.212 N 
ATOM     10  N   UNL A   1      34.556  24.045  22.994  1.00  0.00    -0.122 NA
ATOM     11  N   UNL A   1      34.698  25.348  23.177  1.00  0.00    -0.061 NA
BRANCH   8  12
ATOM     12  C   UNL A   1      31.286  25.056  24.404  1.00  0.00     0.007 A 
ATOM     13  C   UNL A   1      29.162  26.227  24.128  1.00  0.00     0.119 A 
ATOM     14  C   UNL A   1      28.765  25.767  25.383  1.00  0.00     0.046 A 
ATOM     15  C   UNL A   1      30.411  25.852  23.633  1.00  0.00     0.056 A 
ATOM     16  C   UNL A   1      29.596  24.936  26.133  1.00  0.00     0.005 A 
ATOM     17  C   UNL A   1      30.856  24.585  25.648  1.00  0.00     0.011 A 
BRANCH  13  18
ATOM     18  O   UNL A   1      28.274  27.073  23.528  1.00  0.00    -0.497 OA
ATOM     19  C   UNL A   1      28.749  28.345  23.104  1.00  0.00     0.278 C 
ENDBRANCH  13  18
ENDBRANCH   8  12
BRANCH   9  20
ATOM     20  C   UNL A   1      33.764  26.930  24.722  1.00  0.00     0.067 A 
ATOM     21  C   UNL A   1      33.817  26.846  26.114  1.00  0.00     0.032 A 
ATOM     22  C   UNL A   1      33.786  28.179  24.089  1.00  0.00     0.032 A 
ATOM     23  C   UNL A   1      33.973  28.020  26.859  1.00  0.00     0.049 A 
ATOM     24  C   UNL A   1      33.893  29.345  24.844  1.00  0.00     0.049 A 
ATOM     25  C   UNL A   1      34.016  29.273  26.231  1.00  0.00     0.129 A 
BRANCH  25  26
ATOM     26  O   UNL A   1      34.179  30.333  27.077  1.00  0.00    -0.406 OA
BRANCH  26  27
ATOM     27  C   UNL A   1      35.474  30.548  27.615  1.00  0.00     0.573 C 
ATOM     28  F   UNL A   1      36.420  29.885  26.916  1.00  0.00    -0.132 F 
ATOM     29  F   UNL A   1      35.772  31.867  27.632  1.00  0.00    -0.132 F 
ATOM     30  F   UNL A   1      35.500  30.099  28.890  1.00  0.00    -0.132 F 
ENDBRANCH  26  27
ENDBRANCH  25  26
ENDBRANCH   9  20
ENDBRANCH   5   7
ENDBRANCH   4   5
ENDBRANCH   3   4
ENDBRANCH   2   3
ENDBRANCH   1   2
BRANCH   1  31
ATOM     31  C   UNL A   1      36.814  20.717  25.040  1.00  0.00     0.202 C 
BRANCH  31  32
ATOM     32  C   UNL A   1      38.316  20.820  25.273  1.00  0.00     0.261 C 
BRANCH  32  33
ATOM     33  O   UNL A   1      38.758  22.134  25.597  1.00  0.00    -0.460 OA
BRANCH  33  34
ATOM     34  C   UNL A   1      40.004  22.167  26.130  1.00  0.00     0.338 C 
ATOM     35  O   UNL A   1      40.876  21.325  25.993  1.00  0.00    -0.246 OA
BRANCH  34  36
ATOM     36  C   UNL A   1      40.096  23.291  27.072  1.00  0.00     0.060 A 
ATOM     37  C   UNL A   1      39.064  24.229  27.037  1.00  0.00     0.016 A 
ATOM     38  C   UNL A   1      41.277  23.530  27.791  1.00  0.00     0.016 A 
ATOM     39  C   UNL A   1      39.284  25.475  27.591  1.00  0.00     0.010 A 
ATOM     40  C   UNL A   1      41.497  24.780  28.334  1.00  0.00     0.010 A 
ATOM     41  C   UNL A   1      40.526  25.763  28.177  1.00  0.00    -0.014 A 
BRANCH  41  42
ATOM     42  C   UNL A   1      40.703  27.061  28.802  1.00  0.00     0.031 A 
ATOM     43  C   UNL A   1      41.888  27.765  28.267  1.00  0.00     0.074 A 
ATOM     44  C   UNL A   1      39.882  27.614  29.717  1.00  0.00     0.049 A 
ATOM     45  N   UNL A   1      43.037  27.851  28.846  1.00  0.00    -0.248 NA
ATOM     46  C   UNL A   1      41.879  28.215  26.867  1.00  0.00     0.031 C 
ATOM     47  C   UNL A   1      38.580  27.138  30.185  1.00  0.00     0.029 A 
ATOM     48  N   UNL A   1      40.028  28.795  30.382  1.00  0.00    -0.354 N 
ATOM     49  C   UNL A   1      43.821  28.613  27.996  1.00  0.00     0.074 A 
ATOM     50  C   UNL A   1      43.143  28.618  26.722  1.00  0.00     0.031 C 
ATOM     51  C   UNL A   1      37.962  28.129  30.875  1.00  0.00     0.029 A 
ATOM     52  C   UNL A   1      38.878  29.250  31.020  1.00  0.00     0.049 A 
ATOM     53  H   UNL A   1      40.881  29.287  30.409  1.00  0.00     0.167 HD
ATOM     54  C   UNL A   1      44.785  29.427  28.500  1.00  0.00     0.031 A 
ATOM     55  C   UNL A   1      38.690  30.467  31.601  1.00  0.00     0.031 A 
ATOM     56  C   UNL A   1      45.111  29.088  29.865  1.00  0.00     0.049 A 
ATOM     57  C   UNL A   1      40.031  30.993  31.951  1.00  0.00     0.074 A 
ATOM     58  C   UNL A   1      45.533  27.939  30.508  1.00  0.00     0.029 A 
ATOM     59  N   UNL A   1      44.606  29.907  30.848  1.00  0.00    -0.354 N 
ATOM     60  N   UNL A   1      40.781  30.457  32.871  1.00  0.00    -0.248 NA
ATOM     61  C   UNL A   1      40.732  31.803  30.969  1.00  0.00     0.031 C 
ATOM     62  C   UNL A   1      44.828  27.930  31.748  1.00  0.00     0.029 A 
ATOM     63  C   UNL A   1      44.087  29.110  31.835  1.00  0.00     0.049 A 
ATOM     64  H   UNL A   1      44.615  30.891  30.843  1.00  0.00     0.167 HD
ATOM     65  C   UNL A   1      42.054  30.452  32.322  1.00  0.00     0.074 A 
ATOM     66  C   UNL A   1      41.980  31.379  31.192  1.00  0.00     0.031 C 
ATOM     67  C   UNL A   1      42.962  29.490  32.663  1.00  0.00     0.031 A 
BRANCH  54  68
ATOM     68  C   UNL A   1      45.054  30.796  27.929  1.00  0.00    -0.014 A 
ATOM     69  C   UNL A   1      43.965  31.660  27.708  1.00  0.00     0.010 A 
ATOM     70  C   UNL A   1      46.284  31.145  27.331  1.00  0.00     0.010 A 
ATOM     71  C   UNL A   1      44.088  32.778  26.875  1.00  0.00     0.020 A 
ATOM     72  C   UNL A   1      46.429  32.281  26.538  1.00  0.00     0.020 A 
ATOM     73  C   UNL A   1      45.320  33.074  26.290  1.00  0.00     0.054 A 
BRANCH  73  74
ATOM     74  S   UNL A   1      45.450  34.482  25.165  1.00  0.00     0.124 S 
ATOM     75  O   UNL A   1      44.678  34.019  24.016  1.00  0.00    -0.237 OA
ATOM     76  O   UNL A   1      44.843  35.554  25.948  1.00  0.00    -0.237 OA
ATOM     77  O   UNL A   1      46.889  34.613  24.947  1.00  0.00    -0.744 OA
ENDBRANCH  73  74
ENDBRANCH  54  68
BRANCH  55  78
ATOM     78  C   UNL A   1      37.487  31.344  31.563  1.00  0.00    -0.014 A 
ATOM     79  C   UNL A   1      36.527  31.307  32.596  1.00  0.00     0.010 A 
ATOM     80  C   UNL A   1      37.446  32.441  30.679  1.00  0.00     0.010 A 
ATOM     81  C   UNL A   1      35.619  32.367  32.788  1.00  0.00     0.020 A 
ATOM     82  C   UNL A   1      36.543  33.496  30.861  1.00  0.00     0.020 A 
ATOM     83  C   UNL A   1      35.653  33.471  31.932  1.00  0.00     0.054 A 
BRANCH  83  84
ATOM     84  S   UNL A   1      34.632  34.931  32.300  1.00  0.00     0.124 S 
ATOM     85  O   UNL A   1      35.501  35.707  33.179  1.00  0.00    -0.237 OA
ATOM     86  O   UNL A   1      34.400  35.502  30.976  1.00  0.00    -0.237 OA
ATOM     87  O   UNL A   1      33.445  34.367  32.942  1.00  0.00    -0.744 OA
ENDBRANCH  83  84
ENDBRANCH  55  78
BRANCH  67  88
ATOM     88  C   UNL A   1      42.688  28.639  33.884  1.00  0.00    -0.014 A 
ATOM     89  C   UNL A   1      42.969  29.020  35.211  1.00  0.00     0.010 A 
ATOM     90  C   UNL A   1      42.033  27.413  33.670  1.00  0.00     0.010 A 
ATOM     91  C   UNL A   1      42.661  28.167  36.284  1.00  0.00     0.020 A 
ATOM     92  C   UNL A   1      41.703  26.570  34.732  1.00  0.00     0.020 A 
ATOM     93  C   UNL A   1      42.039  26.939  36.034  1.00  0.00     0.054 A 
BRANCH  93  94
ATOM     94  S   UNL A   1      41.672  25.820  37.413  1.00  0.00     0.124 S 
ATOM     95  O   UNL A   1      40.302  26.183  37.761  1.00  0.00    -0.237 OA
ATOM     96  O   UNL A   1      41.842  24.499  36.813  1.00  0.00    -0.237 OA
ATOM     97  O   UNL A   1      42.675  26.166  38.420  1.00  0.00    -0.744 OA
ENDBRANCH  93  94
ENDBRANCH  67  88
ENDBRANCH  41  42
ENDBRANCH  34  36
ENDBRANCH  33  34
ENDBRANCH  32  33
ENDBRANCH  31  32
ENDBRANCH   1  31
TORSDOF 22
ENDMDL
MODEL 3
REMARK VINA RESULT:     -11.2      4.069      9.601
REMARK SMILES COc1cccc(-c2c(C(=O)OCCOCCOC(=O)c3ccc(-c4c5nc(c(-c6ccc(S(=O)(=O)[O-])cc6)c6ccc([nH]6)c(-c6ccc(S(=O)(=O)[O-])cc6)c6nc(c(-c7ccc(S(=O)(=O)[O-])cc7)c7ccc4[nH]7)C=C6)C=C5)cc3)nnn2-c2ccc(OC(F)(F)F)cc2)c1
REMARK SMILES IDX 15 1 14 2 13 3 12 4 10 5 11 6 9 7 8 8 83 9 81 10 82 11 7 12
REMARK SMILES IDX 3 13 4 14 95 15 5 16 6 17 2 18 1 19 84 20 85 21 94 22 86 23
REMARK SMILES IDX 93 24 87 25 88 26 89 27 90 28 91 29 92 30 16 31 17 32 18 33
REMARK SMILES IDX 19 34 20 35 21 36 22 37 80 38 23 39 79 40 24 41 25 42 26 43
REMARK SMILES IDX 73 44 27 45 78 46 72 47 74 48 28 49 77 50 71 51 70 52 29 54
REMARK SMILES IDX 59 55 40 56 58 57 41 58 44 59 57 60 75 61 42 62 43 63 56 65
REMARK SMILES IDX 76 66 45 67 30 68 31 69 39 70 32 71 38 72 33 73 34 74 35 75
REMARK SMILES IDX 36 76 37 77 60 78 61 79 69 80 62 81 68 82 63 83 64 84 65 85
REMARK SMILES IDX 66 86 67 87 46 88 47 89 55 90 48 91 54 92 49 93 50 94 51 95
REMARK SMILES IDX 52 96 53 97
REMARK H PARENT 74 53 44 64
REMARK Flexibility Score: inf
ROOT
ATOM      1  O   UNL A   1      32.076  28.933  24.638  1.00  0.00    -0.374 OA
ENDROOT
BRANCH   1   2
ATOM      2  C   UNL A   1      30.900  28.202  24.299  1.00  0.00     0.202 C 
BRANCH   2   3
ATOM      3  C   UNL A   1      30.791  27.672  22.867  1.00  0.00     0.261 C 
BRANCH   3   4
ATOM      4  O   UNL A   1      32.014  27.072  22.409  1.00  0.00    -0.458 OA
BRANCH   4   5
ATOM      5  C   UNL A   1      31.866  26.105  21.451  1.00  0.00     0.361 C 
ATOM      6  O   UNL A   1      31.293  26.266  20.390  1.00  0.00    -0.244 OA
BRANCH   5   7
ATOM      7  C   UNL A   1      32.565  24.871  21.785  1.00  0.00     0.198 A 
ATOM      8  C   UNL A   1      32.746  24.239  23.007  1.00  0.00     0.109 A 
ATOM      9  N   UNL A   1      33.333  23.032  22.632  1.00  0.00    -0.212 N 
ATOM     10  N   UNL A   1      33.233  24.166  20.807  1.00  0.00    -0.122 NA
ATOM     11  N   UNL A   1      33.809  23.116  21.372  1.00  0.00    -0.061 NA
BRANCH   8  12
ATOM     12  C   UNL A   1      32.409  24.585  24.391  1.00  0.00     0.007 A 
ATOM     13  C   UNL A   1      30.805  24.530  26.232  1.00  0.00     0.119 A 
ATOM     14  C   UNL A   1      31.611  25.423  26.937  1.00  0.00     0.046 A 
ATOM     15  C   UNL A   1      31.217  24.097  24.971  1.00  0.00     0.056 A 
ATOM     16  C   UNL A   1      32.817  25.872  26.401  1.00  0.00     0.005 A 
ATOM     17  C   UNL A   1      33.213  25.460  25.128  1.00  0.00     0.011 A 
BRANCH  13  18
ATOM     18  O   UNL A   1      29.631  24.214  26.852  1.00  0.00    -0.497 OA
ATOM     19  C   UNL A   1      29.403  22.852  27.192  1.00  0.00     0.278 C 
ENDBRANCH  13  18
ENDBRANCH   8  12
BRANCH   9  20
ATOM     20  C   UNL A   1      33.335  21.800  23.324  1.00  0.00     0.067 A 
ATOM     21  C   UNL A   1      34.322  21.527  24.271  1.00  0.00     0.032 A 
ATOM     22  C   UNL A   1      32.353  20.846  23.033  1.00  0.00     0.032 A 
ATOM     23  C   UNL A   1      34.267  20.323  24.981  1.00  0.00     0.049 A 
ATOM     24  C   UNL A   1      32.335  19.630  23.714  1.00  0.00     0.049 A 
ATOM     25  C   UNL A   1      33.274  19.371  24.711  1.00  0.00     0.129 A 
BRANCH  25  26
ATOM     26  O   UNL A   1      33.333  18.246  25.484  1.00  0.00    -0.406 OA
BRANCH  26  27
ATOM     27  C   UNL A   1      33.887  17.079  24.900  1.00  0.00     0.573 C 
ATOM     28  F   UNL A   1      34.932  17.372  24.096  1.00  0.00    -0.132 F 
ATOM     29  F   UNL A   1      34.289  16.210  25.856  1.00  0.00    -0.132 F 
ATOM     30  F   UNL A   1      32.940  16.468  24.155  1.00  0.00    -0.132 F 
ENDBRANCH  26  27
ENDBRANCH  25  26
ENDBRANCH   9  20
ENDBRANCH   5   7
ENDBRANCH   4   5
ENDBRANCH   3   4
ENDBRANCH   2   3
ENDBRANCH   1   2
BRANCH   1  31
ATOM     31  C   UNL A   1      32.202  29.489  25.942  1.00  0.00     0.202 C 
BRANCH  31  32
ATOM     32  C   UNL A   1      33.402  30.377  26.243  1.00  0.00     0.261 C 
BRANCH  32  33
ATOM     33  O   UNL A   1      33.631  30.579  27.634  1.00  0.00    -0.460 OA
BRANCH  33  34
ATOM     34  C   UNL A   1      34.476  31.606  27.897  1.00  0.00     0.338 C 
ATOM     35  O   UNL A   1      34.357  32.760  27.520  1.00  0.00    -0.246 OA
BRANCH  34  36
ATOM     36  C   UNL A   1      35.681  31.084  28.555  1.00  0.00     0.060 A 
ATOM     37  C   UNL A   1      36.781  31.939  28.627  1.00  0.00     0.016 A 
ATOM     38  C   UNL A   1      35.793  29.721  28.873  1.00  0.00     0.016 A 
ATOM     39  C   UNL A   1      38.028  31.394  28.862  1.00  0.00     0.010 A 
ATOM     40  C   UNL A   1      37.042  29.179  29.097  1.00  0.00     0.010 A 
ATOM     41  C   UNL A   1      38.157  30.007  29.028  1.00  0.00    -0.014 A 
BRANCH  41  42
ATOM     42  C   UNL A   1      39.473  29.474  29.332  1.00  0.00     0.031 A 
ATOM     43  C   UNL A   1      39.726  29.447  30.788  1.00  0.00     0.074 A 
ATOM     44  C   UNL A   1      40.360  29.002  28.432  1.00  0.00     0.049 A 
ATOM     45  N   UNL A   1      40.435  30.301  31.445  1.00  0.00    -0.248 NA
ATOM     46  C   UNL A   1      38.940  28.534  31.631  1.00  0.00     0.031 C 
ATOM     47  C   UNL A   1      40.176  28.774  26.998  1.00  0.00     0.029 A 
ATOM     48  N   UNL A   1      41.627  28.549  28.649  1.00  0.00    -0.354 N 
ATOM     49  C   UNL A   1      40.408  29.866  32.759  1.00  0.00     0.074 A 
ATOM     50  C   UNL A   1      39.316  28.928  32.850  1.00  0.00     0.031 C 
ATOM     51  C   UNL A   1      41.201  28.021  26.529  1.00  0.00     0.029 A 
ATOM     52  C   UNL A   1      42.180  27.836  27.589  1.00  0.00     0.049 A 
ATOM     53  H   UNL A   1      42.114  28.715  29.489  1.00  0.00     0.167 HD
ATOM     54  C   UNL A   1      41.479  30.076  33.570  1.00  0.00     0.031 A 
ATOM     55  C   UNL A   1      43.344  27.129  27.597  1.00  0.00     0.031 A 
ATOM     56  C   UNL A   1      42.366  31.081  33.036  1.00  0.00     0.049 A 
ATOM     57  C   UNL A   1      44.188  27.692  28.677  1.00  0.00     0.074 A 
ATOM     58  C   UNL A   1      42.220  32.397  32.637  1.00  0.00     0.029 A 
ATOM     59  N   UNL A   1      43.529  30.636  32.449  1.00  0.00    -0.354 N 
ATOM     60  N   UNL A   1      44.694  28.891  28.625  1.00  0.00    -0.248 NA
ATOM     61  C   UNL A   1      44.076  27.120  30.008  1.00  0.00     0.031 C 
ATOM     62  C   UNL A   1      43.025  32.520  31.466  1.00  0.00     0.029 A 
ATOM     63  C   UNL A   1      43.687  31.307  31.265  1.00  0.00     0.049 A 
ATOM     64  H   UNL A   1      44.139  29.956  32.816  1.00  0.00     0.167 HD
ATOM     65  C   UNL A   1      44.512  29.401  29.901  1.00  0.00     0.074 A 
ATOM     66  C   UNL A   1      44.215  28.234  30.733  1.00  0.00     0.031 C 
ATOM     67  C   UNL A   1      44.342  30.741  30.104  1.00  0.00     0.031 A 
BRANCH  54  68
ATOM     68  C   UNL A   1      41.946  29.039  34.560  1.00  0.00    -0.014 A 
ATOM     69  C   UNL A   1      42.434  29.470  35.808  1.00  0.00     0.010 A 
ATOM     70  C   UNL A   1      42.201  27.699  34.197  1.00  0.00     0.010 A 
ATOM     71  C   UNL A   1      43.196  28.619  36.618  1.00  0.00     0.020 A 
ATOM     72  C   UNL A   1      42.919  26.830  35.017  1.00  0.00     0.020 A 
ATOM     73  C   UNL A   1      43.438  27.307  36.210  1.00  0.00     0.054 A 
BRANCH  73  74
ATOM     74  S   UNL A   1      44.477  26.240  37.233  1.00  0.00     0.124 S 
ATOM     75  O   UNL A   1      43.797  24.954  37.110  1.00  0.00    -0.237 OA
ATOM     76  O   UNL A   1      45.770  26.343  36.564  1.00  0.00    -0.237 OA
ATOM     77  O   UNL A   1      44.412  26.864  38.553  1.00  0.00    -0.744 OA
ENDBRANCH  73  74
ENDBRANCH  54  68
BRANCH  55  78
ATOM     78  C   UNL A   1      43.636  25.805  26.980  1.00  0.00    -0.014 A 
ATOM     79  C   UNL A   1      43.148  25.476  25.697  1.00  0.00     0.010 A 
ATOM     80  C   UNL A   1      44.656  24.993  27.513  1.00  0.00     0.010 A 
ATOM     81  C   UNL A   1      43.718  24.431  24.945  1.00  0.00     0.020 A 
ATOM     82  C   UNL A   1      45.224  23.948  26.773  1.00  0.00     0.020 A 
ATOM     83  C   UNL A   1      44.774  23.690  25.480  1.00  0.00     0.054 A 
BRANCH  83  84
ATOM     84  S   UNL A   1      45.651  22.484  24.437  1.00  0.00     0.124 S 
ATOM     85  O   UNL A   1      46.675  23.307  23.801  1.00  0.00    -0.237 OA
ATOM     86  O   UNL A   1      46.137  21.511  25.412  1.00  0.00    -0.237 OA
ATOM     87  O   UNL A   1      44.610  21.986  23.540  1.00  0.00    -0.744 OA
ENDBRANCH  83  84
ENDBRANCH  55  78
BRANCH  67  88
ATOM     88  C   UNL A   1      44.690  31.692  28.979  1.00  0.00    -0.014 A 
ATOM     89  C   UNL A   1      43.793  32.122  27.981  1.00  0.00     0.010 A 
ATOM     90  C   UNL A   1      45.985  32.239  28.988  1.00  0.00     0.010 A 
ATOM     91  C   UNL A   1      44.204  33.023  26.985  1.00  0.00     0.020 A 
ATOM     92  C   UNL A   1      46.394  33.152  28.015  1.00  0.00     0.020 A 
ATOM     93  C   UNL A   1      45.510  33.523  27.003  1.00  0.00     0.054 A 
BRANCH  93  94
ATOM     94  S   UNL A   1      46.056  34.659  25.698  1.00  0.00     0.124 S 
ATOM     95  O   UNL A   1      45.208  34.280  24.573  1.00  0.00    -0.237 OA
ATOM     96  O   UNL A   1      45.785  35.972  26.277  1.00  0.00    -0.237 OA
ATOM     97  O   UNL A   1      47.475  34.345  25.534  1.00  0.00    -0.744 OA
ENDBRANCH  93  94
ENDBRANCH  67  88
ENDBRANCH  41  42
ENDBRANCH  34  36
ENDBRANCH  33  34
ENDBRANCH  32  33
ENDBRANCH  31  32
ENDBRANCH   1  31
TORSDOF 22
ENDMDL
