MODEL 1
REMARK VINA RESULT:     -11.6      0.000      0.000
REMARK SMILES CNC(=O)c1ccc(-n2nc(C)c(C(=O)OCCOCCOC(=O)c3ccc(-c4c5nc(c(-c6ccc(S(=O)(=O)[O-])cc6)c6ccc([nH]6)c(-c6ccc(S(=O)(=O)[O-])cc6)c6nc(c(-c7ccc(S(=O)(=O)[O-])cc7)c7ccc4[nH]7)C=C6)C=C5)cc3)c2C)nn1
REMARK SMILES IDX 20 1 19 2 18 3 17 4 16 5 14 6 15 7 13 8 9 9 10 10 85 11
REMARK SMILES IDX 11 12 86 13 12 14 8 15 5 16 6 17 88 18 7 19 87 20 3 21 1 22
REMARK SMILES IDX 2 23 4 25 21 26 22 27 23 28 24 29 25 30 26 31 84 32 27 33
REMARK SMILES IDX 83 34 28 35 29 36 30 37 77 38 31 39 82 40 76 41 78 42 32 43
REMARK SMILES IDX 81 44 75 45 74 46 33 48 63 49 44 50 62 51 45 52 48 53 61 54
REMARK SMILES IDX 79 55 46 56 47 57 60 59 80 60 49 61 34 62 35 63 43 64 36 65
REMARK SMILES IDX 42 66 37 67 38 68 39 69 40 70 41 71 64 72 65 73 73 74 66 75
REMARK SMILES IDX 72 76 67 77 68 78 69 79 70 80 71 81 50 82 51 83 59 84 52 85
REMARK SMILES IDX 58 86 53 87 54 88 55 89 56 90 57 91
REMARK H PARENT 2 24 78 47 48 58
REMARK Flexibility Score: inf
ROOT
ATOM      1  C   UNL A   1      36.424  21.467  25.517  1.00  0.00     0.202 C 
ENDROOT
BRANCH   1   2
ATOM      2  O   UNL A   1      35.589  21.660  24.381  1.00  0.00    -0.374 OA
BRANCH   2   3
ATOM      3  C   UNL A   1      35.527  22.940  23.750  1.00  0.00     0.202 C 
BRANCH   3   4
ATOM      4  C   UNL A   1      35.208  24.146  24.635  1.00  0.00     0.261 C 
BRANCH   4   5
ATOM      5  O   UNL A   1      34.073  24.870  24.140  1.00  0.00    -0.460 OA
BRANCH   5   6
ATOM      6  C   UNL A   1      33.103  25.156  25.051  1.00  0.00     0.341 C 
ATOM      7  O   UNL A   1      33.244  25.098  26.268  1.00  0.00    -0.246 OA
BRANCH   6   8
ATOM      8  C   UNL A   1      31.896  25.665  24.427  1.00  0.00     0.104 A 
ATOM      9  N   UNL A   1      30.310  26.967  23.609  1.00  0.00    -0.217 N 
ATOM     10  N   UNL A   1      29.939  25.715  23.246  1.00  0.00    -0.171 NA
ATOM     11  C   UNL A   1      31.343  26.931  24.537  1.00  0.00     0.058 A 
ATOM     12  C   UNL A   1      30.933  24.932  23.682  1.00  0.00     0.075 A 
ATOM     13  C   UNL A   1      31.682  28.056  25.454  1.00  0.00     0.068 C 
ATOM     14  C   UNL A   1      30.876  23.464  23.442  1.00  0.00     0.070 C 
BRANCH   9  15
ATOM     15  C   UNL A   1      29.751  28.116  22.989  1.00  0.00     0.175 A 
ATOM     16  C   UNL A   1      28.632  30.236  21.734  1.00  0.00     0.150 A 
ATOM     17  C   UNL A   1      27.858  29.542  22.646  1.00  0.00     0.040 A 
ATOM     18  N   UNL A   1      29.923  29.922  21.482  1.00  0.00    -0.143 NA
ATOM     19  C   UNL A   1      28.436  28.463  23.294  1.00  0.00     0.053 A 
ATOM     20  N   UNL A   1      30.499  28.861  22.142  1.00  0.00    -0.130 NA
BRANCH  16  21
ATOM     21  C   UNL A   1      28.047  31.378  21.000  1.00  0.00     0.271 C 
ATOM     22  C   UNL A   1      28.870  33.079  22.701  1.00  0.00     0.143 C 
ATOM     23  N   UNL A   1      28.117  32.639  21.550  1.00  0.00    -0.354 N 
ATOM     24  H   UNL A   1      27.584  33.332  21.098  1.00  0.00     0.163 HD
ATOM     25  O   UNL A   1      27.450  31.202  19.944  1.00  0.00    -0.267 OA
ENDBRANCH  16  21
ENDBRANCH   9  15
ENDBRANCH   6   8
ENDBRANCH   5   6
ENDBRANCH   4   5
ENDBRANCH   3   4
ENDBRANCH   2   3
ENDBRANCH   1   2
BRANCH   1  26
ATOM     26  C   UNL A   1      37.919  21.706  25.382  1.00  0.00     0.261 C 
BRANCH  26  27
ATOM     27  O   UNL A   1      38.400  22.601  26.371  1.00  0.00    -0.460 OA
BRANCH  27  28
ATOM     28  C   UNL A   1      39.711  22.434  26.660  1.00  0.00     0.338 C 
ATOM     29  O   UNL A   1      40.283  21.385  26.900  1.00  0.00    -0.246 OA
BRANCH  28  30
ATOM     30  C   UNL A   1      40.322  23.756  26.801  1.00  0.00     0.060 A 
ATOM     31  C   UNL A   1      41.414  23.834  27.665  1.00  0.00     0.016 A 
ATOM     32  C   UNL A   1      39.619  24.894  26.374  1.00  0.00     0.016 A 
ATOM     33  C   UNL A   1      41.639  25.026  28.309  1.00  0.00     0.010 A 
ATOM     34  C   UNL A   1      39.837  26.079  27.027  1.00  0.00     0.010 A 
ATOM     35  C   UNL A   1      40.774  26.096  28.054  1.00  0.00    -0.014 A 
BRANCH  35  36
ATOM     36  C   UNL A   1      40.937  27.298  28.832  1.00  0.00     0.031 A 
ATOM     37  C   UNL A   1      41.973  28.180  28.263  1.00  0.00     0.074 A 
ATOM     38  C   UNL A   1      40.166  27.595  29.893  1.00  0.00     0.049 A 
ATOM     39  N   UNL A   1      43.177  28.333  28.698  1.00  0.00    -0.248 NA
ATOM     40  C   UNL A   1      41.730  28.761  26.932  1.00  0.00     0.031 C 
ATOM     41  C   UNL A   1      38.953  26.925  30.368  1.00  0.00     0.029 A 
ATOM     42  N   UNL A   1      40.265  28.658  30.728  1.00  0.00    -0.354 N 
ATOM     43  C   UNL A   1      43.767  29.230  27.823  1.00  0.00     0.074 A 
ATOM     44  C   UNL A   1      42.931  29.264  26.650  1.00  0.00     0.031 C 
ATOM     45  C   UNL A   1      38.303  27.747  31.228  1.00  0.00     0.029 A 
ATOM     46  C   UNL A   1      39.119  28.928  31.463  1.00  0.00     0.049 A 
ATOM     47  H   UNL A   1      41.086  29.197  30.806  1.00  0.00     0.167 HD
ATOM     48  C   UNL A   1      44.730  30.092  28.244  1.00  0.00     0.031 A 
ATOM     49  C   UNL A   1      38.853  30.081  32.133  1.00  0.00     0.031 A 
ATOM     50  C   UNL A   1      45.233  29.736  29.545  1.00  0.00     0.049 A 
ATOM     51  C   UNL A   1      40.160  30.764  32.349  1.00  0.00     0.074 A 
ATOM     52  C   UNL A   1      45.875  28.629  30.065  1.00  0.00     0.029 A 
ATOM     53  N   UNL A   1      44.705  30.416  30.618  1.00  0.00    -0.354 N 
ATOM     54  N   UNL A   1      41.096  30.279  33.116  1.00  0.00    -0.248 NA
ATOM     55  C   UNL A   1      40.616  31.704  31.334  1.00  0.00     0.031 C 
ATOM     56  C   UNL A   1      45.309  28.450  31.359  1.00  0.00     0.029 A 
ATOM     57  C   UNL A   1      44.416  29.498  31.596  1.00  0.00     0.049 A 
ATOM     58  H   UNL A   1      44.560  31.389  30.675  1.00  0.00     0.167 HD
ATOM     59  C   UNL A   1      42.276  30.487  32.414  1.00  0.00     0.074 A 
ATOM     60  C   UNL A   1      41.928  31.444  31.363  1.00  0.00     0.031 C 
ATOM     61  C   UNL A   1      43.345  29.647  32.561  1.00  0.00     0.031 A 
BRANCH  48  62
ATOM     62  C   UNL A   1      44.895  31.471  27.670  1.00  0.00    -0.014 A 
ATOM     63  C   UNL A   1      46.145  31.840  27.143  1.00  0.00     0.010 A 
ATOM     64  C   UNL A   1      43.948  32.499  27.868  1.00  0.00     0.010 A 
ATOM     65  C   UNL A   1      46.444  33.179  26.865  1.00  0.00     0.020 A 
ATOM     66  C   UNL A   1      44.218  33.829  27.553  1.00  0.00     0.020 A 
ATOM     67  C   UNL A   1      45.476  34.164  27.076  1.00  0.00     0.054 A 
BRANCH  67  68
ATOM     68  S   UNL A   1      45.896  35.895  26.775  1.00  0.00     0.124 S 
ATOM     69  O   UNL A   1      46.635  35.812  25.519  1.00  0.00    -0.237 OA
ATOM     70  O   UNL A   1      44.577  36.519  26.696  1.00  0.00    -0.237 OA
ATOM     71  O   UNL A   1      46.687  36.266  27.946  1.00  0.00    -0.744 OA
ENDBRANCH  67  68
ENDBRANCH  48  62
BRANCH  49  72
ATOM     72  C   UNL A   1      37.554  30.804  32.213  1.00  0.00    -0.014 A 
ATOM     73  C   UNL A   1      37.138  31.422  33.410  1.00  0.00     0.010 A 
ATOM     74  C   UNL A   1      36.860  31.145  31.034  1.00  0.00     0.010 A 
ATOM     75  C   UNL A   1      36.124  32.399  33.410  1.00  0.00     0.020 A 
ATOM     76  C   UNL A   1      35.846  32.112  31.027  1.00  0.00     0.020 A 
ATOM     77  C   UNL A   1      35.502  32.757  32.212  1.00  0.00     0.054 A 
BRANCH  77  78
ATOM     78  S   UNL A   1      34.348  34.163  32.180  1.00  0.00     0.124 S 
ATOM     79  O   UNL A   1      33.908  34.173  30.788  1.00  0.00    -0.237 OA
ATOM     80  O   UNL A   1      33.339  33.768  33.159  1.00  0.00    -0.237 OA
ATOM     81  O   UNL A   1      35.179  35.299  32.577  1.00  0.00    -0.744 OA
ENDBRANCH  77  78
ENDBRANCH  49  72
BRANCH  61  82
ATOM     82  C   UNL A   1      43.328  28.654  33.702  1.00  0.00    -0.014 A 
ATOM     83  C   UNL A   1      43.976  28.850  34.939  1.00  0.00     0.010 A 
ATOM     84  C   UNL A   1      42.491  27.534  33.558  1.00  0.00     0.010 A 
ATOM     85  C   UNL A   1      43.817  27.926  35.985  1.00  0.00     0.020 A 
ATOM     86  C   UNL A   1      42.313  26.624  34.599  1.00  0.00     0.020 A 
ATOM     87  C   UNL A   1      42.988  26.813  35.805  1.00  0.00     0.054 A 
BRANCH  87  88
ATOM     88  S   UNL A   1      42.769  25.624  37.158  1.00  0.00     0.124 S 
ATOM     89  O   UNL A   1      43.859  24.679  36.929  1.00  0.00    -0.237 OA
ATOM     90  O   UNL A   1      42.899  26.459  38.349  1.00  0.00    -0.237 OA
ATOM     91  O   UNL A   1      41.428  25.085  36.934  1.00  0.00    -0.744 OA
ENDBRANCH  87  88
ENDBRANCH  61  82
ENDBRANCH  35  36
ENDBRANCH  28  30
ENDBRANCH  27  28
ENDBRANCH  26  27
ENDBRANCH   1  26
TORSDOF 19
ENDMDL
MODEL 2
REMARK VINA RESULT:     -11.0      3.536      9.984
REMARK SMILES CNC(=O)c1ccc(-n2nc(C)c(C(=O)OCCOCCOC(=O)c3ccc(-c4c5nc(c(-c6ccc(S(=O)(=O)[O-])cc6)c6ccc([nH]6)c(-c6ccc(S(=O)(=O)[O-])cc6)c6nc(c(-c7ccc(S(=O)(=O)[O-])cc7)c7ccc4[nH]7)C=C6)C=C5)cc3)c2C)nn1
REMARK SMILES IDX 20 1 19 2 18 3 17 4 16 5 14 6 15 7 13 8 9 9 10 10 85 11
REMARK SMILES IDX 11 12 86 13 12 14 8 15 5 16 6 17 88 18 7 19 87 20 3 21 1 22
REMARK SMILES IDX 2 23 4 25 21 26 22 27 23 28 24 29 25 30 26 31 84 32 27 33
REMARK SMILES IDX 83 34 28 35 29 36 30 37 77 38 31 39 82 40 76 41 78 42 32 43
REMARK SMILES IDX 81 44 75 45 74 46 33 48 63 49 44 50 62 51 45 52 48 53 61 54
REMARK SMILES IDX 79 55 46 56 47 57 60 59 80 60 49 61 34 62 35 63 43 64 36 65
REMARK SMILES IDX 42 66 37 67 38 68 39 69 40 70 41 71 64 72 65 73 73 74 66 75
REMARK SMILES IDX 72 76 67 77 68 78 69 79 70 80 71 81 50 82 51 83 59 84 52 85
REMARK SMILES IDX 58 86 53 87 54 88 55 89 56 90 57 91
REMARK H PARENT 2 24 78 47 48 58
REMARK Flexibility Score: inf
ROOT
ATOM      1  C   UNL A   1      32.273  30.612  26.369  1.00  0.00     0.202 C 
ENDROOT
BRANCH   1   2
ATOM      2  O   UNL A   1      31.285  29.599  26.221  1.00  0.00    -0.374 OA
BRANCH   2   3
ATOM      3  C   UNL A   1      31.651  28.223  26.327  1.00  0.00     0.202 C 
BRANCH   3   4
ATOM      4  C   UNL A   1      31.441  27.341  25.096  1.00  0.00     0.261 C 
BRANCH   4   5
ATOM      5  O   UNL A   1      31.124  25.992  25.469  1.00  0.00    -0.460 OA
BRANCH   5   6
ATOM      6  C   UNL A   1      30.644  25.194  24.476  1.00  0.00     0.341 C 
ATOM      7  O   UNL A   1      29.564  25.345  23.914  1.00  0.00    -0.246 OA
BRANCH   6   8
ATOM      8  C   UNL A   1      31.613  24.200  24.055  1.00  0.00     0.104 A 
ATOM      9  N   UNL A   1      32.785  22.345  23.803  1.00  0.00    -0.217 N 
ATOM     10  N   UNL A   1      33.276  23.184  22.859  1.00  0.00    -0.171 NA
ATOM     11  C   UNL A   1      31.967  23.023  24.697  1.00  0.00     0.058 A 
ATOM     12  C   UNL A   1      32.522  24.285  22.966  1.00  0.00     0.075 A 
ATOM     13  C   UNL A   1      31.633  22.532  26.064  1.00  0.00     0.068 C 
ATOM     14  C   UNL A   1      32.767  25.438  22.057  1.00  0.00     0.070 C 
BRANCH   9  15
ATOM     15  C   UNL A   1      33.025  20.945  23.749  1.00  0.00     0.175 A 
ATOM     16  C   UNL A   1      33.383  18.264  23.710  1.00  0.00     0.150 A 
ATOM     17  C   UNL A   1      32.474  18.807  22.821  1.00  0.00     0.040 A 
ATOM     18  N   UNL A   1      34.118  19.019  24.557  1.00  0.00    -0.143 NA
ATOM     19  C   UNL A   1      32.299  20.182  22.836  1.00  0.00     0.053 A 
ATOM     20  N   UNL A   1      33.955  20.386  24.556  1.00  0.00    -0.130 NA
BRANCH  16  21
ATOM     21  C   UNL A   1      33.582  16.799  23.746  1.00  0.00     0.271 C 
ATOM     22  C   UNL A   1      32.599  16.577  26.080  1.00  0.00     0.143 C 
ATOM     23  N   UNL A   1      33.284  16.107  24.898  1.00  0.00    -0.354 N 
ATOM     24  H   UNL A   1      33.575  15.167  24.918  1.00  0.00     0.163 HD
ATOM     25  O   UNL A   1      34.066  16.211  22.785  1.00  0.00    -0.267 OA
ENDBRANCH  16  21
ENDBRANCH   9  15
ENDBRANCH   6   8
ENDBRANCH   5   6
ENDBRANCH   4   5
ENDBRANCH   3   4
ENDBRANCH   2   3
ENDBRANCH   1   2
BRANCH   1  26
ATOM     26  C   UNL A   1      33.681  30.214  26.777  1.00  0.00     0.261 C 
BRANCH  26  27
ATOM     27  O   UNL A   1      34.008  30.686  28.074  1.00  0.00    -0.460 OA
BRANCH  27  28
ATOM     28  C   UNL A   1      35.044  31.556  28.088  1.00  0.00     0.338 C 
ATOM     29  O   UNL A   1      35.152  32.582  27.438  1.00  0.00    -0.246 OA
BRANCH  28  30
ATOM     30  C   UNL A   1      36.114  30.981  28.903  1.00  0.00     0.060 A 
ATOM     31  C   UNL A   1      37.164  31.841  29.226  1.00  0.00     0.016 A 
ATOM     32  C   UNL A   1      36.220  29.586  29.025  1.00  0.00     0.016 A 
ATOM     33  C   UNL A   1      38.407  31.292  29.419  1.00  0.00     0.010 A 
ATOM     34  C   UNL A   1      37.465  29.040  29.205  1.00  0.00     0.010 A 
ATOM     35  C   UNL A   1      38.550  29.904  29.297  1.00  0.00    -0.014 A 
BRANCH  35  36
ATOM     36  C   UNL A   1      39.879  29.352  29.369  1.00  0.00     0.031 A 
ATOM     37  C   UNL A   1      40.327  29.189  30.764  1.00  0.00     0.074 A 
ATOM     38  C   UNL A   1      40.570  28.962  28.284  1.00  0.00     0.049 A 
ATOM     39  N   UNL A   1      41.149  29.949  31.403  1.00  0.00    -0.248 NA
ATOM     40  C   UNL A   1      39.600  28.232  31.615  1.00  0.00     0.031 C 
ATOM     41  C   UNL A   1      40.116  28.833  26.897  1.00  0.00     0.029 A 
ATOM     42  N   UNL A   1      41.839  28.488  28.226  1.00  0.00    -0.354 N 
ATOM     43  C   UNL A   1      41.227  29.410  32.676  1.00  0.00     0.074 A 
ATOM     44  C   UNL A   1      40.096  28.530  32.816  1.00  0.00     0.031 C 
ATOM     45  C   UNL A   1      41.006  28.077  26.209  1.00  0.00     0.029 A 
ATOM     46  C   UNL A   1      42.146  27.791  27.066  1.00  0.00     0.049 A 
ATOM     47  H   UNL A   1      42.491  28.626  28.952  1.00  0.00     0.167 HD
ATOM     48  C   UNL A   1      42.369  29.500  33.408  1.00  0.00     0.031 A 
ATOM     49  C   UNL A   1      43.220  26.976  26.885  1.00  0.00     0.031 A 
ATOM     50  C   UNL A   1      43.294  30.446  32.840  1.00  0.00     0.049 A 
ATOM     51  C   UNL A   1      44.225  27.352  27.919  1.00  0.00     0.074 A 
ATOM     52  C   UNL A   1      43.253  31.801  32.577  1.00  0.00     0.029 A 
ATOM     53  N   UNL A   1      44.300  29.930  32.057  1.00  0.00    -0.354 N 
ATOM     54  N   UNL A   1      44.828  28.507  27.937  1.00  0.00    -0.248 NA
ATOM     55  C   UNL A   1      44.179  26.657  29.200  1.00  0.00     0.031 C 
ATOM     56  C   UNL A   1      43.910  31.952  31.322  1.00  0.00     0.029 A 
ATOM     57  C   UNL A   1      44.389  30.701  30.925  1.00  0.00     0.049 A 
ATOM     58  H   UNL A   1      44.859  29.147  32.270  1.00  0.00     0.167 HD
ATOM     59  C   UNL A   1      44.835  28.887  29.273  1.00  0.00     0.074 A 
ATOM     60  C   UNL A   1      44.498  27.670  30.013  1.00  0.00     0.031 C 
ATOM     61  C   UNL A   1      44.821  30.205  29.634  1.00  0.00     0.031 A 
BRANCH  48  62
ATOM     62  C   UNL A   1      42.805  28.432  34.372  1.00  0.00    -0.014 A 
ATOM     63  C   UNL A   1      43.024  28.781  35.716  1.00  0.00     0.010 A 
ATOM     64  C   UNL A   1      43.257  27.163  33.951  1.00  0.00     0.010 A 
ATOM     65  C   UNL A   1      43.699  27.916  36.584  1.00  0.00     0.020 A 
ATOM     66  C   UNL A   1      43.889  26.275  34.818  1.00  0.00     0.020 A 
ATOM     67  C   UNL A   1      44.129  26.669  36.125  1.00  0.00     0.054 A 
BRANCH  67  68
ATOM     68  S   UNL A   1      45.054  25.587  37.238  1.00  0.00     0.124 S 
ATOM     69  O   UNL A   1      46.433  25.844  36.832  1.00  0.00    -0.237 OA
ATOM     70  O   UNL A   1      44.672  26.102  38.551  1.00  0.00    -0.237 OA
ATOM     71  O   UNL A   1      44.545  24.254  36.924  1.00  0.00    -0.744 OA
ENDBRANCH  67  68
ENDBRANCH  48  62
BRANCH  49  72
ATOM     72  C   UNL A   1      43.256  25.665  26.179  1.00  0.00    -0.014 A 
ATOM     73  C   UNL A   1      44.227  25.395  25.195  1.00  0.00     0.010 A 
ATOM     74  C   UNL A   1      42.523  24.571  26.683  1.00  0.00     0.010 A 
ATOM     75  C   UNL A   1      44.509  24.075  24.793  1.00  0.00     0.020 A 
ATOM     76  C   UNL A   1      42.793  23.255  26.284  1.00  0.00     0.020 A 
ATOM     77  C   UNL A   1      43.806  23.010  25.361  1.00  0.00     0.054 A 
BRANCH  77  78
ATOM     78  S   UNL A   1      44.313  21.300  25.001  1.00  0.00     0.124 S 
ATOM     79  O   UNL A   1      43.172  20.528  25.485  1.00  0.00    -0.237 OA
ATOM     80  O   UNL A   1      44.492  21.321  23.551  1.00  0.00    -0.237 OA
ATOM     81  O   UNL A   1      45.545  21.137  25.771  1.00  0.00    -0.744 OA
ENDBRANCH  77  78
ENDBRANCH  49  72
BRANCH  61  82
ATOM     82  C   UNL A   1      45.079  31.246  28.568  1.00  0.00    -0.014 A 
ATOM     83  C   UNL A   1      44.083  31.806  27.743  1.00  0.00     0.010 A 
ATOM     84  C   UNL A   1      46.377  31.782  28.504  1.00  0.00     0.010 A 
ATOM     85  C   UNL A   1      44.391  32.849  26.853  1.00  0.00     0.020 A 
ATOM     86  C   UNL A   1      46.686  32.830  27.637  1.00  0.00     0.020 A 
ATOM     87  C   UNL A   1      45.697  33.351  26.803  1.00  0.00     0.054 A 
BRANCH  87  88
ATOM     88  S   UNL A   1      46.098  34.707  25.665  1.00  0.00     0.124 S 
ATOM     89  O   UNL A   1      47.517  34.489  25.401  1.00  0.00    -0.237 OA
ATOM     90  O   UNL A   1      45.202  34.461  24.538  1.00  0.00    -0.237 OA
ATOM     91  O   UNL A   1      45.791  35.911  26.436  1.00  0.00    -0.744 OA
ENDBRANCH  87  88
ENDBRANCH  61  82
ENDBRANCH  35  36
ENDBRANCH  28  30
ENDBRANCH  27  28
ENDBRANCH  26  27
ENDBRANCH   1  26
TORSDOF 19
ENDMDL
MODEL 3
REMARK VINA RESULT:     -10.7      5.553      9.382
REMARK SMILES CNC(=O)c1ccc(-n2nc(C)c(C(=O)OCCOCCOC(=O)c3ccc(-c4c5nc(c(-c6ccc(S(=O)(=O)[O-])cc6)c6ccc([nH]6)c(-c6ccc(S(=O)(=O)[O-])cc6)c6nc(c(-c7ccc(S(=O)(=O)[O-])cc7)c7ccc4[nH]7)C=C6)C=C5)cc3)c2C)nn1
REMARK SMILES IDX 20 1 19 2 18 3 17 4 16 5 14 6 15 7 13 8 9 9 10 10 85 11
REMARK SMILES IDX 11 12 86 13 12 14 8 15 5 16 6 17 88 18 7 19 87 20 3 21 1 22
REMARK SMILES IDX 2 23 4 25 21 26 22 27 23 28 24 29 25 30 26 31 84 32 27 33
REMARK SMILES IDX 83 34 28 35 29 36 30 37 77 38 31 39 82 40 76 41 78 42 32 43
REMARK SMILES IDX 81 44 75 45 74 46 33 48 63 49 44 50 62 51 45 52 48 53 61 54
REMARK SMILES IDX 79 55 46 56 47 57 60 59 80 60 49 61 34 62 35 63 43 64 36 65
REMARK SMILES IDX 42 66 37 67 38 68 39 69 40 70 41 71 64 72 65 73 73 74 66 75
REMARK SMILES IDX 72 76 67 77 68 78 69 79 70 80 71 81 50 82 51 83 59 84 52 85
REMARK SMILES IDX 58 86 53 87 54 88 55 89 56 90 57 91
REMARK H PARENT 2 24 78 47 48 58
REMARK Flexibility Score: inf
ROOT
ATOM      1  C   UNL A   1      43.007  20.171  25.990  1.00  0.00     0.202 C 
ENDROOT
BRANCH   1   2
ATOM      2  O   UNL A   1      43.670  20.671  24.834  1.00  0.00    -0.374 OA
BRANCH   2   3
ATOM      3  C   UNL A   1      44.923  21.344  24.964  1.00  0.00     0.202 C 
BRANCH   3   4
ATOM      4  C   UNL A   1      45.070  22.339  26.116  1.00  0.00     0.261 C 
BRANCH   4   5
ATOM      5  O   UNL A   1      46.369  22.949  26.115  1.00  0.00    -0.460 OA
BRANCH   5   6
ATOM      6  C   UNL A   1      46.473  24.136  26.772  1.00  0.00     0.341 C 
ATOM      7  O   UNL A   1      46.423  24.272  27.990  1.00  0.00    -0.246 OA
BRANCH   6   8
ATOM      8  C   UNL A   1      46.778  25.235  25.875  1.00  0.00     0.104 A 
ATOM      9  N   UNL A   1      47.795  26.684  24.554  1.00  0.00    -0.217 N 
ATOM     10  N   UNL A   1      46.479  26.985  24.434  1.00  0.00    -0.171 NA
ATOM     11  C   UNL A   1      48.012  25.808  25.609  1.00  0.00     0.058 A 
ATOM     12  C   UNL A   1      45.857  26.065  25.181  1.00  0.00     0.075 A 
ATOM     13  C   UNL A   1      49.327  25.624  26.287  1.00  0.00     0.068 C 
ATOM     14  C   UNL A   1      44.371  26.074  25.275  1.00  0.00     0.070 C 
BRANCH   9  15
ATOM     15  C   UNL A   1      48.753  27.148  23.612  1.00  0.00     0.175 A 
ATOM     16  C   UNL A   1      50.638  27.935  21.839  1.00  0.00     0.150 A 
ATOM     17  C   UNL A   1      49.712  26.996  21.423  1.00  0.00     0.040 A 
ATOM     18  N   UNL A   1      50.609  28.495  23.069  1.00  0.00    -0.143 NA
ATOM     19  C   UNL A   1      48.741  26.601  22.329  1.00  0.00     0.053 A 
ATOM     20  N   UNL A   1      49.632  28.115  23.960  1.00  0.00    -0.130 NA
BRANCH  16  21
ATOM     21  C   UNL A   1      51.707  28.365  20.912  1.00  0.00     0.271 C 
ATOM     22  C   UNL A   1      53.449  26.861  21.992  1.00  0.00     0.143 C 
ATOM     23  N   UNL A   1      52.989  27.900  21.100  1.00  0.00    -0.354 N 
ATOM     24  H   UNL A   1      53.684  28.332  20.554  1.00  0.00     0.163 HD
ATOM     25  O   UNL A   1      51.473  29.176  20.022  1.00  0.00    -0.267 OA
ENDBRANCH  16  21
ENDBRANCH   9  15
ENDBRANCH   6   8
ENDBRANCH   5   6
ENDBRANCH   4   5
ENDBRANCH   3   4
ENDBRANCH   2   3
ENDBRANCH   1   2
BRANCH   1  26
ATOM     26  C   UNL A   1      41.611  20.675  26.314  1.00  0.00     0.261 C 
BRANCH  26  27
ATOM     27  O   UNL A   1      41.388  21.978  25.800  1.00  0.00    -0.460 OA
BRANCH  27  28
ATOM     28  C   UNL A   1      40.540  22.717  26.550  1.00  0.00     0.338 C 
ATOM     29  O   UNL A   1      39.429  22.397  26.937  1.00  0.00    -0.246 OA
BRANCH  28  30
ATOM     30  C   UNL A   1      41.107  24.058  26.696  1.00  0.00     0.060 A 
ATOM     31  C   UNL A   1      42.137  24.186  27.628  1.00  0.00     0.016 A 
ATOM     32  C   UNL A   1      40.407  25.167  26.193  1.00  0.00     0.016 A 
ATOM     33  C   UNL A   1      42.289  25.399  28.254  1.00  0.00     0.010 A 
ATOM     34  C   UNL A   1      40.551  26.372  26.828  1.00  0.00     0.010 A 
ATOM     35  C   UNL A   1      41.417  26.440  27.914  1.00  0.00    -0.014 A 
BRANCH  35  36
ATOM     36  C   UNL A   1      41.497  27.664  28.668  1.00  0.00     0.031 A 
ATOM     37  C   UNL A   1      42.648  28.487  28.252  1.00  0.00     0.074 A 
ATOM     38  C   UNL A   1      40.574  28.028  29.576  1.00  0.00     0.049 A 
ATOM     39  N   UNL A   1      43.769  28.615  28.877  1.00  0.00    -0.248 NA
ATOM     40  C   UNL A   1      42.652  29.025  26.881  1.00  0.00     0.031 C 
ATOM     41  C   UNL A   1      39.273  27.420  29.864  1.00  0.00     0.029 A 
ATOM     42  N   UNL A   1      40.578  29.119  30.381  1.00  0.00    -0.354 N 
ATOM     43  C   UNL A   1      44.531  29.457  28.083  1.00  0.00     0.074 A 
ATOM     44  C   UNL A   1      43.903  29.475  26.787  1.00  0.00     0.031 C 
ATOM     45  C   UNL A   1      38.524  28.296  30.576  1.00  0.00     0.029 A 
ATOM     46  C   UNL A   1      39.338  29.456  30.906  1.00  0.00     0.049 A 
ATOM     47  H   UNL A   1      41.396  29.632  30.577  1.00  0.00     0.167 HD
ATOM     48  C   UNL A   1      45.446  30.301  28.631  1.00  0.00     0.031 A 
ATOM     49  C   UNL A   1      39.012  30.643  31.485  1.00  0.00     0.031 A 
ATOM     50  C   UNL A   1      45.712  29.977  30.008  1.00  0.00     0.049 A 
ATOM     51  C   UNL A   1      40.291  31.288  31.894  1.00  0.00     0.074 A 
ATOM     52  C   UNL A   1      46.214  28.870  30.663  1.00  0.00     0.029 A 
ATOM     53  N   UNL A   1      45.042  30.716  30.956  1.00  0.00    -0.354 N 
ATOM     54  N   UNL A   1      41.068  30.800  32.821  1.00  0.00    -0.248 NA
ATOM     55  C   UNL A   1      40.947  32.172  30.939  1.00  0.00     0.031 C 
ATOM     56  C   UNL A   1      45.435  28.761  31.851  1.00  0.00     0.029 A 
ATOM     57  C   UNL A   1      44.558  29.847  31.901  1.00  0.00     0.049 A 
ATOM     58  H   UNL A   1      44.930  31.695  30.957  1.00  0.00     0.167 HD
ATOM     59  C   UNL A   1      42.355  30.940  32.319  1.00  0.00     0.074 A 
ATOM     60  C   UNL A   1      42.224  31.868  31.194  1.00  0.00     0.031 C 
ATOM     61  C   UNL A   1      43.350  30.070  32.669  1.00  0.00     0.031 A 
BRANCH  48  62
ATOM     62  C   UNL A   1      45.760  31.650  28.049  1.00  0.00    -0.014 A 
ATOM     63  C   UNL A   1      47.105  32.006  27.850  1.00  0.00     0.010 A 
ATOM     64  C   UNL A   1      44.796  32.675  27.935  1.00  0.00     0.010 A 
ATOM     65  C   UNL A   1      47.469  33.331  27.591  1.00  0.00     0.020 A 
ATOM     66  C   UNL A   1      45.143  33.990  27.631  1.00  0.00     0.020 A 
ATOM     67  C   UNL A   1      46.483  34.314  27.487  1.00  0.00     0.054 A 
BRANCH  67  68
ATOM     68  S   UNL A   1      46.970  36.033  27.214  1.00  0.00     0.124 S 
ATOM     69  O   UNL A   1      47.994  35.896  26.183  1.00  0.00    -0.237 OA
ATOM     70  O   UNL A   1      45.714  36.642  26.786  1.00  0.00    -0.237 OA
ATOM     71  O   UNL A   1      47.453  36.464  28.525  1.00  0.00    -0.744 OA
ENDBRANCH  67  68
ENDBRANCH  48  62
BRANCH  49  72
ATOM     72  C   UNL A   1      37.748  31.414  31.324  1.00  0.00    -0.014 A 
ATOM     73  C   UNL A   1      36.534  30.938  31.859  1.00  0.00     0.010 A 
ATOM     74  C   UNL A   1      37.788  32.759  30.905  1.00  0.00     0.010 A 
ATOM     75  C   UNL A   1      35.433  31.797  32.042  1.00  0.00     0.020 A 
ATOM     76  C   UNL A   1      36.694  33.619  31.079  1.00  0.00     0.020 A 
ATOM     77  C   UNL A   1      35.530  33.141  31.674  1.00  0.00     0.054 A 
BRANCH  77  78
ATOM     78  S   UNL A   1      34.190  34.293  32.104  1.00  0.00     0.124 S 
ATOM     79  O   UNL A   1      33.451  33.547  33.118  1.00  0.00    -0.237 OA
ATOM     80  O   UNL A   1      34.919  35.463  32.586  1.00  0.00    -0.237 OA
ATOM     81  O   UNL A   1      33.484  34.487  30.839  1.00  0.00    -0.744 OA
ENDBRANCH  77  78
ENDBRANCH  49  72
BRANCH  61  82
ATOM     82  C   UNL A   1      43.104  29.123  33.823  1.00  0.00    -0.014 A 
ATOM     83  C   UNL A   1      43.333  29.441  35.177  1.00  0.00     0.010 A 
ATOM     84  C   UNL A   1      42.473  27.904  33.521  1.00  0.00     0.010 A 
ATOM     85  C   UNL A   1      42.973  28.542  36.195  1.00  0.00     0.020 A 
ATOM     86  C   UNL A   1      42.095  27.015  34.528  1.00  0.00     0.020 A 
ATOM     87  C   UNL A   1      42.360  27.329  35.860  1.00  0.00     0.054 A 
BRANCH  87  88
ATOM     88  S   UNL A   1      41.881  26.170  37.172  1.00  0.00     0.124 S 
ATOM     89  O   UNL A   1      42.963  26.322  38.141  1.00  0.00    -0.237 OA
ATOM     90  O   UNL A   1      40.579  26.678  37.596  1.00  0.00    -0.237 OA
ATOM     91  O   UNL A   1      41.838  24.875  36.493  1.00  0.00    -0.744 OA
ENDBRANCH  87  88
ENDBRANCH  61  82
ENDBRANCH  35  36
ENDBRANCH  28  30
ENDBRANCH  27  28
ENDBRANCH  26  27
ENDBRANCH   1  26
TORSDOF 19
ENDMDL
