MODEL 1
REMARK VINA RESULT:      -8.7      0.000      0.000
REMARK SMILES Cn1ccc(S(=O)(=O)N[C@H]2C=C[C@@H](C(=O)OCCOCCOC(=O)c3ccc(-c4c5nc(c(-c6ccc(S(=O)(=O)[O-])cc6)c6ccc([nH]6)c(-c6ccc(S(=O)(=O)[O-])cc6)c6nc(c(-c7ccc(S(=O)(=O)[O-])cc7)c7ccc4[nH]7)C=C6)C=C5)cc3)C2)c1
REMARK SMILES IDX 19 1 18 2 17 3 16 4 14 5 15 6 13 7 10 8 11 9 85 10 12 11
REMARK SMILES IDX 9 12 6 14 7 15 8 16 5 17 1 18 2 19 3 20 86 21 4 22 20 23
REMARK SMILES IDX 21 24 22 25 23 26 24 27 25 28 26 29 84 30 27 31 83 32 28 33
REMARK SMILES IDX 29 34 30 35 77 36 31 37 82 38 76 39 78 40 32 41 81 42 75 43
REMARK SMILES IDX 74 44 33 46 63 47 44 48 62 49 45 50 48 51 61 52 79 53 46 54
REMARK SMILES IDX 47 55 60 57 80 58 49 59 34 60 35 61 43 62 36 63 42 64 37 65
REMARK SMILES IDX 38 66 39 67 40 68 41 69 64 70 65 71 73 72 66 73 72 74 67 75
REMARK SMILES IDX 68 76 69 77 70 78 71 79 50 80 51 81 59 82 52 83 58 84 53 85
REMARK SMILES IDX 54 86 55 87 56 88 57 89
REMARK H PARENT 9 13 78 45 48 56
REMARK Flexibility Score: inf
ROOT
ATOM      1  O   UNL A   1      34.316  32.709  31.800  1.00  0.00    -0.374 OA
ENDROOT
BRANCH   1   2
ATOM      2  C   UNL A   1      34.231  33.817  32.700  1.00  0.00     0.202 C 
BRANCH   2   3
ATOM      3  C   UNL A   1      35.096  33.698  33.958  1.00  0.00     0.261 C 
BRANCH   3   4
ATOM      4  O   UNL A   1      35.896  32.507  33.890  1.00  0.00    -0.463 OA
BRANCH   4   5
ATOM      5  C   UNL A   1      37.035  32.506  34.627  1.00  0.00     0.312 C 
ATOM      6  O   UNL A   1      37.119  32.886  35.790  1.00  0.00    -0.252 OA
BRANCH   5   7
ATOM      7  C   UNL A   1      38.229  31.936  33.870  1.00  0.00     0.123 C 
ATOM      8  C   UNL A   1      39.821  30.061  33.936  1.00  0.00     0.093 C 
ATOM      9  C   UNL A   1      38.621  29.749  33.114  1.00  0.00    -0.011 C 
ATOM     10  C   UNL A   1      39.393  31.340  34.678  1.00  0.00     0.043 C 
ATOM     11  C   UNL A   1      37.771  30.778  33.045  1.00  0.00    -0.015 C 
BRANCH   8  12
ATOM     12  N   UNL A   1      40.246  29.042  34.897  1.00  0.00    -0.204 NA
ATOM     13  H   UNL A   1      39.671  29.180  35.727  1.00  0.00     0.142 HD
BRANCH  12  14
ATOM     14  S   UNL A   1      41.831  28.916  35.443  1.00  0.00     0.242 S 
ATOM     15  O   UNL A   1      41.895  29.569  36.729  1.00  0.00    -0.207 OA
ATOM     16  O   UNL A   1      42.685  29.306  34.345  1.00  0.00    -0.207 OA
BRANCH  14  17
ATOM     17  C   UNL A   1      42.250  27.274  35.758  1.00  0.00     0.100 A 
ATOM     18  C   UNL A   1      42.874  23.800  34.960  1.00  0.00     0.149 C 
ATOM     19  N   UNL A   1      42.681  25.109  35.539  1.00  0.00    -0.356 N 
ATOM     20  C   UNL A   1      42.646  25.366  36.885  1.00  0.00     0.086 A 
ATOM     21  C   UNL A   1      42.475  26.267  34.837  1.00  0.00     0.106 A 
ATOM     22  C   UNL A   1      42.382  26.709  37.053  1.00  0.00     0.041 A 
ENDBRANCH  14  17
ENDBRANCH  12  14
ENDBRANCH   8  12
ENDBRANCH   5   7
ENDBRANCH   4   5
ENDBRANCH   3   4
ENDBRANCH   2   3
ENDBRANCH   1   2
BRANCH   1  23
ATOM     23  C   UNL A   1      34.964  32.934  30.548  1.00  0.00     0.202 C 
BRANCH  23  24
ATOM     24  C   UNL A   1      34.070  32.870  29.303  1.00  0.00     0.261 C 
BRANCH  24  25
ATOM     25  O   UNL A   1      34.773  32.347  28.161  1.00  0.00    -0.460 OA
BRANCH  25  26
ATOM     26  C   UNL A   1      34.614  31.014  27.963  1.00  0.00     0.338 C 
ATOM     27  O   UNL A   1      33.614  30.448  27.555  1.00  0.00    -0.246 OA
BRANCH  26  28
ATOM     28  C   UNL A   1      35.902  30.313  28.144  1.00  0.00     0.060 A 
ATOM     29  C   UNL A   1      36.139  29.718  29.390  1.00  0.00     0.016 A 
ATOM     30  C   UNL A   1      36.889  30.305  27.156  1.00  0.00     0.016 A 
ATOM     31  C   UNL A   1      37.381  29.153  29.670  1.00  0.00     0.010 A 
ATOM     32  C   UNL A   1      38.140  29.746  27.443  1.00  0.00     0.010 A 
ATOM     33  C   UNL A   1      38.403  29.198  28.712  1.00  0.00    -0.014 A 
BRANCH  33  34
ATOM     34  C   UNL A   1      39.778  28.796  29.095  1.00  0.00     0.031 A 
ATOM     35  C   UNL A   1      40.643  29.772  29.845  1.00  0.00     0.074 A 
ATOM     36  C   UNL A   1      40.238  27.565  28.811  1.00  0.00     0.049 A 
ATOM     37  N   UNL A   1      41.869  29.626  30.279  1.00  0.00    -0.248 NA
ATOM     38  C   UNL A   1      40.047  31.083  30.153  1.00  0.00     0.031 C 
ATOM     39  C   UNL A   1      39.485  26.517  28.125  1.00  0.00     0.029 A 
ATOM     40  N   UNL A   1      41.459  26.991  29.065  1.00  0.00    -0.354 N 
ATOM     41  C   UNL A   1      42.193  30.824  30.906  1.00  0.00     0.074 A 
ATOM     42  C   UNL A   1      41.044  31.694  30.777  1.00  0.00     0.031 C 
ATOM     43  C   UNL A   1      40.263  25.427  28.007  1.00  0.00     0.029 A 
ATOM     44  C   UNL A   1      41.576  25.709  28.584  1.00  0.00     0.049 A 
ATOM     45  H   UNL A   1      42.182  27.454  29.548  1.00  0.00     0.167 HD
ATOM     46  C   UNL A   1      43.341  31.169  31.535  1.00  0.00     0.031 A 
ATOM     47  C   UNL A   1      42.627  24.867  28.591  1.00  0.00     0.031 A 
ATOM     48  C   UNL A   1      44.490  30.312  31.651  1.00  0.00     0.049 A 
ATOM     49  C   UNL A   1      43.920  25.300  29.233  1.00  0.00     0.074 A 
ATOM     50  C   UNL A   1      45.695  30.568  32.282  1.00  0.00     0.029 A 
ATOM     51  N   UNL A   1      44.584  29.038  31.112  1.00  0.00    -0.354 N 
ATOM     52  N   UNL A   1      44.199  26.425  29.845  1.00  0.00    -0.248 NA
ATOM     53  C   UNL A   1      45.037  24.345  29.186  1.00  0.00     0.031 C 
ATOM     54  C   UNL A   1      46.535  29.466  32.085  1.00  0.00     0.029 A 
ATOM     55  C   UNL A   1      45.835  28.505  31.373  1.00  0.00     0.049 A 
ATOM     56  H   UNL A   1      43.867  28.580  30.617  1.00  0.00     0.167 HD
ATOM     57  C   UNL A   1      45.517  26.305  30.275  1.00  0.00     0.074 A 
ATOM     58  C   UNL A   1      45.975  24.995  29.863  1.00  0.00     0.031 C 
ATOM     59  C   UNL A   1      46.278  27.200  30.953  1.00  0.00     0.031 A 
BRANCH  46  60
ATOM     60  C   UNL A   1      43.419  32.552  32.122  1.00  0.00    -0.014 A 
ATOM     61  C   UNL A   1      43.959  33.624  31.389  1.00  0.00     0.010 A 
ATOM     62  C   UNL A   1      42.919  32.788  33.416  1.00  0.00     0.010 A 
ATOM     63  C   UNL A   1      44.033  34.899  31.954  1.00  0.00     0.020 A 
ATOM     64  C   UNL A   1      42.972  34.067  33.976  1.00  0.00     0.020 A 
ATOM     65  C   UNL A   1      43.546  35.112  33.247  1.00  0.00     0.054 A 
BRANCH  65  66
ATOM     66  S   UNL A   1      43.643  36.780  33.954  1.00  0.00     0.124 S 
ATOM     67  O   UNL A   1      42.384  36.868  34.688  1.00  0.00    -0.237 OA
ATOM     68  O   UNL A   1      44.846  36.710  34.779  1.00  0.00    -0.237 OA
ATOM     69  O   UNL A   1      43.745  37.648  32.783  1.00  0.00    -0.744 OA
ENDBRANCH  65  66
ENDBRANCH  46  60
BRANCH  47  70
ATOM     70  C   UNL A   1      42.508  23.529  27.952  1.00  0.00    -0.014 A 
ATOM     71  C   UNL A   1      42.922  23.328  26.625  1.00  0.00     0.010 A 
ATOM     72  C   UNL A   1      41.979  22.444  28.677  1.00  0.00     0.010 A 
ATOM     73  C   UNL A   1      42.799  22.069  26.029  1.00  0.00     0.020 A 
ATOM     74  C   UNL A   1      41.876  21.180  28.092  1.00  0.00     0.020 A 
ATOM     75  C   UNL A   1      42.278  21.002  26.767  1.00  0.00     0.054 A 
BRANCH  75  76
ATOM     76  S   UNL A   1      42.179  19.364  25.991  1.00  0.00     0.124 S 
ATOM     77  O   UNL A   1      42.705  18.499  27.042  1.00  0.00    -0.237 OA
ATOM     78  O   UNL A   1      40.751  19.230  25.716  1.00  0.00    -0.237 OA
ATOM     79  O   UNL A   1      43.023  19.497  24.805  1.00  0.00    -0.744 OA
ENDBRANCH  75  76
ENDBRANCH  47  70
BRANCH  59  80
ATOM     80  C   UNL A   1      47.679  26.786  31.316  1.00  0.00    -0.014 A 
ATOM     81  C   UNL A   1      48.065  26.629  32.658  1.00  0.00     0.010 A 
ATOM     82  C   UNL A   1      48.603  26.493  30.295  1.00  0.00     0.010 A 
ATOM     83  C   UNL A   1      49.360  26.208  32.975  1.00  0.00     0.020 A 
ATOM     84  C   UNL A   1      49.891  26.050  30.608  1.00  0.00     0.020 A 
ATOM     85  C   UNL A   1      50.265  25.923  31.948  1.00  0.00     0.054 A 
BRANCH  85  86
ATOM     86  S   UNL A   1      51.925  25.330  32.381  1.00  0.00     0.124 S 
ATOM     87  O   UNL A   1      52.779  26.233  31.615  1.00  0.00    -0.237 OA
ATOM     88  O   UNL A   1      51.964  25.507  33.831  1.00  0.00    -0.237 OA
ATOM     89  O   UNL A   1      51.924  23.940  31.930  1.00  0.00    -0.744 OA
ENDBRANCH  85  86
ENDBRANCH  59  80
ENDBRANCH  33  34
ENDBRANCH  26  28
ENDBRANCH  25  26
ENDBRANCH  24  25
ENDBRANCH  23  24
ENDBRANCH   1  23
TORSDOF 20
ENDMDL
MODEL 2
REMARK VINA RESULT:      -8.3      4.890      8.260
REMARK SMILES Cn1ccc(S(=O)(=O)N[C@H]2C=C[C@@H](C(=O)OCCOCCOC(=O)c3ccc(-c4c5nc(c(-c6ccc(S(=O)(=O)[O-])cc6)c6ccc([nH]6)c(-c6ccc(S(=O)(=O)[O-])cc6)c6nc(c(-c7ccc(S(=O)(=O)[O-])cc7)c7ccc4[nH]7)C=C6)C=C5)cc3)C2)c1
REMARK SMILES IDX 19 1 18 2 17 3 16 4 14 5 15 6 13 7 10 8 11 9 85 10 12 11
REMARK SMILES IDX 9 12 6 14 7 15 8 16 5 17 1 18 2 19 3 20 86 21 4 22 20 23
REMARK SMILES IDX 21 24 22 25 23 26 24 27 25 28 26 29 84 30 27 31 83 32 28 33
REMARK SMILES IDX 29 34 30 35 77 36 31 37 82 38 76 39 78 40 32 41 81 42 75 43
REMARK SMILES IDX 74 44 33 46 63 47 44 48 62 49 45 50 48 51 61 52 79 53 46 54
REMARK SMILES IDX 47 55 60 57 80 58 49 59 34 60 35 61 43 62 36 63 42 64 37 65
REMARK SMILES IDX 38 66 39 67 40 68 41 69 64 70 65 71 73 72 66 73 72 74 67 75
REMARK SMILES IDX 68 76 69 77 70 78 71 79 50 80 51 81 59 82 52 83 58 84 53 85
REMARK SMILES IDX 54 86 55 87 56 88 57 89
REMARK H PARENT 9 13 78 45 48 56
REMARK Flexibility Score: inf
ROOT
ATOM      1  O   UNL A   1      35.100  33.791  27.421  1.00  0.00    -0.374 OA
ENDROOT
BRANCH   1   2
ATOM      2  C   UNL A   1      35.520  32.622  28.130  1.00  0.00     0.202 C 
BRANCH   2   3
ATOM      3  C   UNL A   1      34.425  31.580  28.370  1.00  0.00     0.261 C 
BRANCH   3   4
ATOM      4  O   UNL A   1      34.372  30.663  27.266  1.00  0.00    -0.463 OA
BRANCH   4   5
ATOM      5  C   UNL A   1      33.145  30.426  26.739  1.00  0.00     0.312 C 
ATOM      6  O   UNL A   1      32.154  31.124  26.927  1.00  0.00    -0.252 OA
BRANCH   5   7
ATOM      7  C   UNL A   1      33.116  29.200  25.835  1.00  0.00     0.123 C 
ATOM      8  C   UNL A   1      32.197  26.918  25.731  1.00  0.00     0.093 C 
ATOM      9  C   UNL A   1      31.290  27.918  25.106  1.00  0.00    -0.011 C 
ATOM     10  C   UNL A   1      33.203  27.808  26.484  1.00  0.00     0.043 C 
ATOM     11  C   UNL A   1      31.801  29.152  25.127  1.00  0.00    -0.015 C 
BRANCH   8  12
ATOM     12  N   UNL A   1      31.587  25.960  26.655  1.00  0.00    -0.204 NA
ATOM     13  H   UNL A   1      32.260  25.827  27.409  1.00  0.00     0.142 HD
BRANCH  12  14
ATOM     14  S   UNL A   1      31.110  24.420  26.178  1.00  0.00     0.242 S 
ATOM     15  O   UNL A   1      30.622  24.521  24.823  1.00  0.00    -0.207 OA
ATOM     16  O   UNL A   1      30.294  23.886  27.245  1.00  0.00    -0.207 OA
BRANCH  14  17
ATOM     17  C   UNL A   1      32.460  23.353  26.087  1.00  0.00     0.100 A 
ATOM     18  C   UNL A   1      35.956  22.434  25.940  1.00  0.00     0.149 C 
ATOM     19  N   UNL A   1      34.516  22.527  25.979  1.00  0.00    -0.356 N 
ATOM     20  C   UNL A   1      33.662  21.482  25.740  1.00  0.00     0.086 A 
ATOM     21  C   UNL A   1      33.798  23.669  26.225  1.00  0.00     0.106 A 
ATOM     22  C   UNL A   1      32.373  21.965  25.803  1.00  0.00     0.041 A 
ENDBRANCH  14  17
ENDBRANCH  12  14
ENDBRANCH   8  12
ENDBRANCH   5   7
ENDBRANCH   4   5
ENDBRANCH   3   4
ENDBRANCH   2   3
ENDBRANCH   1   2
BRANCH   1  23
ATOM     23  C   UNL A   1      34.769  34.942  28.199  1.00  0.00     0.202 C 
BRANCH  23  24
ATOM     24  C   UNL A   1      33.280  35.145  28.504  1.00  0.00     0.261 C 
BRANCH  24  25
ATOM     25  O   UNL A   1      32.872  34.447  29.695  1.00  0.00    -0.460 OA
BRANCH  25  26
ATOM     26  C   UNL A   1      33.119  35.113  30.851  1.00  0.00     0.338 C 
ATOM     27  O   UNL A   1      32.460  36.020  31.329  1.00  0.00    -0.246 OA
BRANCH  26  28
ATOM     28  C   UNL A   1      34.230  34.472  31.583  1.00  0.00     0.060 A 
ATOM     29  C   UNL A   1      35.290  35.293  31.988  1.00  0.00     0.016 A 
ATOM     30  C   UNL A   1      34.281  33.092  31.799  1.00  0.00     0.016 A 
ATOM     31  C   UNL A   1      36.426  34.733  32.568  1.00  0.00     0.010 A 
ATOM     32  C   UNL A   1      35.428  32.531  32.372  1.00  0.00     0.010 A 
ATOM     33  C   UNL A   1      36.519  33.344  32.728  1.00  0.00    -0.014 A 
BRANCH  33  34
ATOM     34  C   UNL A   1      37.811  32.743  33.139  1.00  0.00     0.031 A 
ATOM     35  C   UNL A   1      38.323  32.990  34.533  1.00  0.00     0.074 A 
ATOM     36  C   UNL A   1      38.503  31.958  32.295  1.00  0.00     0.049 A 
ATOM     37  N   UNL A   1      39.421  32.560  35.098  1.00  0.00    -0.248 NA
ATOM     38  C   UNL A   1      37.483  33.827  35.406  1.00  0.00     0.031 C 
ATOM     39  C   UNL A   1      38.095  31.610  30.935  1.00  0.00     0.029 A 
ATOM     40  N   UNL A   1      39.703  31.311  32.463  1.00  0.00    -0.354 N 
ATOM     41  C   UNL A   1      39.408  33.076  36.389  1.00  0.00     0.074 A 
ATOM     42  C   UNL A   1      38.204  33.869  36.517  1.00  0.00     0.031 C 
ATOM     43  C   UNL A   1      39.033  30.817  30.388  1.00  0.00     0.029 A 
ATOM     44  C   UNL A   1      40.119  30.623  31.348  1.00  0.00     0.049 A 
ATOM     45  H   UNL A   1      40.216  31.337  33.303  1.00  0.00     0.167 HD
ATOM     46  C   UNL A   1      40.313  32.903  37.381  1.00  0.00     0.031 A 
ATOM     47  C   UNL A   1      41.252  29.933  31.122  1.00  0.00     0.031 A 
ATOM     48  C   UNL A   1      41.518  32.129  37.252  1.00  0.00     0.049 A 
ATOM     49  C   UNL A   1      42.280  29.815  32.216  1.00  0.00     0.074 A 
ATOM     50  C   UNL A   1      42.491  31.884  38.206  1.00  0.00     0.029 A 
ATOM     51  N   UNL A   1      41.923  31.485  36.094  1.00  0.00    -0.354 N 
ATOM     52  N   UNL A   1      42.239  30.285  33.440  1.00  0.00    -0.248 NA
ATOM     53  C   UNL A   1      43.507  29.070  31.899  1.00  0.00     0.031 C 
ATOM     54  C   UNL A   1      43.508  31.130  37.610  1.00  0.00     0.029 A 
ATOM     55  C   UNL A   1      43.144  30.865  36.300  1.00  0.00     0.049 A 
ATOM     56  H   UNL A   1      41.418  31.470  35.250  1.00  0.00     0.167 HD
ATOM     57  C   UNL A   1      43.422  29.874  34.044  1.00  0.00     0.074 A 
ATOM     58  C   UNL A   1      44.154  29.109  33.057  1.00  0.00     0.031 C 
ATOM     59  C   UNL A   1      43.862  30.109  35.305  1.00  0.00     0.031 A 
BRANCH  46  60
ATOM     60  C   UNL A   1      40.045  33.596  38.689  1.00  0.00    -0.014 A 
ATOM     61  C   UNL A   1      39.257  32.990  39.685  1.00  0.00     0.010 A 
ATOM     62  C   UNL A   1      40.611  34.860  38.937  1.00  0.00     0.010 A 
ATOM     63  C   UNL A   1      39.010  33.652  40.889  1.00  0.00     0.020 A 
ATOM     64  C   UNL A   1      40.383  35.516  40.150  1.00  0.00     0.020 A 
ATOM     65  C   UNL A   1      39.568  34.914  41.112  1.00  0.00     0.054 A 
BRANCH  65  66
ATOM     66  S   UNL A   1      39.240  35.750  42.689  1.00  0.00     0.124 S 
ATOM     67  O   UNL A   1      39.520  37.143  42.354  1.00  0.00    -0.237 OA
ATOM     68  O   UNL A   1      37.836  35.433  42.936  1.00  0.00    -0.237 OA
ATOM     69  O   UNL A   1      40.187  35.128  43.613  1.00  0.00    -0.744 OA
ENDBRANCH  65  66
ENDBRANCH  46  60
BRANCH  47  70
ATOM     70  C   UNL A   1      41.486  29.309  29.791  1.00  0.00    -0.014 A 
ATOM     71  C   UNL A   1      42.206  29.992  28.796  1.00  0.00     0.010 A 
ATOM     72  C   UNL A   1      40.988  28.022  29.516  1.00  0.00     0.010 A 
ATOM     73  C   UNL A   1      42.414  29.402  27.545  1.00  0.00     0.020 A 
ATOM     74  C   UNL A   1      41.214  27.421  28.275  1.00  0.00     0.020 A 
ATOM     75  C   UNL A   1      41.918  28.120  27.293  1.00  0.00     0.054 A 
BRANCH  75  76
ATOM     76  S   UNL A   1      42.248  27.352  25.682  1.00  0.00     0.124 S 
ATOM     77  O   UNL A   1      43.550  26.731  25.902  1.00  0.00    -0.237 OA
ATOM     78  O   UNL A   1      41.124  26.431  25.534  1.00  0.00    -0.237 OA
ATOM     79  O   UNL A   1      42.240  28.483  24.757  1.00  0.00    -0.744 OA
ENDBRANCH  75  76
ENDBRANCH  47  70
BRANCH  59  80
ATOM     80  C   UNL A   1      45.186  29.511  35.701  1.00  0.00    -0.014 A 
ATOM     81  C   UNL A   1      46.382  30.234  35.554  1.00  0.00     0.010 A 
ATOM     82  C   UNL A   1      45.223  28.231  36.286  1.00  0.00     0.010 A 
ATOM     83  C   UNL A   1      47.598  29.677  35.962  1.00  0.00     0.020 A 
ATOM     84  C   UNL A   1      46.434  27.681  36.715  1.00  0.00     0.020 A 
ATOM     85  C   UNL A   1      47.616  28.403  36.539  1.00  0.00     0.054 A 
BRANCH  85  86
ATOM     86  S   UNL A   1      49.198  27.720  37.106  1.00  0.00     0.124 S 
ATOM     87  O   UNL A   1      50.150  28.377  36.215  1.00  0.00    -0.237 OA
ATOM     88  O   UNL A   1      49.251  28.144  38.504  1.00  0.00    -0.237 OA
ATOM     89  O   UNL A   1      49.046  26.281  36.904  1.00  0.00    -0.744 OA
ENDBRANCH  85  86
ENDBRANCH  59  80
ENDBRANCH  33  34
ENDBRANCH  26  28
ENDBRANCH  25  26
ENDBRANCH  24  25
ENDBRANCH  23  24
ENDBRANCH   1  23
TORSDOF 20
ENDMDL
MODEL 3
REMARK VINA RESULT:      -8.2      4.925     11.049
REMARK SMILES Cn1ccc(S(=O)(=O)N[C@H]2C=C[C@@H](C(=O)OCCOCCOC(=O)c3ccc(-c4c5nc(c(-c6ccc(S(=O)(=O)[O-])cc6)c6ccc([nH]6)c(-c6ccc(S(=O)(=O)[O-])cc6)c6nc(c(-c7ccc(S(=O)(=O)[O-])cc7)c7ccc4[nH]7)C=C6)C=C5)cc3)C2)c1
REMARK SMILES IDX 19 1 18 2 17 3 16 4 14 5 15 6 13 7 10 8 11 9 85 10 12 11
REMARK SMILES IDX 9 12 6 14 7 15 8 16 5 17 1 18 2 19 3 20 86 21 4 22 20 23
REMARK SMILES IDX 21 24 22 25 23 26 24 27 25 28 26 29 84 30 27 31 83 32 28 33
REMARK SMILES IDX 29 34 30 35 77 36 31 37 82 38 76 39 78 40 32 41 81 42 75 43
REMARK SMILES IDX 74 44 33 46 63 47 44 48 62 49 45 50 48 51 61 52 79 53 46 54
REMARK SMILES IDX 47 55 60 57 80 58 49 59 34 60 35 61 43 62 36 63 42 64 37 65
REMARK SMILES IDX 38 66 39 67 40 68 41 69 64 70 65 71 73 72 66 73 72 74 67 75
REMARK SMILES IDX 68 76 69 77 70 78 71 79 50 80 51 81 59 82 52 83 58 84 53 85
REMARK SMILES IDX 54 86 55 87 56 88 57 89
REMARK H PARENT 9 13 78 45 48 56
REMARK Flexibility Score: inf
ROOT
ATOM      1  O   UNL A   1      33.759  28.370  26.957  1.00  0.00    -0.374 OA
ENDROOT
BRANCH   1   2
ATOM      2  C   UNL A   1      32.953  27.876  25.884  1.00  0.00     0.202 C 
BRANCH   2   3
ATOM      3  C   UNL A   1      32.617  28.903  24.799  1.00  0.00     0.261 C 
BRANCH   3   4
ATOM      4  O   UNL A   1      31.210  28.862  24.507  1.00  0.00    -0.463 OA
BRANCH   4   5
ATOM      5  C   UNL A   1      30.871  28.629  23.215  1.00  0.00     0.312 C 
ATOM      6  O   UNL A   1      30.852  29.478  22.330  1.00  0.00    -0.252 OA
BRANCH   5   7
ATOM      7  C   UNL A   1      30.542  27.166  22.945  1.00  0.00     0.123 C 
ATOM      8  C   UNL A   1      31.384  24.897  23.398  1.00  0.00     0.093 C 
ATOM      9  C   UNL A   1      30.420  25.356  24.434  1.00  0.00    -0.011 C 
ATOM     10  C   UNL A   1      31.697  26.199  22.637  1.00  0.00     0.043 C 
ATOM     11  C   UNL A   1      29.932  26.572  24.172  1.00  0.00    -0.015 C 
BRANCH   8  12
ATOM     12  N   UNL A   1      32.624  24.284  23.876  1.00  0.00    -0.204 NA
ATOM     13  H   UNL A   1      33.006  23.767  23.085  1.00  0.00     0.142 HD
BRANCH  12  14
ATOM     14  S   UNL A   1      32.669  23.233  25.187  1.00  0.00     0.242 S 
ATOM     15  O   UNL A   1      31.611  22.268  25.000  1.00  0.00    -0.207 OA
ATOM     16  O   UNL A   1      32.756  24.049  26.376  1.00  0.00    -0.207 OA
BRANCH  14  17
ATOM     17  C   UNL A   1      34.122  22.305  25.188  1.00  0.00     0.100 A 
ATOM     18  C   UNL A   1      37.694  21.738  25.080  1.00  0.00     0.149 C 
ATOM     19  N   UNL A   1      36.251  21.688  25.135  1.00  0.00    -0.356 N 
ATOM     20  C   UNL A   1      35.510  20.540  25.027  1.00  0.00     0.086 A 
ATOM     21  C   UNL A   1      35.421  22.770  25.267  1.00  0.00     0.106 A 
ATOM     22  C   UNL A   1      34.178  20.893  25.060  1.00  0.00     0.041 A 
ENDBRANCH  14  17
ENDBRANCH  12  14
ENDBRANCH   8  12
ENDBRANCH   5   7
ENDBRANCH   4   5
ENDBRANCH   3   4
ENDBRANCH   2   3
ENDBRANCH   1   2
BRANCH   1  23
ATOM     23  C   UNL A   1      33.697  29.771  27.227  1.00  0.00     0.202 C 
BRANCH  23  24
ATOM     24  C   UNL A   1      34.817  30.339  28.108  1.00  0.00     0.261 C 
BRANCH  24  25
ATOM     25  O   UNL A   1      35.936  29.439  28.205  1.00  0.00    -0.460 OA
BRANCH  25  26
ATOM     26  C   UNL A   1      36.620  29.513  29.374  1.00  0.00     0.338 C 
ATOM     27  O   UNL A   1      36.159  29.429  30.499  1.00  0.00    -0.246 OA
BRANCH  26  28
ATOM     28  C   UNL A   1      38.074  29.537  29.115  1.00  0.00     0.060 A 
ATOM     29  C   UNL A   1      38.488  29.513  27.777  1.00  0.00     0.016 A 
ATOM     30  C   UNL A   1      39.014  29.502  30.147  1.00  0.00     0.016 A 
ATOM     31  C   UNL A   1      39.840  29.404  27.465  1.00  0.00     0.010 A 
ATOM     32  C   UNL A   1      40.373  29.383  29.832  1.00  0.00     0.010 A 
ATOM     33  C   UNL A   1      40.789  29.300  28.491  1.00  0.00    -0.014 A 
BRANCH  33  34
ATOM     34  C   UNL A   1      42.194  28.965  28.152  1.00  0.00     0.031 A 
ATOM     35  C   UNL A   1      42.546  27.542  27.813  1.00  0.00     0.074 A 
ATOM     36  C   UNL A   1      43.138  29.922  28.112  1.00  0.00     0.049 A 
ATOM     37  N   UNL A   1      43.706  27.033  27.485  1.00  0.00    -0.248 NA
ATOM     38  C   UNL A   1      41.445  26.565  27.840  1.00  0.00     0.031 C 
ATOM     39  C   UNL A   1      42.917  31.342  28.380  1.00  0.00     0.029 A 
ATOM     40  N   UNL A   1      44.479  29.838  27.829  1.00  0.00    -0.354 N 
ATOM     41  C   UNL A   1      43.477  25.678  27.271  1.00  0.00     0.074 A 
ATOM     42  C   UNL A   1      42.072  25.440  27.528  1.00  0.00     0.031 C 
ATOM     43  C   UNL A   1      44.084  31.996  28.256  1.00  0.00     0.029 A 
ATOM     44  C   UNL A   1      45.139  31.039  27.926  1.00  0.00     0.049 A 
ATOM     45  H   UNL A   1      44.926  28.996  27.580  1.00  0.00     0.167 HD
ATOM     46  C   UNL A   1      44.354  24.719  26.893  1.00  0.00     0.031 A 
ATOM     47  C   UNL A   1      46.446  31.330  27.783  1.00  0.00     0.031 A 
ATOM     48  C   UNL A   1      45.753  24.949  26.653  1.00  0.00     0.049 A 
ATOM     49  C   UNL A   1      47.417  30.233  27.433  1.00  0.00     0.074 A 
ATOM     50  C   UNL A   1      46.718  24.043  26.251  1.00  0.00     0.029 A 
ATOM     51  N   UNL A   1      46.389  26.171  26.803  1.00  0.00    -0.354 N 
ATOM     52  N   UNL A   1      47.178  28.964  27.207  1.00  0.00    -0.248 NA
ATOM     53  C   UNL A   1      48.832  30.611  27.315  1.00  0.00     0.031 C 
ATOM     54  C   UNL A   1      47.949  24.707  26.205  1.00  0.00     0.029 A 
ATOM     55  C   UNL A   1      47.740  26.037  26.530  1.00  0.00     0.049 A 
ATOM     56  H   UNL A   1      45.947  27.010  27.066  1.00  0.00     0.167 HD
ATOM     57  C   UNL A   1      48.410  28.396  26.900  1.00  0.00     0.074 A 
ATOM     58  C   UNL A   1      49.390  29.461  26.957  1.00  0.00     0.031 C 
ATOM     59  C   UNL A   1      48.704  27.107  26.595  1.00  0.00     0.031 A 
BRANCH  46  60
ATOM     60  C   UNL A   1      43.824  23.318  26.746  1.00  0.00    -0.014 A 
ATOM     61  C   UNL A   1      43.112  22.697  27.787  1.00  0.00     0.010 A 
ATOM     62  C   UNL A   1      44.020  22.624  25.538  1.00  0.00     0.010 A 
ATOM     63  C   UNL A   1      42.638  21.391  27.637  1.00  0.00     0.020 A 
ATOM     64  C   UNL A   1      43.527  21.325  25.376  1.00  0.00     0.020 A 
ATOM     65  C   UNL A   1      42.854  20.711  26.435  1.00  0.00     0.054 A 
BRANCH  65  66
ATOM     66  S   UNL A   1      42.218  19.021  26.260  1.00  0.00     0.124 S 
ATOM     67  O   UNL A   1      43.122  18.463  25.258  1.00  0.00    -0.237 OA
ATOM     68  O   UNL A   1      42.366  18.480  27.609  1.00  0.00    -0.237 OA
ATOM     69  O   UNL A   1      40.839  19.213  25.818  1.00  0.00    -0.744 OA
ENDBRANCH  65  66
ENDBRANCH  46  60
BRANCH  47  70
ATOM     70  C   UNL A   1      46.920  32.726  27.988  1.00  0.00    -0.014 A 
ATOM     71  C   UNL A   1      46.997  33.623  26.909  1.00  0.00     0.010 A 
ATOM     72  C   UNL A   1      47.294  33.164  29.271  1.00  0.00     0.010 A 
ATOM     73  C   UNL A   1      47.450  34.931  27.108  1.00  0.00     0.020 A 
ATOM     74  C   UNL A   1      47.727  34.477  29.478  1.00  0.00     0.020 A 
ATOM     75  C   UNL A   1      47.811  35.350  28.392  1.00  0.00     0.054 A 
BRANCH  75  76
ATOM     76  S   UNL A   1      48.345  37.067  28.637  1.00  0.00     0.124 S 
ATOM     77  O   UNL A   1      48.795  37.050  30.025  1.00  0.00    -0.237 OA
ATOM     78  O   UNL A   1      49.394  37.220  27.632  1.00  0.00    -0.237 OA
ATOM     79  O   UNL A   1      47.131  37.841  28.380  1.00  0.00    -0.744 OA
ENDBRANCH  75  76
ENDBRANCH  47  70
BRANCH  59  80
ATOM     80  C   UNL A   1      50.137  26.778  26.275  1.00  0.00    -0.014 A 
ATOM     81  C   UNL A   1      51.034  26.384  27.283  1.00  0.00     0.010 A 
ATOM     82  C   UNL A   1      50.574  26.804  24.938  1.00  0.00     0.010 A 
ATOM     83  C   UNL A   1      52.352  26.046  26.962  1.00  0.00     0.020 A 
ATOM     84  C   UNL A   1      51.884  26.446  24.610  1.00  0.00     0.020 A 
ATOM     85  C   UNL A   1      52.770  26.081  25.628  1.00  0.00     0.054 A 
BRANCH  85  86
ATOM     86  S   UNL A   1      54.470  25.590  25.228  1.00  0.00     0.124 S 
ATOM     87  O   UNL A   1      55.211  26.098  26.379  1.00  0.00    -0.237 OA
ATOM     88  O   UNL A   1      54.374  24.135  25.134  1.00  0.00    -0.237 OA
ATOM     89  O   UNL A   1      54.739  26.272  23.964  1.00  0.00    -0.744 OA
ENDBRANCH  85  86
ENDBRANCH  59  80
ENDBRANCH  33  34
ENDBRANCH  26  28
ENDBRANCH  25  26
ENDBRANCH  24  25
ENDBRANCH  23  24
ENDBRANCH   1  23
TORSDOF 20
ENDMDL
