MODEL 1
REMARK VINA RESULT:      -9.6      0.000      0.000
REMARK SMILES CCCC[C@H](CC)Cn1ccc(C(=O)OCCOCCOC(=O)c2ccc(-c3c4nc(c(-c5ccc(S(=O)(=O)[O-])cc5)c5ccc([nH]5)c(-c5ccc(S(=O)(=O)[O-])cc5)c5nc(c(-c6ccc(S(=O)(=O)[O-])cc6)c6ccc3[nH]6)C=C5)C=C4)cc2)c1
REMARK SMILES IDX 17 1 16 2 15 3 13 4 14 5 12 6 9 7 10 8 84 9 11 10 8 11 5 12
REMARK SMILES IDX 4 13 3 14 2 15 1 16 6 17 7 18 18 19 19 20 20 21 21 22 22 23
REMARK SMILES IDX 23 24 24 25 25 26 83 27 26 28 82 29 27 30 28 31 29 32 76 33
REMARK SMILES IDX 30 34 81 35 75 36 77 37 31 38 80 39 74 40 73 41 32 43 62 44
REMARK SMILES IDX 43 45 61 46 44 47 47 48 60 49 78 50 45 51 46 52 59 54 79 55
REMARK SMILES IDX 48 56 33 57 34 58 42 59 35 60 41 61 36 62 37 63 38 64 39 65
REMARK SMILES IDX 40 66 63 67 64 68 72 69 65 70 71 71 66 72 67 73 68 74 69 75
REMARK SMILES IDX 70 76 49 77 50 78 58 79 51 80 57 81 52 82 53 83 54 84 55 85
REMARK SMILES IDX 56 86
REMARK H PARENT 77 42 47 53
REMARK Flexibility Score: inf
ROOT
ATOM      1  C   UNL A   1      35.883  20.071  24.935  1.00  0.00     0.202 C 
ENDROOT
BRANCH   1   2
ATOM      2  C   UNL A   1      34.782  20.853  25.655  1.00  0.00     0.261 C 
BRANCH   2   3
ATOM      3  O   UNL A   1      33.988  21.616  24.737  1.00  0.00    -0.460 OA
BRANCH   3   4
ATOM      4  C   UNL A   1      32.636  21.459  24.889  1.00  0.00     0.339 C 
ATOM      5  O   UNL A   1      32.099  20.509  25.417  1.00  0.00    -0.246 OA
BRANCH   4   6
ATOM      6  C   UNL A   1      31.901  22.655  24.483  1.00  0.00     0.077 A 
ATOM      7  N   UNL A   1      30.732  24.566  24.490  1.00  0.00    -0.353 N 
ATOM      8  C   UNL A   1      30.957  24.247  23.179  1.00  0.00     0.086 A 
ATOM      9  C   UNL A   1      31.228  23.555  25.285  1.00  0.00     0.101 A 
ATOM     10  C   UNL A   1      31.689  23.082  23.142  1.00  0.00     0.035 A 
BRANCH   7  11
ATOM     11  C   UNL A   1      30.207  25.810  25.050  1.00  0.00     0.125 C 
BRANCH  11  12
ATOM     12  C   UNL A   1      31.029  27.096  24.814  1.00  0.00     0.008 C 
BRANCH  12  13
ATOM     13  C   UNL A   1      31.674  27.743  26.075  1.00  0.00     0.005 C 
BRANCH  13  14
ATOM     14  C   UNL A   1      31.800  29.268  26.162  1.00  0.00     0.000 C 
BRANCH  14  15
ATOM     15  C   UNL A   1      32.709  29.839  27.256  1.00  0.00    -0.003 C 
ATOM     16  C   UNL A   1      34.115  29.262  27.263  1.00  0.00     0.004 C 
ENDBRANCH  14  15
ENDBRANCH  13  14
ENDBRANCH  12  13
BRANCH  12  17
ATOM     17  C   UNL A   1      30.212  28.157  24.023  1.00  0.00     0.002 C 
ATOM     18  C   UNL A   1      30.191  27.978  22.507  1.00  0.00     0.004 C 
ENDBRANCH  12  17
ENDBRANCH  11  12
ENDBRANCH   7  11
ENDBRANCH   4   6
ENDBRANCH   3   4
ENDBRANCH   2   3
ENDBRANCH   1   2
BRANCH   1  19
ATOM     19  O   UNL A   1      37.160  20.697  24.804  1.00  0.00    -0.374 OA
BRANCH  19  20
ATOM     20  C   UNL A   1      38.342  19.921  24.973  1.00  0.00     0.202 C 
BRANCH  20  21
ATOM     21  C   UNL A   1      39.529  20.509  25.724  1.00  0.00     0.261 C 
BRANCH  21  22
ATOM     22  O   UNL A   1      40.209  19.570  26.543  1.00  0.00    -0.460 OA
BRANCH  22  23
ATOM     23  C   UNL A   1      41.478  19.375  26.119  1.00  0.00     0.338 C 
ATOM     24  O   UNL A   1      41.955  18.357  25.644  1.00  0.00    -0.246 OA
BRANCH  23  25
ATOM     25  C   UNL A   1      42.303  20.514  26.495  1.00  0.00     0.060 A 
ATOM     26  C   UNL A   1      42.222  20.909  27.832  1.00  0.00     0.016 A 
ATOM     27  C   UNL A   1      42.785  21.351  25.480  1.00  0.00     0.016 A 
ATOM     28  C   UNL A   1      42.472  22.225  28.133  1.00  0.00     0.010 A 
ATOM     29  C   UNL A   1      42.984  22.678  25.772  1.00  0.00     0.010 A 
ATOM     30  C   UNL A   1      42.792  23.105  27.089  1.00  0.00    -0.014 A 
BRANCH  30  31
ATOM     31  C   UNL A   1      43.153  24.473  27.453  1.00  0.00     0.031 A 
ATOM     32  C   UNL A   1      41.832  25.287  27.572  1.00  0.00     0.074 A 
ATOM     33  C   UNL A   1      44.507  24.721  27.499  1.00  0.00     0.049 A 
ATOM     34  N   UNL A   1      41.612  26.534  27.316  1.00  0.00    -0.248 NA
ATOM     35  C   UNL A   1      40.538  24.607  27.915  1.00  0.00     0.031 C 
ATOM     36  C   UNL A   1      45.588  23.698  27.373  1.00  0.00     0.029 A 
ATOM     37  N   UNL A   1      45.274  25.853  27.655  1.00  0.00    -0.354 N 
ATOM     38  C   UNL A   1      40.269  26.830  27.654  1.00  0.00     0.074 A 
ATOM     39  C   UNL A   1      39.626  25.583  27.907  1.00  0.00     0.031 C 
ATOM     40  C   UNL A   1      46.818  24.270  27.342  1.00  0.00     0.029 A 
ATOM     41  C   UNL A   1      46.685  25.708  27.460  1.00  0.00     0.049 A 
ATOM     42  H   UNL A   1      44.873  26.721  27.888  1.00  0.00     0.167 HD
ATOM     43  C   UNL A   1      39.824  28.108  27.827  1.00  0.00     0.031 A 
ATOM     44  C   UNL A   1      47.636  26.700  27.342  1.00  0.00     0.031 A 
ATOM     45  C   UNL A   1      40.885  29.013  27.536  1.00  0.00     0.049 A 
ATOM     46  C   UNL A   1      46.872  27.933  27.596  1.00  0.00     0.074 A 
ATOM     47  C   UNL A   1      41.463  29.368  26.347  1.00  0.00     0.029 A 
ATOM     48  N   UNL A   1      41.752  29.271  28.573  1.00  0.00    -0.354 N 
ATOM     49  N   UNL A   1      46.394  28.295  28.748  1.00  0.00    -0.248 NA
ATOM     50  C   UNL A   1      46.472  28.746  26.440  1.00  0.00     0.031 C 
ATOM     51  C   UNL A   1      42.836  29.269  26.650  1.00  0.00     0.029 A 
ATOM     52  C   UNL A   1      43.015  29.217  28.039  1.00  0.00     0.049 A 
ATOM     53  H   UNL A   1      41.515  29.457  29.510  1.00  0.00     0.167 HD
ATOM     54  C   UNL A   1      45.360  29.121  28.388  1.00  0.00     0.074 A 
ATOM     55  C   UNL A   1      45.663  29.604  27.053  1.00  0.00     0.031 C 
ATOM     56  C   UNL A   1      44.123  28.950  28.923  1.00  0.00     0.031 A 
BRANCH  43  57
ATOM     57  C   UNL A   1      38.596  28.700  28.455  1.00  0.00    -0.014 A 
ATOM     58  C   UNL A   1      38.027  29.811  27.779  1.00  0.00     0.010 A 
ATOM     59  C   UNL A   1      38.221  28.485  29.787  1.00  0.00     0.010 A 
ATOM     60  C   UNL A   1      37.248  30.755  28.441  1.00  0.00     0.020 A 
ATOM     61  C   UNL A   1      37.396  29.413  30.452  1.00  0.00     0.020 A 
ATOM     62  C   UNL A   1      36.959  30.566  29.787  1.00  0.00     0.054 A 
BRANCH  62  63
ATOM     63  S   UNL A   1      36.061  31.885  30.647  1.00  0.00     0.124 S 
ATOM     64  O   UNL A   1      37.035  32.973  30.652  1.00  0.00    -0.237 OA
ATOM     65  O   UNL A   1      34.902  32.089  29.780  1.00  0.00    -0.237 OA
ATOM     66  O   UNL A   1      35.759  31.302  31.952  1.00  0.00    -0.744 OA
ENDBRANCH  62  63
ENDBRANCH  43  57
BRANCH  44  67
ATOM     67  C   UNL A   1      49.083  26.914  26.895  1.00  0.00    -0.014 A 
ATOM     68  C   UNL A   1      50.148  27.441  27.637  1.00  0.00     0.010 A 
ATOM     69  C   UNL A   1      49.446  26.451  25.591  1.00  0.00     0.010 A 
ATOM     70  C   UNL A   1      51.493  27.349  27.166  1.00  0.00     0.020 A 
ATOM     71  C   UNL A   1      50.762  26.299  25.139  1.00  0.00     0.020 A 
ATOM     72  C   UNL A   1      51.795  26.721  25.949  1.00  0.00     0.054 A 
BRANCH  72  73
ATOM     73  S   UNL A   1      53.508  26.325  25.469  1.00  0.00     0.124 S 
ATOM     74  O   UNL A   1      54.247  26.548  26.708  1.00  0.00    -0.237 OA
ATOM     75  O   UNL A   1      53.405  24.934  25.035  1.00  0.00    -0.237 OA
ATOM     76  O   UNL A   1      53.794  27.276  24.395  1.00  0.00    -0.744 OA
ENDBRANCH  72  73
ENDBRANCH  44  67
BRANCH  56  77
ATOM     77  C   UNL A   1      44.042  28.198  30.250  1.00  0.00    -0.014 A 
ATOM     78  C   UNL A   1      44.103  28.921  31.453  1.00  0.00     0.010 A 
ATOM     79  C   UNL A   1      43.958  26.793  30.359  1.00  0.00     0.010 A 
ATOM     80  C   UNL A   1      44.063  28.282  32.705  1.00  0.00     0.020 A 
ATOM     81  C   UNL A   1      43.930  26.137  31.609  1.00  0.00     0.020 A 
ATOM     82  C   UNL A   1      43.968  26.893  32.779  1.00  0.00     0.054 A 
BRANCH  82  83
ATOM     83  S   UNL A   1      43.874  26.109  34.420  1.00  0.00     0.124 S 
ATOM     84  O   UNL A   1      42.671  26.703  34.997  1.00  0.00    -0.237 OA
ATOM     85  O   UNL A   1      43.770  24.691  34.084  1.00  0.00    -0.237 OA
ATOM     86  O   UNL A   1      45.124  26.499  35.070  1.00  0.00    -0.744 OA
ENDBRANCH  82  83
ENDBRANCH  56  77
ENDBRANCH  30  31
ENDBRANCH  23  25
ENDBRANCH  22  23
ENDBRANCH  21  22
ENDBRANCH  20  21
ENDBRANCH  19  20
ENDBRANCH   1  19
TORSDOF 23
ENDMDL
MODEL 2
REMARK VINA RESULT:      -9.3      1.283      2.038
REMARK SMILES CCCC[C@H](CC)Cn1ccc(C(=O)OCCOCCOC(=O)c2ccc(-c3c4nc(c(-c5ccc(S(=O)(=O)[O-])cc5)c5ccc([nH]5)c(-c5ccc(S(=O)(=O)[O-])cc5)c5nc(c(-c6ccc(S(=O)(=O)[O-])cc6)c6ccc3[nH]6)C=C5)C=C4)cc2)c1
REMARK SMILES IDX 17 1 16 2 15 3 13 4 14 5 12 6 9 7 10 8 84 9 11 10 8 11 5 12
REMARK SMILES IDX 4 13 3 14 2 15 1 16 6 17 7 18 18 19 19 20 20 21 21 22 22 23
REMARK SMILES IDX 23 24 24 25 25 26 83 27 26 28 82 29 27 30 28 31 29 32 76 33
REMARK SMILES IDX 30 34 81 35 75 36 77 37 31 38 80 39 74 40 73 41 32 43 62 44
REMARK SMILES IDX 43 45 61 46 44 47 47 48 60 49 78 50 45 51 46 52 59 54 79 55
REMARK SMILES IDX 48 56 33 57 34 58 42 59 35 60 41 61 36 62 37 63 38 64 39 65
REMARK SMILES IDX 40 66 63 67 64 68 72 69 65 70 71 71 66 72 67 73 68 74 69 75
REMARK SMILES IDX 70 76 49 77 50 78 58 79 51 80 57 81 52 82 53 83 54 84 55 85
REMARK SMILES IDX 56 86
REMARK H PARENT 77 42 47 53
REMARK Flexibility Score: inf
ROOT
ATOM      1  C   UNL A   1      35.703  20.461  25.307  1.00  0.00     0.202 C 
ENDROOT
BRANCH   1   2
ATOM      2  C   UNL A   1      34.675  21.431  24.721  1.00  0.00     0.261 C 
BRANCH   2   3
ATOM      3  O   UNL A   1      35.300  22.589  24.153  1.00  0.00    -0.460 OA
BRANCH   3   4
ATOM      4  C   UNL A   1      35.260  23.704  24.948  1.00  0.00     0.339 C 
ATOM      5  O   UNL A   1      36.019  23.935  25.864  1.00  0.00    -0.246 OA
BRANCH   4   6
ATOM      6  C   UNL A   1      34.287  24.680  24.464  1.00  0.00     0.077 A 
ATOM      7  N   UNL A   1      32.662  26.219  24.343  1.00  0.00    -0.353 N 
ATOM      8  C   UNL A   1      33.108  26.016  23.067  1.00  0.00     0.086 A 
ATOM      9  C   UNL A   1      33.315  25.345  25.186  1.00  0.00     0.101 A 
ATOM     10  C   UNL A   1      34.120  25.084  23.110  1.00  0.00     0.035 A 
BRANCH   7  11
ATOM     11  C   UNL A   1      31.769  27.261  24.844  1.00  0.00     0.125 C 
BRANCH  11  12
ATOM     12  C   UNL A   1      30.821  27.933  23.825  1.00  0.00     0.008 C 
BRANCH  12  13
ATOM     13  C   UNL A   1      30.584  29.461  24.008  1.00  0.00     0.005 C 
BRANCH  13  14
ATOM     14  C   UNL A   1      29.756  30.226  22.968  1.00  0.00     0.000 C 
BRANCH  14  15
ATOM     15  C   UNL A   1      28.422  30.821  23.431  1.00  0.00    -0.003 C 
ATOM     16  C   UNL A   1      27.847  31.870  22.494  1.00  0.00     0.004 C 
ENDBRANCH  14  15
ENDBRANCH  13  14
ENDBRANCH  12  13
BRANCH  12  17
ATOM     17  C   UNL A   1      29.462  27.183  23.733  1.00  0.00     0.002 C 
ATOM     18  C   UNL A   1      29.520  25.678  23.986  1.00  0.00     0.004 C 
ENDBRANCH  12  17
ENDBRANCH  11  12
ENDBRANCH   7  11
ENDBRANCH   4   6
ENDBRANCH   3   4
ENDBRANCH   2   3
ENDBRANCH   1   2
BRANCH   1  19
ATOM     19  O   UNL A   1      37.085  20.752  25.087  1.00  0.00    -0.374 OA
BRANCH  19  20
ATOM     20  C   UNL A   1      38.033  19.689  25.085  1.00  0.00     0.202 C 
BRANCH  20  21
ATOM     21  C   UNL A   1      39.520  20.006  25.151  1.00  0.00     0.261 C 
BRANCH  21  22
ATOM     22  O   UNL A   1      40.154  19.528  26.327  1.00  0.00    -0.460 OA
BRANCH  22  23
ATOM     23  C   UNL A   1      41.451  19.225  26.100  1.00  0.00     0.338 C 
ATOM     24  O   UNL A   1      41.919  18.139  25.797  1.00  0.00    -0.246 OA
BRANCH  23  25
ATOM     25  C   UNL A   1      42.292  20.355  26.468  1.00  0.00     0.060 A 
ATOM     26  C   UNL A   1      42.140  20.828  27.773  1.00  0.00     0.016 A 
ATOM     27  C   UNL A   1      42.872  21.116  25.444  1.00  0.00     0.016 A 
ATOM     28  C   UNL A   1      42.419  22.150  28.017  1.00  0.00     0.010 A 
ATOM     29  C   UNL A   1      43.102  22.450  25.675  1.00  0.00     0.010 A 
ATOM     30  C   UNL A   1      42.840  22.957  26.951  1.00  0.00    -0.014 A 
BRANCH  30  31
ATOM     31  C   UNL A   1      43.228  24.330  27.264  1.00  0.00     0.031 A 
ATOM     32  C   UNL A   1      41.919  25.151  27.459  1.00  0.00     0.074 A 
ATOM     33  C   UNL A   1      44.582  24.575  27.210  1.00  0.00     0.049 A 
ATOM     34  N   UNL A   1      41.684  26.393  27.196  1.00  0.00    -0.248 NA
ATOM     35  C   UNL A   1      40.652  24.481  27.905  1.00  0.00     0.031 C 
ATOM     36  C   UNL A   1      45.649  23.547  27.028  1.00  0.00     0.029 A 
ATOM     37  N   UNL A   1      45.360  25.708  27.291  1.00  0.00    -0.354 N 
ATOM     38  C   UNL A   1      40.369  26.699  27.622  1.00  0.00     0.074 A 
ATOM     39  C   UNL A   1      39.743  25.459  27.942  1.00  0.00     0.031 C 
ATOM     40  C   UNL A   1      46.876  24.114  26.900  1.00  0.00     0.029 A 
ATOM     41  C   UNL A   1      46.753  25.555  27.001  1.00  0.00     0.049 A 
ATOM     42  H   UNL A   1      44.978  26.581  27.536  1.00  0.00     0.167 HD
ATOM     43  C   UNL A   1      39.939  27.982  27.802  1.00  0.00     0.031 A 
ATOM     44  C   UNL A   1      47.696  26.541  26.798  1.00  0.00     0.031 A 
ATOM     45  C   UNL A   1      40.979  28.878  27.421  1.00  0.00     0.049 A 
ATOM     46  C   UNL A   1      46.954  27.781  27.082  1.00  0.00     0.074 A 
ATOM     47  C   UNL A   1      41.473  29.209  26.188  1.00  0.00     0.029 A 
ATOM     48  N   UNL A   1      41.917  29.152  28.389  1.00  0.00    -0.354 N 
ATOM     49  N   UNL A   1      46.558  28.166  28.257  1.00  0.00    -0.248 NA
ATOM     50  C   UNL A   1      46.475  28.574  25.942  1.00  0.00     0.031 C 
ATOM     51  C   UNL A   1      42.863  29.111  26.396  1.00  0.00     0.029 A 
ATOM     52  C   UNL A   1      43.140  29.085  27.770  1.00  0.00     0.049 A 
ATOM     53  H   UNL A   1      41.746  29.357  29.337  1.00  0.00     0.167 HD
ATOM     54  C   UNL A   1      45.503  28.988  27.955  1.00  0.00     0.074 A 
ATOM     55  C   UNL A   1      45.713  29.445  26.593  1.00  0.00     0.031 C 
ATOM     56  C   UNL A   1      44.306  28.831  28.579  1.00  0.00     0.031 A 
BRANCH  43  57
ATOM     57  C   UNL A   1      38.760  28.589  28.503  1.00  0.00    -0.014 A 
ATOM     58  C   UNL A   1      38.125  29.667  27.832  1.00  0.00     0.010 A 
ATOM     59  C   UNL A   1      38.496  28.426  29.869  1.00  0.00     0.010 A 
ATOM     60  C   UNL A   1      37.391  30.631  28.517  1.00  0.00     0.020 A 
ATOM     61  C   UNL A   1      37.716  29.373  30.560  1.00  0.00     0.020 A 
ATOM     62  C   UNL A   1      37.214  30.494  29.888  1.00  0.00     0.054 A 
BRANCH  62  63
ATOM     63  S   UNL A   1      36.373  31.840  30.765  1.00  0.00     0.124 S 
ATOM     64  O   UNL A   1      36.015  31.210  32.032  1.00  0.00    -0.237 OA
ATOM     65  O   UNL A   1      37.420  32.858  30.848  1.00  0.00    -0.237 OA
ATOM     66  O   UNL A   1      35.255  32.177  29.888  1.00  0.00    -0.744 OA
ENDBRANCH  62  63
ENDBRANCH  43  57
BRANCH  44  67
ATOM     67  C   UNL A   1      49.108  26.743  26.247  1.00  0.00    -0.014 A 
ATOM     68  C   UNL A   1      50.315  26.254  26.763  1.00  0.00     0.010 A 
ATOM     69  C   UNL A   1      49.238  27.441  25.005  1.00  0.00     0.010 A 
ATOM     70  C   UNL A   1      51.523  26.318  26.003  1.00  0.00     0.020 A 
ATOM     71  C   UNL A   1      50.398  27.461  24.222  1.00  0.00     0.020 A 
ATOM     72  C   UNL A   1      51.540  26.864  24.711  1.00  0.00     0.054 A 
BRANCH  72  73
ATOM     73  S   UNL A   1      52.983  26.689  23.612  1.00  0.00     0.124 S 
ATOM     74  O   UNL A   1      52.370  26.600  22.290  1.00  0.00    -0.237 OA
ATOM     75  O   UNL A   1      53.739  27.910  23.879  1.00  0.00    -0.237 OA
ATOM     76  O   UNL A   1      53.627  25.462  24.081  1.00  0.00    -0.744 OA
ENDBRANCH  72  73
ENDBRANCH  44  67
BRANCH  56  77
ATOM     77  C   UNL A   1      44.317  28.104  29.921  1.00  0.00    -0.014 A 
ATOM     78  C   UNL A   1      44.039  26.727  29.959  1.00  0.00     0.010 A 
ATOM     79  C   UNL A   1      44.546  28.737  31.163  1.00  0.00     0.010 A 
ATOM     80  C   UNL A   1      44.006  26.009  31.167  1.00  0.00     0.020 A 
ATOM     81  C   UNL A   1      44.505  28.032  32.385  1.00  0.00     0.020 A 
ATOM     82  C   UNL A   1      44.248  26.662  32.375  1.00  0.00     0.054 A 
BRANCH  82  83
ATOM     83  S   UNL A   1      44.241  25.686  33.913  1.00  0.00     0.124 S 
ATOM     84  O   UNL A   1      45.557  25.966  34.482  1.00  0.00    -0.237 OA
ATOM     85  O   UNL A   1      43.111  26.257  34.641  1.00  0.00    -0.237 OA
ATOM     86  O   UNL A   1      44.050  24.309  33.457  1.00  0.00    -0.744 OA
ENDBRANCH  82  83
ENDBRANCH  56  77
ENDBRANCH  30  31
ENDBRANCH  23  25
ENDBRANCH  22  23
ENDBRANCH  21  22
ENDBRANCH  20  21
ENDBRANCH  19  20
ENDBRANCH   1  19
TORSDOF 23
ENDMDL
MODEL 3
REMARK VINA RESULT:      -9.2      5.787     10.892
REMARK SMILES CCCC[C@H](CC)Cn1ccc(C(=O)OCCOCCOC(=O)c2ccc(-c3c4nc(c(-c5ccc(S(=O)(=O)[O-])cc5)c5ccc([nH]5)c(-c5ccc(S(=O)(=O)[O-])cc5)c5nc(c(-c6ccc(S(=O)(=O)[O-])cc6)c6ccc3[nH]6)C=C5)C=C4)cc2)c1
REMARK SMILES IDX 17 1 16 2 15 3 13 4 14 5 12 6 9 7 10 8 84 9 11 10 8 11 5 12
REMARK SMILES IDX 4 13 3 14 2 15 1 16 6 17 7 18 18 19 19 20 20 21 21 22 22 23
REMARK SMILES IDX 23 24 24 25 25 26 83 27 26 28 82 29 27 30 28 31 29 32 76 33
REMARK SMILES IDX 30 34 81 35 75 36 77 37 31 38 80 39 74 40 73 41 32 43 62 44
REMARK SMILES IDX 43 45 61 46 44 47 47 48 60 49 78 50 45 51 46 52 59 54 79 55
REMARK SMILES IDX 48 56 33 57 34 58 42 59 35 60 41 61 36 62 37 63 38 64 39 65
REMARK SMILES IDX 40 66 63 67 64 68 72 69 65 70 71 71 66 72 67 73 68 74 69 75
REMARK SMILES IDX 70 76 49 77 50 78 58 79 51 80 57 81 52 82 53 83 54 84 55 85
REMARK SMILES IDX 56 86
REMARK H PARENT 77 42 47 53
REMARK Flexibility Score: inf
ROOT
ATOM      1  C   UNL A   1      33.358  35.380  28.691  1.00  0.00     0.202 C 
ENDROOT
BRANCH   1   2
ATOM      2  C   UNL A   1      34.571  34.526  28.317  1.00  0.00     0.261 C 
BRANCH   2   3
ATOM      3  O   UNL A   1      34.183  33.314  27.656  1.00  0.00    -0.460 OA
BRANCH   3   4
ATOM      4  C   UNL A   1      35.058  32.273  27.817  1.00  0.00     0.339 C 
ATOM      5  O   UNL A   1      36.180  32.368  28.267  1.00  0.00    -0.246 OA
BRANCH   4   6
ATOM      6  C   UNL A   1      34.428  30.986  27.533  1.00  0.00     0.077 A 
ATOM      7  N   UNL A   1      32.947  29.379  27.039  1.00  0.00    -0.353 N 
ATOM      8  C   UNL A   1      34.162  28.766  27.175  1.00  0.00     0.086 A 
ATOM      9  C   UNL A   1      33.087  30.717  27.342  1.00  0.00     0.101 A 
ATOM     10  C   UNL A   1      35.098  29.732  27.465  1.00  0.00     0.035 A 
BRANCH   7  11
ATOM     11  C   UNL A   1      31.699  28.827  26.517  1.00  0.00     0.125 C 
BRANCH  11  12
ATOM     12  C   UNL A   1      31.656  28.467  25.015  1.00  0.00     0.008 C 
BRANCH  12  13
ATOM     13  C   UNL A   1      30.722  29.337  24.124  1.00  0.00     0.005 C 
BRANCH  13  14
ATOM     14  C   UNL A   1      29.960  28.683  22.964  1.00  0.00     0.000 C 
BRANCH  14  15
ATOM     15  C   UNL A   1      28.455  28.462  23.147  1.00  0.00    -0.003 C 
ATOM     16  C   UNL A   1      27.608  29.702  22.917  1.00  0.00     0.004 C 
ENDBRANCH  14  15
ENDBRANCH  13  14
ENDBRANCH  12  13
BRANCH  12  17
ATOM     17  C   UNL A   1      31.354  26.956  24.800  1.00  0.00     0.002 C 
ATOM     18  C   UNL A   1      30.898  26.192  26.040  1.00  0.00     0.004 C 
ENDBRANCH  12  17
ENDBRANCH  11  12
ENDBRANCH   7  11
ENDBRANCH   4   6
ENDBRANCH   3   4
ENDBRANCH   2   3
ENDBRANCH   1   2
BRANCH   1  19
ATOM     19  O   UNL A   1      32.791  35.189  29.988  1.00  0.00    -0.374 OA
BRANCH  19  20
ATOM     20  C   UNL A   1      33.207  36.022  31.065  1.00  0.00     0.202 C 
BRANCH  20  21
ATOM     21  C   UNL A   1      32.899  35.611  32.498  1.00  0.00     0.261 C 
BRANCH  21  22
ATOM     22  O   UNL A   1      34.011  35.058  33.185  1.00  0.00    -0.460 OA
BRANCH  22  23
ATOM     23  C   UNL A   1      33.988  33.707  33.152  1.00  0.00     0.338 C 
ATOM     24  O   UNL A   1      33.014  32.978  33.245  1.00  0.00    -0.246 OA
BRANCH  23  25
ATOM     25  C   UNL A   1      35.348  33.190  33.194  1.00  0.00     0.060 A 
ATOM     26  C   UNL A   1      36.305  34.036  33.759  1.00  0.00     0.016 A 
ATOM     27  C   UNL A   1      35.679  32.118  32.354  1.00  0.00     0.016 A 
ATOM     28  C   UNL A   1      37.606  33.910  33.341  1.00  0.00     0.010 A 
ATOM     29  C   UNL A   1      36.971  32.025  31.897  1.00  0.00     0.010 A 
ATOM     30  C   UNL A   1      37.911  32.945  32.371  1.00  0.00    -0.014 A 
BRANCH  30  31
ATOM     31  C   UNL A   1      39.319  32.765  32.024  1.00  0.00     0.031 A 
ATOM     32  C   UNL A   1      39.932  31.779  33.060  1.00  0.00     0.074 A 
ATOM     33  C   UNL A   1      39.761  33.551  30.983  1.00  0.00     0.049 A 
ATOM     34  N   UNL A   1      41.132  31.731  33.535  1.00  0.00    -0.248 NA
ATOM     35  C   UNL A   1      39.072  30.767  33.761  1.00  0.00     0.031 C 
ATOM     36  C   UNL A   1      38.906  34.411  30.112  1.00  0.00     0.029 A 
ATOM     37  N   UNL A   1      40.995  33.807  30.426  1.00  0.00    -0.354 N 
ATOM     38  C   UNL A   1      41.230  30.607  34.390  1.00  0.00     0.074 A 
ATOM     39  C   UNL A   1      39.905  30.120  34.580  1.00  0.00     0.031 C 
ATOM     40  C   UNL A   1      39.651  35.151  29.251  1.00  0.00     0.029 A 
ATOM     41  C   UNL A   1      41.055  34.849  29.447  1.00  0.00     0.049 A 
ATOM     42  H   UNL A   1      41.795  33.299  30.689  1.00  0.00     0.167 HD
ATOM     43  C   UNL A   1      42.431  30.083  34.772  1.00  0.00     0.031 A 
ATOM     44  C   UNL A   1      42.175  35.445  28.905  1.00  0.00     0.031 A 
ATOM     45  C   UNL A   1      43.479  30.889  34.244  1.00  0.00     0.049 A 
ATOM     46  C   UNL A   1      43.284  34.664  29.476  1.00  0.00     0.074 A 
ATOM     47  C   UNL A   1      43.910  32.143  34.588  1.00  0.00     0.029 A 
ATOM     48  N   UNL A   1      43.866  30.600  32.956  1.00  0.00    -0.354 N 
ATOM     49  N   UNL A   1      43.579  33.438  29.162  1.00  0.00    -0.248 NA
ATOM     50  C   UNL A   1      44.025  35.242  30.605  1.00  0.00     0.031 C 
ATOM     51  C   UNL A   1      44.013  32.770  33.330  1.00  0.00     0.029 A 
ATOM     52  C   UNL A   1      43.995  31.806  32.313  1.00  0.00     0.049 A 
ATOM     53  H   UNL A   1      44.020  29.707  32.571  1.00  0.00     0.167 HD
ATOM     54  C   UNL A   1      44.243  33.003  30.279  1.00  0.00     0.074 A 
ATOM     55  C   UNL A   1      44.759  34.187  30.942  1.00  0.00     0.031 C 
ATOM     56  C   UNL A   1      43.896  31.831  30.875  1.00  0.00     0.031 A 
BRANCH  43  57
ATOM     57  C   UNL A   1      42.841  28.778  35.390  1.00  0.00    -0.014 A 
ATOM     58  C   UNL A   1      44.163  28.722  35.904  1.00  0.00     0.010 A 
ATOM     59  C   UNL A   1      42.177  27.566  35.164  1.00  0.00     0.010 A 
ATOM     60  C   UNL A   1      44.851  27.519  36.034  1.00  0.00     0.020 A 
ATOM     61  C   UNL A   1      42.853  26.342  35.337  1.00  0.00     0.020 A 
ATOM     62  C   UNL A   1      44.200  26.333  35.721  1.00  0.00     0.054 A 
BRANCH  62  63
ATOM     63  S   UNL A   1      45.171  24.803  35.769  1.00  0.00     0.124 S 
ATOM     64  O   UNL A   1      46.143  25.084  36.823  1.00  0.00    -0.237 OA
ATOM     65  O   UNL A   1      44.159  23.802  36.104  1.00  0.00    -0.237 OA
ATOM     66  O   UNL A   1      45.717  24.698  34.419  1.00  0.00    -0.744 OA
ENDBRANCH  62  63
ENDBRANCH  43  57
BRANCH  44  67
ATOM     67  C   UNL A   1      42.596  36.674  28.098  1.00  0.00    -0.014 A 
ATOM     68  C   UNL A   1      42.042  37.960  28.128  1.00  0.00     0.010 A 
ATOM     69  C   UNL A   1      43.750  36.550  27.261  1.00  0.00     0.010 A 
ATOM     70  C   UNL A   1      42.699  39.064  27.503  1.00  0.00     0.020 A 
ATOM     71  C   UNL A   1      44.439  37.627  26.692  1.00  0.00     0.020 A 
ATOM     72  C   UNL A   1      43.926  38.898  26.843  1.00  0.00     0.054 A 
BRANCH  72  73
ATOM     73  S   UNL A   1      44.927  40.322  26.302  1.00  0.00     0.124 S 
ATOM     74  O   UNL A   1      44.132  40.875  25.210  1.00  0.00    -0.237 OA
ATOM     75  O   UNL A   1      44.999  41.140  27.511  1.00  0.00    -0.237 OA
ATOM     76  O   UNL A   1      46.198  39.718  25.901  1.00  0.00    -0.744 OA
ENDBRANCH  72  73
ENDBRANCH  44  67
BRANCH  56  77
ATOM     77  C   UNL A   1      43.146  30.816  30.015  1.00  0.00    -0.014 A 
ATOM     78  C   UNL A   1      43.861  30.048  29.080  1.00  0.00     0.010 A 
ATOM     79  C   UNL A   1      41.749  30.620  30.059  1.00  0.00     0.010 A 
ATOM     80  C   UNL A   1      43.222  29.118  28.241  1.00  0.00     0.020 A 
ATOM     81  C   UNL A   1      41.092  29.700  29.214  1.00  0.00     0.020 A 
ATOM     82  C   UNL A   1      41.841  28.941  28.316  1.00  0.00     0.054 A 
BRANCH  82  83
ATOM     83  S   UNL A   1      41.059  27.694  27.243  1.00  0.00     0.124 S 
ATOM     84  O   UNL A   1      42.051  27.506  26.187  1.00  0.00    -0.237 OA
ATOM     85  O   UNL A   1      40.889  26.562  28.150  1.00  0.00    -0.237 OA
ATOM     86  O   UNL A   1      39.815  28.331  26.811  1.00  0.00    -0.744 OA
ENDBRANCH  82  83
ENDBRANCH  56  77
ENDBRANCH  30  31
ENDBRANCH  23  25
ENDBRANCH  22  23
ENDBRANCH  21  22
ENDBRANCH  20  21
ENDBRANCH  19  20
ENDBRANCH   1  19
TORSDOF 23
ENDMDL
