MODEL 1
REMARK VINA RESULT:     -11.8      0.000      0.000
REMARK SMILES Cc1ccccc1NC(=O)CSc1nc(C(=O)OCCOCCOC(=O)c2ccc(-c3c4nc(c(-c5ccc(S(=O)(=O)[O-])cc5)c5ccc([nH]5)c(-c5ccc(S(=O)(=O)[O-])cc5)c5nc(c(-c6ccc(S(=O)(=O)[O-])cc6)c6ccc3[nH]6)C=C5)C=C4)cc2)c2ccccc2n1
REMARK SMILES IDX 20 1 19 2 18 3 16 4 17 5 15 6 13 7 14 8 93 9 92 10 87 11
REMARK SMILES IDX 91 12 88 13 90 14 89 15 12 16 11 17 9 18 8 19 10 21 7 22
REMARK SMILES IDX 1 23 2 24 3 25 4 26 6 27 5 28 21 29 22 30 23 31 24 32 25 33
REMARK SMILES IDX 26 34 27 35 28 36 86 37 29 38 85 39 30 40 31 41 32 42 79 43
REMARK SMILES IDX 33 44 84 45 78 46 80 47 34 48 83 49 77 50 76 51 35 53 65 54
REMARK SMILES IDX 46 55 64 56 47 57 50 58 63 59 81 60 48 61 49 62 62 64 82 65
REMARK SMILES IDX 51 66 36 67 37 68 45 69 38 70 44 71 39 72 40 73 41 74 42 75
REMARK SMILES IDX 43 76 66 77 67 78 75 79 68 80 74 81 69 82 70 83 71 84 72 85
REMARK SMILES IDX 73 86 52 87 53 88 61 89 54 90 60 91 55 92 56 93 57 94 58 95
REMARK SMILES IDX 59 96
REMARK H PARENT 8 20 80 52 50 63
REMARK Flexibility Score: inf
ROOT
ATOM      1  C   UNL A   1      33.539  28.917  23.866  1.00  0.00     0.202 C 
ENDROOT
BRANCH   1   2
ATOM      2  C   UNL A   1      32.914  28.734  22.520  1.00  0.00     0.261 C 
BRANCH   2   3
ATOM      3  O   UNL A   1      32.235  27.474  22.394  1.00  0.00    -0.458 OA
BRANCH   3   4
ATOM      4  C   UNL A   1      32.820  26.326  22.003  1.00  0.00     0.357 C 
ATOM      5  O   UNL A   1      33.367  26.071  20.957  1.00  0.00    -0.244 OA
BRANCH   4   6
ATOM      6  C   UNL A   1      32.818  25.413  23.182  1.00  0.00     0.160 A 
ATOM      7  C   UNL A   1      34.235  24.146  24.414  1.00  0.00     0.189 A 
ATOM      8  N   UNL A   1      34.017  24.811  23.302  1.00  0.00    -0.215 NA
ATOM      9  N   UNL A   1      33.342  23.984  25.398  1.00  0.00    -0.222 NA
ATOM     10  C   UNL A   1      32.141  24.563  25.253  1.00  0.00     0.076 A 
ATOM     11  C   UNL A   1      31.791  25.340  24.148  1.00  0.00     0.034 A 
ATOM     12  C   UNL A   1      31.218  24.423  26.285  1.00  0.00     0.029 A 
ATOM     13  C   UNL A   1      30.502  25.974  24.152  1.00  0.00     0.013 A 
ATOM     14  C   UNL A   1      29.975  25.069  26.285  1.00  0.00     0.002 A 
ATOM     15  C   UNL A   1      29.622  25.867  25.218  1.00  0.00     0.001 A 
BRANCH   7  16
ATOM     16  S   UNL A   1      35.916  23.717  24.713  1.00  0.00    -0.076 SA
BRANCH  16  17
ATOM     17  C   UNL A   1      35.802  21.903  24.519  1.00  0.00     0.178 C 
BRANCH  17  18
ATOM     18  C   UNL A   1      35.208  21.208  25.728  1.00  0.00     0.234 C 
ATOM     19  N   UNL A   1      34.444  20.077  25.672  1.00  0.00    -0.325 N 
ATOM     20  H   UNL A   1      34.105  19.797  26.553  1.00  0.00     0.169 HD
ATOM     21  O   UNL A   1      35.406  21.663  26.862  1.00  0.00    -0.274 OA
BRANCH  19  22
ATOM     22  C   UNL A   1      34.038  19.225  24.628  1.00  0.00     0.044 A 
ATOM     23  C   UNL A   1      32.197  20.894  23.913  1.00  0.00     0.046 C 
ATOM     24  C   UNL A   1      32.905  19.565  23.861  1.00  0.00    -0.027 A 
ATOM     25  C   UNL A   1      32.366  18.608  22.975  1.00  0.00     0.005 A 
ATOM     26  C   UNL A   1      32.950  17.355  22.821  1.00  0.00     0.000 A 
ATOM     27  C   UNL A   1      34.689  18.019  24.345  1.00  0.00     0.026 A 
ATOM     28  C   UNL A   1      34.132  17.071  23.485  1.00  0.00     0.002 A 
ENDBRANCH  19  22
ENDBRANCH  17  18
ENDBRANCH  16  17
ENDBRANCH   7  16
ENDBRANCH   4   6
ENDBRANCH   3   4
ENDBRANCH   2   3
ENDBRANCH   1   2
BRANCH   1  29
ATOM     29  O   UNL A   1      32.477  28.747  24.788  1.00  0.00    -0.374 OA
BRANCH  29  30
ATOM     30  C   UNL A   1      31.745  29.891  25.142  1.00  0.00     0.202 C 
BRANCH  30  31
ATOM     31  C   UNL A   1      32.230  30.468  26.469  1.00  0.00     0.261 C 
BRANCH  31  32
ATOM     32  O   UNL A   1      33.527  29.933  26.831  1.00  0.00    -0.460 OA
BRANCH  32  33
ATOM     33  C   UNL A   1      34.375  30.768  27.508  1.00  0.00     0.338 C 
ATOM     34  O   UNL A   1      34.186  31.965  27.630  1.00  0.00    -0.246 OA
BRANCH  33  35
ATOM     35  C   UNL A   1      35.525  30.009  28.090  1.00  0.00     0.060 A 
ATOM     36  C   UNL A   1      35.568  29.643  29.450  1.00  0.00     0.016 A 
ATOM     37  C   UNL A   1      36.665  29.870  27.312  1.00  0.00     0.016 A 
ATOM     38  C   UNL A   1      36.795  29.305  30.065  1.00  0.00     0.010 A 
ATOM     39  C   UNL A   1      37.872  29.670  27.943  1.00  0.00     0.010 A 
ATOM     40  C   UNL A   1      37.967  29.410  29.324  1.00  0.00    -0.014 A 
BRANCH  40  41
ATOM     41  C   UNL A   1      39.360  29.319  29.797  1.00  0.00     0.031 A 
ATOM     42  C   UNL A   1      40.073  28.058  29.478  1.00  0.00     0.074 A 
ATOM     43  C   UNL A   1      40.090  30.426  30.094  1.00  0.00     0.049 A 
ATOM     44  N   UNL A   1      41.316  27.848  29.712  1.00  0.00    -0.248 NA
ATOM     45  C   UNL A   1      39.421  26.891  28.875  1.00  0.00     0.031 C 
ATOM     46  C   UNL A   1      41.504  30.687  29.791  1.00  0.00     0.029 A 
ATOM     47  N   UNL A   1      39.699  31.597  30.723  1.00  0.00    -0.354 N 
ATOM     48  C   UNL A   1      41.700  26.757  28.971  1.00  0.00     0.074 A 
ATOM     49  C   UNL A   1      40.471  26.125  28.570  1.00  0.00     0.031 C 
ATOM     50  C   UNL A   1      41.906  31.821  30.396  1.00  0.00     0.029 A 
ATOM     51  C   UNL A   1      40.812  32.274  31.234  1.00  0.00     0.049 A 
ATOM     52  H   UNL A   1      38.768  31.910  30.799  1.00  0.00     0.167 HD
ATOM     53  C   UNL A   1      43.023  26.612  28.689  1.00  0.00     0.031 A 
ATOM     54  C   UNL A   1      40.854  32.573  32.562  1.00  0.00     0.031 A 
ATOM     55  C   UNL A   1      43.817  27.610  29.423  1.00  0.00     0.049 A 
ATOM     56  C   UNL A   1      41.903  31.690  33.188  1.00  0.00     0.074 A 
ATOM     57  C   UNL A   1      44.492  28.761  29.052  1.00  0.00     0.029 A 
ATOM     58  N   UNL A   1      43.684  27.667  30.810  1.00  0.00    -0.354 N 
ATOM     59  N   UNL A   1      42.318  30.587  32.621  1.00  0.00    -0.248 NA
ATOM     60  C   UNL A   1      42.671  32.020  34.383  1.00  0.00     0.031 C 
ATOM     61  C   UNL A   1      44.695  29.541  30.233  1.00  0.00     0.029 A 
ATOM     62  C   UNL A   1      44.174  28.854  31.321  1.00  0.00     0.049 A 
ATOM     63  H   UNL A   1      43.292  26.950  31.358  1.00  0.00     0.167 HD
ATOM     64  C   UNL A   1      43.439  30.137  33.244  1.00  0.00     0.074 A 
ATOM     65  C   UNL A   1      43.592  31.037  34.378  1.00  0.00     0.031 C 
ATOM     66  C   UNL A   1      44.174  29.091  32.767  1.00  0.00     0.031 A 
BRANCH  53  67
ATOM     67  C   UNL A   1      43.595  25.687  27.637  1.00  0.00    -0.014 A 
ATOM     68  C   UNL A   1      44.702  24.877  27.965  1.00  0.00     0.010 A 
ATOM     69  C   UNL A   1      43.140  25.592  26.306  1.00  0.00     0.010 A 
ATOM     70  C   UNL A   1      45.309  24.024  27.029  1.00  0.00     0.020 A 
ATOM     71  C   UNL A   1      43.726  24.733  25.362  1.00  0.00     0.020 A 
ATOM     72  C   UNL A   1      44.811  23.951  25.730  1.00  0.00     0.054 A 
BRANCH  72  73
ATOM     73  S   UNL A   1      45.587  22.826  24.542  1.00  0.00     0.124 S 
ATOM     74  O   UNL A   1      44.451  22.386  23.735  1.00  0.00    -0.237 OA
ATOM     75  O   UNL A   1      46.544  23.695  23.863  1.00  0.00    -0.237 OA
ATOM     76  O   UNL A   1      46.184  21.788  25.381  1.00  0.00    -0.744 OA
ENDBRANCH  72  73
ENDBRANCH  53  67
BRANCH  54  77
ATOM     77  C   UNL A   1      39.504  33.018  33.066  1.00  0.00    -0.014 A 
ATOM     78  C   UNL A   1      39.049  34.273  32.583  1.00  0.00     0.010 A 
ATOM     79  C   UNL A   1      38.527  32.060  33.409  1.00  0.00     0.010 A 
ATOM     80  C   UNL A   1      37.697  34.485  32.258  1.00  0.00     0.020 A 
ATOM     81  C   UNL A   1      37.174  32.262  33.058  1.00  0.00     0.020 A 
ATOM     82  C   UNL A   1      36.776  33.453  32.440  1.00  0.00     0.054 A 
BRANCH  82  83
ATOM     83  S   UNL A   1      35.146  33.565  31.605  1.00  0.00     0.124 S 
ATOM     84  O   UNL A   1      35.504  33.450  30.198  1.00  0.00    -0.237 OA
ATOM     85  O   UNL A   1      34.409  32.427  32.154  1.00  0.00    -0.237 OA
ATOM     86  O   UNL A   1      34.645  34.867  32.036  1.00  0.00    -0.744 OA
ENDBRANCH  82  83
ENDBRANCH  54  77
BRANCH  66  87
ATOM     87  C   UNL A   1      45.010  28.200  33.649  1.00  0.00    -0.014 A 
ATOM     88  C   UNL A   1      44.523  27.595  34.815  1.00  0.00     0.010 A 
ATOM     89  C   UNL A   1      46.298  27.806  33.213  1.00  0.00     0.010 A 
ATOM     90  C   UNL A   1      45.306  26.711  35.556  1.00  0.00     0.020 A 
ATOM     91  C   UNL A   1      47.060  26.864  33.904  1.00  0.00     0.020 A 
ATOM     92  C   UNL A   1      46.570  26.351  35.096  1.00  0.00     0.054 A 
BRANCH  92  93
ATOM     93  S   UNL A   1      47.542  25.185  36.066  1.00  0.00     0.124 S 
ATOM     94  O   UNL A   1      48.885  25.407  35.535  1.00  0.00    -0.237 OA
ATOM     95  O   UNL A   1      47.325  25.651  37.434  1.00  0.00    -0.237 OA
ATOM     96  O   UNL A   1      46.949  23.889  35.753  1.00  0.00    -0.744 OA
ENDBRANCH  92  93
ENDBRANCH  66  87
ENDBRANCH  40  41
ENDBRANCH  33  35
ENDBRANCH  32  33
ENDBRANCH  31  32
ENDBRANCH  30  31
ENDBRANCH  29  30
ENDBRANCH   1  29
TORSDOF 21
ENDMDL
MODEL 2
REMARK VINA RESULT:     -11.2      3.212      4.802
REMARK SMILES Cc1ccccc1NC(=O)CSc1nc(C(=O)OCCOCCOC(=O)c2ccc(-c3c4nc(c(-c5ccc(S(=O)(=O)[O-])cc5)c5ccc([nH]5)c(-c5ccc(S(=O)(=O)[O-])cc5)c5nc(c(-c6ccc(S(=O)(=O)[O-])cc6)c6ccc3[nH]6)C=C5)C=C4)cc2)c2ccccc2n1
REMARK SMILES IDX 20 1 19 2 18 3 16 4 17 5 15 6 13 7 14 8 93 9 92 10 87 11
REMARK SMILES IDX 91 12 88 13 90 14 89 15 12 16 11 17 9 18 8 19 10 21 7 22
REMARK SMILES IDX 1 23 2 24 3 25 4 26 6 27 5 28 21 29 22 30 23 31 24 32 25 33
REMARK SMILES IDX 26 34 27 35 28 36 86 37 29 38 85 39 30 40 31 41 32 42 79 43
REMARK SMILES IDX 33 44 84 45 78 46 80 47 34 48 83 49 77 50 76 51 35 53 65 54
REMARK SMILES IDX 46 55 64 56 47 57 50 58 63 59 81 60 48 61 49 62 62 64 82 65
REMARK SMILES IDX 51 66 36 67 37 68 45 69 38 70 44 71 39 72 40 73 41 74 42 75
REMARK SMILES IDX 43 76 66 77 67 78 75 79 68 80 74 81 69 82 70 83 71 84 72 85
REMARK SMILES IDX 73 86 52 87 53 88 61 89 54 90 60 91 55 92 56 93 57 94 58 95
REMARK SMILES IDX 59 96
REMARK H PARENT 8 20 80 52 50 63
REMARK Flexibility Score: inf
ROOT
ATOM      1  C   UNL A   1      33.653  29.010  26.885  1.00  0.00     0.202 C 
ENDROOT
BRANCH   1   2
ATOM      2  C   UNL A   1      32.271  29.468  26.549  1.00  0.00     0.261 C 
BRANCH   2   3
ATOM      3  O   UNL A   1      32.179  30.017  25.224  1.00  0.00    -0.458 OA
BRANCH   3   4
ATOM      4  C   UNL A   1      32.500  29.352  24.097  1.00  0.00     0.357 C 
ATOM      5  O   UNL A   1      33.550  29.331  23.502  1.00  0.00    -0.244 OA
BRANCH   4   6
ATOM      6  C   UNL A   1      31.338  28.481  23.761  1.00  0.00     0.160 A 
ATOM      7  C   UNL A   1      30.694  26.311  23.854  1.00  0.00     0.189 A 
ATOM      8  N   UNL A   1      31.674  27.185  23.906  1.00  0.00    -0.215 NA
ATOM      9  N   UNL A   1      29.412  26.611  23.617  1.00  0.00    -0.222 NA
ATOM     10  C   UNL A   1      29.094  27.902  23.444  1.00  0.00     0.076 A 
ATOM     11  C   UNL A   1      30.023  28.940  23.523  1.00  0.00     0.034 A 
ATOM     12  C   UNL A   1      27.757  28.224  23.225  1.00  0.00     0.029 A 
ATOM     13  C   UNL A   1      29.541  30.287  23.400  1.00  0.00     0.013 A 
ATOM     14  C   UNL A   1      27.300  29.544  23.133  1.00  0.00     0.002 A 
ATOM     15  C   UNL A   1      28.196  30.585  23.241  1.00  0.00     0.001 A 
BRANCH   7  16
ATOM     16  S   UNL A   1      31.097  24.700  24.436  1.00  0.00    -0.076 SA
BRANCH  16  17
ATOM     17  C   UNL A   1      32.920  24.840  24.471  1.00  0.00     0.178 C 
BRANCH  17  18
ATOM     18  C   UNL A   1      33.583  24.346  23.200  1.00  0.00     0.234 C 
ATOM     19  N   UNL A   1      33.873  23.037  22.939  1.00  0.00    -0.325 N 
ATOM     20  H   UNL A   1      34.348  22.911  22.085  1.00  0.00     0.169 HD
ATOM     21  O   UNL A   1      33.897  25.151  22.313  1.00  0.00    -0.274 OA
BRANCH  19  22
ATOM     22  C   UNL A   1      33.640  21.830  23.624  1.00  0.00     0.044 A 
ATOM     23  C   UNL A   1      35.870  22.072  24.911  1.00  0.00     0.046 C 
ATOM     24  C   UNL A   1      34.637  21.320  24.481  1.00  0.00    -0.027 A 
ATOM     25  C   UNL A   1      34.502  20.009  24.984  1.00  0.00     0.005 A 
ATOM     26  C   UNL A   1      33.391  19.228  24.679  1.00  0.00     0.000 A 
ATOM     27  C   UNL A   1      32.470  21.083  23.455  1.00  0.00     0.026 A 
ATOM     28  C   UNL A   1      32.359  19.778  23.937  1.00  0.00     0.002 A 
ENDBRANCH  19  22
ENDBRANCH  17  18
ENDBRANCH  16  17
ENDBRANCH   7  16
ENDBRANCH   4   6
ENDBRANCH   3   4
ENDBRANCH   2   3
ENDBRANCH   1   2
BRANCH   1  29
ATOM     29  O   UNL A   1      34.423  30.196  26.965  1.00  0.00    -0.374 OA
BRANCH  29  30
ATOM     30  C   UNL A   1      34.202  31.031  28.071  1.00  0.00     0.202 C 
BRANCH  30  31
ATOM     31  C   UNL A   1      35.511  31.360  28.784  1.00  0.00     0.261 C 
BRANCH  31  32
ATOM     32  O   UNL A   1      36.450  30.260  28.692  1.00  0.00    -0.460 OA
BRANCH  32  33
ATOM     33  C   UNL A   1      36.753  29.605  29.856  1.00  0.00     0.338 C 
ATOM     34  O   UNL A   1      36.032  29.607  30.838  1.00  0.00    -0.246 OA
BRANCH  33  35
ATOM     35  C   UNL A   1      38.055  28.878  29.738  1.00  0.00     0.060 A 
ATOM     36  C   UNL A   1      38.932  28.731  30.831  1.00  0.00     0.016 A 
ATOM     37  C   UNL A   1      38.494  28.545  28.465  1.00  0.00     0.016 A 
ATOM     38  C   UNL A   1      40.294  28.419  30.624  1.00  0.00     0.010 A 
ATOM     39  C   UNL A   1      39.844  28.373  28.259  1.00  0.00     0.010 A 
ATOM     40  C   UNL A   1      40.770  28.331  29.320  1.00  0.00    -0.014 A 
BRANCH  40  41
ATOM     41  C   UNL A   1      42.167  28.228  28.859  1.00  0.00     0.031 A 
ATOM     42  C   UNL A   1      42.709  26.854  28.730  1.00  0.00     0.074 A 
ATOM     43  C   UNL A   1      42.774  29.238  28.182  1.00  0.00     0.049 A 
ATOM     44  N   UNL A   1      43.860  26.571  28.241  1.00  0.00    -0.248 NA
ATOM     45  C   UNL A   1      41.989  25.656  29.173  1.00  0.00     0.031 C 
ATOM     46  C   UNL A   1      43.677  29.139  27.028  1.00  0.00     0.029 A 
ATOM     47  N   UNL A   1      42.683  30.608  28.373  1.00  0.00    -0.354 N 
ATOM     48  C   UNL A   1      43.867  25.230  27.944  1.00  0.00     0.074 A 
ATOM     49  C   UNL A   1      42.739  24.683  28.651  1.00  0.00     0.031 C 
ATOM     50  C   UNL A   1      44.204  30.346  26.747  1.00  0.00     0.029 A 
ATOM     51  C   UNL A   1      43.778  31.257  27.793  1.00  0.00     0.049 A 
ATOM     52  H   UNL A   1      41.951  31.061  28.851  1.00  0.00     0.167 HD
ATOM     53  C   UNL A   1      44.765  24.787  27.023  1.00  0.00     0.031 A 
ATOM     54  C   UNL A   1      44.564  32.054  28.568  1.00  0.00     0.031 A 
ATOM     55  C   UNL A   1      45.698  25.863  26.655  1.00  0.00     0.049 A 
ATOM     56  C   UNL A   1      45.886  31.350  28.741  1.00  0.00     0.074 A 
ATOM     57  C   UNL A   1      45.857  26.652  25.529  1.00  0.00     0.029 A 
ATOM     58  N   UNL A   1      46.413  26.493  27.674  1.00  0.00    -0.354 N 
ATOM     59  N   UNL A   1      46.023  30.063  28.551  1.00  0.00    -0.248 NA
ATOM     60  C   UNL A   1      47.162  32.012  28.981  1.00  0.00     0.031 C 
ATOM     61  C   UNL A   1      46.619  27.801  25.910  1.00  0.00     0.029 A 
ATOM     62  C   UNL A   1      46.947  27.696  27.255  1.00  0.00     0.049 A 
ATOM     63  H   UNL A   1      46.525  26.124  28.579  1.00  0.00     0.167 HD
ATOM     64  C   UNL A   1      47.342  29.738  28.503  1.00  0.00     0.074 A 
ATOM     65  C   UNL A   1      48.019  30.983  28.833  1.00  0.00     0.031 C 
ATOM     66  C   UNL A   1      47.779  28.491  28.162  1.00  0.00     0.031 A 
BRANCH  53  67
ATOM     67  C   UNL A   1      44.714  23.442  26.330  1.00  0.00    -0.014 A 
ATOM     68  C   UNL A   1      45.921  22.779  26.031  1.00  0.00     0.010 A 
ATOM     69  C   UNL A   1      43.537  22.795  25.901  1.00  0.00     0.010 A 
ATOM     70  C   UNL A   1      45.951  21.547  25.356  1.00  0.00     0.020 A 
ATOM     71  C   UNL A   1      43.548  21.557  25.238  1.00  0.00     0.020 A 
ATOM     72  C   UNL A   1      44.760  20.938  24.968  1.00  0.00     0.054 A 
BRANCH  72  73
ATOM     73  S   UNL A   1      44.814  19.337  24.122  1.00  0.00     0.124 S 
ATOM     74  O   UNL A   1      46.215  18.951  24.266  1.00  0.00    -0.237 OA
ATOM     75  O   UNL A   1      43.858  18.543  24.888  1.00  0.00    -0.237 OA
ATOM     76  O   UNL A   1      44.401  19.651  22.755  1.00  0.00    -0.744 OA
ENDBRANCH  72  73
ENDBRANCH  53  67
BRANCH  54  77
ATOM     77  C   UNL A   1      43.738  32.862  29.537  1.00  0.00    -0.014 A 
ATOM     78  C   UNL A   1      43.061  33.981  28.986  1.00  0.00     0.010 A 
ATOM     79  C   UNL A   1      43.154  32.237  30.660  1.00  0.00     0.010 A 
ATOM     80  C   UNL A   1      41.762  34.327  29.400  1.00  0.00     0.020 A 
ATOM     81  C   UNL A   1      41.840  32.567  31.058  1.00  0.00     0.020 A 
ATOM     82  C   UNL A   1      41.135  33.577  30.394  1.00  0.00     0.054 A 
BRANCH  82  83
ATOM     83  S   UNL A   1      39.318  33.731  30.605  1.00  0.00     0.124 S 
ATOM     84  O   UNL A   1      39.179  33.874  32.048  1.00  0.00    -0.237 OA
ATOM     85  O   UNL A   1      38.990  34.927  29.827  1.00  0.00    -0.237 OA
ATOM     86  O   UNL A   1      38.815  32.487  30.031  1.00  0.00    -0.744 OA
ENDBRANCH  82  83
ENDBRANCH  54  77
BRANCH  66  87
ATOM     87  C   UNL A   1      49.085  27.915  28.643  1.00  0.00    -0.014 A 
ATOM     88  C   UNL A   1      50.201  27.735  27.814  1.00  0.00     0.010 A 
ATOM     89  C   UNL A   1      49.276  27.694  30.029  1.00  0.00     0.010 A 
ATOM     90  C   UNL A   1      51.416  27.278  28.320  1.00  0.00     0.020 A 
ATOM     91  C   UNL A   1      50.508  27.311  30.557  1.00  0.00     0.020 A 
ATOM     92  C   UNL A   1      51.562  27.069  29.689  1.00  0.00     0.054 A 
BRANCH  92  93
ATOM     93  S   UNL A   1      53.156  26.503  30.310  1.00  0.00     0.124 S 
ATOM     94  O   UNL A   1      52.752  25.461  31.252  1.00  0.00    -0.237 OA
ATOM     95  O   UNL A   1      53.820  26.028  29.098  1.00  0.00    -0.237 OA
ATOM     96  O   UNL A   1      53.742  27.698  30.910  1.00  0.00    -0.744 OA
ENDBRANCH  92  93
ENDBRANCH  66  87
ENDBRANCH  40  41
ENDBRANCH  33  35
ENDBRANCH  32  33
ENDBRANCH  31  32
ENDBRANCH  30  31
ENDBRANCH  29  30
ENDBRANCH   1  29
TORSDOF 21
ENDMDL
MODEL 3
REMARK VINA RESULT:     -11.1      4.929      9.299
REMARK SMILES Cc1ccccc1NC(=O)CSc1nc(C(=O)OCCOCCOC(=O)c2ccc(-c3c4nc(c(-c5ccc(S(=O)(=O)[O-])cc5)c5ccc([nH]5)c(-c5ccc(S(=O)(=O)[O-])cc5)c5nc(c(-c6ccc(S(=O)(=O)[O-])cc6)c6ccc3[nH]6)C=C5)C=C4)cc2)c2ccccc2n1
REMARK SMILES IDX 20 1 19 2 18 3 16 4 17 5 15 6 13 7 14 8 93 9 92 10 87 11
REMARK SMILES IDX 91 12 88 13 90 14 89 15 12 16 11 17 9 18 8 19 10 21 7 22
REMARK SMILES IDX 1 23 2 24 3 25 4 26 6 27 5 28 21 29 22 30 23 31 24 32 25 33
REMARK SMILES IDX 26 34 27 35 28 36 86 37 29 38 85 39 30 40 31 41 32 42 79 43
REMARK SMILES IDX 33 44 84 45 78 46 80 47 34 48 83 49 77 50 76 51 35 53 65 54
REMARK SMILES IDX 46 55 64 56 47 57 50 58 63 59 81 60 48 61 49 62 62 64 82 65
REMARK SMILES IDX 51 66 36 67 37 68 45 69 38 70 44 71 39 72 40 73 41 74 42 75
REMARK SMILES IDX 43 76 66 77 67 78 75 79 68 80 74 81 69 82 70 83 71 84 72 85
REMARK SMILES IDX 73 86 52 87 53 88 61 89 54 90 60 91 55 92 56 93 57 94 58 95
REMARK SMILES IDX 59 96
REMARK H PARENT 8 20 80 52 50 63
REMARK Flexibility Score: inf
ROOT
ATOM      1  C   UNL A   1      34.391  31.299  27.961  1.00  0.00     0.202 C 
ENDROOT
BRANCH   1   2
ATOM      2  C   UNL A   1      32.987  31.540  27.506  1.00  0.00     0.261 C 
BRANCH   2   3
ATOM      3  O   UNL A   1      32.593  30.657  26.444  1.00  0.00    -0.458 OA
BRANCH   3   4
ATOM      4  C   UNL A   1      32.049  29.438  26.626  1.00  0.00     0.357 C 
ATOM      5  O   UNL A   1      31.602  28.949  27.635  1.00  0.00    -0.244 OA
BRANCH   4   6
ATOM      6  C   UNL A   1      31.944  28.804  25.280  1.00  0.00     0.160 A 
ATOM      7  C   UNL A   1      32.587  26.936  24.172  1.00  0.00     0.189 A 
ATOM      8  N   UNL A   1      32.737  27.718  25.218  1.00  0.00    -0.215 NA
ATOM      9  N   UNL A   1      31.750  27.171  23.154  1.00  0.00    -0.222 NA
ATOM     10  C   UNL A   1      30.988  28.271  23.213  1.00  0.00     0.076 A 
ATOM     11  C   UNL A   1      31.006  29.163  24.286  1.00  0.00     0.034 A 
ATOM     12  C   UNL A   1      30.094  28.507  22.171  1.00  0.00     0.029 A 
ATOM     13  C   UNL A   1      30.081  30.261  24.267  1.00  0.00     0.013 A 
ATOM     14  C   UNL A   1      29.181  29.567  22.180  1.00  0.00     0.002 A 
ATOM     15  C   UNL A   1      29.161  30.441  23.246  1.00  0.00     0.001 A 
BRANCH   7  16
ATOM     16  S   UNL A   1      33.332  25.348  24.312  1.00  0.00    -0.076 SA
BRANCH  16  17
ATOM     17  C   UNL A   1      31.884  24.385  24.876  1.00  0.00     0.178 C 
BRANCH  17  18
ATOM     18  C   UNL A   1      32.022  23.873  26.296  1.00  0.00     0.234 C 
ATOM     19  N   UNL A   1      32.922  22.924  26.691  1.00  0.00    -0.325 N 
ATOM     20  H   UNL A   1      32.834  22.681  27.642  1.00  0.00     0.169 HD
ATOM     21  O   UNL A   1      31.290  24.319  27.189  1.00  0.00    -0.274 OA
BRANCH  19  22
ATOM     22  C   UNL A   1      33.949  22.220  26.035  1.00  0.00     0.044 A 
ATOM     23  C   UNL A   1      32.235  20.585  24.999  1.00  0.00     0.046 C 
ATOM     24  C   UNL A   1      33.633  21.048  25.318  1.00  0.00    -0.027 A 
ATOM     25  C   UNL A   1      34.681  20.223  24.859  1.00  0.00     0.005 A 
ATOM     26  C   UNL A   1      36.014  20.562  25.069  1.00  0.00     0.000 A 
ATOM     27  C   UNL A   1      35.291  22.611  26.102  1.00  0.00     0.026 A 
ATOM     28  C   UNL A   1      36.319  21.774  25.666  1.00  0.00     0.002 A 
ENDBRANCH  19  22
ENDBRANCH  17  18
ENDBRANCH  16  17
ENDBRANCH   7  16
ENDBRANCH   4   6
ENDBRANCH   3   4
ENDBRANCH   2   3
ENDBRANCH   1   2
BRANCH   1  29
ATOM     29  O   UNL A   1      34.968  32.588  28.065  1.00  0.00    -0.374 OA
BRANCH  29  30
ATOM     30  C   UNL A   1      35.901  32.792  29.093  1.00  0.00     0.202 C 
BRANCH  30  31
ATOM     31  C   UNL A   1      36.449  31.466  29.613  1.00  0.00     0.261 C 
BRANCH  31  32
ATOM     32  O   UNL A   1      37.800  31.236  29.142  1.00  0.00    -0.460 OA
BRANCH  32  33
ATOM     33  C   UNL A   1      37.975  30.228  28.231  1.00  0.00     0.338 C 
ATOM     34  O   UNL A   1      37.148  29.931  27.388  1.00  0.00    -0.246 OA
BRANCH  33  35
ATOM     35  C   UNL A   1      39.313  29.580  28.399  1.00  0.00     0.060 A 
ATOM     36  C   UNL A   1      40.225  29.992  29.391  1.00  0.00     0.016 A 
ATOM     37  C   UNL A   1      39.737  28.711  27.403  1.00  0.00     0.016 A 
ATOM     38  C   UNL A   1      41.597  29.672  29.283  1.00  0.00     0.010 A 
ATOM     39  C   UNL A   1      41.089  28.516  27.233  1.00  0.00     0.010 A 
ATOM     40  C   UNL A   1      42.043  29.008  28.146  1.00  0.00    -0.014 A 
BRANCH  40  41
ATOM     41  C   UNL A   1      43.431  28.757  27.716  1.00  0.00     0.031 A 
ATOM     42  C   UNL A   1      44.165  29.926  27.176  1.00  0.00     0.074 A 
ATOM     43  C   UNL A   1      44.140  27.692  28.172  1.00  0.00     0.049 A 
ATOM     44  N   UNL A   1      45.408  29.920  26.859  1.00  0.00    -0.248 NA
ATOM     45  C   UNL A   1      43.539  31.227  26.921  1.00  0.00     0.031 C 
ATOM     46  C   UNL A   1      45.554  27.648  28.568  1.00  0.00     0.029 A 
ATOM     47  N   UNL A   1      43.724  26.392  28.414  1.00  0.00    -0.354 N 
ATOM     48  C   UNL A   1      45.817  31.226  26.756  1.00  0.00     0.074 A 
ATOM     49  C   UNL A   1      44.603  31.995  26.678  1.00  0.00     0.031 C 
ATOM     50  C   UNL A   1      45.932  26.377  28.803  1.00  0.00     0.029 A 
ATOM     51  C   UNL A   1      44.819  25.521  28.434  1.00  0.00     0.049 A 
ATOM     52  H   UNL A   1      42.788  26.118  28.551  1.00  0.00     0.167 HD
ATOM     53  C   UNL A   1      47.146  31.488  26.882  1.00  0.00     0.031 A 
ATOM     54  C   UNL A   1      44.838  24.459  27.583  1.00  0.00     0.031 A 
ATOM     55  C   UNL A   1      47.916  30.236  26.930  1.00  0.00     0.049 A 
ATOM     56  C   UNL A   1      45.890  24.737  26.540  1.00  0.00     0.074 A 
ATOM     57  C   UNL A   1      48.579  29.554  27.936  1.00  0.00     0.029 A 
ATOM     58  N   UNL A   1      47.762  29.328  25.882  1.00  0.00    -0.354 N 
ATOM     59  N   UNL A   1      46.329  25.944  26.293  1.00  0.00    -0.248 NA
ATOM     60  C   UNL A   1      46.636  23.719  25.810  1.00  0.00     0.031 C 
ATOM     61  C   UNL A   1      48.755  28.204  27.500  1.00  0.00     0.029 A 
ATOM     62  C   UNL A   1      48.228  28.072  26.222  1.00  0.00     0.049 A 
ATOM     63  H   UNL A   1      47.372  29.554  25.008  1.00  0.00     0.167 HD
ATOM     64  C   UNL A   1      47.446  25.885  25.523  1.00  0.00     0.074 A 
ATOM     65  C   UNL A   1      47.570  24.471  25.198  1.00  0.00     0.031 C 
ATOM     66  C   UNL A   1      48.204  26.985  25.240  1.00  0.00     0.031 A 
BRANCH  53  67
ATOM     67  C   UNL A   1      47.747  32.856  27.126  1.00  0.00    -0.014 A 
ATOM     68  C   UNL A   1      47.489  33.892  26.204  1.00  0.00     0.010 A 
ATOM     69  C   UNL A   1      48.605  33.188  28.195  1.00  0.00     0.010 A 
ATOM     70  C   UNL A   1      48.044  35.175  26.345  1.00  0.00     0.020 A 
ATOM     71  C   UNL A   1      49.155  34.469  28.359  1.00  0.00     0.020 A 
ATOM     72  C   UNL A   1      48.871  35.459  27.429  1.00  0.00     0.054 A 
BRANCH  72  73
ATOM     73  S   UNL A   1      49.557  37.125  27.612  1.00  0.00     0.124 S 
ATOM     74  O   UNL A   1      48.878  37.864  26.550  1.00  0.00    -0.237 OA
ATOM     75  O   UNL A   1      49.169  37.479  28.974  1.00  0.00    -0.237 OA
ATOM     76  O   UNL A   1      50.993  36.936  27.408  1.00  0.00    -0.744 OA
ENDBRANCH  72  73
ENDBRANCH  53  67
BRANCH  54  77
ATOM     77  C   UNL A   1      43.475  23.824  27.470  1.00  0.00    -0.014 A 
ATOM     78  C   UNL A   1      43.015  23.579  26.150  1.00  0.00     0.010 A 
ATOM     79  C   UNL A   1      43.008  22.968  28.491  1.00  0.00     0.010 A 
ATOM     80  C   UNL A   1      42.298  22.413  25.830  1.00  0.00     0.020 A 
ATOM     81  C   UNL A   1      42.312  21.783  28.166  1.00  0.00     0.020 A 
ATOM     82  C   UNL A   1      42.003  21.489  26.832  1.00  0.00     0.054 A 
BRANCH  82  83
ATOM     83  S   UNL A   1      41.491  19.794  26.351  1.00  0.00     0.124 S 
ATOM     84  O   UNL A   1      40.068  19.958  26.087  1.00  0.00    -0.237 OA
ATOM     85  O   UNL A   1      42.314  19.516  25.174  1.00  0.00    -0.237 OA
ATOM     86  O   UNL A   1      41.839  19.000  27.526  1.00  0.00    -0.744 OA
ENDBRANCH  82  83
ENDBRANCH  54  77
BRANCH  66  87
ATOM     87  C   UNL A   1      49.038  27.113  23.993  1.00  0.00    -0.014 A 
ATOM     88  C   UNL A   1      50.437  27.193  24.006  1.00  0.00     0.010 A 
ATOM     89  C   UNL A   1      48.417  26.979  22.728  1.00  0.00     0.010 A 
ATOM     90  C   UNL A   1      51.174  27.226  22.824  1.00  0.00     0.020 A 
ATOM     91  C   UNL A   1      49.149  26.933  21.542  1.00  0.00     0.020 A 
ATOM     92  C   UNL A   1      50.525  27.096  21.599  1.00  0.00     0.054 A 
BRANCH  92  93
ATOM     93  S   UNL A   1      51.513  27.115  20.092  1.00  0.00     0.124 S 
ATOM     94  O   UNL A   1      50.488  27.312  19.070  1.00  0.00    -0.237 OA
ATOM     95  O   UNL A   1      52.405  28.252  20.311  1.00  0.00    -0.237 OA
ATOM     96  O   UNL A   1      52.166  25.809  20.084  1.00  0.00    -0.744 OA
ENDBRANCH  92  93
ENDBRANCH  66  87
ENDBRANCH  40  41
ENDBRANCH  33  35
ENDBRANCH  32  33
ENDBRANCH  31  32
ENDBRANCH  30  31
ENDBRANCH  29  30
ENDBRANCH   1  29
TORSDOF 21
ENDMDL
