MODEL 1
REMARK VINA RESULT:      -8.4      0.000      0.000
REMARK SMILES COc1ccc(N2/C(=[NH+]/C(=O)CCCC(=O)OCCOCCOC(=O)c3ccc(-c4c5nc(c(-c6ccc(S(=O)(=O)[O-])cc6)c6ccc([nH]6)c(-c6ccc(S(=O)(=O)[O-])cc6)c6nc(c(-c7ccc(S(=O)(=O)[O-])cc7)c7ccc4[nH]7)C=C6)C=C5)cc3)S[C@@H]3CS(=O)(=O)C[C@H]32)cc1Cl
REMARK SMILES IDX 19 1 18 2 17 3 15 4 16 5 14 6 13 7 12 8 10 9 7 10 8 11 93 12
REMARK SMILES IDX 9 13 86 14 87 15 92 16 88 18 89 19 11 20 90 21 91 22 6 23
REMARK SMILES IDX 3 24 4 25 95 26 5 27 94 28 96 29 2 30 1 31 20 32 21 33 22 34
REMARK SMILES IDX 23 35 24 36 25 37 26 38 27 39 85 40 28 41 84 42 29 43 30 44
REMARK SMILES IDX 31 45 78 46 32 47 83 48 77 49 79 50 33 51 82 52 76 53 75 54
REMARK SMILES IDX 34 56 64 57 45 58 63 59 46 60 49 61 62 62 80 63 47 64 48 65
REMARK SMILES IDX 61 67 81 68 50 69 35 70 36 71 44 72 37 73 43 74 38 75 39 76
REMARK SMILES IDX 40 77 41 78 42 79 65 80 66 81 74 82 67 83 73 84 68 85 69 86
REMARK SMILES IDX 70 87 71 88 72 89 51 90 52 91 60 92 53 93 59 94 54 95 55 96
REMARK SMILES IDX 56 97 57 98 58 99
REMARK H PARENT 9 17 79 55 49 66
REMARK Flexibility Score: inf
ROOT
ATOM      1  C   UNL A   1      44.515  28.662  26.821  1.00  0.00     0.202 C 
ENDROOT
BRANCH   1   2
ATOM      2  C   UNL A   1      46.028  28.877  26.940  1.00  0.00     0.261 C 
BRANCH   2   3
ATOM      3  O   UNL A   1      46.329  30.099  27.631  1.00  0.00    -0.463 OA
BRANCH   3   4
ATOM      4  C   UNL A   1      45.948  30.172  28.927  1.00  0.00     0.305 C 
ATOM      5  O   UNL A   1      45.128  30.966  29.371  1.00  0.00    -0.252 OA
BRANCH   4   6
ATOM      6  C   UNL A   1      46.635  29.142  29.801  1.00  0.00     0.123 C 
BRANCH   6   7
ATOM      7  C   UNL A   1      45.808  28.380  30.839  1.00  0.00     0.024 C 
BRANCH   7   8
ATOM      8  C   UNL A   1      45.896  26.855  30.887  1.00  0.00     0.128 C 
BRANCH   8   9
ATOM      9  C   UNL A   1      45.231  26.095  29.754  1.00  0.00     0.307 C 
ATOM     10  N   UNL A   1      46.531  24.521  26.717  1.00  0.00    -0.217 N 
ATOM     11  C   UNL A   1      45.834  24.829  27.893  1.00  0.00     0.319 C 
ATOM     12  C   UNL A   1      46.125  23.249  26.119  1.00  0.00     0.212 C 
ATOM     13  N   UNL A   1      46.045  25.829  28.680  1.00  0.00    -0.204 N 
ATOM     14  S   UNL A   1      44.567  23.575  28.142  1.00  0.00    -0.029 SA
ATOM     15  C   UNL A   1      44.619  23.176  26.387  1.00  0.00     0.120 C 
ATOM     16  C   UNL A   1      46.232  23.020  24.631  1.00  0.00     0.188 C 
ATOM     17  H   UNL A   1      46.814  26.420  28.506  1.00  0.00     0.316 HD
ATOM     18  C   UNL A   1      44.145  21.834  25.889  1.00  0.00     0.156 C 
ATOM     19  S   UNL A   1      45.172  21.580  24.432  1.00  0.00     0.155 S 
ATOM     20  O   UNL A   1      44.016  25.912  29.797  1.00  0.00    -0.247 OA
ATOM     21  O   UNL A   1      44.372  21.746  23.240  1.00  0.00    -0.229 OA
ATOM     22  O   UNL A   1      45.981  20.400  24.660  1.00  0.00    -0.229 OA
BRANCH  10  23
ATOM     23  C   UNL A   1      47.731  25.106  26.299  1.00  0.00     0.130 A 
ATOM     24  C   UNL A   1      50.191  26.296  25.495  1.00  0.00     0.137 A 
ATOM     25  C   UNL A   1      50.101  25.533  26.663  1.00  0.00     0.052 A 
ATOM     26  C   UNL A   1      49.031  26.479  24.733  1.00  0.00     0.087 A 
ATOM     27  C   UNL A   1      48.891  24.954  27.064  1.00  0.00     0.056 A 
ATOM     28  C   UNL A   1      47.818  25.888  25.141  1.00  0.00     0.076 A 
ATOM     29  Cl  UNL A   1      48.975  27.388  23.263  1.00  0.00    -0.080 Cl
BRANCH  24  30
ATOM     30  O   UNL A   1      51.469  26.694  25.218  1.00  0.00    -0.495 OA
ATOM     31  C   UNL A   1      52.431  26.619  26.260  1.00  0.00     0.278 C 
ENDBRANCH  24  30
ENDBRANCH  10  23
ENDBRANCH   8   9
ENDBRANCH   7   8
ENDBRANCH   6   7
ENDBRANCH   4   6
ENDBRANCH   3   4
ENDBRANCH   2   3
ENDBRANCH   1   2
BRANCH   1  32
ATOM     32  O   UNL A   1      44.054  27.314  26.727  1.00  0.00    -0.374 OA
BRANCH  32  33
ATOM     33  C   UNL A   1      43.662  26.841  25.441  1.00  0.00     0.202 C 
BRANCH  33  34
ATOM     34  C   UNL A   1      42.326  26.098  25.337  1.00  0.00     0.261 C 
BRANCH  34  35
ATOM     35  O   UNL A   1      41.209  26.928  25.701  1.00  0.00    -0.460 OA
BRANCH  35  36
ATOM     36  C   UNL A   1      40.305  26.320  26.508  1.00  0.00     0.338 C 
ATOM     37  O   UNL A   1      39.820  25.209  26.361  1.00  0.00    -0.246 OA
BRANCH  36  38
ATOM     38  C   UNL A   1      40.104  27.116  27.734  1.00  0.00     0.060 A 
ATOM     39  C   UNL A   1      40.781  28.340  27.824  1.00  0.00     0.016 A 
ATOM     40  C   UNL A   1      39.337  26.649  28.802  1.00  0.00     0.016 A 
ATOM     41  C   UNL A   1      40.740  29.076  29.005  1.00  0.00     0.010 A 
ATOM     42  C   UNL A   1      39.304  27.388  29.990  1.00  0.00     0.010 A 
ATOM     43  C   UNL A   1      40.036  28.583  30.110  1.00  0.00    -0.014 A 
BRANCH  43  44
ATOM     44  C   UNL A   1      40.177  29.245  31.430  1.00  0.00     0.031 A 
ATOM     45  C   UNL A   1      39.166  30.283  31.839  1.00  0.00     0.074 A 
ATOM     46  C   UNL A   1      41.183  28.918  32.261  1.00  0.00     0.049 A 
ATOM     47  N   UNL A   1      39.135  31.031  32.912  1.00  0.00    -0.248 NA
ATOM     48  C   UNL A   1      38.042  30.508  30.915  1.00  0.00     0.031 C 
ATOM     49  C   UNL A   1      42.196  27.896  32.002  1.00  0.00     0.029 A 
ATOM     50  N   UNL A   1      41.523  29.426  33.490  1.00  0.00    -0.354 N 
ATOM     51  C   UNL A   1      38.003  31.829  32.782  1.00  0.00     0.074 A 
ATOM     52  C   UNL A   1      37.388  31.490  31.517  1.00  0.00     0.031 C 
ATOM     53  C   UNL A   1      43.051  27.860  33.037  1.00  0.00     0.029 A 
ATOM     54  C   UNL A   1      42.675  28.886  34.008  1.00  0.00     0.049 A 
ATOM     55  H   UNL A   1      40.991  30.111  33.956  1.00  0.00     0.167 HD
ATOM     56  C   UNL A   1      37.521  32.760  33.640  1.00  0.00     0.031 A 
ATOM     57  C   UNL A   1      43.366  29.204  35.121  1.00  0.00     0.031 A 
ATOM     58  C   UNL A   1      38.144  33.100  34.893  1.00  0.00     0.049 A 
ATOM     59  C   UNL A   1      42.856  30.297  36.022  1.00  0.00     0.074 A 
ATOM     60  C   UNL A   1      37.721  34.014  35.843  1.00  0.00     0.029 A 
ATOM     61  N   UNL A   1      39.326  32.551  35.366  1.00  0.00    -0.354 N 
ATOM     62  N   UNL A   1      41.772  31.027  35.899  1.00  0.00    -0.248 NA
ATOM     63  C   UNL A   1      43.656  30.603  37.216  1.00  0.00     0.031 C 
ATOM     64  C   UNL A   1      38.683  34.068  36.855  1.00  0.00     0.029 A 
ATOM     65  C   UNL A   1      39.665  33.131  36.577  1.00  0.00     0.049 A 
ATOM     66  H   UNL A   1      39.848  31.853  34.909  1.00  0.00     0.167 HD
ATOM     67  C   UNL A   1      41.745  31.855  37.018  1.00  0.00     0.074 A 
ATOM     68  C   UNL A   1      42.913  31.529  37.808  1.00  0.00     0.031 C 
ATOM     69  C   UNL A   1      40.830  32.796  37.360  1.00  0.00     0.031 A 
BRANCH  56  70
ATOM     70  C   UNL A   1      36.279  33.511  33.234  1.00  0.00    -0.014 A 
ATOM     71  C   UNL A   1      34.996  32.962  33.412  1.00  0.00     0.010 A 
ATOM     72  C   UNL A   1      36.398  34.810  32.706  1.00  0.00     0.010 A 
ATOM     73  C   UNL A   1      33.860  33.684  33.033  1.00  0.00     0.020 A 
ATOM     74  C   UNL A   1      35.264  35.547  32.356  1.00  0.00     0.020 A 
ATOM     75  C   UNL A   1      34.001  34.971  32.507  1.00  0.00     0.054 A 
BRANCH  75  76
ATOM     76  S   UNL A   1      32.507  35.893  32.047  1.00  0.00     0.124 S 
ATOM     77  O   UNL A   1      32.761  37.197  32.655  1.00  0.00    -0.237 OA
ATOM     78  O   UNL A   1      32.550  35.863  30.588  1.00  0.00    -0.237 OA
ATOM     79  O   UNL A   1      31.424  35.124  32.654  1.00  0.00    -0.744 OA
ENDBRANCH  75  76
ENDBRANCH  56  70
BRANCH  57  80
ATOM     80  C   UNL A   1      44.638  28.493  35.429  1.00  0.00    -0.014 A 
ATOM     81  C   UNL A   1      44.662  27.422  36.340  1.00  0.00     0.010 A 
ATOM     82  C   UNL A   1      45.835  28.883  34.803  1.00  0.00     0.010 A 
ATOM     83  C   UNL A   1      45.860  26.763  36.626  1.00  0.00     0.020 A 
ATOM     84  C   UNL A   1      47.030  28.208  35.063  1.00  0.00     0.020 A 
ATOM     85  C   UNL A   1      47.036  27.157  35.979  1.00  0.00     0.054 A 
BRANCH  85  86
ATOM     86  S   UNL A   1      48.566  26.242  36.314  1.00  0.00     0.124 S 
ATOM     87  O   UNL A   1      49.510  27.319  36.593  1.00  0.00    -0.237 OA
ATOM     88  O   UNL A   1      48.190  25.414  37.457  1.00  0.00    -0.237 OA
ATOM     89  O   UNL A   1      48.799  25.506  35.073  1.00  0.00    -0.744 OA
ENDBRANCH  85  86
ENDBRANCH  57  80
BRANCH  69  90
ATOM     90  C   UNL A   1      41.018  33.515  38.671  1.00  0.00    -0.014 A 
ATOM     91  C   UNL A   1      41.781  34.692  38.764  1.00  0.00     0.010 A 
ATOM     92  C   UNL A   1      40.357  33.038  39.819  1.00  0.00     0.010 A 
ATOM     93  C   UNL A   1      41.899  35.364  39.984  1.00  0.00     0.020 A 
ATOM     94  C   UNL A   1      40.446  33.724  41.033  1.00  0.00     0.020 A 
ATOM     95  C   UNL A   1      41.228  34.878  41.110  1.00  0.00     0.054 A 
BRANCH  95  96
ATOM     96  S   UNL A   1      41.352  35.800  42.667  1.00  0.00     0.124 S 
ATOM     97  O   UNL A   1      42.444  36.728  42.385  1.00  0.00    -0.237 OA
ATOM     98  O   UNL A   1      40.028  36.405  42.786  1.00  0.00    -0.237 OA
ATOM     99  O   UNL A   1      41.652  34.770  43.659  1.00  0.00    -0.744 OA
ENDBRANCH  95  96
ENDBRANCH  69  90
ENDBRANCH  43  44
ENDBRANCH  36  38
ENDBRANCH  35  36
ENDBRANCH  34  35
ENDBRANCH  33  34
ENDBRANCH  32  33
ENDBRANCH   1  32
TORSDOF 22
ENDMDL
MODEL 2
REMARK VINA RESULT:      -8.1      4.082     11.336
REMARK SMILES COc1ccc(N2/C(=[NH+]/C(=O)CCCC(=O)OCCOCCOC(=O)c3ccc(-c4c5nc(c(-c6ccc(S(=O)(=O)[O-])cc6)c6ccc([nH]6)c(-c6ccc(S(=O)(=O)[O-])cc6)c6nc(c(-c7ccc(S(=O)(=O)[O-])cc7)c7ccc4[nH]7)C=C6)C=C5)cc3)S[C@@H]3CS(=O)(=O)C[C@H]32)cc1Cl
REMARK SMILES IDX 19 1 18 2 17 3 15 4 16 5 14 6 13 7 12 8 10 9 7 10 8 11 93 12
REMARK SMILES IDX 9 13 86 14 87 15 92 16 88 18 89 19 11 20 90 21 91 22 6 23
REMARK SMILES IDX 3 24 4 25 95 26 5 27 94 28 96 29 2 30 1 31 20 32 21 33 22 34
REMARK SMILES IDX 23 35 24 36 25 37 26 38 27 39 85 40 28 41 84 42 29 43 30 44
REMARK SMILES IDX 31 45 78 46 32 47 83 48 77 49 79 50 33 51 82 52 76 53 75 54
REMARK SMILES IDX 34 56 64 57 45 58 63 59 46 60 49 61 62 62 80 63 47 64 48 65
REMARK SMILES IDX 61 67 81 68 50 69 35 70 36 71 44 72 37 73 43 74 38 75 39 76
REMARK SMILES IDX 40 77 41 78 42 79 65 80 66 81 74 82 67 83 73 84 68 85 69 86
REMARK SMILES IDX 70 87 71 88 72 89 51 90 52 91 60 92 53 93 59 94 54 95 55 96
REMARK SMILES IDX 56 97 57 98 58 99
REMARK H PARENT 9 17 79 55 49 66
REMARK Flexibility Score: inf
ROOT
ATOM      1  C   UNL A   1      33.549  35.385  30.340  1.00  0.00     0.202 C 
ENDROOT
BRANCH   1   2
ATOM      2  C   UNL A   1      32.877  35.897  31.618  1.00  0.00     0.261 C 
BRANCH   2   3
ATOM      3  O   UNL A   1      32.763  34.856  32.601  1.00  0.00    -0.463 OA
BRANCH   3   4
ATOM      4  C   UNL A   1      33.888  34.155  32.873  1.00  0.00     0.305 C 
ATOM      5  O   UNL A   1      34.102  33.007  32.507  1.00  0.00    -0.252 OA
BRANCH   4   6
ATOM      6  C   UNL A   1      34.895  34.948  33.682  1.00  0.00     0.123 C 
BRANCH   6   7
ATOM      7  C   UNL A   1      36.368  34.918  33.268  1.00  0.00     0.024 C 
BRANCH   7   8
ATOM      8  C   UNL A   1      37.389  34.264  34.197  1.00  0.00     0.128 C 
BRANCH   8   9
ATOM      9  C   UNL A   1      38.195  33.112  33.626  1.00  0.00     0.307 C 
ATOM     10  N   UNL A   1      41.029  31.184  34.906  1.00  0.00    -0.217 N 
ATOM     11  C   UNL A   1      39.833  31.602  34.308  1.00  0.00     0.319 C 
ATOM     12  C   UNL A   1      41.264  29.745  34.790  1.00  0.00     0.212 C 
ATOM     13  N   UNL A   1      39.324  32.787  34.337  1.00  0.00    -0.204 N 
ATOM     14  S   UNL A   1      39.097  30.187  33.473  1.00  0.00    -0.029 SA
ATOM     15  C   UNL A   1      40.709  29.389  33.407  1.00  0.00     0.120 C 
ATOM     16  C   UNL A   1      42.665  29.186  34.763  1.00  0.00     0.188 C 
ATOM     17  H   UNL A   1      39.758  33.479  34.887  1.00  0.00     0.316 HD
ATOM     18  C   UNL A   1      40.821  27.893  33.257  1.00  0.00     0.156 C 
ATOM     19  S   UNL A   1      42.359  27.533  34.119  1.00  0.00     0.155 S 
ATOM     20  O   UNL A   1      37.887  32.664  32.522  1.00  0.00    -0.247 OA
ATOM     21  O   UNL A   1      43.388  27.205  33.159  1.00  0.00    -0.229 OA
ATOM     22  O   UNL A   1      42.048  26.672  35.241  1.00  0.00    -0.229 OA
BRANCH  10  23
ATOM     23  C   UNL A   1      41.777  31.912  35.838  1.00  0.00     0.130 A 
ATOM     24  C   UNL A   1      43.258  33.400  37.763  1.00  0.00     0.137 A 
ATOM     25  C   UNL A   1      42.076  32.738  38.110  1.00  0.00     0.052 A 
ATOM     26  C   UNL A   1      43.691  33.330  36.434  1.00  0.00     0.087 A 
ATOM     27  C   UNL A   1      41.343  32.013  37.163  1.00  0.00     0.056 A 
ATOM     28  C   UNL A   1      42.948  32.594  35.488  1.00  0.00     0.076 A 
ATOM     29  Cl  UNL A   1      45.130  34.086  35.845  1.00  0.00    -0.080 Cl
BRANCH  24  30
ATOM     30  O   UNL A   1      43.882  33.969  38.838  1.00  0.00    -0.495 OA
ATOM     31  C   UNL A   1      43.127  34.157  40.025  1.00  0.00     0.278 C 
ENDBRANCH  24  30
ENDBRANCH  10  23
ENDBRANCH   8   9
ENDBRANCH   7   8
ENDBRANCH   6   7
ENDBRANCH   4   6
ENDBRANCH   3   4
ENDBRANCH   2   3
ENDBRANCH   1   2
BRANCH   1  32
ATOM     32  O   UNL A   1      32.731  35.270  29.175  1.00  0.00    -0.374 OA
BRANCH  32  33
ATOM     33  C   UNL A   1      33.018  34.205  28.272  1.00  0.00     0.202 C 
BRANCH  33  34
ATOM     34  C   UNL A   1      34.399  33.549  28.367  1.00  0.00     0.261 C 
BRANCH  34  35
ATOM     35  O   UNL A   1      34.376  32.335  29.137  1.00  0.00    -0.460 OA
BRANCH  35  36
ATOM     36  C   UNL A   1      34.403  31.203  28.390  1.00  0.00     0.338 C 
ATOM     37  O   UNL A   1      33.559  30.830  27.592  1.00  0.00    -0.246 OA
BRANCH  36  38
ATOM     38  C   UNL A   1      35.713  30.536  28.527  1.00  0.00     0.060 A 
ATOM     39  C   UNL A   1      36.107  30.153  29.816  1.00  0.00     0.016 A 
ATOM     40  C   UNL A   1      36.568  30.356  27.439  1.00  0.00     0.016 A 
ATOM     41  C   UNL A   1      37.384  29.642  30.033  1.00  0.00     0.010 A 
ATOM     42  C   UNL A   1      37.852  29.847  27.661  1.00  0.00     0.010 A 
ATOM     43  C   UNL A   1      38.280  29.525  28.963  1.00  0.00    -0.014 A 
BRANCH  43  44
ATOM     44  C   UNL A   1      39.703  29.199  29.224  1.00  0.00     0.031 A 
ATOM     45  C   UNL A   1      40.603  30.260  29.799  1.00  0.00     0.074 A 
ATOM     46  C   UNL A   1      40.186  27.970  28.968  1.00  0.00     0.049 A 
ATOM     47  N   UNL A   1      41.887  30.215  30.041  1.00  0.00    -0.248 NA
ATOM     48  C   UNL A   1      39.971  31.544  30.143  1.00  0.00     0.031 C 
ATOM     49  C   UNL A   1      39.406  26.843  28.458  1.00  0.00     0.029 A 
ATOM     50  N   UNL A   1      41.459  27.470  29.091  1.00  0.00    -0.354 N 
ATOM     51  C   UNL A   1      42.221  31.467  30.547  1.00  0.00     0.074 A 
ATOM     52  C   UNL A   1      41.009  32.257  30.553  1.00  0.00     0.031 C 
ATOM     53  C   UNL A   1      40.220  25.787  28.301  1.00  0.00     0.029 A 
ATOM     54  C   UNL A   1      41.585  26.174  28.654  1.00  0.00     0.049 A 
ATOM     55  H   UNL A   1      42.209  27.992  29.458  1.00  0.00     0.167 HD
ATOM     56  C   UNL A   1      43.428  31.916  30.965  1.00  0.00     0.031 A 
ATOM     57  C   UNL A   1      42.680  25.399  28.523  1.00  0.00     0.031 A 
ATOM     58  C   UNL A   1      44.632  31.128  30.946  1.00  0.00     0.049 A 
ATOM     59  C   UNL A   1      44.025  25.944  28.921  1.00  0.00     0.074 A 
ATOM     60  C   UNL A   1      45.901  31.485  31.370  1.00  0.00     0.029 A 
ATOM     61  N   UNL A   1      44.724  29.829  30.467  1.00  0.00    -0.354 N 
ATOM     62  N   UNL A   1      44.323  27.122  29.418  1.00  0.00    -0.248 NA
ATOM     63  C   UNL A   1      45.182  25.055  28.747  1.00  0.00     0.031 C 
ATOM     64  C   UNL A   1      46.770  30.430  31.083  1.00  0.00     0.029 A 
ATOM     65  C   UNL A   1      46.031  29.384  30.554  1.00  0.00     0.049 A 
ATOM     66  H   UNL A   1      43.970  29.302  30.117  1.00  0.00     0.167 HD
ATOM     67  C   UNL A   1      45.695  27.101  29.648  1.00  0.00     0.074 A 
ATOM     68  C   UNL A   1      46.166  25.793  29.245  1.00  0.00     0.031 C 
ATOM     69  C   UNL A   1      46.490  28.076  30.154  1.00  0.00     0.031 A 
BRANCH  56  70
ATOM     70  C   UNL A   1      43.518  33.343  31.442  1.00  0.00    -0.014 A 
ATOM     71  C   UNL A   1      44.456  34.241  30.901  1.00  0.00     0.010 A 
ATOM     72  C   UNL A   1      42.615  33.805  32.418  1.00  0.00     0.010 A 
ATOM     73  C   UNL A   1      44.513  35.563  31.356  1.00  0.00     0.020 A 
ATOM     74  C   UNL A   1      42.648  35.133  32.851  1.00  0.00     0.020 A 
ATOM     75  C   UNL A   1      43.609  36.000  32.329  1.00  0.00     0.054 A 
BRANCH  75  76
ATOM     76  S   UNL A   1      43.691  37.726  32.881  1.00  0.00     0.124 S 
ATOM     77  O   UNL A   1      43.444  38.451  31.637  1.00  0.00    -0.237 OA
ATOM     78  O   UNL A   1      42.619  37.796  33.871  1.00  0.00    -0.237 OA
ATOM     79  O   UNL A   1      45.043  37.855  33.418  1.00  0.00    -0.744 OA
ENDBRANCH  75  76
ENDBRANCH  56  70
BRANCH  57  80
ATOM     80  C   UNL A   1      42.549  24.026  27.960  1.00  0.00    -0.014 A 
ATOM     81  C   UNL A   1      42.361  23.828  26.581  1.00  0.00     0.010 A 
ATOM     82  C   UNL A   1      42.619  22.906  28.807  1.00  0.00     0.010 A 
ATOM     83  C   UNL A   1      42.234  22.537  26.062  1.00  0.00     0.020 A 
ATOM     84  C   UNL A   1      42.525  21.612  28.290  1.00  0.00     0.020 A 
ATOM     85  C   UNL A   1      42.325  21.436  26.920  1.00  0.00     0.054 A 
BRANCH  85  86
ATOM     86  S   UNL A   1      42.228  19.768  26.216  1.00  0.00     0.124 S 
ATOM     87  O   UNL A   1      43.476  19.681  25.464  1.00  0.00    -0.237 OA
ATOM     88  O   UNL A   1      42.146  18.929  27.409  1.00  0.00    -0.237 OA
ATOM     89  O   UNL A   1      41.010  19.811  25.410  1.00  0.00    -0.744 OA
ENDBRANCH  85  86
ENDBRANCH  57  80
BRANCH  69  90
ATOM     90  C   UNL A   1      47.951  27.760  30.351  1.00  0.00    -0.014 A 
ATOM     91  C   UNL A   1      48.895  27.966  29.329  1.00  0.00     0.010 A 
ATOM     92  C   UNL A   1      48.395  27.314  31.610  1.00  0.00     0.010 A 
ATOM     93  C   UNL A   1      50.250  27.709  29.556  1.00  0.00     0.020 A 
ATOM     94  C   UNL A   1      49.752  27.087  31.851  1.00  0.00     0.020 A 
ATOM     95  C   UNL A   1      50.670  27.275  30.817  1.00  0.00     0.054 A 
BRANCH  95  96
ATOM     96  S   UNL A   1      52.441  27.003  31.101  1.00  0.00     0.124 S 
ATOM     97  O   UNL A   1      52.701  27.866  32.251  1.00  0.00    -0.237 OA
ATOM     98  O   UNL A   1      52.506  25.568  31.365  1.00  0.00    -0.237 OA
ATOM     99  O   UNL A   1      53.064  27.430  29.850  1.00  0.00    -0.744 OA
ENDBRANCH  95  96
ENDBRANCH  69  90
ENDBRANCH  43  44
ENDBRANCH  36  38
ENDBRANCH  35  36
ENDBRANCH  34  35
ENDBRANCH  33  34
ENDBRANCH  32  33
ENDBRANCH   1  32
TORSDOF 22
ENDMDL
MODEL 3
REMARK VINA RESULT:      -8.1      3.988     12.495
REMARK SMILES COc1ccc(N2/C(=[NH+]/C(=O)CCCC(=O)OCCOCCOC(=O)c3ccc(-c4c5nc(c(-c6ccc(S(=O)(=O)[O-])cc6)c6ccc([nH]6)c(-c6ccc(S(=O)(=O)[O-])cc6)c6nc(c(-c7ccc(S(=O)(=O)[O-])cc7)c7ccc4[nH]7)C=C6)C=C5)cc3)S[C@@H]3CS(=O)(=O)C[C@H]32)cc1Cl
REMARK SMILES IDX 19 1 18 2 17 3 15 4 16 5 14 6 13 7 12 8 10 9 7 10 8 11 93 12
REMARK SMILES IDX 9 13 86 14 87 15 92 16 88 18 89 19 11 20 90 21 91 22 6 23
REMARK SMILES IDX 3 24 4 25 95 26 5 27 94 28 96 29 2 30 1 31 20 32 21 33 22 34
REMARK SMILES IDX 23 35 24 36 25 37 26 38 27 39 85 40 28 41 84 42 29 43 30 44
REMARK SMILES IDX 31 45 78 46 32 47 83 48 77 49 79 50 33 51 82 52 76 53 75 54
REMARK SMILES IDX 34 56 64 57 45 58 63 59 46 60 49 61 62 62 80 63 47 64 48 65
REMARK SMILES IDX 61 67 81 68 50 69 35 70 36 71 44 72 37 73 43 74 38 75 39 76
REMARK SMILES IDX 40 77 41 78 42 79 65 80 66 81 74 82 67 83 73 84 68 85 69 86
REMARK SMILES IDX 70 87 71 88 72 89 51 90 52 91 60 92 53 93 59 94 54 95 55 96
REMARK SMILES IDX 56 97 57 98 58 99
REMARK H PARENT 9 17 79 55 49 66
REMARK Flexibility Score: inf
ROOT
ATOM      1  C   UNL A   1      33.585  35.219  30.042  1.00  0.00     0.202 C 
ENDROOT
BRANCH   1   2
ATOM      2  C   UNL A   1      32.923  35.686  31.342  1.00  0.00     0.261 C 
BRANCH   2   3
ATOM      3  O   UNL A   1      33.066  34.706  32.382  1.00  0.00    -0.463 OA
BRANCH   3   4
ATOM      4  C   UNL A   1      34.155  33.906  32.315  1.00  0.00     0.305 C 
ATOM      5  O   UNL A   1      34.122  32.691  32.172  1.00  0.00    -0.252 OA
BRANCH   4   6
ATOM      6  C   UNL A   1      35.457  34.675  32.419  1.00  0.00     0.123 C 
BRANCH   6   7
ATOM      7  C   UNL A   1      36.711  33.947  32.908  1.00  0.00     0.024 C 
BRANCH   7   8
ATOM      8  C   UNL A   1      37.479  34.508  34.104  1.00  0.00     0.128 C 
BRANCH   8   9
ATOM      9  C   UNL A   1      37.624  33.599  35.311  1.00  0.00     0.307 C 
ATOM     10  N   UNL A   1      39.553  33.869  38.408  1.00  0.00    -0.217 N 
ATOM     11  C   UNL A   1      38.563  33.642  37.443  1.00  0.00     0.319 C 
ATOM     12  C   UNL A   1      39.141  33.493  39.761  1.00  0.00     0.212 C 
ATOM     13  N   UNL A   1      38.611  33.964  36.194  1.00  0.00    -0.204 N 
ATOM     14  S   UNL A   1      37.178  32.814  38.240  1.00  0.00    -0.029 SA
ATOM     15  C   UNL A   1      38.273  32.248  39.552  1.00  0.00     0.120 C 
ATOM     16  C   UNL A   1      40.154  33.050  40.787  1.00  0.00     0.188 C 
ATOM     17  H   UNL A   1      39.377  34.487  35.865  1.00  0.00     0.316 HD
ATOM     18  C   UNL A   1      37.722  31.862  40.901  1.00  0.00     0.156 C 
ATOM     19  S   UNL A   1      39.084  32.267  42.005  1.00  0.00     0.155 S 
ATOM     20  O   UNL A   1      36.984  32.549  35.342  1.00  0.00    -0.247 OA
ATOM     21  O   UNL A   1      39.711  31.051  42.469  1.00  0.00    -0.229 OA
ATOM     22  O   UNL A   1      38.625  33.295  42.916  1.00  0.00    -0.229 OA
BRANCH  10  23
ATOM     23  C   UNL A   1      40.677  34.689  38.254  1.00  0.00     0.130 A 
ATOM     24  C   UNL A   1      42.933  36.397  37.935  1.00  0.00     0.137 A 
ATOM     25  C   UNL A   1      41.717  36.884  38.426  1.00  0.00     0.052 A 
ATOM     26  C   UNL A   1      43.012  35.045  37.585  1.00  0.00     0.087 A 
ATOM     27  C   UNL A   1      40.605  36.048  38.575  1.00  0.00     0.056 A 
ATOM     28  C   UNL A   1      41.888  34.208  37.743  1.00  0.00     0.076 A 
ATOM     29  Cl  UNL A   1      44.441  34.287  36.971  1.00  0.00    -0.080 Cl
BRANCH  24  30
ATOM     30  O   UNL A   1      43.927  37.337  37.953  1.00  0.00    -0.495 OA
ATOM     31  C   UNL A   1      45.196  36.955  38.461  1.00  0.00     0.278 C 
ENDBRANCH  24  30
ENDBRANCH  10  23
ENDBRANCH   8   9
ENDBRANCH   7   8
ENDBRANCH   6   7
ENDBRANCH   4   6
ENDBRANCH   3   4
ENDBRANCH   2   3
ENDBRANCH   1   2
BRANCH   1  32
ATOM     32  O   UNL A   1      32.734  35.009  28.915  1.00  0.00    -0.374 OA
BRANCH  32  33
ATOM     33  C   UNL A   1      33.063  33.942  28.030  1.00  0.00     0.202 C 
BRANCH  33  34
ATOM     34  C   UNL A   1      34.442  33.293  28.187  1.00  0.00     0.261 C 
BRANCH  34  35
ATOM     35  O   UNL A   1      34.374  32.015  28.842  1.00  0.00    -0.460 OA
BRANCH  35  36
ATOM     36  C   UNL A   1      34.486  30.954  28.003  1.00  0.00     0.338 C 
ATOM     37  O   UNL A   1      33.737  30.664  27.084  1.00  0.00    -0.246 OA
BRANCH  36  38
ATOM     38  C   UNL A   1      35.771  30.265  28.226  1.00  0.00     0.060 A 
ATOM     39  C   UNL A   1      36.012  29.754  29.509  1.00  0.00     0.016 A 
ATOM     40  C   UNL A   1      36.749  30.183  27.234  1.00  0.00     0.016 A 
ATOM     41  C   UNL A   1      37.255  29.212  29.823  1.00  0.00     0.010 A 
ATOM     42  C   UNL A   1      37.999  29.642  27.554  1.00  0.00     0.010 A 
ATOM     43  C   UNL A   1      38.271  29.191  28.859  1.00  0.00    -0.014 A 
BRANCH  43  44
ATOM     44  C   UNL A   1      39.654  28.827  29.252  1.00  0.00     0.031 A 
ATOM     45  C   UNL A   1      40.491  29.831  29.999  1.00  0.00     0.074 A 
ATOM     46  C   UNL A   1      40.156  27.613  28.960  1.00  0.00     0.049 A 
ATOM     47  N   UNL A   1      41.740  29.751  30.378  1.00  0.00    -0.248 NA
ATOM     48  C   UNL A   1      39.831  31.096  30.364  1.00  0.00     0.031 C 
ATOM     49  C   UNL A   1      39.431  26.538  28.286  1.00  0.00     0.029 A 
ATOM     50  N   UNL A   1      41.405  27.088  29.187  1.00  0.00    -0.354 N 
ATOM     51  C   UNL A   1      42.022  30.959  31.008  1.00  0.00     0.074 A 
ATOM     52  C   UNL A   1      40.822  31.763  30.938  1.00  0.00     0.031 C 
ATOM     53  C   UNL A   1      40.252  25.484  28.143  1.00  0.00     0.029 A 
ATOM     54  C   UNL A   1      41.571  25.825  28.673  1.00  0.00     0.049 A 
ATOM     55  H   UNL A   1      42.112  27.572  29.673  1.00  0.00     0.167 HD
ATOM     56  C   UNL A   1      43.177  31.359  31.590  1.00  0.00     0.031 A 
ATOM     57  C   UNL A   1      42.669  25.047  28.607  1.00  0.00     0.031 A 
ATOM     58  C   UNL A   1      44.372  30.558  31.646  1.00  0.00     0.049 A 
ATOM     59  C   UNL A   1      43.965  25.543  29.191  1.00  0.00     0.074 A 
ATOM     60  C   UNL A   1      45.587  30.866  32.233  1.00  0.00     0.029 A 
ATOM     61  N   UNL A   1      44.509  29.296  31.086  1.00  0.00    -0.354 N 
ATOM     62  N   UNL A   1      44.212  26.678  29.804  1.00  0.00    -0.248 NA
ATOM     63  C   UNL A   1      45.129  24.653  29.082  1.00  0.00     0.031 C 
ATOM     64  C   UNL A   1      46.477  29.822  31.968  1.00  0.00     0.029 A 
ATOM     65  C   UNL A   1      45.796  28.827  31.285  1.00  0.00     0.049 A 
ATOM     66  H   UNL A   1      43.795  28.806  30.617  1.00  0.00     0.167 HD
ATOM     67  C   UNL A   1      45.550  26.621  30.182  1.00  0.00     0.074 A 
ATOM     68  C   UNL A   1      46.056  25.339  29.739  1.00  0.00     0.031 C 
ATOM     69  C   UNL A   1      46.289  27.546  30.843  1.00  0.00     0.031 A 
BRANCH  56  70
ATOM     70  C   UNL A   1      43.221  32.747  32.177  1.00  0.00    -0.014 A 
ATOM     71  C   UNL A   1      42.671  33.029  33.440  1.00  0.00     0.010 A 
ATOM     72  C   UNL A   1      43.867  33.778  31.469  1.00  0.00     0.010 A 
ATOM     73  C   UNL A   1      42.731  34.324  33.965  1.00  0.00     0.020 A 
ATOM     74  C   UNL A   1      43.958  35.065  32.004  1.00  0.00     0.020 A 
ATOM     75  C   UNL A   1      43.374  35.334  33.243  1.00  0.00     0.054 A 
BRANCH  75  76
ATOM     76  S   UNL A   1      43.459  36.998  33.960  1.00  0.00     0.124 S 
ATOM     77  O   UNL A   1      43.511  37.838  32.765  1.00  0.00    -0.237 OA
ATOM     78  O   UNL A   1      42.220  37.078  34.728  1.00  0.00    -0.237 OA
ATOM     79  O   UNL A   1      44.683  36.972  34.755  1.00  0.00    -0.744 OA
ENDBRANCH  75  76
ENDBRANCH  56  70
BRANCH  57  80
ATOM     80  C   UNL A   1      42.594  23.720  27.934  1.00  0.00    -0.014 A 
ATOM     81  C   UNL A   1      42.791  23.604  26.547  1.00  0.00     0.010 A 
ATOM     82  C   UNL A   1      42.330  22.561  28.686  1.00  0.00     0.010 A 
ATOM     83  C   UNL A   1      42.714  22.356  25.924  1.00  0.00     0.020 A 
ATOM     84  C   UNL A   1      42.283  21.307  28.071  1.00  0.00     0.020 A 
ATOM     85  C   UNL A   1      42.468  21.214  26.692  1.00  0.00     0.054 A 
BRANCH  85  86
ATOM     86  S   UNL A   1      42.442  19.597  25.872  1.00  0.00     0.124 S 
ATOM     87  O   UNL A   1      43.469  19.758  24.847  1.00  0.00    -0.237 OA
ATOM     88  O   UNL A   1      42.773  18.687  26.965  1.00  0.00    -0.237 OA
ATOM     89  O   UNL A   1      41.071  19.491  25.378  1.00  0.00    -0.744 OA
ENDBRANCH  85  86
ENDBRANCH  57  80
BRANCH  69  90
ATOM     90  C   UNL A   1      47.717  27.196  31.177  1.00  0.00    -0.014 A 
ATOM     91  C   UNL A   1      48.797  27.752  30.470  1.00  0.00     0.010 A 
ATOM     92  C   UNL A   1      47.981  26.348  32.269  1.00  0.00     0.010 A 
ATOM     93  C   UNL A   1      50.112  27.446  30.832  1.00  0.00     0.020 A 
ATOM     94  C   UNL A   1      49.293  26.066  32.656  1.00  0.00     0.020 A 
ATOM     95  C   UNL A   1      50.352  26.608  31.926  1.00  0.00     0.054 A 
BRANCH  95  96
ATOM     96  S   UNL A   1      52.067  26.273  32.411  1.00  0.00     0.124 S 
ATOM     97  O   UNL A   1      52.505  25.353  31.365  1.00  0.00    -0.237 OA
ATOM     98  O   UNL A   1      52.674  27.601  32.375  1.00  0.00    -0.237 OA
ATOM     99  O   UNL A   1      51.944  25.686  33.744  1.00  0.00    -0.744 OA
ENDBRANCH  95  96
ENDBRANCH  69  90
ENDBRANCH  43  44
ENDBRANCH  36  38
ENDBRANCH  35  36
ENDBRANCH  34  35
ENDBRANCH  33  34
ENDBRANCH  32  33
ENDBRANCH   1  32
TORSDOF 22
ENDMDL
