MODEL 1
REMARK VINA RESULT:      -9.5      0.000      0.000
REMARK SMILES [NH3+][C@H](C(=O)OCCOCCOC(=O)c1ccc(-c2c3nc(c(-c4ccc(S(=O)(=O)[O-])cc4)c4ccc([nH]4)c(-c4ccc(S(=O)(=O)[O-])cc4)c4nc(c(-c5ccc(S(=O)(=O)[O-])cc5)c5ccc2[nH]5)C=C4)C=C3)cc1)c1cc(F)c(Cl)c(Cl)c1
REMARK SMILES IDX 9 1 8 2 7 3 6 4 5 5 3 6 4 7 2 8 1 9 74 13 75 14 82 15 76 16
REMARK SMILES IDX 80 17 77 18 78 19 81 20 79 21 10 22 11 23 12 24 13 25 14 26
REMARK SMILES IDX 15 27 73 28 16 29 72 30 17 31 18 32 19 33 66 34 20 35 71 36
REMARK SMILES IDX 65 37 67 38 21 39 70 40 64 41 63 42 22 44 52 45 33 46 51 47
REMARK SMILES IDX 34 48 37 49 50 50 68 51 35 52 36 53 49 55 69 56 38 57 23 58
REMARK SMILES IDX 24 59 32 60 25 61 31 62 26 63 27 64 28 65 29 66 30 67 53 68
REMARK SMILES IDX 54 69 62 70 55 71 61 72 56 73 57 74 58 75 59 76 60 77 39 78
REMARK SMILES IDX 40 79 48 80 41 81 47 82 42 83 43 84 44 85 45 86 46 87
REMARK H PARENT 1 10 1 11 1 12 67 43 37 54
REMARK Flexibility Score: inf
ROOT
ATOM      1  C   UNL A   1      41.885  19.950  26.575  1.00  0.00     0.202 C 
ENDROOT
BRANCH   1   2
ATOM      2  O   UNL A   1      42.568  19.709  25.345  1.00  0.00    -0.374 OA
BRANCH   2   3
ATOM      3  C   UNL A   1      43.637  18.762  25.359  1.00  0.00     0.202 C 
BRANCH   3   4
ATOM      4  C   UNL A   1      44.918  19.172  24.627  1.00  0.00     0.261 C 
BRANCH   4   5
ATOM      5  O   UNL A   1      44.788  20.442  23.961  1.00  0.00    -0.459 OA
BRANCH   5   6
ATOM      6  C   UNL A   1      45.119  21.534  24.702  1.00  0.00     0.369 C 
ATOM      7  O   UNL A   1      45.876  21.515  25.671  1.00  0.00    -0.245 OA
BRANCH   6   8
ATOM      8  C   UNL A   1      44.418  22.836  24.231  1.00  0.00     0.323 C 
BRANCH   8   9
ATOM      9  N   UNL A   1      42.964  22.703  24.536  1.00  0.00    -0.342 N 
ATOM     10  H   UNL A   1      42.730  23.289  25.338  1.00  0.00     0.345 HD
ATOM     11  H   UNL A   1      42.750  21.730  24.753  1.00  0.00     0.345 HD
ATOM     12  H   UNL A   1      42.419  23.000  23.727  1.00  0.00     0.345 HD
ENDBRANCH   8   9
BRANCH   8  13
ATOM     13  C   UNL A   1      44.988  24.147  24.778  1.00  0.00     0.025 A 
ATOM     14  C   UNL A   1      44.122  25.137  25.267  1.00  0.00     0.051 A 
ATOM     15  C   UNL A   1      46.372  24.404  24.851  1.00  0.00     0.032 A 
ATOM     16  C   UNL A   1      44.622  26.331  25.795  1.00  0.00     0.143 A 
ATOM     17  C   UNL A   1      46.870  25.603  25.389  1.00  0.00     0.063 A 
ATOM     18  F   UNL A   1      43.745  27.245  26.238  1.00  0.00    -0.205 F 
ATOM     19  C   UNL A   1      45.992  26.577  25.864  1.00  0.00     0.095 A 
ATOM     20  Cl  UNL A   1      48.588  25.804  25.432  1.00  0.00    -0.083 Cl
ATOM     21  Cl  UNL A   1      46.543  28.071  26.530  1.00  0.00    -0.079 Cl
ENDBRANCH   8  13
ENDBRANCH   6   8
ENDBRANCH   5   6
ENDBRANCH   4   5
ENDBRANCH   3   4
ENDBRANCH   2   3
ENDBRANCH   1   2
BRANCH   1  22
ATOM     22  C   UNL A   1      40.517  20.638  26.486  1.00  0.00     0.261 C 
BRANCH  22  23
ATOM     23  O   UNL A   1      40.640  22.060  26.289  1.00  0.00    -0.460 OA
BRANCH  23  24
ATOM     24  C   UNL A   1      39.459  22.709  26.148  1.00  0.00     0.338 C 
ATOM     25  O   UNL A   1      38.415  22.245  25.710  1.00  0.00    -0.246 OA
BRANCH  24  26
ATOM     26  C   UNL A   1      39.512  24.039  26.785  1.00  0.00     0.060 A 
ATOM     27  C   UNL A   1      40.264  25.027  26.137  1.00  0.00     0.016 A 
ATOM     28  C   UNL A   1      38.935  24.292  28.031  1.00  0.00     0.016 A 
ATOM     29  C   UNL A   1      40.494  26.253  26.759  1.00  0.00     0.010 A 
ATOM     30  C   UNL A   1      39.174  25.523  28.658  1.00  0.00     0.010 A 
ATOM     31  C   UNL A   1      39.988  26.492  28.044  1.00  0.00    -0.014 A 
BRANCH  31  32
ATOM     32  C   UNL A   1      40.451  27.691  28.787  1.00  0.00     0.031 A 
ATOM     33  C   UNL A   1      41.854  27.717  29.337  1.00  0.00     0.074 A 
ATOM     34  C   UNL A   1      39.659  28.771  28.920  1.00  0.00     0.049 A 
ATOM     35  N   UNL A   1      42.472  28.673  29.983  1.00  0.00    -0.248 NA
ATOM     36  C   UNL A   1      42.668  26.509  29.124  1.00  0.00     0.031 C 
ATOM     37  C   UNL A   1      38.301  28.893  28.394  1.00  0.00     0.029 A 
ATOM     38  N   UNL A   1      39.891  29.975  29.536  1.00  0.00    -0.354 N 
ATOM     39  C   UNL A   1      43.743  28.182  30.258  1.00  0.00     0.074 A 
ATOM     40  C   UNL A   1      43.799  26.835  29.733  1.00  0.00     0.031 C 
ATOM     41  C   UNL A   1      37.820  30.109  28.708  1.00  0.00     0.029 A 
ATOM     42  C   UNL A   1      38.823  30.839  29.480  1.00  0.00     0.049 A 
ATOM     43  H   UNL A   1      40.742  30.200  29.978  1.00  0.00     0.167 HD
ATOM     44  C   UNL A   1      44.774  28.796  30.887  1.00  0.00     0.031 A 
ATOM     45  C   UNL A   1      38.667  32.072  30.001  1.00  0.00     0.031 A 
ATOM     46  C   UNL A   1      44.719  30.130  31.422  1.00  0.00     0.049 A 
ATOM     47  C   UNL A   1      39.802  32.707  30.762  1.00  0.00     0.074 A 
ATOM     48  C   UNL A   1      45.718  30.844  32.059  1.00  0.00     0.029 A 
ATOM     49  N   UNL A   1      43.601  30.949  31.391  1.00  0.00    -0.354 N 
ATOM     50  N   UNL A   1      41.006  32.239  30.988  1.00  0.00    -0.248 NA
ATOM     51  C   UNL A   1      39.557  34.042  31.329  1.00  0.00     0.031 C 
ATOM     52  C   UNL A   1      45.189  32.076  32.461  1.00  0.00     0.029 A 
ATOM     53  C   UNL A   1      43.876  32.150  32.024  1.00  0.00     0.049 A 
ATOM     54  H   UNL A   1      42.738  30.714  30.979  1.00  0.00     0.167 HD
ATOM     55  C   UNL A   1      41.670  33.231  31.703  1.00  0.00     0.074 A 
ATOM     56  C   UNL A   1      40.738  34.328  31.861  1.00  0.00     0.031 C 
ATOM     57  C   UNL A   1      42.939  33.233  32.180  1.00  0.00     0.031 A 
BRANCH  44  58
ATOM     58  C   UNL A   1      46.045  28.008  31.065  1.00  0.00    -0.014 A 
ATOM     59  C   UNL A   1      47.064  28.041  30.098  1.00  0.00     0.010 A 
ATOM     60  C   UNL A   1      46.234  27.251  32.235  1.00  0.00     0.010 A 
ATOM     61  C   UNL A   1      48.234  27.296  30.279  1.00  0.00     0.020 A 
ATOM     62  C   UNL A   1      47.412  26.525  32.431  1.00  0.00     0.020 A 
ATOM     63  C   UNL A   1      48.397  26.539  31.443  1.00  0.00     0.054 A 
BRANCH  63  64
ATOM     64  S   UNL A   1      49.930  25.593  31.660  1.00  0.00     0.124 S 
ATOM     65  O   UNL A   1      50.142  25.052  30.320  1.00  0.00    -0.237 OA
ATOM     66  O   UNL A   1      50.884  26.618  32.080  1.00  0.00    -0.237 OA
ATOM     67  O   UNL A   1      49.587  24.609  32.683  1.00  0.00    -0.744 OA
ENDBRANCH  63  64
ENDBRANCH  44  58
BRANCH  45  68
ATOM     68  C   UNL A   1      37.373  32.789  29.833  1.00  0.00    -0.014 A 
ATOM     69  C   UNL A   1      37.130  33.576  28.695  1.00  0.00     0.010 A 
ATOM     70  C   UNL A   1      36.374  32.681  30.818  1.00  0.00     0.010 A 
ATOM     71  C   UNL A   1      35.914  34.250  28.547  1.00  0.00     0.020 A 
ATOM     72  C   UNL A   1      35.148  33.333  30.662  1.00  0.00     0.020 A 
ATOM     73  C   UNL A   1      34.930  34.121  29.530  1.00  0.00     0.054 A 
BRANCH  73  74
ATOM     74  S   UNL A   1      33.334  34.952  29.290  1.00  0.00     0.124 S 
ATOM     75  O   UNL A   1      32.680  34.080  28.321  1.00  0.00    -0.237 OA
ATOM     76  O   UNL A   1      32.767  34.943  30.636  1.00  0.00    -0.237 OA
ATOM     77  O   UNL A   1      33.711  36.273  28.791  1.00  0.00    -0.744 OA
ENDBRANCH  73  74
ENDBRANCH  45  68
BRANCH  57  78
ATOM     78  C   UNL A   1      43.411  34.472  32.897  1.00  0.00    -0.014 A 
ATOM     79  C   UNL A   1      43.836  35.608  32.187  1.00  0.00     0.010 A 
ATOM     80  C   UNL A   1      43.374  34.515  34.303  1.00  0.00     0.010 A 
ATOM     81  C   UNL A   1      44.244  36.757  32.872  1.00  0.00     0.020 A 
ATOM     82  C   UNL A   1      43.757  35.671  34.990  1.00  0.00     0.020 A 
ATOM     83  C   UNL A   1      44.203  36.780  34.268  1.00  0.00     0.054 A 
BRANCH  83  84
ATOM     84  S   UNL A   1      44.695  38.297  35.134  1.00  0.00     0.124 S 
ATOM     85  O   UNL A   1      43.819  38.277  36.303  1.00  0.00    -0.237 OA
ATOM     86  O   UNL A   1      46.111  38.067  35.407  1.00  0.00    -0.237 OA
ATOM     87  O   UNL A   1      44.417  39.355  34.166  1.00  0.00    -0.744 OA
ENDBRANCH  83  84
ENDBRANCH  57  78
ENDBRANCH  31  32
ENDBRANCH  24  26
ENDBRANCH  23  24
ENDBRANCH  22  23
ENDBRANCH   1  22
TORSDOF 19
ENDMDL
MODEL 2
REMARK VINA RESULT:      -9.1      3.927      9.511
REMARK SMILES [NH3+][C@H](C(=O)OCCOCCOC(=O)c1ccc(-c2c3nc(c(-c4ccc(S(=O)(=O)[O-])cc4)c4ccc([nH]4)c(-c4ccc(S(=O)(=O)[O-])cc4)c4nc(c(-c5ccc(S(=O)(=O)[O-])cc5)c5ccc2[nH]5)C=C4)C=C3)cc1)c1cc(F)c(Cl)c(Cl)c1
REMARK SMILES IDX 9 1 8 2 7 3 6 4 5 5 3 6 4 7 2 8 1 9 74 13 75 14 82 15 76 16
REMARK SMILES IDX 80 17 77 18 78 19 81 20 79 21 10 22 11 23 12 24 13 25 14 26
REMARK SMILES IDX 15 27 73 28 16 29 72 30 17 31 18 32 19 33 66 34 20 35 71 36
REMARK SMILES IDX 65 37 67 38 21 39 70 40 64 41 63 42 22 44 52 45 33 46 51 47
REMARK SMILES IDX 34 48 37 49 50 50 68 51 35 52 36 53 49 55 69 56 38 57 23 58
REMARK SMILES IDX 24 59 32 60 25 61 31 62 26 63 27 64 28 65 29 66 30 67 53 68
REMARK SMILES IDX 54 69 62 70 55 71 61 72 56 73 57 74 58 75 59 76 60 77 39 78
REMARK SMILES IDX 40 79 48 80 41 81 47 82 42 83 43 84 44 85 45 86 46 87
REMARK H PARENT 1 10 1 11 1 12 67 43 37 54
REMARK Flexibility Score: inf
ROOT
ATOM      1  C   UNL A   1      45.682  23.278  26.128  1.00  0.00     0.202 C 
ENDROOT
BRANCH   1   2
ATOM      2  O   UNL A   1      46.032  21.920  25.861  1.00  0.00    -0.374 OA
BRANCH   2   3
ATOM      3  C   UNL A   1      45.541  21.338  24.653  1.00  0.00     0.202 C 
BRANCH   3   4
ATOM      4  C   UNL A   1      44.694  20.072  24.805  1.00  0.00     0.261 C 
BRANCH   4   5
ATOM      5  O   UNL A   1      43.355  20.356  25.250  1.00  0.00    -0.459 OA
BRANCH   5   6
ATOM      6  C   UNL A   1      42.699  19.324  25.846  1.00  0.00     0.369 C 
ATOM      7  O   UNL A   1      42.874  18.138  25.573  1.00  0.00    -0.245 OA
BRANCH   6   8
ATOM      8  C   UNL A   1      41.659  19.780  26.904  1.00  0.00     0.323 C 
BRANCH   8   9
ATOM      9  N   UNL A   1      42.351  20.703  27.849  1.00  0.00    -0.342 N 
ATOM     10  H   UNL A   1      41.914  21.624  27.805  1.00  0.00     0.345 HD
ATOM     11  H   UNL A   1      43.334  20.780  27.590  1.00  0.00     0.345 HD
ATOM     12  H   UNL A   1      42.276  20.337  28.798  1.00  0.00     0.345 HD
ENDBRANCH   8   9
BRANCH   8  13
ATOM     13  C   UNL A   1      40.368  20.396  26.362  1.00  0.00     0.025 A 
ATOM     14  C   UNL A   1      39.441  19.593  25.679  1.00  0.00     0.051 A 
ATOM     15  C   UNL A   1      40.034  21.753  26.549  1.00  0.00     0.032 A 
ATOM     16  C   UNL A   1      38.242  20.129  25.200  1.00  0.00     0.143 A 
ATOM     17  C   UNL A   1      38.825  22.286  26.071  1.00  0.00     0.063 A 
ATOM     18  F   UNL A   1      37.400  19.315  24.546  1.00  0.00    -0.205 F 
ATOM     19  C   UNL A   1      37.920  21.472  25.389  1.00  0.00     0.095 A 
ATOM     20  Cl  UNL A   1      38.522  23.964  26.365  1.00  0.00    -0.083 Cl
ATOM     21  Cl  UNL A   1      36.422  22.070  24.773  1.00  0.00    -0.079 Cl
ENDBRANCH   8  13
ENDBRANCH   6   8
ENDBRANCH   5   6
ENDBRANCH   4   5
ENDBRANCH   3   4
ENDBRANCH   2   3
ENDBRANCH   1   2
BRANCH   1  22
ATOM     22  C   UNL A   1      44.729  23.531  27.304  1.00  0.00     0.261 C 
BRANCH  22  23
ATOM     23  O   UNL A   1      43.348  23.467  26.902  1.00  0.00    -0.460 OA
BRANCH  23  24
ATOM     24  C   UNL A   1      42.899  24.575  26.262  1.00  0.00     0.338 C 
ATOM     25  O   UNL A   1      42.763  24.720  25.055  1.00  0.00    -0.246 OA
BRANCH  24  26
ATOM     26  C   UNL A   1      42.386  25.566  27.227  1.00  0.00     0.060 A 
ATOM     27  C   UNL A   1      43.066  26.787  27.310  1.00  0.00     0.016 A 
ATOM     28  C   UNL A   1      41.337  25.279  28.104  1.00  0.00     0.016 A 
ATOM     29  C   UNL A   1      42.741  27.704  28.308  1.00  0.00     0.010 A 
ATOM     30  C   UNL A   1      41.017  26.199  29.112  1.00  0.00     0.010 A 
ATOM     31  C   UNL A   1      41.745  27.396  29.245  1.00  0.00    -0.014 A 
BRANCH  31  32
ATOM     32  C   UNL A   1      41.589  28.263  30.440  1.00  0.00     0.031 A 
ATOM     33  C   UNL A   1      40.470  29.272  30.474  1.00  0.00     0.074 A 
ATOM     34  C   UNL A   1      42.390  28.114  31.511  1.00  0.00     0.049 A 
ATOM     35  N   UNL A   1      40.131  30.100  31.428  1.00  0.00    -0.248 NA
ATOM     36  C   UNL A   1      39.618  29.352  29.275  1.00  0.00     0.031 C 
ATOM     37  C   UNL A   1      43.477  27.144  31.627  1.00  0.00     0.029 A 
ATOM     38  N   UNL A   1      42.405  28.780  32.712  1.00  0.00    -0.354 N 
ATOM     39  C   UNL A   1      39.033  30.803  30.946  1.00  0.00     0.074 A 
ATOM     40  C   UNL A   1      38.779  30.322  29.605  1.00  0.00     0.031 C 
ATOM     41  C   UNL A   1      44.053  27.276  32.835  1.00  0.00     0.029 A 
ATOM     42  C   UNL A   1      43.394  28.357  33.565  1.00  0.00     0.049 A 
ATOM     43  H   UNL A   1      41.766  29.495  32.939  1.00  0.00     0.167 HD
ATOM     44  C   UNL A   1      38.297  31.759  31.564  1.00  0.00     0.031 A 
ATOM     45  C   UNL A   1      43.739  28.797  34.792  1.00  0.00     0.031 A 
ATOM     46  C   UNL A   1      38.553  32.247  32.892  1.00  0.00     0.049 A 
ATOM     47  C   UNL A   1      42.953  29.912  35.430  1.00  0.00     0.074 A 
ATOM     48  C   UNL A   1      37.851  33.201  33.608  1.00  0.00     0.029 A 
ATOM     49  N   UNL A   1      39.598  31.830  33.701  1.00  0.00    -0.354 N 
ATOM     50  N   UNL A   1      41.900  30.546  34.970  1.00  0.00    -0.248 NA
ATOM     51  C   UNL A   1      43.398  30.366  36.756  1.00  0.00     0.031 C 
ATOM     52  C   UNL A   1      38.503  33.398  34.830  1.00  0.00     0.029 A 
ATOM     53  C   UNL A   1      39.578  32.527  34.898  1.00  0.00     0.049 A 
ATOM     54  H   UNL A   1      40.258  31.139  33.461  1.00  0.00     0.167 HD
ATOM     55  C   UNL A   1      41.543  31.455  35.961  1.00  0.00     0.074 A 
ATOM     56  C   UNL A   1      42.484  31.281  37.048  1.00  0.00     0.031 C 
ATOM     57  C   UNL A   1      40.523  32.349  35.970  1.00  0.00     0.031 A 
BRANCH  44  58
ATOM     58  C   UNL A   1      37.161  32.368  30.785  1.00  0.00    -0.014 A 
ATOM     59  C   UNL A   1      37.396  33.308  29.767  1.00  0.00     0.010 A 
ATOM     60  C   UNL A   1      35.840  31.969  31.057  1.00  0.00     0.010 A 
ATOM     61  C   UNL A   1      36.327  33.867  29.061  1.00  0.00     0.020 A 
ATOM     62  C   UNL A   1      34.770  32.507  30.337  1.00  0.00     0.020 A 
ATOM     63  C   UNL A   1      35.020  33.466  29.355  1.00  0.00     0.054 A 
BRANCH  63  64
ATOM     64  S   UNL A   1      33.651  34.196  28.414  1.00  0.00     0.124 S 
ATOM     65  O   UNL A   1      34.331  35.250  27.663  1.00  0.00    -0.237 OA
ATOM     66  O   UNL A   1      33.170  33.070  27.619  1.00  0.00    -0.237 OA
ATOM     67  O   UNL A   1      32.731  34.663  29.448  1.00  0.00    -0.744 OA
ENDBRANCH  63  64
ENDBRANCH  44  58
BRANCH  45  68
ATOM     68  C   UNL A   1      44.900  28.188  35.498  1.00  0.00    -0.014 A 
ATOM     69  C   UNL A   1      46.195  28.704  35.329  1.00  0.00     0.010 A 
ATOM     70  C   UNL A   1      44.708  27.084  36.349  1.00  0.00     0.010 A 
ATOM     71  C   UNL A   1      47.281  28.123  35.991  1.00  0.00     0.020 A 
ATOM     72  C   UNL A   1      45.786  26.515  37.031  1.00  0.00     0.020 A 
ATOM     73  C   UNL A   1      47.068  27.034  36.841  1.00  0.00     0.054 A 
BRANCH  73  74
ATOM     74  S   UNL A   1      48.480  26.334  37.741  1.00  0.00     0.124 S 
ATOM     75  O   UNL A   1      49.373  27.482  37.847  1.00  0.00    -0.237 OA
ATOM     76  O   UNL A   1      47.869  25.888  38.990  1.00  0.00    -0.237 OA
ATOM     77  O   UNL A   1      48.942  25.258  36.865  1.00  0.00    -0.744 OA
ENDBRANCH  73  74
ENDBRANCH  45  68
BRANCH  57  78
ATOM     78  C   UNL A   1      40.349  33.194  37.206  1.00  0.00    -0.014 A 
ATOM     79  C   UNL A   1      41.000  34.433  37.339  1.00  0.00     0.010 A 
ATOM     80  C   UNL A   1      39.475  32.764  38.222  1.00  0.00     0.010 A 
ATOM     81  C   UNL A   1      40.802  35.214  38.482  1.00  0.00     0.020 A 
ATOM     82  C   UNL A   1      39.256  33.555  39.353  1.00  0.00     0.020 A 
ATOM     83  C   UNL A   1      39.933  34.769  39.482  1.00  0.00     0.054 A 
BRANCH  83  84
ATOM     84  S   UNL A   1      39.658  35.821  40.935  1.00  0.00     0.124 S 
ATOM     85  O   UNL A   1      39.068  34.879  41.883  1.00  0.00    -0.237 OA
ATOM     86  O   UNL A   1      41.007  36.278  41.261  1.00  0.00    -0.237 OA
ATOM     87  O   UNL A   1      38.756  36.860  40.445  1.00  0.00    -0.744 OA
ENDBRANCH  83  84
ENDBRANCH  57  78
ENDBRANCH  31  32
ENDBRANCH  24  26
ENDBRANCH  23  24
ENDBRANCH  22  23
ENDBRANCH   1  22
TORSDOF 19
ENDMDL
MODEL 3
REMARK VINA RESULT:      -9.1      2.444      2.947
REMARK SMILES [NH3+][C@H](C(=O)OCCOCCOC(=O)c1ccc(-c2c3nc(c(-c4ccc(S(=O)(=O)[O-])cc4)c4ccc([nH]4)c(-c4ccc(S(=O)(=O)[O-])cc4)c4nc(c(-c5ccc(S(=O)(=O)[O-])cc5)c5ccc2[nH]5)C=C4)C=C3)cc1)c1cc(F)c(Cl)c(Cl)c1
REMARK SMILES IDX 9 1 8 2 7 3 6 4 5 5 3 6 4 7 2 8 1 9 74 13 75 14 82 15 76 16
REMARK SMILES IDX 80 17 77 18 78 19 81 20 79 21 10 22 11 23 12 24 13 25 14 26
REMARK SMILES IDX 15 27 73 28 16 29 72 30 17 31 18 32 19 33 66 34 20 35 71 36
REMARK SMILES IDX 65 37 67 38 21 39 70 40 64 41 63 42 22 44 52 45 33 46 51 47
REMARK SMILES IDX 34 48 37 49 50 50 68 51 35 52 36 53 49 55 69 56 38 57 23 58
REMARK SMILES IDX 24 59 32 60 25 61 31 62 26 63 27 64 28 65 29 66 30 67 53 68
REMARK SMILES IDX 54 69 62 70 55 71 61 72 56 73 57 74 58 75 59 76 60 77 39 78
REMARK SMILES IDX 40 79 48 80 41 81 47 82 42 83 43 84 44 85 45 86 46 87
REMARK H PARENT 1 10 1 11 1 12 67 43 37 54
REMARK Flexibility Score: inf
ROOT
ATOM      1  C   UNL A   1      41.254  19.650  26.449  1.00  0.00     0.202 C 
ENDROOT
BRANCH   1   2
ATOM      2  O   UNL A   1      42.610  19.331  26.766  1.00  0.00    -0.374 OA
BRANCH   2   3
ATOM      3  C   UNL A   1      43.268  18.363  25.950  1.00  0.00     0.202 C 
BRANCH   3   4
ATOM      4  C   UNL A   1      44.445  18.869  25.111  1.00  0.00     0.261 C 
BRANCH   4   5
ATOM      5  O   UNL A   1      44.276  20.237  24.696  1.00  0.00    -0.459 OA
BRANCH   5   6
ATOM      6  C   UNL A   1      45.346  21.053  24.899  1.00  0.00     0.369 C 
ATOM      7  O   UNL A   1      46.510  20.665  24.986  1.00  0.00    -0.245 OA
BRANCH   6   8
ATOM      8  C   UNL A   1      44.964  22.550  25.047  1.00  0.00     0.323 C 
BRANCH   8   9
ATOM      9  N   UNL A   1      43.743  22.788  24.225  1.00  0.00    -0.342 N 
ATOM     10  H   UNL A   1      43.490  23.775  24.271  1.00  0.00     0.345 HD
ATOM     11  H   UNL A   1      42.974  22.223  24.587  1.00  0.00     0.345 HD
ATOM     12  H   UNL A   1      43.929  22.530  23.257  1.00  0.00     0.345 HD
ENDBRANCH   8   9
BRANCH   8  13
ATOM     13  C   UNL A   1      44.788  23.065  26.476  1.00  0.00     0.025 A 
ATOM     14  C   UNL A   1      43.603  22.796  27.177  1.00  0.00     0.051 A 
ATOM     15  C   UNL A   1      45.792  23.784  27.156  1.00  0.00     0.032 A 
ATOM     16  C   UNL A   1      43.431  23.234  28.493  1.00  0.00     0.143 A 
ATOM     17  C   UNL A   1      45.618  24.216  28.482  1.00  0.00     0.063 A 
ATOM     18  F   UNL A   1      42.272  22.954  29.109  1.00  0.00    -0.205 F 
ATOM     19  C   UNL A   1      44.430  23.943  29.158  1.00  0.00     0.095 A 
ATOM     20  Cl  UNL A   1      46.924  25.084  29.215  1.00  0.00    -0.083 Cl
ATOM     21  Cl  UNL A   1      44.155  24.453  30.785  1.00  0.00    -0.079 Cl
ENDBRANCH   8  13
ENDBRANCH   6   8
ENDBRANCH   5   6
ENDBRANCH   4   5
ENDBRANCH   3   4
ENDBRANCH   2   3
ENDBRANCH   1   2
BRANCH   1  22
ATOM     22  C   UNL A   1      40.967  21.087  25.996  1.00  0.00     0.261 C 
BRANCH  22  23
ATOM     23  O   UNL A   1      40.218  21.823  26.981  1.00  0.00    -0.460 OA
BRANCH  23  24
ATOM     24  C   UNL A   1      39.281  22.656  26.464  1.00  0.00     0.338 C 
ATOM     25  O   UNL A   1      38.285  22.335  25.831  1.00  0.00    -0.246 OA
BRANCH  24  26
ATOM     26  C   UNL A   1      39.494  24.039  26.932  1.00  0.00     0.060 A 
ATOM     27  C   UNL A   1      40.022  24.950  26.008  1.00  0.00     0.016 A 
ATOM     28  C   UNL A   1      39.284  24.418  28.259  1.00  0.00     0.016 A 
ATOM     29  C   UNL A   1      40.401  26.226  26.422  1.00  0.00     0.010 A 
ATOM     30  C   UNL A   1      39.674  25.699  28.675  1.00  0.00     0.010 A 
ATOM     31  C   UNL A   1      40.272  26.594  27.768  1.00  0.00    -0.014 A 
BRANCH  31  32
ATOM     32  C   UNL A   1      40.909  27.851  28.235  1.00  0.00     0.031 A 
ATOM     33  C   UNL A   1      42.395  28.030  28.058  1.00  0.00     0.074 A 
ATOM     34  C   UNL A   1      40.170  28.849  28.753  1.00  0.00     0.049 A 
ATOM     35  N   UNL A   1      43.146  29.058  28.359  1.00  0.00    -0.248 NA
ATOM     36  C   UNL A   1      43.128  26.904  27.455  1.00  0.00     0.031 C 
ATOM     37  C   UNL A   1      38.720  28.823  28.933  1.00  0.00     0.029 A 
ATOM     38  N   UNL A   1      40.545  30.086  29.217  1.00  0.00    -0.354 N 
ATOM     39  C   UNL A   1      44.438  28.703  27.990  1.00  0.00     0.074 A 
ATOM     40  C   UNL A   1      44.373  27.355  27.466  1.00  0.00     0.031 C 
ATOM     41  C   UNL A   1      38.326  29.992  29.468  1.00  0.00     0.029 A 
ATOM     42  C   UNL A   1      39.497  30.837  29.693  1.00  0.00     0.049 A 
ATOM     43  H   UNL A   1      41.477  30.405  29.210  1.00  0.00     0.167 HD
ATOM     44  C   UNL A   1      45.578  29.432  28.073  1.00  0.00     0.031 A 
ATOM     45  C   UNL A   1      39.484  32.061  30.257  1.00  0.00     0.031 A 
ATOM     46  C   UNL A   1      45.648  30.767  28.603  1.00  0.00     0.049 A 
ATOM     47  C   UNL A   1      40.774  32.825  30.407  1.00  0.00     0.074 A 
ATOM     48  C   UNL A   1      46.754  31.593  28.711  1.00  0.00     0.029 A 
ATOM     49  N   UNL A   1      44.573  31.470  29.124  1.00  0.00    -0.354 N 
ATOM     50  N   UNL A   1      41.982  32.484  30.027  1.00  0.00    -0.248 NA
ATOM     51  C   UNL A   1      40.695  34.142  31.057  1.00  0.00     0.031 C 
ATOM     52  C   UNL A   1      46.358  32.775  29.346  1.00  0.00     0.029 A 
ATOM     53  C   UNL A   1      44.994  32.708  29.583  1.00  0.00     0.049 A 
ATOM     54  H   UNL A   1      43.647  31.140  29.163  1.00  0.00     0.167 HD
ATOM     55  C   UNL A   1      42.802  33.555  30.369  1.00  0.00     0.074 A 
ATOM     56  C   UNL A   1      41.951  34.558  30.976  1.00  0.00     0.031 C 
ATOM     57  C   UNL A   1      44.139  33.696  30.190  1.00  0.00     0.031 A 
BRANCH  44  58
ATOM     58  C   UNL A   1      46.853  28.780  27.610  1.00  0.00    -0.014 A 
ATOM     59  C   UNL A   1      47.144  28.636  26.242  1.00  0.00     0.010 A 
ATOM     60  C   UNL A   1      47.789  28.333  28.560  1.00  0.00     0.010 A 
ATOM     61  C   UNL A   1      48.330  28.021  25.833  1.00  0.00     0.020 A 
ATOM     62  C   UNL A   1      48.987  27.740  28.155  1.00  0.00     0.020 A 
ATOM     63  C   UNL A   1      49.243  27.572  26.793  1.00  0.00     0.054 A 
BRANCH  63  64
ATOM     64  S   UNL A   1      50.782  26.790  26.236  1.00  0.00     0.124 S 
ATOM     65  O   UNL A   1      51.776  27.804  26.582  1.00  0.00    -0.237 OA
ATOM     66  O   UNL A   1      50.830  25.568  27.035  1.00  0.00    -0.237 OA
ATOM     67  O   UNL A   1      50.570  26.588  24.806  1.00  0.00    -0.744 OA
ENDBRANCH  63  64
ENDBRANCH  44  58
BRANCH  45  68
ATOM     68  C   UNL A   1      38.200  32.641  30.738  1.00  0.00    -0.014 A 
ATOM     69  C   UNL A   1      37.392  33.407  29.881  1.00  0.00     0.010 A 
ATOM     70  C   UNL A   1      37.779  32.422  32.063  1.00  0.00     0.010 A 
ATOM     71  C   UNL A   1      36.190  33.952  30.342  1.00  0.00     0.020 A 
ATOM     72  C   UNL A   1      36.567  32.945  32.520  1.00  0.00     0.020 A 
ATOM     73  C   UNL A   1      35.784  33.715  31.657  1.00  0.00     0.054 A 
BRANCH  73  74
ATOM     74  S   UNL A   1      34.190  34.378  32.218  1.00  0.00     0.124 S 
ATOM     75  O   UNL A   1      33.715  33.321  33.104  1.00  0.00    -0.237 OA
ATOM     76  O   UNL A   1      34.578  35.626  32.870  1.00  0.00    -0.237 OA
ATOM     77  O   UNL A   1      33.435  34.543  30.977  1.00  0.00    -0.744 OA
ENDBRANCH  73  74
ENDBRANCH  45  68
BRANCH  57  78
ATOM     78  C   UNL A   1      44.768  34.992  30.630  1.00  0.00    -0.014 A 
ATOM     79  C   UNL A   1      44.752  36.128  29.802  1.00  0.00     0.010 A 
ATOM     80  C   UNL A   1      45.332  35.087  31.915  1.00  0.00     0.010 A 
ATOM     81  C   UNL A   1      45.317  37.329  30.241  1.00  0.00     0.020 A 
ATOM     82  C   UNL A   1      45.874  36.294  32.367  1.00  0.00     0.020 A 
ATOM     83  C   UNL A   1      45.875  37.404  31.520  1.00  0.00     0.054 A 
BRANCH  83  84
ATOM     84  S   UNL A   1      46.563  38.986  32.085  1.00  0.00     0.124 S 
ATOM     85  O   UNL A   1      47.433  38.564  33.179  1.00  0.00    -0.237 OA
ATOM     86  O   UNL A   1      47.247  39.483  30.894  1.00  0.00    -0.237 OA
ATOM     87  O   UNL A   1      45.385  39.752  32.486  1.00  0.00    -0.744 OA
ENDBRANCH  83  84
ENDBRANCH  57  78
ENDBRANCH  31  32
ENDBRANCH  24  26
ENDBRANCH  23  24
ENDBRANCH  22  23
ENDBRANCH   1  22
TORSDOF 19
ENDMDL
