MODEL 1
REMARK VINA RESULT:     -11.2      0.000      0.000
REMARK SMILES Cc1c(Cl)cc2c(c1C)O[C@H](C(F)(F)F)C(C(=O)OCCOCCOC(=O)c1ccc(-c3c4nc(c(-c5ccc(S(=O)(=O)[O-])cc5)c5ccc([nH]5)c(-c5ccc(S(=O)(=O)[O-])cc5)c5nc(c(-c6ccc(S(=O)(=O)[O-])cc6)c6ccc3[nH]6)C=C5)C=C4)cc1)=C2
REMARK SMILES IDX 23 1 22 2 21 3 20 4 19 5 17 6 18 7 16 8 1 9 2 10 3 11 8 12
REMARK SMILES IDX 4 13 5 14 7 15 9 16 6 17 10 18 88 19 11 20 12 21 13 22 14 23
REMARK SMILES IDX 15 24 24 25 25 26 26 27 27 28 28 29 29 30 87 31 30 32 86 33
REMARK SMILES IDX 31 34 32 35 33 36 80 37 34 38 85 39 79 40 81 41 35 42 84 43
REMARK SMILES IDX 78 44 77 45 36 47 66 48 47 49 65 50 48 51 51 52 64 53 82 54
REMARK SMILES IDX 49 55 50 56 63 58 83 59 52 60 37 61 38 62 46 63 39 64 45 65
REMARK SMILES IDX 40 66 41 67 42 68 43 69 44 70 67 71 68 72 76 73 69 74 75 75
REMARK SMILES IDX 70 76 71 77 72 78 73 79 74 80 53 81 54 82 62 83 55 84 61 85
REMARK SMILES IDX 56 86 57 87 58 88 59 89 60 90
REMARK H PARENT 81 46 51 57
REMARK Flexibility Score: inf
ROOT
ATOM      1  C   UNL A   1      38.659  22.077  26.123  1.00  0.00     0.202 C 
ENDROOT
BRANCH   1   2
ATOM      2  O   UNL A   1      37.767  23.168  25.893  1.00  0.00    -0.374 OA
BRANCH   2   3
ATOM      3  C   UNL A   1      37.020  23.172  24.677  1.00  0.00     0.202 C 
BRANCH   3   4
ATOM      4  C   UNL A   1      35.543  22.780  24.774  1.00  0.00     0.261 C 
BRANCH   4   5
ATOM      5  O   UNL A   1      34.680  23.903  24.534  1.00  0.00    -0.460 OA
BRANCH   5   6
ATOM      6  C   UNL A   1      33.991  24.323  25.618  1.00  0.00     0.338 C 
ATOM      7  O   UNL A   1      33.899  23.755  26.697  1.00  0.00    -0.246 OA
BRANCH   6   8
ATOM      8  C   UNL A   1      33.445  25.671  25.376  1.00  0.00     0.087 C 
ATOM      9  C   UNL A   1      31.294  31.734  26.272  1.00  0.00     0.046 C 
ATOM     10  C   UNL A   1      32.060  30.444  26.123  1.00  0.00    -0.026 A 
ATOM     11  C   UNL A   1      33.221  30.216  26.887  1.00  0.00     0.045 A 
ATOM     12  C   UNL A   1      31.650  29.446  25.200  1.00  0.00    -0.004 A 
ATOM     13  Cl  UNL A   1      33.887  31.419  27.940  1.00  0.00    -0.084 Cl
ATOM     14  C   UNL A   1      33.885  28.991  26.838  1.00  0.00     0.032 A 
ATOM     15  C   UNL A   1      32.324  28.205  25.173  1.00  0.00     0.131 A 
ATOM     16  C   UNL A   1      30.467  29.633  24.279  1.00  0.00     0.049 C 
ATOM     17  C   UNL A   1      33.410  27.971  26.016  1.00  0.00     0.019 A 
ATOM     18  O   UNL A   1      31.868  27.265  24.288  1.00  0.00    -0.475 OA
ATOM     19  C   UNL A   1      34.004  26.651  26.094  1.00  0.00     0.027 C 
ATOM     20  C   UNL A   1      32.315  25.883  24.410  1.00  0.00     0.316 C 
BRANCH  20  21
ATOM     21  C   UNL A   1      31.092  25.006  24.720  1.00  0.00     0.430 C 
ATOM     22  F   UNL A   1      29.939  25.687  24.514  1.00  0.00    -0.167 F 
ATOM     23  F   UNL A   1      31.046  23.911  23.929  1.00  0.00    -0.167 F 
ATOM     24  F   UNL A   1      31.091  24.583  26.004  1.00  0.00    -0.167 F 
ENDBRANCH  20  21
ENDBRANCH   6   8
ENDBRANCH   5   6
ENDBRANCH   4   5
ENDBRANCH   3   4
ENDBRANCH   2   3
ENDBRANCH   1   2
BRANCH   1  25
ATOM     25  C   UNL A   1      40.133  22.412  26.385  1.00  0.00     0.261 C 
BRANCH  25  26
ATOM     26  O   UNL A   1      40.297  23.366  27.450  1.00  0.00    -0.460 OA
BRANCH  26  27
ATOM     27  C   UNL A   1      41.122  24.401  27.160  1.00  0.00     0.338 C 
ATOM     28  O   UNL A   1      41.945  24.456  26.256  1.00  0.00    -0.246 OA
BRANCH  27  29
ATOM     29  C   UNL A   1      40.770  25.574  27.979  1.00  0.00     0.060 A 
ATOM     30  C   UNL A   1      41.737  26.576  28.127  1.00  0.00     0.016 A 
ATOM     31  C   UNL A   1      39.555  25.650  28.662  1.00  0.00     0.016 A 
ATOM     32  C   UNL A   1      41.511  27.640  28.996  1.00  0.00     0.010 A 
ATOM     33  C   UNL A   1      39.336  26.713  29.546  1.00  0.00     0.010 A 
ATOM     34  C   UNL A   1      40.327  27.692  29.743  1.00  0.00    -0.014 A 
BRANCH  34  35
ATOM     35  C   UNL A   1      40.201  28.686  30.835  1.00  0.00     0.031 A 
ATOM     36  C   UNL A   1      41.108  28.571  32.031  1.00  0.00     0.074 A 
ATOM     37  C   UNL A   1      39.328  29.705  30.742  1.00  0.00     0.049 A 
ATOM     38  N   UNL A   1      41.168  29.324  33.097  1.00  0.00    -0.248 NA
ATOM     39  C   UNL A   1      42.082  27.465  32.019  1.00  0.00     0.031 C 
ATOM     40  C   UNL A   1      38.438  29.955  29.608  1.00  0.00     0.029 A 
ATOM     41  N   UNL A   1      39.053  30.726  31.617  1.00  0.00    -0.354 N 
ATOM     42  C   UNL A   1      42.182  28.788  33.883  1.00  0.00     0.074 A 
ATOM     43  C   UNL A   1      42.691  27.628  33.185  1.00  0.00     0.031 C 
ATOM     44  C   UNL A   1      37.716  31.061  29.858  1.00  0.00     0.029 A 
ATOM     45  C   UNL A   1      38.068  31.578  31.178  1.00  0.00     0.049 A 
ATOM     46  H   UNL A   1      39.519  30.836  32.478  1.00  0.00     0.167 HD
ATOM     47  C   UNL A   1      42.653  29.228  35.073  1.00  0.00     0.031 A 
ATOM     48  C   UNL A   1      37.505  32.645  31.781  1.00  0.00     0.031 A 
ATOM     49  C   UNL A   1      42.139  30.375  35.770  1.00  0.00     0.049 A 
ATOM     50  C   UNL A   1      37.984  33.058  33.148  1.00  0.00     0.074 A 
ATOM     51  C   UNL A   1      42.552  30.900  36.983  1.00  0.00     0.029 A 
ATOM     52  N   UNL A   1      41.098  31.173  35.322  1.00  0.00    -0.354 N 
ATOM     53  N   UNL A   1      38.948  32.543  33.874  1.00  0.00    -0.248 NA
ATOM     54  C   UNL A   1      37.300  34.199  33.777  1.00  0.00     0.031 C 
ATOM     55  C   UNL A   1      41.726  31.984  37.293  1.00  0.00     0.029 A 
ATOM     56  C   UNL A   1      40.837  32.170  36.247  1.00  0.00     0.049 A 
ATOM     57  H   UNL A   1      40.617  31.050  34.473  1.00  0.00     0.167 HD
ATOM     58  C   UNL A   1      38.999  33.309  35.035  1.00  0.00     0.074 A 
ATOM     59  C   UNL A   1      37.981  34.331  34.908  1.00  0.00     0.031 C 
ATOM     60  C   UNL A   1      39.817  33.179  36.108  1.00  0.00     0.031 A 
BRANCH  47  61
ATOM     61  C   UNL A   1      43.774  28.455  35.712  1.00  0.00    -0.014 A 
ATOM     62  C   UNL A   1      45.117  28.793  35.466  1.00  0.00     0.010 A 
ATOM     63  C   UNL A   1      43.481  27.425  36.624  1.00  0.00     0.010 A 
ATOM     64  C   UNL A   1      46.148  28.101  36.110  1.00  0.00     0.020 A 
ATOM     65  C   UNL A   1      44.508  26.747  37.286  1.00  0.00     0.020 A 
ATOM     66  C   UNL A   1      45.836  27.084  37.018  1.00  0.00     0.054 A 
BRANCH  66  67
ATOM     67  S   UNL A   1      47.195  26.240  37.873  1.00  0.00     0.124 S 
ATOM     68  O   UNL A   1      46.570  24.977  38.259  1.00  0.00    -0.237 OA
ATOM     69  O   UNL A   1      48.215  26.143  36.833  1.00  0.00    -0.237 OA
ATOM     70  O   UNL A   1      47.519  27.137  38.980  1.00  0.00    -0.744 OA
ENDBRANCH  66  67
ENDBRANCH  47  61
BRANCH  48  71
ATOM     71  C   UNL A   1      36.409  33.390  31.102  1.00  0.00    -0.014 A 
ATOM     72  C   UNL A   1      36.597  33.931  29.820  1.00  0.00     0.010 A 
ATOM     73  C   UNL A   1      35.168  33.563  31.743  1.00  0.00     0.010 A 
ATOM     74  C   UNL A   1      35.570  34.643  29.193  1.00  0.00     0.020 A 
ATOM     75  C   UNL A   1      34.129  34.251  31.109  1.00  0.00     0.020 A 
ATOM     76  C   UNL A   1      34.341  34.795  29.842  1.00  0.00     0.054 A 
BRANCH  76  77
ATOM     77  S   UNL A   1      33.007  35.682  28.988  1.00  0.00     0.124 S 
ATOM     78  O   UNL A   1      32.215  36.189  30.105  1.00  0.00    -0.237 OA
ATOM     79  O   UNL A   1      33.739  36.687  28.222  1.00  0.00    -0.237 OA
ATOM     80  O   UNL A   1      32.365  34.643  28.186  1.00  0.00    -0.744 OA
ENDBRANCH  76  77
ENDBRANCH  48  71
BRANCH  60  81
ATOM     81  C   UNL A   1      39.664  34.170  37.230  1.00  0.00    -0.014 A 
ATOM     82  C   UNL A   1      38.923  33.853  38.381  1.00  0.00     0.010 A 
ATOM     83  C   UNL A   1      40.342  35.402  37.168  1.00  0.00     0.010 A 
ATOM     84  C   UNL A   1      38.846  34.759  39.442  1.00  0.00     0.020 A 
ATOM     85  C   UNL A   1      40.288  36.299  38.237  1.00  0.00     0.020 A 
ATOM     86  C   UNL A   1      39.531  35.975  39.365  1.00  0.00     0.054 A 
BRANCH  86  87
ATOM     87  S   UNL A   1      39.462  37.106  40.782  1.00  0.00     0.124 S 
ATOM     88  O   UNL A   1      38.610  38.178  40.274  1.00  0.00    -0.237 OA
ATOM     89  O   UNL A   1      38.869  36.273  41.826  1.00  0.00    -0.237 OA
ATOM     90  O   UNL A   1      40.859  37.472  41.003  1.00  0.00    -0.744 OA
ENDBRANCH  86  87
ENDBRANCH  60  81
ENDBRANCH  34  35
ENDBRANCH  27  29
ENDBRANCH  26  27
ENDBRANCH  25  26
ENDBRANCH   1  25
TORSDOF 18
ENDMDL
MODEL 2
REMARK VINA RESULT:     -11.2      1.387      2.050
REMARK SMILES Cc1c(Cl)cc2c(c1C)O[C@H](C(F)(F)F)C(C(=O)OCCOCCOC(=O)c1ccc(-c3c4nc(c(-c5ccc(S(=O)(=O)[O-])cc5)c5ccc([nH]5)c(-c5ccc(S(=O)(=O)[O-])cc5)c5nc(c(-c6ccc(S(=O)(=O)[O-])cc6)c6ccc3[nH]6)C=C5)C=C4)cc1)=C2
REMARK SMILES IDX 23 1 22 2 21 3 20 4 19 5 17 6 18 7 16 8 1 9 2 10 3 11 8 12
REMARK SMILES IDX 4 13 5 14 7 15 9 16 6 17 10 18 88 19 11 20 12 21 13 22 14 23
REMARK SMILES IDX 15 24 24 25 25 26 26 27 27 28 28 29 29 30 87 31 30 32 86 33
REMARK SMILES IDX 31 34 32 35 33 36 80 37 34 38 85 39 79 40 81 41 35 42 84 43
REMARK SMILES IDX 78 44 77 45 36 47 66 48 47 49 65 50 48 51 51 52 64 53 82 54
REMARK SMILES IDX 49 55 50 56 63 58 83 59 52 60 37 61 38 62 46 63 39 64 45 65
REMARK SMILES IDX 40 66 41 67 42 68 43 69 44 70 67 71 68 72 76 73 69 74 75 75
REMARK SMILES IDX 70 76 71 77 72 78 73 79 74 80 53 81 54 82 62 83 55 84 61 85
REMARK SMILES IDX 56 86 57 87 58 88 59 89 60 90
REMARK H PARENT 81 46 51 57
REMARK Flexibility Score: inf
ROOT
ATOM      1  C   UNL A   1      39.776  21.364  26.219  1.00  0.00     0.202 C 
ENDROOT
BRANCH   1   2
ATOM      2  O   UNL A   1      38.540  22.043  25.994  1.00  0.00    -0.374 OA
BRANCH   2   3
ATOM      3  C   UNL A   1      37.700  21.564  24.944  1.00  0.00     0.202 C 
BRANCH   3   4
ATOM      4  C   UNL A   1      36.385  20.901  25.363  1.00  0.00     0.261 C 
BRANCH   4   5
ATOM      5  O   UNL A   1      35.727  21.641  26.403  1.00  0.00    -0.460 OA
BRANCH   5   6
ATOM      6  C   UNL A   1      34.414  21.875  26.182  1.00  0.00     0.338 C 
ATOM      7  O   UNL A   1      33.467  21.312  26.711  1.00  0.00    -0.246 OA
BRANCH   6   8
ATOM      8  C   UNL A   1      34.254  23.031  25.281  1.00  0.00     0.087 C 
ATOM      9  C   UNL A   1      32.475  28.783  22.845  1.00  0.00     0.046 C 
ATOM     10  C   UNL A   1      33.060  27.610  23.590  1.00  0.00    -0.026 A 
ATOM     11  C   UNL A   1      33.425  27.742  24.944  1.00  0.00     0.045 A 
ATOM     12  C   UNL A   1      33.278  26.364  22.947  1.00  0.00    -0.004 A 
ATOM     13  Cl  UNL A   1      33.331  29.252  25.786  1.00  0.00    -0.084 Cl
ATOM     14  C   UNL A   1      33.873  26.644  25.678  1.00  0.00     0.032 A 
ATOM     15  C   UNL A   1      33.718  25.258  23.708  1.00  0.00     0.131 A 
ATOM     16  C   UNL A   1      32.995  26.150  21.479  1.00  0.00     0.049 C 
ATOM     17  C   UNL A   1      33.975  25.393  25.072  1.00  0.00     0.019 A 
ATOM     18  O   UNL A   1      33.881  24.069  23.047  1.00  0.00    -0.475 OA
ATOM     19  C   UNL A   1      34.280  24.228  25.878  1.00  0.00     0.027 C 
ATOM     20  C   UNL A   1      34.042  22.837  23.807  1.00  0.00     0.316 C 
BRANCH  20  21
ATOM     21  C   UNL A   1      32.853  21.917  23.492  1.00  0.00     0.430 C 
ATOM     22  F   UNL A   1      33.163  20.620  23.732  1.00  0.00    -0.167 F 
ATOM     23  F   UNL A   1      31.776  22.209  24.253  1.00  0.00    -0.167 F 
ATOM     24  F   UNL A   1      32.476  22.010  22.196  1.00  0.00    -0.167 F 
ENDBRANCH  20  21
ENDBRANCH   6   8
ENDBRANCH   5   6
ENDBRANCH   4   5
ENDBRANCH   3   4
ENDBRANCH   2   3
ENDBRANCH   1   2
BRANCH   1  25
ATOM     25  C   UNL A   1      41.059  22.204  26.199  1.00  0.00     0.261 C 
BRANCH  25  26
ATOM     26  O   UNL A   1      41.016  23.293  27.140  1.00  0.00    -0.460 OA
BRANCH  26  27
ATOM     27  C   UNL A   1      41.580  24.443  26.700  1.00  0.00     0.338 C 
ATOM     28  O   UNL A   1      42.211  24.606  25.664  1.00  0.00    -0.246 OA
BRANCH  27  29
ATOM     29  C   UNL A   1      41.174  25.568  27.560  1.00  0.00     0.060 A 
ATOM     30  C   UNL A   1      42.021  26.681  27.617  1.00  0.00     0.016 A 
ATOM     31  C   UNL A   1      40.035  25.498  28.364  1.00  0.00     0.016 A 
ATOM     32  C   UNL A   1      41.757  27.713  28.513  1.00  0.00     0.010 A 
ATOM     33  C   UNL A   1      39.779  26.529  29.275  1.00  0.00     0.010 A 
ATOM     34  C   UNL A   1      40.658  27.623  29.377  1.00  0.00    -0.014 A 
BRANCH  34  35
ATOM     35  C   UNL A   1      40.524  28.600  30.485  1.00  0.00     0.031 A 
ATOM     36  C   UNL A   1      41.452  28.492  31.665  1.00  0.00     0.074 A 
ATOM     37  C   UNL A   1      39.623  29.597  30.418  1.00  0.00     0.049 A 
ATOM     38  N   UNL A   1      41.509  29.233  32.740  1.00  0.00    -0.248 NA
ATOM     39  C   UNL A   1      42.453  27.412  31.623  1.00  0.00     0.031 C 
ATOM     40  C   UNL A   1      38.710  29.839  29.302  1.00  0.00     0.029 A 
ATOM     41  N   UNL A   1      39.336  30.598  31.311  1.00  0.00    -0.354 N 
ATOM     42  C   UNL A   1      42.549  28.712  33.502  1.00  0.00     0.074 A 
ATOM     43  C   UNL A   1      43.076  27.575  32.781  1.00  0.00     0.031 C 
ATOM     44  C   UNL A   1      37.963  30.922  29.578  1.00  0.00     0.029 A 
ATOM     45  C   UNL A   1      38.323  31.431  30.899  1.00  0.00     0.049 A 
ATOM     46  H   UNL A   1      39.812  30.710  32.166  1.00  0.00     0.167 HD
ATOM     47  C   UNL A   1      43.027  29.149  34.691  1.00  0.00     0.031 A 
ATOM     48  C   UNL A   1      37.742  32.475  31.525  1.00  0.00     0.031 A 
ATOM     49  C   UNL A   1      42.495  30.273  35.411  1.00  0.00     0.049 A 
ATOM     50  C   UNL A   1      38.232  32.883  32.890  1.00  0.00     0.074 A 
ATOM     51  C   UNL A   1      42.914  30.792  36.625  1.00  0.00     0.029 A 
ATOM     52  N   UNL A   1      41.427  31.050  34.990  1.00  0.00    -0.354 N 
ATOM     53  N   UNL A   1      39.220  32.383  33.594  1.00  0.00    -0.248 NA
ATOM     54  C   UNL A   1      37.529  33.997  33.545  1.00  0.00     0.031 C 
ATOM     55  C   UNL A   1      42.065  31.851  36.963  1.00  0.00     0.029 A 
ATOM     56  C   UNL A   1      41.155  32.028  35.933  1.00  0.00     0.049 A 
ATOM     57  H   UNL A   1      40.935  30.926  34.147  1.00  0.00     0.167 HD
ATOM     58  C   UNL A   1      39.270  33.135  34.764  1.00  0.00     0.074 A 
ATOM     59  C   UNL A   1      38.224  34.132  34.667  1.00  0.00     0.031 C 
ATOM     60  C   UNL A   1      40.107  33.011  35.823  1.00  0.00     0.031 A 
BRANCH  47  61
ATOM     61  C   UNL A   1      44.177  28.397  35.302  1.00  0.00    -0.014 A 
ATOM     62  C   UNL A   1      43.954  27.293  36.144  1.00  0.00     0.010 A 
ATOM     63  C   UNL A   1      45.498  28.753  34.973  1.00  0.00     0.010 A 
ATOM     64  C   UNL A   1      45.033  26.570  36.661  1.00  0.00     0.020 A 
ATOM     65  C   UNL A   1      46.578  28.018  35.469  1.00  0.00     0.020 A 
ATOM     66  C   UNL A   1      46.338  26.936  36.318  1.00  0.00     0.054 A 
BRANCH  66  67
ATOM     67  S   UNL A   1      47.714  25.947  36.966  1.00  0.00     0.124 S 
ATOM     68  O   UNL A   1      47.285  24.588  36.647  1.00  0.00    -0.237 OA
ATOM     69  O   UNL A   1      48.853  26.443  36.197  1.00  0.00    -0.237 OA
ATOM     70  O   UNL A   1      47.737  26.274  38.390  1.00  0.00    -0.744 OA
ENDBRANCH  66  67
ENDBRANCH  47  61
BRANCH  48  71
ATOM     71  C   UNL A   1      36.618  33.200  30.873  1.00  0.00    -0.014 A 
ATOM     72  C   UNL A   1      36.809  33.875  29.656  1.00  0.00     0.010 A 
ATOM     73  C   UNL A   1      35.344  33.220  31.474  1.00  0.00     0.010 A 
ATOM     74  C   UNL A   1      35.752  34.568  29.057  1.00  0.00     0.020 A 
ATOM     75  C   UNL A   1      34.279  33.889  30.864  1.00  0.00     0.020 A 
ATOM     76  C   UNL A   1      34.493  34.567  29.664  1.00  0.00     0.054 A 
BRANCH  76  77
ATOM     77  S   UNL A   1      33.126  35.432  28.841  1.00  0.00     0.124 S 
ATOM     78  O   UNL A   1      33.833  36.429  28.043  1.00  0.00    -0.237 OA
ATOM     79  O   UNL A   1      32.482  34.358  28.089  1.00  0.00    -0.237 OA
ATOM     80  O   UNL A   1      32.339  35.962  29.953  1.00  0.00    -0.744 OA
ENDBRANCH  76  77
ENDBRANCH  48  71
BRANCH  60  81
ATOM     81  C   UNL A   1      39.947  33.983  36.961  1.00  0.00    -0.014 A 
ATOM     82  C   UNL A   1      40.499  35.274  36.893  1.00  0.00     0.010 A 
ATOM     83  C   UNL A   1      39.165  33.629  38.075  1.00  0.00     0.010 A 
ATOM     84  C   UNL A   1      40.285  36.188  37.929  1.00  0.00     0.020 A 
ATOM     85  C   UNL A   1      38.928  34.547  39.100  1.00  0.00     0.020 A 
ATOM     86  C   UNL A   1      39.500  35.820  39.025  1.00  0.00     0.054 A 
BRANCH  86  87
ATOM     87  S   UNL A   1      39.190  37.046  40.326  1.00  0.00     0.124 S 
ATOM     88  O   UNL A   1      38.598  38.147  39.570  1.00  0.00    -0.237 OA
ATOM     89  O   UNL A   1      38.278  36.337  41.221  1.00  0.00    -0.237 OA
ATOM     90  O   UNL A   1      40.516  37.310  40.878  1.00  0.00    -0.744 OA
ENDBRANCH  86  87
ENDBRANCH  60  81
ENDBRANCH  34  35
ENDBRANCH  27  29
ENDBRANCH  26  27
ENDBRANCH  25  26
ENDBRANCH   1  25
TORSDOF 18
ENDMDL
MODEL 3
REMARK VINA RESULT:     -11.1      3.591      4.266
REMARK SMILES Cc1c(Cl)cc2c(c1C)O[C@H](C(F)(F)F)C(C(=O)OCCOCCOC(=O)c1ccc(-c3c4nc(c(-c5ccc(S(=O)(=O)[O-])cc5)c5ccc([nH]5)c(-c5ccc(S(=O)(=O)[O-])cc5)c5nc(c(-c6ccc(S(=O)(=O)[O-])cc6)c6ccc3[nH]6)C=C5)C=C4)cc1)=C2
REMARK SMILES IDX 23 1 22 2 21 3 20 4 19 5 17 6 18 7 16 8 1 9 2 10 3 11 8 12
REMARK SMILES IDX 4 13 5 14 7 15 9 16 6 17 10 18 88 19 11 20 12 21 13 22 14 23
REMARK SMILES IDX 15 24 24 25 25 26 26 27 27 28 28 29 29 30 87 31 30 32 86 33
REMARK SMILES IDX 31 34 32 35 33 36 80 37 34 38 85 39 79 40 81 41 35 42 84 43
REMARK SMILES IDX 78 44 77 45 36 47 66 48 47 49 65 50 48 51 51 52 64 53 82 54
REMARK SMILES IDX 49 55 50 56 63 58 83 59 52 60 37 61 38 62 46 63 39 64 45 65
REMARK SMILES IDX 40 66 41 67 42 68 43 69 44 70 67 71 68 72 76 73 69 74 75 75
REMARK SMILES IDX 70 76 71 77 72 78 73 79 74 80 53 81 54 82 62 83 55 84 61 85
REMARK SMILES IDX 56 86 57 87 58 88 59 89 60 90
REMARK H PARENT 81 46 51 57
REMARK Flexibility Score: inf
ROOT
ATOM      1  C   UNL A   1      36.987  20.847  25.098  1.00  0.00     0.202 C 
ENDROOT
BRANCH   1   2
ATOM      2  O   UNL A   1      35.681  20.316  25.330  1.00  0.00    -0.374 OA
BRANCH   2   3
ATOM      3  C   UNL A   1      34.648  20.668  24.411  1.00  0.00     0.202 C 
BRANCH   3   4
ATOM      4  C   UNL A   1      33.512  21.540  24.954  1.00  0.00     0.261 C 
BRANCH   4   5
ATOM      5  O   UNL A   1      33.743  22.934  24.694  1.00  0.00    -0.460 OA
BRANCH   5   6
ATOM      6  C   UNL A   1      33.784  23.712  25.798  1.00  0.00     0.338 C 
ATOM      7  O   UNL A   1      34.245  23.414  26.891  1.00  0.00    -0.246 OA
BRANCH   6   8
ATOM      8  C   UNL A   1      33.303  25.068  25.477  1.00  0.00     0.087 C 
ATOM      9  C   UNL A   1      31.448  31.270  26.010  1.00  0.00     0.046 C 
ATOM     10  C   UNL A   1      32.150  29.938  25.938  1.00  0.00    -0.026 A 
ATOM     11  C   UNL A   1      33.300  29.700  26.717  1.00  0.00     0.045 A 
ATOM     12  C   UNL A   1      31.691  28.908  25.076  1.00  0.00    -0.004 A 
ATOM     13  Cl  UNL A   1      34.026  30.930  27.696  1.00  0.00    -0.084 Cl
ATOM     14  C   UNL A   1      33.905  28.444  26.740  1.00  0.00     0.032 A 
ATOM     15  C   UNL A   1      32.305  27.637  25.123  1.00  0.00     0.131 A 
ATOM     16  C   UNL A   1      30.517  29.097  24.144  1.00  0.00     0.049 C 
ATOM     17  C   UNL A   1      33.380  27.401  25.979  1.00  0.00     0.019 A 
ATOM     18  O   UNL A   1      31.803  26.669  24.295  1.00  0.00    -0.475 OA
ATOM     19  C   UNL A   1      33.910  26.061  26.136  1.00  0.00     0.027 C 
ATOM     20  C   UNL A   1      32.183  25.277  24.498  1.00  0.00     0.316 C 
BRANCH  20  21
ATOM     21  C   UNL A   1      30.920  24.479  24.858  1.00  0.00     0.430 C 
ATOM     22  F   UNL A   1      30.657  23.535  23.922  1.00  0.00    -0.167 F 
ATOM     23  F   UNL A   1      31.052  23.835  26.038  1.00  0.00    -0.167 F 
ATOM     24  F   UNL A   1      29.832  25.277  24.947  1.00  0.00    -0.167 F 
ENDBRANCH  20  21
ENDBRANCH   6   8
ENDBRANCH   5   6
ENDBRANCH   4   5
ENDBRANCH   3   4
ENDBRANCH   2   3
ENDBRANCH   1   2
BRANCH   1  25
ATOM     25  C   UNL A   1      37.244  22.300  25.517  1.00  0.00     0.261 C 
BRANCH  25  26
ATOM     26  O   UNL A   1      38.626  22.676  25.371  1.00  0.00    -0.460 OA
BRANCH  26  27
ATOM     27  C   UNL A   1      39.332  22.696  26.527  1.00  0.00     0.338 C 
ATOM     28  O   UNL A   1      39.960  21.770  27.024  1.00  0.00    -0.246 OA
BRANCH  27  29
ATOM     29  C   UNL A   1      39.414  24.072  27.047  1.00  0.00     0.060 A 
ATOM     30  C   UNL A   1      40.110  25.015  26.281  1.00  0.00     0.016 A 
ATOM     31  C   UNL A   1      38.899  24.411  28.300  1.00  0.00     0.016 A 
ATOM     32  C   UNL A   1      40.334  26.293  26.785  1.00  0.00     0.010 A 
ATOM     33  C   UNL A   1      39.138  25.692  28.811  1.00  0.00     0.010 A 
ATOM     34  C   UNL A   1      39.887  26.626  28.070  1.00  0.00    -0.014 A 
BRANCH  34  35
ATOM     35  C   UNL A   1      40.337  27.895  28.690  1.00  0.00     0.031 A 
ATOM     36  C   UNL A   1      41.761  28.005  29.168  1.00  0.00     0.074 A 
ATOM     37  C   UNL A   1      39.507  28.949  28.782  1.00  0.00     0.049 A 
ATOM     38  N   UNL A   1      42.363  29.014  29.740  1.00  0.00    -0.248 NA
ATOM     39  C   UNL A   1      42.620  26.825  28.966  1.00  0.00     0.031 C 
ATOM     40  C   UNL A   1      38.126  28.983  28.303  1.00  0.00     0.029 A 
ATOM     41  N   UNL A   1      39.712  30.201  29.305  1.00  0.00    -0.354 N 
ATOM     42  C   UNL A   1      43.669  28.595  29.966  1.00  0.00     0.074 A 
ATOM     43  C   UNL A   1      43.765  27.230  29.497  1.00  0.00     0.031 C 
ATOM     44  C   UNL A   1      37.607  30.197  28.554  1.00  0.00     0.029 A 
ATOM     45  C   UNL A   1      38.606  31.015  29.238  1.00  0.00     0.049 A 
ATOM     46  H   UNL A   1      40.571  30.489  29.692  1.00  0.00     0.167 HD
ATOM     47  C   UNL A   1      44.699  29.288  30.507  1.00  0.00     0.031 A 
ATOM     48  C   UNL A   1      38.418  32.271  29.691  1.00  0.00     0.031 A 
ATOM     49  C   UNL A   1      44.600  30.641  30.982  1.00  0.00     0.049 A 
ATOM     50  C   UNL A   1      39.554  32.988  30.373  1.00  0.00     0.074 A 
ATOM     51  C   UNL A   1      45.589  31.428  31.546  1.00  0.00     0.029 A 
ATOM     52  N   UNL A   1      43.445  31.407  30.955  1.00  0.00    -0.354 N 
ATOM     53  N   UNL A   1      40.784  32.578  30.574  1.00  0.00    -0.248 NA
ATOM     54  C   UNL A   1      39.276  34.337  30.889  1.00  0.00     0.031 C 
ATOM     55  C   UNL A   1      45.019  32.652  31.908  1.00  0.00     0.029 A 
ATOM     56  C   UNL A   1      43.690  32.649  31.516  1.00  0.00     0.049 A 
ATOM     57  H   UNL A   1      42.580  31.113  30.590  1.00  0.00     0.167 HD
ATOM     58  C   UNL A   1      41.432  33.626  31.220  1.00  0.00     0.074 A 
ATOM     59  C   UNL A   1      40.463  34.693  31.363  1.00  0.00     0.031 C 
ATOM     60  C   UNL A   1      42.714  33.700  31.655  1.00  0.00     0.031 A 
BRANCH  47  61
ATOM     61  C   UNL A   1      46.025  28.589  30.632  1.00  0.00    -0.014 A 
ATOM     62  C   UNL A   1      46.988  28.676  29.611  1.00  0.00     0.010 A 
ATOM     63  C   UNL A   1      46.340  27.896  31.816  1.00  0.00     0.010 A 
ATOM     64  C   UNL A   1      48.236  28.066  29.765  1.00  0.00     0.020 A 
ATOM     65  C   UNL A   1      47.596  27.306  31.982  1.00  0.00     0.020 A 
ATOM     66  C   UNL A   1      48.533  27.388  30.951  1.00  0.00     0.054 A 
BRANCH  66  67
ATOM     67  S   UNL A   1      50.180  26.651  31.140  1.00  0.00     0.124 S 
ATOM     68  O   UNL A   1      50.532  27.044  32.501  1.00  0.00    -0.237 OA
ATOM     69  O   UNL A   1      49.916  25.227  30.946  1.00  0.00    -0.237 OA
ATOM     70  O   UNL A   1      50.968  27.286  30.085  1.00  0.00    -0.744 OA
ENDBRANCH  66  67
ENDBRANCH  47  61
BRANCH  48  71
ATOM     71  C   UNL A   1      37.093  32.929  29.528  1.00  0.00    -0.014 A 
ATOM     72  C   UNL A   1      36.196  33.011  30.606  1.00  0.00     0.010 A 
ATOM     73  C   UNL A   1      36.722  33.478  28.286  1.00  0.00     0.010 A 
ATOM     74  C   UNL A   1      34.946  33.617  30.443  1.00  0.00     0.020 A 
ATOM     75  C   UNL A   1      35.485  34.109  28.127  1.00  0.00     0.020 A 
ATOM     76  C   UNL A   1      34.600  34.166  29.204  1.00  0.00     0.054 A 
BRANCH  76  77
ATOM     77  S   UNL A   1      32.993  34.990  29.031  1.00  0.00     0.124 S 
ATOM     78  O   UNL A   1      32.469  34.923  30.392  1.00  0.00    -0.237 OA
ATOM     79  O   UNL A   1      33.372  36.321  28.563  1.00  0.00    -0.237 OA
ATOM     80  O   UNL A   1      32.292  34.168  28.048  1.00  0.00    -0.744 OA
ENDBRANCH  76  77
ENDBRANCH  48  71
BRANCH  60  81
ATOM     81  C   UNL A   1      43.159  34.978  32.314  1.00  0.00    -0.014 A 
ATOM     82  C   UNL A   1      43.786  35.994  31.572  1.00  0.00     0.010 A 
ATOM     83  C   UNL A   1      42.871  35.197  33.674  1.00  0.00     0.010 A 
ATOM     84  C   UNL A   1      44.134  37.201  32.184  1.00  0.00     0.020 A 
ATOM     85  C   UNL A   1      43.195  36.412  34.282  1.00  0.00     0.020 A 
ATOM     86  C   UNL A   1      43.834  37.404  33.535  1.00  0.00     0.054 A 
BRANCH  86  87
ATOM     87  S   UNL A   1      44.243  39.003  34.288  1.00  0.00     0.124 S 
ATOM     88  O   UNL A   1      45.494  39.344  33.615  1.00  0.00    -0.237 OA
ATOM     89  O   UNL A   1      43.092  39.828  33.929  1.00  0.00    -0.237 OA
ATOM     90  O   UNL A   1      44.364  38.697  35.711  1.00  0.00    -0.744 OA
ENDBRANCH  86  87
ENDBRANCH  60  81
ENDBRANCH  34  35
ENDBRANCH  27  29
ENDBRANCH  26  27
ENDBRANCH  25  26
ENDBRANCH   1  25
TORSDOF 18
ENDMDL
