MODEL 1
REMARK VINA RESULT:      -9.5      0.000      0.000
REMARK SMILES C[C@@H](C(=O)OCCOCCOC(=O)c1ccc(-c2c3nc(c(-c4ccc(S(=O)(=O)[O-])cc4)c4ccc([nH]4)c(-c4ccc(S(=O)(=O)[O-])cc4)c4nc(c(-c5ccc(S(=O)(=O)[O-])cc5)c5ccc2[nH]5)C=C4)C=C3)cc1)c1ccc(-c2ccccc2)c(F)c1
REMARK SMILES IDX 9 1 8 2 7 3 6 4 5 5 3 6 4 7 2 8 1 9 74 10 75 11 86 12 76 13
REMARK SMILES IDX 84 14 77 15 85 16 78 17 79 18 83 19 80 20 82 21 81 22 10 23
REMARK SMILES IDX 11 24 12 25 13 26 14 27 15 28 73 29 16 30 72 31 17 32 18 33
REMARK SMILES IDX 19 34 66 35 20 36 71 37 65 38 67 39 21 40 70 41 64 42 63 43
REMARK SMILES IDX 22 45 52 46 33 47 51 48 34 49 37 50 50 51 68 52 35 53 36 54
REMARK SMILES IDX 49 56 69 57 38 58 23 59 24 60 32 61 25 62 31 63 26 64 27 65
REMARK SMILES IDX 28 66 29 67 30 68 53 69 54 70 62 71 55 72 61 73 56 74 57 75
REMARK SMILES IDX 58 76 59 77 60 78 39 79 40 80 48 81 41 82 47 83 42 84 43 85
REMARK SMILES IDX 44 86 45 87 46 88
REMARK H PARENT 67 44 37 55
REMARK Flexibility Score: inf
ROOT
ATOM      1  C   UNL A   1      40.811  19.529  26.297  1.00  0.00     0.202 C 
ENDROOT
BRANCH   1   2
ATOM      2  O   UNL A   1      41.779  18.689  25.664  1.00  0.00    -0.374 OA
BRANCH   2   3
ATOM      3  C   UNL A   1      43.122  18.741  26.150  1.00  0.00     0.202 C 
BRANCH   3   4
ATOM      4  C   UNL A   1      44.197  19.118  25.125  1.00  0.00     0.261 C 
BRANCH   4   5
ATOM      5  O   UNL A   1      44.068  20.495  24.743  1.00  0.00    -0.463 OA
BRANCH   5   6
ATOM      6  C   UNL A   1      45.039  21.331  25.200  1.00  0.00     0.313 C 
ATOM      7  O   UNL A   1      46.229  21.038  25.260  1.00  0.00    -0.252 OA
BRANCH   6   8
ATOM      8  C   UNL A   1      44.502  22.732  25.512  1.00  0.00     0.126 C 
ATOM      9  C   UNL A   1      45.167  23.813  24.645  1.00  0.00     0.025 C 
BRANCH   8  10
ATOM     10  C   UNL A   1      44.487  23.083  27.009  1.00  0.00    -0.031 A 
ATOM     11  C   UNL A   1      43.367  22.860  27.827  1.00  0.00     0.005 A 
ATOM     12  C   UNL A   1      45.582  23.739  27.595  1.00  0.00     0.044 A 
ATOM     13  C   UNL A   1      43.333  23.298  29.162  1.00  0.00     0.012 A 
ATOM     14  C   UNL A   1      45.541  24.171  28.927  1.00  0.00     0.131 A 
ATOM     15  C   UNL A   1      44.414  23.983  29.735  1.00  0.00     0.017 A 
ATOM     16  F   UNL A   1      46.621  24.804  29.412  1.00  0.00    -0.206 F 
BRANCH  15  17
ATOM     17  C   UNL A   1      44.319  24.532  31.100  1.00  0.00    -0.015 A 
ATOM     18  C   UNL A   1      44.174  25.911  31.331  1.00  0.00     0.009 A 
ATOM     19  C   UNL A   1      44.425  23.689  32.222  1.00  0.00     0.009 A 
ATOM     20  C   UNL A   1      44.146  26.426  32.631  1.00  0.00     0.001 A 
ATOM     21  C   UNL A   1      44.399  24.203  33.521  1.00  0.00     0.001 A 
ATOM     22  C   UNL A   1      44.264  25.574  33.725  1.00  0.00     0.000 A 
ENDBRANCH  15  17
ENDBRANCH   8  10
ENDBRANCH   6   8
ENDBRANCH   5   6
ENDBRANCH   4   5
ENDBRANCH   3   4
ENDBRANCH   2   3
ENDBRANCH   1   2
BRANCH   1  23
ATOM     23  C   UNL A   1      40.974  21.046  26.122  1.00  0.00     0.261 C 
BRANCH  23  24
ATOM     24  O   UNL A   1      40.188  21.810  27.056  1.00  0.00    -0.460 OA
BRANCH  24  25
ATOM     25  C   UNL A   1      39.306  22.667  26.483  1.00  0.00     0.338 C 
ATOM     26  O   UNL A   1      38.323  22.374  25.817  1.00  0.00    -0.246 OA
BRANCH  25  27
ATOM     27  C   UNL A   1      39.574  24.053  26.908  1.00  0.00     0.060 A 
ATOM     28  C   UNL A   1      40.379  24.841  26.074  1.00  0.00     0.016 A 
ATOM     29  C   UNL A   1      39.144  24.541  28.143  1.00  0.00     0.016 A 
ATOM     30  C   UNL A   1      40.796  26.103  26.493  1.00  0.00     0.010 A 
ATOM     31  C   UNL A   1      39.573  25.806  28.567  1.00  0.00     0.010 A 
ATOM     32  C   UNL A   1      40.428  26.578  27.759  1.00  0.00    -0.014 A 
BRANCH  32  33
ATOM     33  C   UNL A   1      41.056  27.817  28.283  1.00  0.00     0.031 A 
ATOM     34  C   UNL A   1      42.556  27.953  28.246  1.00  0.00     0.074 A 
ATOM     35  C   UNL A   1      40.300  28.828  28.749  1.00  0.00     0.049 A 
ATOM     36  N   UNL A   1      43.306  28.944  28.655  1.00  0.00    -0.248 NA
ATOM     37  C   UNL A   1      43.306  26.825  27.669  1.00  0.00     0.031 C 
ATOM     38  C   UNL A   1      38.838  28.838  28.798  1.00  0.00     0.029 A 
ATOM     39  N   UNL A   1      40.663  30.045  29.271  1.00  0.00    -0.354 N 
ATOM     40  C   UNL A   1      44.617  28.560  28.388  1.00  0.00     0.074 A 
ATOM     41  C   UNL A   1      44.558  27.235  27.809  1.00  0.00     0.031 C 
ATOM     42  C   UNL A   1      38.429  30.002  29.330  1.00  0.00     0.029 A 
ATOM     43  C   UNL A   1      39.596  30.806  29.686  1.00  0.00     0.049 A 
ATOM     44  H   UNL A   1      41.598  30.343  29.344  1.00  0.00     0.167 HD
ATOM     45  C   UNL A   1      45.763  29.250  28.599  1.00  0.00     0.031 A 
ATOM     46  C   UNL A   1      39.565  32.006  30.299  1.00  0.00     0.031 A 
ATOM     47  C   UNL A   1      45.823  30.559  29.190  1.00  0.00     0.049 A 
ATOM     48  C   UNL A   1      40.857  32.724  30.590  1.00  0.00     0.074 A 
ATOM     49  C   UNL A   1      46.938  31.340  29.441  1.00  0.00     0.029 A 
ATOM     50  N   UNL A   1      44.723  31.282  29.629  1.00  0.00    -0.354 N 
ATOM     51  N   UNL A   1      42.085  32.354  30.315  1.00  0.00    -0.248 NA
ATOM     52  C   UNL A   1      40.757  34.025  31.267  1.00  0.00     0.031 C 
ATOM     53  C   UNL A   1      46.517  32.514  30.078  1.00  0.00     0.029 A 
ATOM     54  C   UNL A   1      45.134  32.487  30.172  1.00  0.00     0.049 A 
ATOM     55  H   UNL A   1      43.788  30.981  29.565  1.00  0.00     0.167 HD
ATOM     56  C   UNL A   1      42.902  33.387  30.763  1.00  0.00     0.074 A 
ATOM     57  C   UNL A   1      42.028  34.402  31.315  1.00  0.00     0.031 C 
ATOM     58  C   UNL A   1      44.254  33.488  30.719  1.00  0.00     0.031 A 
BRANCH  45  59
ATOM     59  C   UNL A   1      47.055  28.580  28.213  1.00  0.00    -0.014 A 
ATOM     60  C   UNL A   1      47.776  27.804  29.138  1.00  0.00     0.010 A 
ATOM     61  C   UNL A   1      47.537  28.700  26.896  1.00  0.00     0.010 A 
ATOM     62  C   UNL A   1      48.976  27.191  28.763  1.00  0.00     0.020 A 
ATOM     63  C   UNL A   1      48.723  28.069  26.511  1.00  0.00     0.020 A 
ATOM     64  C   UNL A   1      49.444  27.332  27.453  1.00  0.00     0.054 A 
BRANCH  64  65
ATOM     65  S   UNL A   1      50.995  26.515  26.989  1.00  0.00     0.124 S 
ATOM     66  O   UNL A   1      51.012  26.702  25.541  1.00  0.00    -0.237 OA
ATOM     67  O   UNL A   1      51.996  27.277  27.732  1.00  0.00    -0.237 OA
ATOM     68  O   UNL A   1      50.808  25.137  27.436  1.00  0.00    -0.744 OA
ENDBRANCH  64  65
ENDBRANCH  45  59
BRANCH  46  69
ATOM     69  C   UNL A   1      38.261  32.597  30.704  1.00  0.00    -0.014 A 
ATOM     70  C   UNL A   1      37.759  32.418  32.005  1.00  0.00     0.010 A 
ATOM     71  C   UNL A   1      37.511  33.349  29.780  1.00  0.00     0.010 A 
ATOM     72  C   UNL A   1      36.527  32.969  32.370  1.00  0.00     0.020 A 
ATOM     73  C   UNL A   1      36.292  33.922  30.149  1.00  0.00     0.020 A 
ATOM     74  C   UNL A   1      35.802  33.720  31.439  1.00  0.00     0.054 A 
BRANCH  74  75
ATOM     75  S   UNL A   1      34.231  34.471  31.950  1.00  0.00     0.124 S 
ATOM     76  O   UNL A   1      34.674  35.732  32.535  1.00  0.00    -0.237 OA
ATOM     77  O   UNL A   1      33.506  34.578  30.686  1.00  0.00    -0.237 OA
ATOM     78  O   UNL A   1      33.681  33.500  32.893  1.00  0.00    -0.744 OA
ENDBRANCH  74  75
ENDBRANCH  46  69
BRANCH  58  79
ATOM     79  C   UNL A   1      44.875  34.751  31.253  1.00  0.00    -0.014 A 
ATOM     80  C   UNL A   1      45.057  35.879  30.433  1.00  0.00     0.010 A 
ATOM     81  C   UNL A   1      45.231  34.829  32.613  1.00  0.00     0.010 A 
ATOM     82  C   UNL A   1      45.610  37.051  30.956  1.00  0.00     0.020 A 
ATOM     83  C   UNL A   1      45.760  36.007  33.145  1.00  0.00     0.020 A 
ATOM     84  C   UNL A   1      45.959  37.107  32.309  1.00  0.00     0.054 A 
BRANCH  84  85
ATOM     85  S   UNL A   1      46.634  38.654  32.976  1.00  0.00     0.124 S 
ATOM     86  O   UNL A   1      45.880  38.803  34.218  1.00  0.00    -0.237 OA
ATOM     87  O   UNL A   1      48.053  38.344  33.137  1.00  0.00    -0.237 OA
ATOM     88  O   UNL A   1      46.331  39.639  31.941  1.00  0.00    -0.744 OA
ENDBRANCH  84  85
ENDBRANCH  58  79
ENDBRANCH  32  33
ENDBRANCH  25  27
ENDBRANCH  24  25
ENDBRANCH  23  24
ENDBRANCH   1  23
TORSDOF 19
ENDMDL
MODEL 2
REMARK VINA RESULT:      -9.2      5.185      8.638
REMARK SMILES C[C@@H](C(=O)OCCOCCOC(=O)c1ccc(-c2c3nc(c(-c4ccc(S(=O)(=O)[O-])cc4)c4ccc([nH]4)c(-c4ccc(S(=O)(=O)[O-])cc4)c4nc(c(-c5ccc(S(=O)(=O)[O-])cc5)c5ccc2[nH]5)C=C4)C=C3)cc1)c1ccc(-c2ccccc2)c(F)c1
REMARK SMILES IDX 9 1 8 2 7 3 6 4 5 5 3 6 4 7 2 8 1 9 74 10 75 11 86 12 76 13
REMARK SMILES IDX 84 14 77 15 85 16 78 17 79 18 83 19 80 20 82 21 81 22 10 23
REMARK SMILES IDX 11 24 12 25 13 26 14 27 15 28 73 29 16 30 72 31 17 32 18 33
REMARK SMILES IDX 19 34 66 35 20 36 71 37 65 38 67 39 21 40 70 41 64 42 63 43
REMARK SMILES IDX 22 45 52 46 33 47 51 48 34 49 37 50 50 51 68 52 35 53 36 54
REMARK SMILES IDX 49 56 69 57 38 58 23 59 24 60 32 61 25 62 31 63 26 64 27 65
REMARK SMILES IDX 28 66 29 67 30 68 53 69 54 70 62 71 55 72 61 73 56 74 57 75
REMARK SMILES IDX 58 76 59 77 60 78 39 79 40 80 48 81 41 82 47 83 42 84 43 85
REMARK SMILES IDX 44 86 45 87 46 88
REMARK H PARENT 67 44 37 55
REMARK Flexibility Score: inf
ROOT
ATOM      1  C   UNL A   1      32.569  27.516  25.297  1.00  0.00     0.202 C 
ENDROOT
BRANCH   1   2
ATOM      2  O   UNL A   1      31.354  28.204  24.993  1.00  0.00    -0.374 OA
BRANCH   2   3
ATOM      3  C   UNL A   1      30.653  27.823  23.808  1.00  0.00     0.202 C 
BRANCH   3   4
ATOM      4  C   UNL A   1      31.493  27.722  22.530  1.00  0.00     0.261 C 
BRANCH   4   5
ATOM      5  O   UNL A   1      31.433  26.393  21.992  1.00  0.00    -0.463 OA
BRANCH   5   6
ATOM      6  C   UNL A   1      32.609  25.708  21.970  1.00  0.00     0.313 C 
ATOM      7  O   UNL A   1      33.672  26.177  21.577  1.00  0.00    -0.252 OA
BRANCH   6   8
ATOM      8  C   UNL A   1      32.488  24.322  22.612  1.00  0.00     0.126 C 
ATOM      9  C   UNL A   1      31.166  24.152  23.377  1.00  0.00     0.025 C 
BRANCH   8  10
ATOM     10  C   UNL A   1      33.718  23.895  23.429  1.00  0.00    -0.031 A 
ATOM     11  C   UNL A   1      33.852  24.176  24.799  1.00  0.00     0.005 A 
ATOM     12  C   UNL A   1      34.812  23.280  22.797  1.00  0.00     0.044 A 
ATOM     13  C   UNL A   1      35.036  23.883  25.497  1.00  0.00     0.012 A 
ATOM     14  C   UNL A   1      35.987  22.989  23.499  1.00  0.00     0.131 A 
ATOM     15  C   UNL A   1      36.139  23.301  24.855  1.00  0.00     0.017 A 
ATOM     16  F   UNL A   1      36.995  22.416  22.822  1.00  0.00    -0.206 F 
BRANCH  15  17
ATOM     17  C   UNL A   1      37.410  23.102  25.576  1.00  0.00    -0.015 A 
ATOM     18  C   UNL A   1      38.042  24.155  26.258  1.00  0.00     0.009 A 
ATOM     19  C   UNL A   1      38.059  21.853  25.556  1.00  0.00     0.009 A 
ATOM     20  C   UNL A   1      39.279  23.969  26.887  1.00  0.00     0.001 A 
ATOM     21  C   UNL A   1      39.295  21.667  26.181  1.00  0.00     0.001 A 
ATOM     22  C   UNL A   1      39.906  22.727  26.844  1.00  0.00     0.000 A 
ENDBRANCH  15  17
ENDBRANCH   8  10
ENDBRANCH   6   8
ENDBRANCH   5   6
ENDBRANCH   4   5
ENDBRANCH   3   4
ENDBRANCH   2   3
ENDBRANCH   1   2
BRANCH   1  23
ATOM     23  C   UNL A   1      33.860  28.346  25.326  1.00  0.00     0.261 C 
BRANCH  23  24
ATOM     24  O   UNL A   1      34.433  28.455  26.643  1.00  0.00    -0.460 OA
BRANCH  24  25
ATOM     25  C   UNL A   1      34.568  29.726  27.096  1.00  0.00     0.338 C 
ATOM     26  O   UNL A   1      33.789  30.654  26.926  1.00  0.00    -0.246 OA
BRANCH  25  27
ATOM     27  C   UNL A   1      35.724  29.837  28.004  1.00  0.00     0.060 A 
ATOM     28  C   UNL A   1      36.955  30.201  27.441  1.00  0.00     0.016 A 
ATOM     29  C   UNL A   1      35.639  29.486  29.352  1.00  0.00     0.016 A 
ATOM     30  C   UNL A   1      38.114  30.171  28.214  1.00  0.00     0.010 A 
ATOM     31  C   UNL A   1      36.807  29.448  30.125  1.00  0.00     0.010 A 
ATOM     32  C   UNL A   1      38.054  29.757  29.551  1.00  0.00    -0.014 A 
BRANCH  32  33
ATOM     33  C   UNL A   1      39.315  29.515  30.297  1.00  0.00     0.031 A 
ATOM     34  C   UNL A   1      40.242  28.421  29.837  1.00  0.00     0.074 A 
ATOM     35  C   UNL A   1      39.654  30.286  31.346  1.00  0.00     0.049 A 
ATOM     36  N   UNL A   1      41.386  28.039  30.344  1.00  0.00    -0.248 NA
ATOM     37  C   UNL A   1      39.826  27.661  28.647  1.00  0.00     0.031 C 
ATOM     38  C   UNL A   1      38.864  31.404  31.863  1.00  0.00     0.029 A 
ATOM     39  N   UNL A   1      40.754  30.243  32.166  1.00  0.00    -0.354 N 
ATOM     40  C   UNL A   1      41.827  26.994  29.539  1.00  0.00     0.074 A 
ATOM     41  C   UNL A   1      40.812  26.783  28.529  1.00  0.00     0.031 C 
ATOM     42  C   UNL A   1      39.503  31.936  32.919  1.00  0.00     0.029 A 
ATOM     43  C   UNL A   1      40.728  31.180  33.172  1.00  0.00     0.049 A 
ATOM     44  H   UNL A   1      41.489  29.601  32.047  1.00  0.00     0.167 HD
ATOM     45  C   UNL A   1      42.973  26.278  29.627  1.00  0.00     0.031 A 
ATOM     46  C   UNL A   1      41.585  31.393  34.190  1.00  0.00     0.031 A 
ATOM     47  C   UNL A   1      43.974  26.474  30.642  1.00  0.00     0.049 A 
ATOM     48  C   UNL A   1      42.818  30.537  34.312  1.00  0.00     0.074 A 
ATOM     49  C   UNL A   1      45.171  25.801  30.812  1.00  0.00     0.029 A 
ATOM     50  N   UNL A   1      43.894  27.410  31.662  1.00  0.00    -0.354 N 
ATOM     51  N   UNL A   1      43.227  29.565  33.532  1.00  0.00    -0.248 NA
ATOM     52  C   UNL A   1      43.710  30.813  35.448  1.00  0.00     0.031 C 
ATOM     53  C   UNL A   1      45.792  26.295  31.965  1.00  0.00     0.029 A 
ATOM     54  C   UNL A   1      45.007  27.315  32.480  1.00  0.00     0.049 A 
ATOM     55  H   UNL A   1      43.154  28.047  31.788  1.00  0.00     0.167 HD
ATOM     56  C   UNL A   1      44.435  29.129  34.068  1.00  0.00     0.074 A 
ATOM     57  C   UNL A   1      44.697  29.953  35.231  1.00  0.00     0.031 C 
ATOM     58  C   UNL A   1      45.255  28.140  33.636  1.00  0.00     0.031 A 
BRANCH  45  59
ATOM     59  C   UNL A   1      43.190  25.189  28.611  1.00  0.00    -0.014 A 
ATOM     60  C   UNL A   1      42.870  23.850  28.900  1.00  0.00     0.010 A 
ATOM     61  C   UNL A   1      43.690  25.514  27.336  1.00  0.00     0.010 A 
ATOM     62  C   UNL A   1      43.080  22.851  27.946  1.00  0.00     0.020 A 
ATOM     63  C   UNL A   1      43.878  24.520  26.371  1.00  0.00     0.020 A 
ATOM     64  C   UNL A   1      43.588  23.192  26.689  1.00  0.00     0.054 A 
BRANCH  64  65
ATOM     65  S   UNL A   1      43.838  21.878  25.463  1.00  0.00     0.124 S 
ATOM     66  O   UNL A   1      43.442  22.543  24.225  1.00  0.00    -0.237 OA
ATOM     67  O   UNL A   1      45.263  21.586  25.590  1.00  0.00    -0.237 OA
ATOM     68  O   UNL A   1      42.944  20.813  25.911  1.00  0.00    -0.744 OA
ENDBRANCH  64  65
ENDBRANCH  45  59
BRANCH  46  69
ATOM     69  C   UNL A   1      41.293  32.451  35.195  1.00  0.00    -0.014 A 
ATOM     70  C   UNL A   1      40.592  32.152  36.375  1.00  0.00     0.010 A 
ATOM     71  C   UNL A   1      41.723  33.773  34.970  1.00  0.00     0.010 A 
ATOM     72  C   UNL A   1      40.314  33.157  37.307  1.00  0.00     0.020 A 
ATOM     73  C   UNL A   1      41.469  34.774  35.910  1.00  0.00     0.020 A 
ATOM     74  C   UNL A   1      40.756  34.463  37.069  1.00  0.00     0.054 A 
BRANCH  74  75
ATOM     75  S   UNL A   1      40.432  35.741  38.316  1.00  0.00     0.124 S 
ATOM     76  O   UNL A   1      39.832  36.801  37.514  1.00  0.00    -0.237 OA
ATOM     77  O   UNL A   1      39.533  35.058  39.241  1.00  0.00    -0.237 OA
ATOM     78  O   UNL A   1      41.759  36.035  38.853  1.00  0.00    -0.744 OA
ENDBRANCH  74  75
ENDBRANCH  46  69
BRANCH  58  79
ATOM     79  C   UNL A   1      46.531  27.908  34.401  1.00  0.00    -0.014 A 
ATOM     80  C   UNL A   1      47.707  28.613  34.090  1.00  0.00     0.010 A 
ATOM     81  C   UNL A   1      46.536  27.012  35.487  1.00  0.00     0.010 A 
ATOM     82  C   UNL A   1      48.873  28.404  34.832  1.00  0.00     0.020 A 
ATOM     83  C   UNL A   1      47.692  26.819  36.246  1.00  0.00     0.020 A 
ATOM     84  C   UNL A   1      48.858  27.506  35.905  1.00  0.00     0.054 A 
BRANCH  84  85
ATOM     85  S   UNL A   1      50.372  27.284  36.881  1.00  0.00     0.124 S 
ATOM     86  O   UNL A   1      50.120  28.149  38.031  1.00  0.00    -0.237 OA
ATOM     87  O   UNL A   1      50.367  25.850  37.161  1.00  0.00    -0.237 OA
ATOM     88  O   UNL A   1      51.433  27.734  35.983  1.00  0.00    -0.744 OA
ENDBRANCH  84  85
ENDBRANCH  58  79
ENDBRANCH  32  33
ENDBRANCH  25  27
ENDBRANCH  24  25
ENDBRANCH  23  24
ENDBRANCH   1  23
TORSDOF 19
ENDMDL
MODEL 3
REMARK VINA RESULT:      -9.2      4.165     11.358
REMARK SMILES C[C@@H](C(=O)OCCOCCOC(=O)c1ccc(-c2c3nc(c(-c4ccc(S(=O)(=O)[O-])cc4)c4ccc([nH]4)c(-c4ccc(S(=O)(=O)[O-])cc4)c4nc(c(-c5ccc(S(=O)(=O)[O-])cc5)c5ccc2[nH]5)C=C4)C=C3)cc1)c1ccc(-c2ccccc2)c(F)c1
REMARK SMILES IDX 9 1 8 2 7 3 6 4 5 5 3 6 4 7 2 8 1 9 74 10 75 11 86 12 76 13
REMARK SMILES IDX 84 14 77 15 85 16 78 17 79 18 83 19 80 20 82 21 81 22 10 23
REMARK SMILES IDX 11 24 12 25 13 26 14 27 15 28 73 29 16 30 72 31 17 32 18 33
REMARK SMILES IDX 19 34 66 35 20 36 71 37 65 38 67 39 21 40 70 41 64 42 63 43
REMARK SMILES IDX 22 45 52 46 33 47 51 48 34 49 37 50 50 51 68 52 35 53 36 54
REMARK SMILES IDX 49 56 69 57 38 58 23 59 24 60 32 61 25 62 31 63 26 64 27 65
REMARK SMILES IDX 28 66 29 67 30 68 53 69 54 70 62 71 55 72 61 73 56 74 57 75
REMARK SMILES IDX 58 76 59 77 60 78 39 79 40 80 48 81 41 82 47 83 42 84 43 85
REMARK SMILES IDX 44 86 45 87 46 88
REMARK H PARENT 67 44 37 55
REMARK Flexibility Score: inf
ROOT
ATOM      1  C   UNL A   1      34.811  31.385  27.653  1.00  0.00     0.202 C 
ENDROOT
BRANCH   1   2
ATOM      2  O   UNL A   1      33.412  31.157  27.464  1.00  0.00    -0.374 OA
BRANCH   2   3
ATOM      3  C   UNL A   1      33.014  29.911  26.891  1.00  0.00     0.202 C 
BRANCH   3   4
ATOM      4  C   UNL A   1      31.839  29.964  25.909  1.00  0.00     0.261 C 
BRANCH   4   5
ATOM      5  O   UNL A   1      31.393  28.638  25.586  1.00  0.00    -0.463 OA
BRANCH   5   6
ATOM      6  C   UNL A   1      31.819  28.144  24.392  1.00  0.00     0.313 C 
ATOM      7  O   UNL A   1      32.512  28.767  23.595  1.00  0.00    -0.252 OA
BRANCH   6   8
ATOM      8  C   UNL A   1      31.444  26.669  24.205  1.00  0.00     0.126 C 
ATOM      9  C   UNL A   1      30.127  26.313  24.913  1.00  0.00     0.025 C 
BRANCH   8  10
ATOM     10  C   UNL A   1      32.582  25.684  24.515  1.00  0.00    -0.031 A 
ATOM     11  C   UNL A   1      32.957  25.348  25.827  1.00  0.00     0.005 A 
ATOM     12  C   UNL A   1      33.361  25.149  23.475  1.00  0.00     0.044 A 
ATOM     13  C   UNL A   1      34.077  24.540  26.087  1.00  0.00     0.012 A 
ATOM     14  C   UNL A   1      34.474  24.343  23.743  1.00  0.00     0.131 A 
ATOM     15  C   UNL A   1      34.872  24.036  25.048  1.00  0.00     0.017 A 
ATOM     16  F   UNL A   1      35.178  23.883  22.696  1.00  0.00    -0.206 F 
BRANCH  15  17
ATOM     17  C   UNL A   1      36.105  23.282  25.343  1.00  0.00    -0.015 A 
ATOM     18  C   UNL A   1      37.223  23.900  25.930  1.00  0.00     0.009 A 
ATOM     19  C   UNL A   1      36.218  21.924  24.993  1.00  0.00     0.009 A 
ATOM     20  C   UNL A   1      38.409  23.189  26.149  1.00  0.00     0.001 A 
ATOM     21  C   UNL A   1      37.402  21.214  25.208  1.00  0.00     0.001 A 
ATOM     22  C   UNL A   1      38.499  21.849  25.783  1.00  0.00     0.000 A 
ENDBRANCH  15  17
ENDBRANCH   8  10
ENDBRANCH   6   8
ENDBRANCH   5   6
ENDBRANCH   4   5
ENDBRANCH   3   4
ENDBRANCH   2   3
ENDBRANCH   1   2
BRANCH   1  23
ATOM     23  C   UNL A   1      35.431  30.901  28.972  1.00  0.00     0.261 C 
BRANCH  23  24
ATOM     24  O   UNL A   1      36.063  29.612  28.860  1.00  0.00    -0.460 OA
BRANCH  24  25
ATOM     25  C   UNL A   1      36.945  29.328  29.850  1.00  0.00     0.338 C 
ATOM     26  O   UNL A   1      36.710  29.268  31.049  1.00  0.00    -0.246 OA
BRANCH  25  27
ATOM     27  C   UNL A   1      38.244  28.914  29.289  1.00  0.00     0.060 A 
ATOM     28  C   UNL A   1      39.155  28.297  30.156  1.00  0.00     0.016 A 
ATOM     29  C   UNL A   1      38.611  29.217  27.977  1.00  0.00     0.016 A 
ATOM     30  C   UNL A   1      40.453  28.023  29.729  1.00  0.00     0.010 A 
ATOM     31  C   UNL A   1      39.919  28.950  27.552  1.00  0.00     0.010 A 
ATOM     32  C   UNL A   1      40.855  28.384  28.436  1.00  0.00    -0.014 A 
BRANCH  32  33
ATOM     33  C   UNL A   1      42.291  28.294  28.068  1.00  0.00     0.031 A 
ATOM     34  C   UNL A   1      43.185  29.484  28.300  1.00  0.00     0.074 A 
ATOM     35  C   UNL A   1      42.805  27.154  27.572  1.00  0.00     0.049 A 
ATOM     36  N   UNL A   1      44.461  29.620  28.047  1.00  0.00    -0.248 NA
ATOM     37  C   UNL A   1      42.557  30.673  28.900  1.00  0.00     0.031 C 
ATOM     38  C   UNL A   1      42.054  25.919  27.340  1.00  0.00     0.029 A 
ATOM     39  N   UNL A   1      44.082  26.852  27.170  1.00  0.00    -0.354 N 
ATOM     40  C   UNL A   1      44.791  30.909  28.453  1.00  0.00     0.074 A 
ATOM     41  C   UNL A   1      43.574  31.522  28.942  1.00  0.00     0.031 C 
ATOM     42  C   UNL A   1      42.886  24.994  26.830  1.00  0.00     0.029 A 
ATOM     43  C   UNL A   1      44.216  25.578  26.671  1.00  0.00     0.049 A 
ATOM     44  H   UNL A   1      44.831  27.487  27.233  1.00  0.00     0.167 HD
ATOM     45  C   UNL A   1      45.997  31.526  28.429  1.00  0.00     0.031 A 
ATOM     46  C   UNL A   1      45.285  24.960  26.130  1.00  0.00     0.031 A 
ATOM     47  C   UNL A   1      47.203  30.924  27.927  1.00  0.00     0.049 A 
ATOM     48  C   UNL A   1      46.600  25.689  26.046  1.00  0.00     0.074 A 
ATOM     49  C   UNL A   1      48.475  31.467  27.864  1.00  0.00     0.029 A 
ATOM     50  N   UNL A   1      47.290  29.645  27.397  1.00  0.00    -0.354 N 
ATOM     51  N   UNL A   1      46.897  26.901  26.450  1.00  0.00    -0.248 NA
ATOM     52  C   UNL A   1      47.725  24.964  25.439  1.00  0.00     0.031 C 
ATOM     53  C   UNL A   1      49.320  30.536  27.249  1.00  0.00     0.029 A 
ATOM     54  C   UNL A   1      48.586  29.391  26.982  1.00  0.00     0.049 A 
ATOM     55  H   UNL A   1      46.539  29.011  27.326  1.00  0.00     0.167 HD
ATOM     56  C   UNL A   1      48.249  27.074  26.169  1.00  0.00     0.074 A 
ATOM     57  C   UNL A   1      48.714  25.839  25.573  1.00  0.00     0.031 C 
ATOM     58  C   UNL A   1      49.035  28.157  26.388  1.00  0.00     0.031 A 
BRANCH  45  59
ATOM     59  C   UNL A   1      46.061  32.942  28.933  1.00  0.00    -0.014 A 
ATOM     60  C   UNL A   1      46.342  33.222  30.283  1.00  0.00     0.010 A 
ATOM     61  C   UNL A   1      45.872  34.011  28.038  1.00  0.00     0.010 A 
ATOM     62  C   UNL A   1      46.394  34.543  30.735  1.00  0.00     0.020 A 
ATOM     63  C   UNL A   1      45.948  35.334  28.482  1.00  0.00     0.020 A 
ATOM     64  C   UNL A   1      46.192  35.591  29.832  1.00  0.00     0.054 A 
BRANCH  64  65
ATOM     65  S   UNL A   1      46.281  37.297  30.442  1.00  0.00     0.124 S 
ATOM     66  O   UNL A   1      45.921  37.132  31.848  1.00  0.00    -0.237 OA
ATOM     67  O   UNL A   1      47.673  37.657  30.190  1.00  0.00    -0.237 OA
ATOM     68  O   UNL A   1      45.299  38.008  29.628  1.00  0.00    -0.744 OA
ENDBRANCH  64  65
ENDBRANCH  45  59
BRANCH  46  69
ATOM     69  C   UNL A   1      45.149  23.575  25.600  1.00  0.00    -0.014 A 
ATOM     70  C   UNL A   1      45.398  22.461  26.420  1.00  0.00     0.010 A 
ATOM     71  C   UNL A   1      44.765  23.368  24.262  1.00  0.00     0.010 A 
ATOM     72  C   UNL A   1      45.278  21.165  25.908  1.00  0.00     0.020 A 
ATOM     73  C   UNL A   1      44.619  22.075  23.755  1.00  0.00     0.020 A 
ATOM     74  C   UNL A   1      44.887  20.980  24.578  1.00  0.00     0.054 A 
BRANCH  74  75
ATOM     75  S   UNL A   1      44.684  19.290  23.949  1.00  0.00     0.124 S 
ATOM     76  O   UNL A   1      44.518  19.517  22.518  1.00  0.00    -0.237 OA
ATOM     77  O   UNL A   1      45.936  18.652  24.349  1.00  0.00    -0.237 OA
ATOM     78  O   UNL A   1      43.497  18.807  24.651  1.00  0.00    -0.744 OA
ENDBRANCH  74  75
ENDBRANCH  46  69
BRANCH  58  79
ATOM     79  C   UNL A   1      50.489  28.049  26.011  1.00  0.00    -0.014 A 
ATOM     80  C   UNL A   1      51.447  27.581  26.927  1.00  0.00     0.010 A 
ATOM     81  C   UNL A   1      50.891  28.369  24.700  1.00  0.00     0.010 A 
ATOM     82  C   UNL A   1      52.787  27.462  26.546  1.00  0.00     0.020 A 
ATOM     83  C   UNL A   1      52.225  28.226  24.310  1.00  0.00     0.020 A 
ATOM     84  C   UNL A   1      53.168  27.787  25.241  1.00  0.00     0.054 A 
BRANCH  84  85
ATOM     85  S   UNL A   1      54.905  27.582  24.758  1.00  0.00     0.124 S 
ATOM     86  O   UNL A   1      55.572  27.498  26.055  1.00  0.00    -0.237 OA
ATOM     87  O   UNL A   1      54.881  26.343  23.984  1.00  0.00    -0.237 OA
ATOM     88  O   UNL A   1      55.195  28.787  23.985  1.00  0.00    -0.744 OA
ENDBRANCH  84  85
ENDBRANCH  58  79
ENDBRANCH  32  33
ENDBRANCH  25  27
ENDBRANCH  24  25
ENDBRANCH  23  24
ENDBRANCH   1  23
TORSDOF 19
ENDMDL
