MODEL 1
REMARK VINA RESULT:      -9.6      0.000      0.000
REMARK SMILES C[C@H](NC(=O)[C@@H](C)Oc1ccc(Cl)cc1Br)C(=O)OCCOCCOC(=O)c1ccc(-c2c3nc(c(-c4ccc(S(=O)(=O)[O-])cc4)c4ccc([nH]4)c(-c4ccc(S(=O)(=O)[O-])cc4)c4nc(c(-c5ccc(S(=O)(=O)[O-])cc5)c5ccc2[nH]5)C=C4)C=C3)cc1
REMARK SMILES IDX 21 1 20 2 19 3 17 4 18 5 2 6 1 7 3 8 4 9 5 11 6 12 7 13 8 14
REMARK SMILES IDX 9 15 10 16 15 17 11 18 14 19 16 20 12 21 13 22 22 23 23 24
REMARK SMILES IDX 24 25 25 26 26 27 27 28 28 29 29 30 87 31 30 32 86 33 31 34
REMARK SMILES IDX 32 35 33 36 80 37 34 38 85 39 79 40 81 41 35 42 84 43 78 44
REMARK SMILES IDX 77 45 36 47 66 48 47 49 65 50 48 51 51 52 64 53 82 54 49 55
REMARK SMILES IDX 50 56 63 58 83 59 52 60 37 61 38 62 46 63 39 64 45 65 40 66
REMARK SMILES IDX 41 67 42 68 43 69 44 70 67 71 68 72 76 73 69 74 75 75 70 76
REMARK SMILES IDX 71 77 72 78 73 79 74 80 53 81 54 82 62 83 55 84 61 85 56 86
REMARK SMILES IDX 57 87 58 88 59 89 60 90
REMARK H PARENT 3 10 81 46 51 57
REMARK Flexibility Score: inf
ROOT
ATOM      1  C   UNL A   1      39.779  22.240  26.668  1.00  0.00     0.202 C 
ENDROOT
BRANCH   1   2
ATOM      2  C   UNL A   1      38.742  21.573  25.754  1.00  0.00     0.261 C 
BRANCH   2   3
ATOM      3  O   UNL A   1      37.629  22.488  25.553  1.00  0.00    -0.462 OA
BRANCH   3   4
ATOM      4  C   UNL A   1      36.460  21.926  25.135  1.00  0.00     0.328 C 
ATOM      5  O   UNL A   1      36.030  20.851  25.540  1.00  0.00    -0.250 OA
BRANCH   4   6
ATOM      6  C   UNL A   1      35.657  22.826  24.147  1.00  0.00     0.189 C 
ATOM      7  C   UNL A   1      36.514  23.012  22.900  1.00  0.00     0.043 C 
BRANCH   6   8
ATOM      8  N   UNL A   1      35.222  24.142  24.653  1.00  0.00    -0.340 N 
ATOM      9  C   UNL A   1      34.130  24.934  24.459  1.00  0.00     0.261 C 
ATOM     10  H   UNL A   1      35.871  24.540  25.276  1.00  0.00     0.164 HD
ATOM     11  O   UNL A   1      34.147  26.002  25.090  1.00  0.00    -0.271 OA
BRANCH   9  12
ATOM     12  C   UNL A   1      32.886  24.621  23.548  1.00  0.00     0.258 C 
ATOM     13  C   UNL A   1      33.157  24.453  22.055  1.00  0.00     0.064 C 
BRANCH  12  14
ATOM     14  O   UNL A   1      31.808  23.781  24.003  1.00  0.00    -0.480 OA
BRANCH  14  15
ATOM     15  C   UNL A   1      32.092  22.468  24.234  1.00  0.00     0.134 A 
ATOM     16  C   UNL A   1      32.261  21.602  23.175  1.00  0.00     0.049 A 
ATOM     17  C   UNL A   1      32.310  21.968  25.521  1.00  0.00     0.061 A 
ATOM     18  C   UNL A   1      32.439  20.234  23.372  1.00  0.00     0.024 A 
ATOM     19  C   UNL A   1      32.598  20.607  25.725  1.00  0.00     0.040 A 
ATOM     20  Br  UNL A   1      32.244  23.096  27.040  1.00  0.00    -0.047 Br
ATOM     21  C   UNL A   1      32.633  19.739  24.642  1.00  0.00     0.042 A 
ATOM     22  Cl  UNL A   1      32.984  18.070  24.842  1.00  0.00    -0.084 Cl
ENDBRANCH  14  15
ENDBRANCH  12  14
ENDBRANCH   9  12
ENDBRANCH   6   8
ENDBRANCH   4   6
ENDBRANCH   3   4
ENDBRANCH   2   3
ENDBRANCH   1   2
BRANCH   1  23
ATOM     23  O   UNL A   1      41.077  22.091  26.107  1.00  0.00    -0.374 OA
BRANCH  23  24
ATOM     24  C   UNL A   1      42.181  22.721  26.764  1.00  0.00     0.202 C 
BRANCH  24  25
ATOM     25  C   UNL A   1      42.396  24.186  26.335  1.00  0.00     0.261 C 
BRANCH  25  26
ATOM     26  O   UNL A   1      41.883  25.100  27.313  1.00  0.00    -0.460 OA
BRANCH  26  27
ATOM     27  C   UNL A   1      41.122  26.078  26.774  1.00  0.00     0.338 C 
ATOM     28  O   UNL A   1      40.654  26.106  25.645  1.00  0.00    -0.246 OA
BRANCH  27  29
ATOM     29  C   UNL A   1      40.641  26.915  27.879  1.00  0.00     0.060 A 
ATOM     30  C   UNL A   1      41.143  28.221  27.943  1.00  0.00     0.016 A 
ATOM     31  C   UNL A   1      39.690  26.457  28.795  1.00  0.00     0.016 A 
ATOM     32  C   UNL A   1      40.781  29.039  28.999  1.00  0.00     0.010 A 
ATOM     33  C   UNL A   1      39.334  27.277  29.863  1.00  0.00     0.010 A 
ATOM     34  C   UNL A   1      39.937  28.538  29.998  1.00  0.00    -0.014 A 
BRANCH  34  35
ATOM     35  C   UNL A   1      39.925  29.249  31.290  1.00  0.00     0.031 A 
ATOM     36  C   UNL A   1      41.053  28.975  32.247  1.00  0.00     0.074 A 
ATOM     37  C   UNL A   1      39.015  30.209  31.525  1.00  0.00     0.049 A 
ATOM     38  N   UNL A   1      41.321  29.539  33.394  1.00  0.00    -0.248 NA
ATOM     39  C   UNL A   1      42.017  27.929  31.854  1.00  0.00     0.031 C 
ATOM     40  C   UNL A   1      37.926  30.579  30.620  1.00  0.00     0.029 A 
ATOM     41  N   UNL A   1      38.882  31.063  32.585  1.00  0.00    -0.354 N 
ATOM     42  C   UNL A   1      42.484  28.927  33.849  1.00  0.00     0.074 A 
ATOM     43  C   UNL A   1      42.847  27.919  32.884  1.00  0.00     0.031 C 
ATOM     44  C   UNL A   1      37.237  31.595  31.164  1.00  0.00     0.029 A 
ATOM     45  C   UNL A   1      37.819  31.923  32.463  1.00  0.00     0.049 A 
ATOM     46  H   UNL A   1      39.488  31.061  33.360  1.00  0.00     0.167 HD
ATOM     47  C   UNL A   1      43.192  29.197  34.970  1.00  0.00     0.031 A 
ATOM     48  C   UNL A   1      37.364  32.858  33.318  1.00  0.00     0.031 A 
ATOM     49  C   UNL A   1      42.798  30.195  35.928  1.00  0.00     0.049 A 
ATOM     50  C   UNL A   1      38.126  33.085  34.597  1.00  0.00     0.074 A 
ATOM     51  C   UNL A   1      43.418  30.544  37.114  1.00  0.00     0.029 A 
ATOM     52  N   UNL A   1      41.678  31.005  35.804  1.00  0.00    -0.354 N 
ATOM     53  N   UNL A   1      39.224  32.497  35.019  1.00  0.00    -0.248 NA
ATOM     54  C   UNL A   1      37.601  34.110  35.505  1.00  0.00     0.031 C 
ATOM     55  C   UNL A   1      42.637  31.524  37.736  1.00  0.00     0.029 A 
ATOM     56  C   UNL A   1      41.571  31.836  36.904  1.00  0.00     0.049 A 
ATOM     57  H   UNL A   1      41.051  30.989  35.045  1.00  0.00     0.167 HD
ATOM     58  C   UNL A   1      39.527  33.093  36.237  1.00  0.00     0.074 A 
ATOM     59  C   UNL A   1      38.520  34.112  36.461  1.00  0.00     0.031 C 
ATOM     60  C   UNL A   1      40.540  32.825  37.101  1.00  0.00     0.031 A 
BRANCH  47  61
ATOM     61  C   UNL A   1      44.432  28.384  35.229  1.00  0.00    -0.014 A 
ATOM     62  C   UNL A   1      45.687  28.785  34.731  1.00  0.00     0.010 A 
ATOM     63  C   UNL A   1      44.353  27.221  36.015  1.00  0.00     0.010 A 
ATOM     64  C   UNL A   1      46.831  28.029  34.999  1.00  0.00     0.020 A 
ATOM     65  C   UNL A   1      45.499  26.476  36.308  1.00  0.00     0.020 A 
ATOM     66  C   UNL A   1      46.731  26.881  35.791  1.00  0.00     0.054 A 
BRANCH  66  67
ATOM     67  S   UNL A   1      48.241  25.949  36.167  1.00  0.00     0.124 S 
ATOM     68  O   UNL A   1      47.925  25.371  37.470  1.00  0.00    -0.237 OA
ATOM     69  O   UNL A   1      48.312  25.000  35.059  1.00  0.00    -0.237 OA
ATOM     70  O   UNL A   1      49.287  26.969  36.176  1.00  0.00    -0.744 OA
ENDBRANCH  66  67
ENDBRANCH  47  61
BRANCH  48  71
ATOM     71  C   UNL A   1      36.113  33.605  33.011  1.00  0.00    -0.014 A 
ATOM     72  C   UNL A   1      34.846  33.049  33.255  1.00  0.00     0.010 A 
ATOM     73  C   UNL A   1      36.194  34.899  32.460  1.00  0.00     0.010 A 
ATOM     74  C   UNL A   1      33.687  33.760  32.927  1.00  0.00     0.020 A 
ATOM     75  C   UNL A   1      35.040  35.626  32.164  1.00  0.00     0.020 A 
ATOM     76  C   UNL A   1      33.792  35.044  32.384  1.00  0.00     0.054 A 
BRANCH  76  77
ATOM     77  S   UNL A   1      32.276  35.961  31.993  1.00  0.00     0.124 S 
ATOM     78  O   UNL A   1      32.273  35.932  30.534  1.00  0.00    -0.237 OA
ATOM     79  O   UNL A   1      31.246  35.157  32.646  1.00  0.00    -0.237 OA
ATOM     80  O   UNL A   1      32.507  37.274  32.593  1.00  0.00    -0.744 OA
ENDBRANCH  76  77
ENDBRANCH  48  71
BRANCH  60  81
ATOM     81  C   UNL A   1      40.603  33.663  38.350  1.00  0.00    -0.014 A 
ATOM     82  C   UNL A   1      39.876  33.309  39.501  1.00  0.00     0.010 A 
ATOM     83  C   UNL A   1      41.407  34.817  38.372  1.00  0.00     0.010 A 
ATOM     84  C   UNL A   1      39.900  34.132  40.628  1.00  0.00     0.020 A 
ATOM     85  C   UNL A   1      41.463  35.622  39.511  1.00  0.00     0.020 A 
ATOM     86  C   UNL A   1      40.687  35.287  40.623  1.00  0.00     0.054 A 
BRANCH  86  87
ATOM     87  S   UNL A   1      40.693  36.342  42.096  1.00  0.00     0.124 S 
ATOM     88  O   UNL A   1      41.566  35.597  42.998  1.00  0.00    -0.237 OA
ATOM     89  O   UNL A   1      41.238  37.599  41.587  1.00  0.00    -0.237 OA
ATOM     90  O   UNL A   1      39.287  36.394  42.491  1.00  0.00    -0.744 OA
ENDBRANCH  86  87
ENDBRANCH  60  81
ENDBRANCH  34  35
ENDBRANCH  27  29
ENDBRANCH  26  27
ENDBRANCH  25  26
ENDBRANCH  24  25
ENDBRANCH  23  24
ENDBRANCH   1  23
TORSDOF 21
ENDMDL
MODEL 2
REMARK VINA RESULT:      -9.6      1.918      2.703
REMARK SMILES C[C@H](NC(=O)[C@@H](C)Oc1ccc(Cl)cc1Br)C(=O)OCCOCCOC(=O)c1ccc(-c2c3nc(c(-c4ccc(S(=O)(=O)[O-])cc4)c4ccc([nH]4)c(-c4ccc(S(=O)(=O)[O-])cc4)c4nc(c(-c5ccc(S(=O)(=O)[O-])cc5)c5ccc2[nH]5)C=C4)C=C3)cc1
REMARK SMILES IDX 21 1 20 2 19 3 17 4 18 5 2 6 1 7 3 8 4 9 5 11 6 12 7 13 8 14
REMARK SMILES IDX 9 15 10 16 15 17 11 18 14 19 16 20 12 21 13 22 22 23 23 24
REMARK SMILES IDX 24 25 25 26 26 27 27 28 28 29 29 30 87 31 30 32 86 33 31 34
REMARK SMILES IDX 32 35 33 36 80 37 34 38 85 39 79 40 81 41 35 42 84 43 78 44
REMARK SMILES IDX 77 45 36 47 66 48 47 49 65 50 48 51 51 52 64 53 82 54 49 55
REMARK SMILES IDX 50 56 63 58 83 59 52 60 37 61 38 62 46 63 39 64 45 65 40 66
REMARK SMILES IDX 41 67 42 68 43 69 44 70 67 71 68 72 76 73 69 74 75 75 70 76
REMARK SMILES IDX 71 77 72 78 73 79 74 80 53 81 54 82 62 83 55 84 61 85 56 86
REMARK SMILES IDX 57 87 58 88 59 89 60 90
REMARK H PARENT 3 10 81 46 51 57
REMARK Flexibility Score: inf
ROOT
ATOM      1  C   UNL A   1      38.174  20.956  25.461  1.00  0.00     0.202 C 
ENDROOT
BRANCH   1   2
ATOM      2  C   UNL A   1      36.925  21.821  25.239  1.00  0.00     0.261 C 
BRANCH   2   3
ATOM      3  O   UNL A   1      35.788  20.953  24.974  1.00  0.00    -0.462 OA
BRANCH   3   4
ATOM      4  C   UNL A   1      34.666  21.196  25.708  1.00  0.00     0.328 C 
ATOM      5  O   UNL A   1      34.662  21.358  26.924  1.00  0.00    -0.250 OA
BRANCH   4   6
ATOM      6  C   UNL A   1      33.378  21.344  24.842  1.00  0.00     0.189 C 
ATOM      7  C   UNL A   1      32.854  19.939  24.561  1.00  0.00     0.043 C 
BRANCH   6   8
ATOM      8  N   UNL A   1      33.512  22.087  23.575  1.00  0.00    -0.340 N 
ATOM      9  C   UNL A   1      33.535  23.406  23.232  1.00  0.00     0.261 C 
ATOM     10  H   UNL A   1      33.608  21.493  22.797  1.00  0.00     0.164 HD
ATOM     11  O   UNL A   1      33.668  23.623  22.018  1.00  0.00    -0.271 OA
BRANCH   9  12
ATOM     12  C   UNL A   1      33.426  24.637  24.206  1.00  0.00     0.258 C 
ATOM     13  C   UNL A   1      34.195  24.538  25.521  1.00  0.00     0.064 C 
BRANCH  12  14
ATOM     14  O   UNL A   1      33.363  25.989  23.713  1.00  0.00    -0.480 OA
BRANCH  14  15
ATOM     15  C   UNL A   1      32.128  26.548  23.575  1.00  0.00     0.134 A 
ATOM     16  C   UNL A   1      31.005  25.844  23.955  1.00  0.00     0.049 A 
ATOM     17  C   UNL A   1      31.951  27.864  23.137  1.00  0.00     0.061 A 
ATOM     18  C   UNL A   1      29.722  26.336  23.724  1.00  0.00     0.024 A 
ATOM     19  C   UNL A   1      30.662  28.409  23.003  1.00  0.00     0.040 A 
ATOM     20  Br  UNL A   1      33.428  28.972  22.722  1.00  0.00    -0.047 Br
ATOM     21  C   UNL A   1      29.548  27.626  23.273  1.00  0.00     0.042 A 
ATOM     22  Cl  UNL A   1      27.956  28.251  23.126  1.00  0.00    -0.084 Cl
ENDBRANCH  14  15
ENDBRANCH  12  14
ENDBRANCH   9  12
ENDBRANCH   6   8
ENDBRANCH   4   6
ENDBRANCH   3   4
ENDBRANCH   2   3
ENDBRANCH   1   2
BRANCH   1  23
ATOM     23  O   UNL A   1      39.302  21.793  25.685  1.00  0.00    -0.374 OA
BRANCH  23  24
ATOM     24  C   UNL A   1      39.270  22.700  26.790  1.00  0.00     0.202 C 
BRANCH  24  25
ATOM     25  C   UNL A   1      40.324  23.822  26.694  1.00  0.00     0.261 C 
BRANCH  25  26
ATOM     26  O   UNL A   1      39.716  25.090  26.415  1.00  0.00    -0.460 OA
BRANCH  26  27
ATOM     27  C   UNL A   1      40.582  26.123  26.508  1.00  0.00     0.338 C 
ATOM     28  O   UNL A   1      41.370  26.498  25.652  1.00  0.00    -0.246 OA
BRANCH  27  29
ATOM     29  C   UNL A   1      40.161  26.945  27.648  1.00  0.00     0.060 A 
ATOM     30  C   UNL A   1      40.652  28.256  27.693  1.00  0.00     0.016 A 
ATOM     31  C   UNL A   1      39.274  26.467  28.616  1.00  0.00     0.016 A 
ATOM     32  C   UNL A   1      40.346  29.061  28.776  1.00  0.00     0.010 A 
ATOM     33  C   UNL A   1      38.975  27.274  29.712  1.00  0.00     0.010 A 
ATOM     34  C   UNL A   1      39.571  28.541  29.821  1.00  0.00    -0.014 A 
BRANCH  34  35
ATOM     35  C   UNL A   1      39.631  29.241  31.118  1.00  0.00     0.031 A 
ATOM     36  C   UNL A   1      40.796  28.937  32.021  1.00  0.00     0.074 A 
ATOM     37  C   UNL A   1      38.752  30.216  31.401  1.00  0.00     0.049 A 
ATOM     38  N   UNL A   1      41.127  29.487  33.158  1.00  0.00    -0.248 NA
ATOM     39  C   UNL A   1      41.721  27.877  31.576  1.00  0.00     0.031 C 
ATOM     40  C   UNL A   1      37.630  30.614  30.549  1.00  0.00     0.029 A 
ATOM     41  N   UNL A   1      38.683  31.063  32.472  1.00  0.00    -0.354 N 
ATOM     42  C   UNL A   1      42.297  28.849  33.556  1.00  0.00     0.074 A 
ATOM     43  C   UNL A   1      42.597  27.842  32.567  1.00  0.00     0.031 C 
ATOM     44  C   UNL A   1      36.987  31.639  31.132  1.00  0.00     0.029 A 
ATOM     45  C   UNL A   1      37.633  31.944  32.406  1.00  0.00     0.049 A 
ATOM     46  H   UNL A   1      39.324  31.043  33.220  1.00  0.00     0.167 HD
ATOM     47  C   UNL A   1      43.060  29.096  34.645  1.00  0.00     0.031 A 
ATOM     48  C   UNL A   1      37.236  32.880  33.288  1.00  0.00     0.031 A 
ATOM     49  C   UNL A   1      42.729  30.093  35.628  1.00  0.00     0.049 A 
ATOM     50  C   UNL A   1      38.058  33.081  34.532  1.00  0.00     0.074 A 
ATOM     51  C   UNL A   1      43.408  30.420  36.787  1.00  0.00     0.029 A 
ATOM     52  N   UNL A   1      41.620  30.925  35.561  1.00  0.00    -0.354 N 
ATOM     53  N   UNL A   1      39.163  32.469  34.900  1.00  0.00    -0.248 NA
ATOM     54  C   UNL A   1      37.595  34.109  35.471  1.00  0.00     0.031 C 
ATOM     55  C   UNL A   1      42.675  31.409  37.451  1.00  0.00     0.029 A 
ATOM     56  C   UNL A   1      41.580  31.748  36.671  1.00  0.00     0.049 A 
ATOM     57  H   UNL A   1      40.959  30.927  34.831  1.00  0.00     0.167 HD
ATOM     58  C   UNL A   1      39.532  33.049  36.107  1.00  0.00     0.074 A 
ATOM     59  C   UNL A   1      38.556  34.085  36.384  1.00  0.00     0.031 C 
ATOM     60  C   UNL A   1      40.578  32.754  36.922  1.00  0.00     0.031 A 
BRANCH  47  61
ATOM     61  C   UNL A   1      44.295  28.257  34.841  1.00  0.00    -0.014 A 
ATOM     62  C   UNL A   1      45.542  28.660  34.326  1.00  0.00     0.010 A 
ATOM     63  C   UNL A   1      44.219  27.066  35.585  1.00  0.00     0.010 A 
ATOM     64  C   UNL A   1      46.682  27.878  34.535  1.00  0.00     0.020 A 
ATOM     65  C   UNL A   1      45.362  26.296  35.821  1.00  0.00     0.020 A 
ATOM     66  C   UNL A   1      46.586  26.703  35.287  1.00  0.00     0.054 A 
BRANCH  66  67
ATOM     67  S   UNL A   1      48.092  25.738  35.588  1.00  0.00     0.124 S 
ATOM     68  O   UNL A   1      47.548  24.426  35.930  1.00  0.00    -0.237 OA
ATOM     69  O   UNL A   1      48.782  25.817  34.303  1.00  0.00    -0.237 OA
ATOM     70  O   UNL A   1      48.745  26.445  36.686  1.00  0.00    -0.744 OA
ENDBRANCH  66  67
ENDBRANCH  47  61
BRANCH  48  71
ATOM     71  C   UNL A   1      35.987  33.654  33.044  1.00  0.00    -0.014 A 
ATOM     72  C   UNL A   1      34.726  33.143  33.396  1.00  0.00     0.010 A 
ATOM     73  C   UNL A   1      36.063  34.926  32.444  1.00  0.00     0.010 A 
ATOM     74  C   UNL A   1      33.566  33.877  33.125  1.00  0.00     0.020 A 
ATOM     75  C   UNL A   1      34.911  35.676  32.205  1.00  0.00     0.020 A 
ATOM     76  C   UNL A   1      33.667  35.140  32.532  1.00  0.00     0.054 A 
BRANCH  76  77
ATOM     77  S   UNL A   1      32.152  36.087  32.216  1.00  0.00     0.124 S 
ATOM     78  O   UNL A   1      31.114  35.109  32.524  1.00  0.00    -0.237 OA
ATOM     79  O   UNL A   1      32.276  37.199  33.154  1.00  0.00    -0.237 OA
ATOM     80  O   UNL A   1      32.268  36.455  30.806  1.00  0.00    -0.744 OA
ENDBRANCH  76  77
ENDBRANCH  48  71
BRANCH  60  81
ATOM     81  C   UNL A   1      40.713  33.580  38.174  1.00  0.00    -0.014 A 
ATOM     82  C   UNL A   1      40.225  33.116  39.408  1.00  0.00     0.010 A 
ATOM     83  C   UNL A   1      41.344  34.836  38.112  1.00  0.00     0.010 A 
ATOM     84  C   UNL A   1      40.306  33.922  40.545  1.00  0.00     0.020 A 
ATOM     85  C   UNL A   1      41.461  35.629  39.254  1.00  0.00     0.020 A 
ATOM     86  C   UNL A   1      40.917  35.177  40.459  1.00  0.00     0.054 A 
BRANCH  86  87
ATOM     87  S   UNL A   1      41.000  36.207  41.946  1.00  0.00     0.124 S 
ATOM     88  O   UNL A   1      40.129  37.324  41.590  1.00  0.00    -0.237 OA
ATOM     89  O   UNL A   1      40.488  35.315  42.983  1.00  0.00    -0.237 OA
ATOM     90  O   UNL A   1      42.420  36.536  42.061  1.00  0.00    -0.744 OA
ENDBRANCH  86  87
ENDBRANCH  60  81
ENDBRANCH  34  35
ENDBRANCH  27  29
ENDBRANCH  26  27
ENDBRANCH  25  26
ENDBRANCH  24  25
ENDBRANCH  23  24
ENDBRANCH   1  23
TORSDOF 21
ENDMDL
MODEL 3
REMARK VINA RESULT:      -9.4      2.224      8.710
REMARK SMILES C[C@H](NC(=O)[C@@H](C)Oc1ccc(Cl)cc1Br)C(=O)OCCOCCOC(=O)c1ccc(-c2c3nc(c(-c4ccc(S(=O)(=O)[O-])cc4)c4ccc([nH]4)c(-c4ccc(S(=O)(=O)[O-])cc4)c4nc(c(-c5ccc(S(=O)(=O)[O-])cc5)c5ccc2[nH]5)C=C4)C=C3)cc1
REMARK SMILES IDX 21 1 20 2 19 3 17 4 18 5 2 6 1 7 3 8 4 9 5 11 6 12 7 13 8 14
REMARK SMILES IDX 9 15 10 16 15 17 11 18 14 19 16 20 12 21 13 22 22 23 23 24
REMARK SMILES IDX 24 25 25 26 26 27 27 28 28 29 29 30 87 31 30 32 86 33 31 34
REMARK SMILES IDX 32 35 33 36 80 37 34 38 85 39 79 40 81 41 35 42 84 43 78 44
REMARK SMILES IDX 77 45 36 47 66 48 47 49 65 50 48 51 51 52 64 53 82 54 49 55
REMARK SMILES IDX 50 56 63 58 83 59 52 60 37 61 38 62 46 63 39 64 45 65 40 66
REMARK SMILES IDX 41 67 42 68 43 69 44 70 67 71 68 72 76 73 69 74 75 75 70 76
REMARK SMILES IDX 71 77 72 78 73 79 74 80 53 81 54 82 62 83 55 84 61 85 56 86
REMARK SMILES IDX 57 87 58 88 59 89 60 90
REMARK H PARENT 3 10 81 46 51 57
REMARK Flexibility Score: inf
ROOT
ATOM      1  C   UNL A   1      37.450  21.390  24.678  1.00  0.00     0.202 C 
ENDROOT
BRANCH   1   2
ATOM      2  C   UNL A   1      36.559  22.510  24.123  1.00  0.00     0.261 C 
BRANCH   2   3
ATOM      3  O   UNL A   1      35.173  22.068  24.147  1.00  0.00    -0.462 OA
BRANCH   3   4
ATOM      4  C   UNL A   1      34.331  22.785  24.944  1.00  0.00     0.328 C 
ATOM      5  O   UNL A   1      34.624  23.195  26.062  1.00  0.00    -0.250 OA
BRANCH   4   6
ATOM      6  C   UNL A   1      32.971  23.124  24.261  1.00  0.00     0.189 C 
ATOM      7  C   UNL A   1      32.093  21.881  24.350  1.00  0.00     0.043 C 
BRANCH   6   8
ATOM      8  N   UNL A   1      33.029  23.594  22.864  1.00  0.00    -0.340 N 
ATOM      9  C   UNL A   1      33.116  24.814  22.262  1.00  0.00     0.261 C 
ATOM     10  H   UNL A   1      32.998  22.855  22.216  1.00  0.00     0.164 HD
ATOM     11  O   UNL A   1      33.138  24.779  21.022  1.00  0.00    -0.271 OA
BRANCH   9  12
ATOM     12  C   UNL A   1      33.201  26.214  22.974  1.00  0.00     0.258 C 
ATOM     13  C   UNL A   1      33.670  27.389  22.119  1.00  0.00     0.064 C 
BRANCH  12  14
ATOM     14  O   UNL A   1      32.241  26.616  23.970  1.00  0.00    -0.480 OA
BRANCH  14  15
ATOM     15  C   UNL A   1      32.589  27.643  24.796  1.00  0.00     0.134 A 
ATOM     16  C   UNL A   1      33.701  27.534  25.602  1.00  0.00     0.049 A 
ATOM     17  C   UNL A   1      31.903  28.861  24.798  1.00  0.00     0.061 A 
ATOM     18  C   UNL A   1      34.021  28.514  26.540  1.00  0.00     0.024 A 
ATOM     19  C   UNL A   1      32.286  29.900  25.665  1.00  0.00     0.040 A 
ATOM     20  Br  UNL A   1      30.447  29.174  23.630  1.00  0.00    -0.047 Br
ATOM     21  C   UNL A   1      33.333  29.707  26.555  1.00  0.00     0.042 A 
ATOM     22  Cl  UNL A   1      33.837  30.947  27.630  1.00  0.00    -0.084 Cl
ENDBRANCH  14  15
ENDBRANCH  12  14
ENDBRANCH   9  12
ENDBRANCH   6   8
ENDBRANCH   4   6
ENDBRANCH   3   4
ENDBRANCH   2   3
ENDBRANCH   1   2
BRANCH   1  23
ATOM     23  O   UNL A   1      37.996  21.788  25.929  1.00  0.00    -0.374 OA
BRANCH  23  24
ATOM     24  C   UNL A   1      37.872  23.158  26.323  1.00  0.00     0.202 C 
BRANCH  24  25
ATOM     25  C   UNL A   1      39.226  23.850  26.577  1.00  0.00     0.261 C 
BRANCH  25  26
ATOM     26  O   UNL A   1      39.077  25.270  26.688  1.00  0.00    -0.460 OA
BRANCH  26  27
ATOM     27  C   UNL A   1      40.250  25.912  26.881  1.00  0.00     0.338 C 
ATOM     28  O   UNL A   1      41.194  25.964  26.105  1.00  0.00    -0.246 OA
BRANCH  27  29
ATOM     29  C   UNL A   1      40.063  26.839  28.003  1.00  0.00     0.060 A 
ATOM     30  C   UNL A   1      40.642  28.108  27.873  1.00  0.00     0.016 A 
ATOM     31  C   UNL A   1      39.303  26.498  29.124  1.00  0.00     0.016 A 
ATOM     32  C   UNL A   1      40.558  29.005  28.923  1.00  0.00     0.010 A 
ATOM     33  C   UNL A   1      39.228  27.398  30.185  1.00  0.00     0.010 A 
ATOM     34  C   UNL A   1      39.917  28.619  30.107  1.00  0.00    -0.014 A 
BRANCH  34  35
ATOM     35  C   UNL A   1      40.219  29.398  31.323  1.00  0.00     0.031 A 
ATOM     36  C   UNL A   1      39.232  30.455  31.736  1.00  0.00     0.074 A 
ATOM     37  C   UNL A   1      41.264  29.063  32.097  1.00  0.00     0.049 A 
ATOM     38  N   UNL A   1      39.219  31.201  32.808  1.00  0.00    -0.248 NA
ATOM     39  C   UNL A   1      38.098  30.698  30.823  1.00  0.00     0.031 C 
ATOM     40  C   UNL A   1      42.232  28.008  31.798  1.00  0.00     0.029 A 
ATOM     41  N   UNL A   1      41.665  29.561  33.306  1.00  0.00    -0.354 N 
ATOM     42  C   UNL A   1      38.077  31.989  32.701  1.00  0.00     0.074 A 
ATOM     43  C   UNL A   1      37.446  31.667  31.445  1.00  0.00     0.031 C 
ATOM     44  C   UNL A   1      43.117  27.933  32.807  1.00  0.00     0.029 A 
ATOM     45  C   UNL A   1      42.792  28.951  33.801  1.00  0.00     0.049 A 
ATOM     46  H   UNL A   1      41.193  30.286  33.776  1.00  0.00     0.167 HD
ATOM     47  C   UNL A   1      37.593  32.891  33.586  1.00  0.00     0.031 A 
ATOM     48  C   UNL A   1      43.485  29.206  34.926  1.00  0.00     0.031 A 
ATOM     49  C   UNL A   1      38.251  33.209  34.825  1.00  0.00     0.049 A 
ATOM     50  C   UNL A   1      42.969  30.270  35.857  1.00  0.00     0.074 A 
ATOM     51  C   UNL A   1      37.874  34.121  35.792  1.00  0.00     0.029 A 
ATOM     52  N   UNL A   1      39.427  32.617  35.265  1.00  0.00    -0.354 N 
ATOM     53  N   UNL A   1      41.888  31.012  35.744  1.00  0.00    -0.248 NA
ATOM     54  C   UNL A   1      43.750  30.521  37.073  1.00  0.00     0.031 C 
ATOM     55  C   UNL A   1      38.856  34.125  36.789  1.00  0.00     0.029 A 
ATOM     56  C   UNL A   1      39.806  33.163  36.478  1.00  0.00     0.049 A 
ATOM     57  H   UNL A   1      39.920  31.914  34.783  1.00  0.00     0.167 HD
ATOM     58  C   UNL A   1      41.856  31.808  36.883  1.00  0.00     0.074 A 
ATOM     59  C   UNL A   1      43.001  31.427  37.687  1.00  0.00     0.031 C 
ATOM     60  C   UNL A   1      40.967  32.771  37.238  1.00  0.00     0.031 A 
BRANCH  47  61
ATOM     61  C   UNL A   1      36.320  33.611  33.229  1.00  0.00    -0.014 A 
ATOM     62  C   UNL A   1      36.344  34.851  32.564  1.00  0.00     0.010 A 
ATOM     63  C   UNL A   1      35.078  33.022  33.526  1.00  0.00     0.010 A 
ATOM     64  C   UNL A   1      35.151  35.496  32.222  1.00  0.00     0.020 A 
ATOM     65  C   UNL A   1      33.884  33.649  33.161  1.00  0.00     0.020 A 
ATOM     66  C   UNL A   1      33.928  34.888  32.518  1.00  0.00     0.054 A 
BRANCH  66  67
ATOM     67  S   UNL A   1      32.397  35.721  32.014  1.00  0.00     0.124 S 
ATOM     68  O   UNL A   1      31.383  34.955  32.733  1.00  0.00    -0.237 OA
ATOM     69  O   UNL A   1      32.608  37.087  32.489  1.00  0.00    -0.237 OA
ATOM     70  O   UNL A   1      32.379  35.567  30.561  1.00  0.00    -0.744 OA
ENDBRANCH  66  67
ENDBRANCH  47  61
BRANCH  48  71
ATOM     71  C   UNL A   1      44.753  28.475  35.203  1.00  0.00    -0.014 A 
ATOM     72  C   UNL A   1      44.768  27.292  35.962  1.00  0.00     0.010 A 
ATOM     73  C   UNL A   1      45.968  28.976  34.699  1.00  0.00     0.010 A 
ATOM     74  C   UNL A   1      45.977  26.643  36.234  1.00  0.00     0.020 A 
ATOM     75  C   UNL A   1      47.173  28.313  34.939  1.00  0.00     0.020 A 
ATOM     76  C   UNL A   1      47.172  27.158  35.720  1.00  0.00     0.054 A 
BRANCH  76  77
ATOM     77  S   UNL A   1      48.725  26.285  36.062  1.00  0.00     0.124 S 
ATOM     78  O   UNL A   1      49.522  26.615  34.885  1.00  0.00    -0.237 OA
ATOM     79  O   UNL A   1      49.160  26.896  37.315  1.00  0.00    -0.237 OA
ATOM     80  O   UNL A   1      48.313  24.886  36.168  1.00  0.00    -0.744 OA
ENDBRANCH  76  77
ENDBRANCH  48  71
BRANCH  60  81
ATOM     81  C   UNL A   1      41.205  33.458  38.556  1.00  0.00    -0.014 A 
ATOM     82  C   UNL A   1      40.674  32.942  39.752  1.00  0.00     0.010 A 
ATOM     83  C   UNL A   1      41.976  34.633  38.597  1.00  0.00     0.010 A 
ATOM     84  C   UNL A   1      40.855  33.626  40.955  1.00  0.00     0.020 A 
ATOM     85  C   UNL A   1      42.192  35.300  39.805  1.00  0.00     0.020 A 
ATOM     86  C   UNL A   1      41.606  34.805  40.972  1.00  0.00     0.054 A 
BRANCH  86  87
ATOM     87  S   UNL A   1      41.818  35.679  42.545  1.00  0.00     0.124 S 
ATOM     88  O   UNL A   1      40.440  35.792  43.015  1.00  0.00    -0.237 OA
ATOM     89  O   UNL A   1      42.670  34.767  43.306  1.00  0.00    -0.237 OA
ATOM     90  O   UNL A   1      42.451  36.938  42.160  1.00  0.00    -0.744 OA
ENDBRANCH  86  87
ENDBRANCH  60  81
ENDBRANCH  34  35
ENDBRANCH  27  29
ENDBRANCH  26  27
ENDBRANCH  25  26
ENDBRANCH  24  25
ENDBRANCH  23  24
ENDBRANCH   1  23
TORSDOF 21
ENDMDL
