MODEL 1
REMARK VINA RESULT:     -11.0      0.000      0.000
REMARK SMILES CC1=C[C@@H]([C@@H]2N=N[C@H](S)N2/N=C/c2ccc(C(=O)OCCOCCOC(=O)c3ccc(-c4c5nc(c(-c6ccc(S(=O)(=O)[O-])cc6)c6ccc([nH]6)c(-c6ccc(S(=O)(=O)[O-])cc6)c6nc(c(-c7ccc(S(=O)(=O)[O-])cc7)c7ccc4[nH]7)C=C6)C=C5)cc3)cc2)N=N1
REMARK SMILES IDX 22 1 21 2 20 3 19 4 17 5 18 6 16 7 13 8 14 9 89 10 15 11
REMARK SMILES IDX 88 12 12 13 11 14 10 15 5 16 6 17 7 18 8 19 4 20 1 21 2 22
REMARK SMILES IDX 3 23 91 24 90 25 9 26 23 28 24 29 25 30 26 31 27 32 28 33
REMARK SMILES IDX 29 34 87 35 30 36 86 37 31 38 32 39 33 40 80 41 34 42 85 43
REMARK SMILES IDX 79 44 81 45 35 46 84 47 78 48 77 49 36 51 66 52 47 53 65 54
REMARK SMILES IDX 48 55 51 56 64 57 82 58 49 59 50 60 63 62 83 63 52 64 37 65
REMARK SMILES IDX 38 66 46 67 39 68 45 69 40 70 41 71 42 72 43 73 44 74 67 75
REMARK SMILES IDX 68 76 76 77 69 78 75 79 70 80 71 81 72 82 73 83 74 84 53 85
REMARK SMILES IDX 54 86 62 87 55 88 61 89 56 90 57 91 58 92 59 93 60 94
REMARK H PARENT 9 27 81 50 51 61
REMARK Flexibility Score: inf
ROOT
ATOM      1  O   UNL A   1      41.783  19.841  27.531  1.00  0.00    -0.374 OA
ENDROOT
BRANCH   1   2
ATOM      2  C   UNL A   1      41.170  21.128  27.576  1.00  0.00     0.202 C 
BRANCH   2   3
ATOM      3  C   UNL A   1      40.784  21.801  26.258  1.00  0.00     0.261 C 
BRANCH   3   4
ATOM      4  O   UNL A   1      39.430  22.279  26.249  1.00  0.00    -0.460 OA
BRANCH   4   5
ATOM      5  C   UNL A   1      38.586  21.521  25.510  1.00  0.00     0.338 C 
ATOM      6  O   UNL A   1      38.630  20.312  25.347  1.00  0.00    -0.246 OA
BRANCH   5   7
ATOM      7  C   UNL A   1      37.445  22.325  25.030  1.00  0.00     0.060 A 
ATOM      8  C   UNL A   1      35.060  23.597  24.415  1.00  0.00    -0.005 A 
ATOM      9  C   UNL A   1      35.665  23.850  25.645  1.00  0.00     0.010 A 
ATOM     10  C   UNL A   1      35.694  22.799  23.449  1.00  0.00     0.010 A 
ATOM     11  C   UNL A   1      36.850  23.195  25.957  1.00  0.00     0.016 A 
ATOM     12  C   UNL A   1      36.904  22.170  23.752  1.00  0.00     0.016 A 
BRANCH   8  13
ATOM     13  C   UNL A   1      33.655  24.014  24.257  1.00  0.00     0.141 C 
ATOM     14  N   UNL A   1      33.237  25.071  24.870  1.00  0.00    -0.180 NA
BRANCH  14  15
ATOM     15  N   UNL A   1      32.013  25.539  24.572  1.00  0.00    -0.233 NA
ATOM     16  C   UNL A   1      31.759  26.973  24.460  1.00  0.00     0.274 C 
ATOM     17  N   UNL A   1      30.290  27.156  24.361  1.00  0.00    -0.161 NA
ATOM     18  N   UNL A   1      29.706  26.044  24.432  1.00  0.00    -0.153 NA
ATOM     19  C   UNL A   1      30.681  24.961  24.704  1.00  0.00     0.298 C 
BRANCH  16  20
ATOM     20  C   UNL A   1      32.383  27.807  25.605  1.00  0.00     0.201 C 
ATOM     21  C   UNL A   1      31.544  31.310  26.451  1.00  0.00     0.068 C 
ATOM     22  C   UNL A   1      32.083  29.992  26.034  1.00  0.00     0.058 C 
ATOM     23  C   UNL A   1      31.498  28.817  26.244  1.00  0.00     0.031 C 
ATOM     24  N   UNL A   1      33.272  29.872  25.361  1.00  0.00    -0.160 NA
ATOM     25  N   UNL A   1      33.507  28.655  25.102  1.00  0.00    -0.177 NA
ENDBRANCH  16  20
BRANCH  19  26
ATOM     26  S   UNL A   1      30.409  24.124  26.303  1.00  0.00    -0.128 SA
ATOM     27  H   UNL A   1      29.925  25.019  27.207  1.00  0.00     0.106 HD
ENDBRANCH  19  26
ENDBRANCH  14  15
ENDBRANCH   8  13
ENDBRANCH   5   7
ENDBRANCH   4   5
ENDBRANCH   3   4
ENDBRANCH   2   3
ENDBRANCH   1   2
BRANCH   1  28
ATOM     28  C   UNL A   1      41.921  19.157  26.291  1.00  0.00     0.202 C 
BRANCH  28  29
ATOM     29  C   UNL A   1      43.292  19.073  25.634  1.00  0.00     0.261 C 
BRANCH  29  30
ATOM     30  O   UNL A   1      43.494  20.093  24.670  1.00  0.00    -0.460 OA
BRANCH  30  31
ATOM     31  C   UNL A   1      44.800  20.380  24.452  1.00  0.00     0.338 C 
ATOM     32  O   UNL A   1      45.695  19.592  24.220  1.00  0.00    -0.246 OA
BRANCH  31  33
ATOM     33  C   UNL A   1      45.003  21.814  24.676  1.00  0.00     0.060 A 
ATOM     34  C   UNL A   1      45.982  22.157  25.608  1.00  0.00     0.016 A 
ATOM     35  C   UNL A   1      44.048  22.734  24.218  1.00  0.00     0.016 A 
ATOM     36  C   UNL A   1      45.842  23.351  26.275  1.00  0.00     0.010 A 
ATOM     37  C   UNL A   1      43.910  23.924  24.887  1.00  0.00     0.010 A 
ATOM     38  C   UNL A   1      44.741  24.162  25.975  1.00  0.00    -0.014 A 
BRANCH  38  39
ATOM     39  C   UNL A   1      44.515  25.328  26.794  1.00  0.00     0.031 A 
ATOM     40  C   UNL A   1      45.571  26.346  26.620  1.00  0.00     0.074 A 
ATOM     41  C   UNL A   1      43.422  25.480  27.564  1.00  0.00     0.049 A 
ATOM     42  N   UNL A   1      46.499  26.657  27.460  1.00  0.00    -0.248 NA
ATOM     43  C   UNL A   1      45.742  26.931  25.280  1.00  0.00     0.031 C 
ATOM     44  C   UNL A   1      42.203  24.667  27.617  1.00  0.00     0.029 A 
ATOM     45  N   UNL A   1      43.144  26.488  28.426  1.00  0.00    -0.354 N 
ATOM     46  C   UNL A   1      47.252  27.640  26.833  1.00  0.00     0.074 A 
ATOM     47  C   UNL A   1      46.870  27.623  25.444  1.00  0.00     0.031 C 
ATOM     48  C   UNL A   1      41.237  25.356  28.274  1.00  0.00     0.029 A 
ATOM     49  C   UNL A   1      41.813  26.576  28.815  1.00  0.00     0.049 A 
ATOM     50  H   UNL A   1      43.832  27.111  28.752  1.00  0.00     0.167 HD
ATOM     51  C   UNL A   1      47.950  28.562  27.547  1.00  0.00     0.031 A 
ATOM     52  C   UNL A   1      41.243  27.615  29.480  1.00  0.00     0.031 A 
ATOM     53  C   UNL A   1      48.114  28.163  28.920  1.00  0.00     0.049 A 
ATOM     54  C   UNL A   1      42.349  28.362  30.137  1.00  0.00     0.074 A 
ATOM     55  C   UNL A   1      48.742  27.102  29.543  1.00  0.00     0.029 A 
ATOM     56  N   UNL A   1      47.209  28.658  29.831  1.00  0.00    -0.354 N 
ATOM     57  N   UNL A   1      43.080  27.851  31.090  1.00  0.00    -0.248 NA
ATOM     58  C   UNL A   1      42.962  29.457  29.401  1.00  0.00     0.031 C 
ATOM     59  C   UNL A   1      47.856  26.716  30.590  1.00  0.00     0.029 A 
ATOM     60  C   UNL A   1      46.782  27.608  30.608  1.00  0.00     0.049 A 
ATOM     61  H   UNL A   1      46.920  29.596  29.912  1.00  0.00     0.167 HD
ATOM     62  C   UNL A   1      44.378  28.250  30.798  1.00  0.00     0.074 A 
ATOM     63  C   UNL A   1      44.233  29.300  29.788  1.00  0.00     0.031 C 
ATOM     64  C   UNL A   1      45.456  27.506  31.186  1.00  0.00     0.031 A 
BRANCH  51  65
ATOM     65  C   UNL A   1      48.132  29.978  27.075  1.00  0.00    -0.014 A 
ATOM     66  C   UNL A   1      49.422  30.533  27.037  1.00  0.00     0.010 A 
ATOM     67  C   UNL A   1      47.044  30.863  26.905  1.00  0.00     0.010 A 
ATOM     68  C   UNL A   1      49.609  31.912  26.870  1.00  0.00     0.020 A 
ATOM     69  C   UNL A   1      47.220  32.229  26.696  1.00  0.00     0.020 A 
ATOM     70  C   UNL A   1      48.504  32.750  26.706  1.00  0.00     0.054 A 
BRANCH  70  71
ATOM     71  S   UNL A   1      48.753  34.536  26.565  1.00  0.00     0.124 S 
ATOM     72  O   UNL A   1      49.802  34.772  27.551  1.00  0.00    -0.237 OA
ATOM     73  O   UNL A   1      49.149  34.681  25.167  1.00  0.00    -0.237 OA
ATOM     74  O   UNL A   1      47.443  35.090  26.898  1.00  0.00    -0.744 OA
ENDBRANCH  70  71
ENDBRANCH  51  65
BRANCH  52  75
ATOM     75  C   UNL A   1      39.903  28.220  29.242  1.00  0.00    -0.014 A 
ATOM     76  C   UNL A   1      39.012  28.474  30.305  1.00  0.00     0.010 A 
ATOM     77  C   UNL A   1      39.620  28.824  28.000  1.00  0.00     0.010 A 
ATOM     78  C   UNL A   1      37.915  29.343  30.144  1.00  0.00     0.020 A 
ATOM     79  C   UNL A   1      38.530  29.689  27.832  1.00  0.00     0.020 A 
ATOM     80  C   UNL A   1      37.694  29.963  28.911  1.00  0.00     0.054 A 
BRANCH  80  81
ATOM     81  S   UNL A   1      36.387  31.220  28.754  1.00  0.00     0.124 S 
ATOM     82  O   UNL A   1      35.629  30.739  27.602  1.00  0.00    -0.237 OA
ATOM     83  O   UNL A   1      35.704  31.132  30.042  1.00  0.00    -0.237 OA
ATOM     84  O   UNL A   1      37.129  32.461  28.534  1.00  0.00    -0.744 OA
ENDBRANCH  80  81
ENDBRANCH  52  75
BRANCH  64  85
ATOM     85  C   UNL A   1      45.226  26.352  32.142  1.00  0.00    -0.014 A 
ATOM     86  C   UNL A   1      44.808  25.064  31.747  1.00  0.00     0.010 A 
ATOM     87  C   UNL A   1      45.600  26.545  33.483  1.00  0.00     0.010 A 
ATOM     88  C   UNL A   1      44.741  24.011  32.676  1.00  0.00     0.020 A 
ATOM     89  C   UNL A   1      45.554  25.500  34.408  1.00  0.00     0.020 A 
ATOM     90  C   UNL A   1      45.113  24.239  34.004  1.00  0.00     0.054 A 
BRANCH  90  91
ATOM     91  S   UNL A   1      45.055  22.876  35.204  1.00  0.00     0.124 S 
ATOM     92  O   UNL A   1      44.111  23.370  36.202  1.00  0.00    -0.237 OA
ATOM     93  O   UNL A   1      44.586  21.752  34.397  1.00  0.00    -0.237 OA
ATOM     94  O   UNL A   1      46.438  22.760  35.667  1.00  0.00    -0.744 OA
ENDBRANCH  90  91
ENDBRANCH  64  85
ENDBRANCH  38  39
ENDBRANCH  31  33
ENDBRANCH  30  31
ENDBRANCH  29  30
ENDBRANCH  28  29
ENDBRANCH   1  28
TORSDOF 21
ENDMDL
MODEL 2
REMARK VINA RESULT:     -10.9      2.545      3.629
REMARK SMILES CC1=C[C@@H]([C@@H]2N=N[C@H](S)N2/N=C/c2ccc(C(=O)OCCOCCOC(=O)c3ccc(-c4c5nc(c(-c6ccc(S(=O)(=O)[O-])cc6)c6ccc([nH]6)c(-c6ccc(S(=O)(=O)[O-])cc6)c6nc(c(-c7ccc(S(=O)(=O)[O-])cc7)c7ccc4[nH]7)C=C6)C=C5)cc3)cc2)N=N1
REMARK SMILES IDX 22 1 21 2 20 3 19 4 17 5 18 6 16 7 13 8 14 9 89 10 15 11
REMARK SMILES IDX 88 12 12 13 11 14 10 15 5 16 6 17 7 18 8 19 4 20 1 21 2 22
REMARK SMILES IDX 3 23 91 24 90 25 9 26 23 28 24 29 25 30 26 31 27 32 28 33
REMARK SMILES IDX 29 34 87 35 30 36 86 37 31 38 32 39 33 40 80 41 34 42 85 43
REMARK SMILES IDX 79 44 81 45 35 46 84 47 78 48 77 49 36 51 66 52 47 53 65 54
REMARK SMILES IDX 48 55 51 56 64 57 82 58 49 59 50 60 63 62 83 63 52 64 37 65
REMARK SMILES IDX 38 66 46 67 39 68 45 69 40 70 41 71 42 72 43 73 44 74 67 75
REMARK SMILES IDX 68 76 76 77 69 78 75 79 70 80 71 81 72 82 73 83 74 84 53 85
REMARK SMILES IDX 54 86 62 87 55 88 61 89 56 90 57 91 58 92 59 93 60 94
REMARK H PARENT 9 27 81 50 51 61
REMARK Flexibility Score: inf
ROOT
ATOM      1  O   UNL A   1      44.486  19.341  25.829  1.00  0.00    -0.374 OA
ENDROOT
BRANCH   1   2
ATOM      2  C   UNL A   1      43.101  19.157  25.538  1.00  0.00     0.202 C 
BRANCH   2   3
ATOM      3  C   UNL A   1      42.073  19.518  26.613  1.00  0.00     0.261 C 
BRANCH   3   4
ATOM      4  O   UNL A   1      40.829  19.979  26.065  1.00  0.00    -0.460 OA
BRANCH   4   5
ATOM      5  C   UNL A   1      40.231  20.947  26.800  1.00  0.00     0.338 C 
ATOM      6  O   UNL A   1      40.603  21.395  27.873  1.00  0.00    -0.246 OA
BRANCH   5   7
ATOM      7  C   UNL A   1      39.114  21.556  26.053  1.00  0.00     0.060 A 
ATOM      8  C   UNL A   1      36.809  22.717  25.040  1.00  0.00    -0.005 A 
ATOM      9  C   UNL A   1      37.666  23.486  25.827  1.00  0.00     0.010 A 
ATOM     10  C   UNL A   1      37.152  21.408  24.667  1.00  0.00     0.010 A 
ATOM     11  C   UNL A   1      38.810  22.894  26.348  1.00  0.00     0.016 A 
ATOM     12  C   UNL A   1      38.321  20.826  25.164  1.00  0.00     0.016 A 
BRANCH   8  13
ATOM     13  C   UNL A   1      35.455  23.249  24.803  1.00  0.00     0.141 C 
ATOM     14  N   UNL A   1      34.636  22.584  24.059  1.00  0.00    -0.180 NA
BRANCH  14  15
ATOM     15  N   UNL A   1      33.355  22.985  24.003  1.00  0.00    -0.233 NA
ATOM     16  C   UNL A   1      32.924  24.010  23.055  1.00  0.00     0.274 C 
ATOM     17  N   UNL A   1      31.534  24.385  23.410  1.00  0.00    -0.161 NA
ATOM     18  N   UNL A   1      31.153  23.743  24.422  1.00  0.00    -0.153 NA
ATOM     19  C   UNL A   1      32.265  22.929  24.970  1.00  0.00     0.298 C 
BRANCH  16  20
ATOM     20  C   UNL A   1      33.869  25.235  22.991  1.00  0.00     0.201 C 
ATOM     21  C   UNL A   1      32.908  28.756  23.595  1.00  0.00     0.068 C 
ATOM     22  C   UNL A   1      33.312  27.407  23.129  1.00  0.00     0.058 C 
ATOM     23  C   UNL A   1      33.554  26.360  23.911  1.00  0.00     0.031 C 
ATOM     24  N   UNL A   1      33.466  27.114  21.798  1.00  0.00    -0.160 NA
ATOM     25  N   UNL A   1      33.797  25.900  21.653  1.00  0.00    -0.177 NA
ENDBRANCH  16  20
BRANCH  19  26
ATOM     26  S   UNL A   1      32.763  23.419  26.656  1.00  0.00    -0.128 SA
ATOM     27  H   UNL A   1      32.244  22.541  27.556  1.00  0.00     0.106 HD
ENDBRANCH  19  26
ENDBRANCH  14  15
ENDBRANCH   8  13
ENDBRANCH   5   7
ENDBRANCH   4   5
ENDBRANCH   3   4
ENDBRANCH   2   3
ENDBRANCH   1   2
BRANCH   1  28
ATOM     28  C   UNL A   1      45.283  20.187  25.007  1.00  0.00     0.202 C 
BRANCH  28  29
ATOM     29  C   UNL A   1      45.506  21.634  25.422  1.00  0.00     0.261 C 
BRANCH  29  30
ATOM     30  O   UNL A   1      44.472  22.121  26.262  1.00  0.00    -0.460 OA
BRANCH  30  31
ATOM     31  C   UNL A   1      43.518  22.816  25.597  1.00  0.00     0.338 C 
ATOM     32  O   UNL A   1      43.345  22.857  24.395  1.00  0.00    -0.246 OA
BRANCH  31  33
ATOM     33  C   UNL A   1      42.785  23.639  26.563  1.00  0.00     0.060 A 
ATOM     34  C   UNL A   1      41.767  24.438  26.042  1.00  0.00     0.016 A 
ATOM     35  C   UNL A   1      43.305  23.833  27.852  1.00  0.00     0.016 A 
ATOM     36  C   UNL A   1      41.452  25.595  26.714  1.00  0.00     0.010 A 
ATOM     37  C   UNL A   1      42.991  24.990  28.519  1.00  0.00     0.010 A 
ATOM     38  C   UNL A   1      42.153  25.901  27.887  1.00  0.00    -0.014 A 
BRANCH  38  39
ATOM     39  C   UNL A   1      41.931  27.193  28.491  1.00  0.00     0.031 A 
ATOM     40  C   UNL A   1      43.034  28.136  28.215  1.00  0.00     0.074 A 
ATOM     41  C   UNL A   1      40.805  27.503  29.160  1.00  0.00     0.049 A 
ATOM     42  N   UNL A   1      43.928  28.553  29.047  1.00  0.00    -0.248 NA
ATOM     43  C   UNL A   1      43.299  28.486  26.811  1.00  0.00     0.031 C 
ATOM     44  C   UNL A   1      39.554  26.747  29.273  1.00  0.00     0.029 A 
ATOM     45  N   UNL A   1      40.522  28.647  29.828  1.00  0.00    -0.354 N 
ATOM     46  C   UNL A   1      44.750  29.395  28.314  1.00  0.00     0.074 A 
ATOM     47  C   UNL A   1      44.442  29.161  26.925  1.00  0.00     0.031 C 
ATOM     48  C   UNL A   1      38.582  27.564  29.751  1.00  0.00     0.029 A 
ATOM     49  C   UNL A   1      39.177  28.838  30.119  1.00  0.00     0.049 A 
ATOM     50  H   UNL A   1      41.216  29.294  30.088  1.00  0.00     0.167 HD
ATOM     51  C   UNL A   1      45.446  30.401  28.907  1.00  0.00     0.031 A 
ATOM     52  C   UNL A   1      38.613  29.990  30.571  1.00  0.00     0.031 A 
ATOM     53  C   UNL A   1      45.521  30.229  30.334  1.00  0.00     0.049 A 
ATOM     54  C   UNL A   1      39.711  30.800  31.161  1.00  0.00     0.074 A 
ATOM     55  C   UNL A   1      46.073  29.267  31.157  1.00  0.00     0.029 A 
ATOM     56  N   UNL A   1      44.589  30.895  31.098  1.00  0.00    -0.354 N 
ATOM     57  N   UNL A   1      40.371  30.432  32.226  1.00  0.00    -0.248 NA
ATOM     58  C   UNL A   1      40.405  31.741  30.294  1.00  0.00     0.031 C 
ATOM     59  C   UNL A   1      45.118  29.086  32.200  1.00  0.00     0.029 A 
ATOM     60  C   UNL A   1      44.080  30.001  32.008  1.00  0.00     0.049 A 
ATOM     61  H   UNL A   1      44.333  31.842  31.008  1.00  0.00     0.167 HD
ATOM     62  C   UNL A   1      41.697  30.738  31.950  1.00  0.00     0.074 A 
ATOM     63  C   UNL A   1      41.647  31.610  30.775  1.00  0.00     0.031 C 
ATOM     64  C   UNL A   1      42.723  30.036  32.517  1.00  0.00     0.031 A 
BRANCH  51  65
ATOM     65  C   UNL A   1      45.708  31.713  28.222  1.00  0.00    -0.014 A 
ATOM     66  C   UNL A   1      46.979  32.305  28.326  1.00  0.00     0.010 A 
ATOM     67  C   UNL A   1      44.669  32.507  27.687  1.00  0.00     0.010 A 
ATOM     68  C   UNL A   1      47.187  33.637  27.943  1.00  0.00     0.020 A 
ATOM     69  C   UNL A   1      44.875  33.818  27.263  1.00  0.00     0.020 A 
ATOM     70  C   UNL A   1      46.131  34.385  27.419  1.00  0.00     0.054 A 
BRANCH  70  71
ATOM     71  S   UNL A   1      46.392  36.124  26.997  1.00  0.00     0.124 S 
ATOM     72  O   UNL A   1      47.086  36.021  25.717  1.00  0.00    -0.237 OA
ATOM     73  O   UNL A   1      45.025  36.634  26.940  1.00  0.00    -0.237 OA
ATOM     74  O   UNL A   1      47.196  36.628  28.108  1.00  0.00    -0.744 OA
ENDBRANCH  70  71
ENDBRANCH  51  65
BRANCH  52  75
ATOM     75  C   UNL A   1      37.313  30.587  30.159  1.00  0.00    -0.014 A 
ATOM     76  C   UNL A   1      36.641  31.520  30.976  1.00  0.00     0.010 A 
ATOM     77  C   UNL A   1      36.880  30.465  28.823  1.00  0.00     0.010 A 
ATOM     78  C   UNL A   1      35.616  32.336  30.458  1.00  0.00     0.020 A 
ATOM     79  C   UNL A   1      35.860  31.272  28.301  1.00  0.00     0.020 A 
ATOM     80  C   UNL A   1      35.247  32.221  29.115  1.00  0.00     0.054 A 
BRANCH  80  81
ATOM     81  S   UNL A   1      34.051  33.395  28.404  1.00  0.00     0.124 S 
ATOM     82  O   UNL A   1      33.545  34.081  29.589  1.00  0.00    -0.237 OA
ATOM     83  O   UNL A   1      34.886  34.200  27.516  1.00  0.00    -0.237 OA
ATOM     84  O   UNL A   1      33.085  32.532  27.726  1.00  0.00    -0.744 OA
ENDBRANCH  80  81
ENDBRANCH  52  75
BRANCH  64  85
ATOM     85  C   UNL A   1      42.397  29.063  33.633  1.00  0.00    -0.014 A 
ATOM     86  C   UNL A   1      41.718  27.840  33.448  1.00  0.00     0.010 A 
ATOM     87  C   UNL A   1      42.940  29.335  34.900  1.00  0.00     0.010 A 
ATOM     88  C   UNL A   1      41.567  26.932  34.510  1.00  0.00     0.020 A 
ATOM     89  C   UNL A   1      42.809  28.430  35.956  1.00  0.00     0.020 A 
ATOM     90  C   UNL A   1      42.114  27.236  35.761  1.00  0.00     0.054 A 
BRANCH  90  91
ATOM     91  S   UNL A   1      41.945  26.056  37.131  1.00  0.00     0.124 S 
ATOM     92  O   UNL A   1      42.896  26.568  38.113  1.00  0.00    -0.237 OA
ATOM     93  O   UNL A   1      40.535  26.179  37.496  1.00  0.00    -0.237 OA
ATOM     94  O   UNL A   1      42.309  24.772  36.531  1.00  0.00    -0.744 OA
ENDBRANCH  90  91
ENDBRANCH  64  85
ENDBRANCH  38  39
ENDBRANCH  31  33
ENDBRANCH  30  31
ENDBRANCH  29  30
ENDBRANCH  28  29
ENDBRANCH   1  28
TORSDOF 21
ENDMDL
MODEL 3
REMARK VINA RESULT:     -10.8      2.030      3.287
REMARK SMILES CC1=C[C@@H]([C@@H]2N=N[C@H](S)N2/N=C/c2ccc(C(=O)OCCOCCOC(=O)c3ccc(-c4c5nc(c(-c6ccc(S(=O)(=O)[O-])cc6)c6ccc([nH]6)c(-c6ccc(S(=O)(=O)[O-])cc6)c6nc(c(-c7ccc(S(=O)(=O)[O-])cc7)c7ccc4[nH]7)C=C6)C=C5)cc3)cc2)N=N1
REMARK SMILES IDX 22 1 21 2 20 3 19 4 17 5 18 6 16 7 13 8 14 9 89 10 15 11
REMARK SMILES IDX 88 12 12 13 11 14 10 15 5 16 6 17 7 18 8 19 4 20 1 21 2 22
REMARK SMILES IDX 3 23 91 24 90 25 9 26 23 28 24 29 25 30 26 31 27 32 28 33
REMARK SMILES IDX 29 34 87 35 30 36 86 37 31 38 32 39 33 40 80 41 34 42 85 43
REMARK SMILES IDX 79 44 81 45 35 46 84 47 78 48 77 49 36 51 66 52 47 53 65 54
REMARK SMILES IDX 48 55 51 56 64 57 82 58 49 59 50 60 63 62 83 63 52 64 37 65
REMARK SMILES IDX 38 66 46 67 39 68 45 69 40 70 41 71 42 72 43 73 44 74 67 75
REMARK SMILES IDX 68 76 76 77 69 78 75 79 70 80 71 81 72 82 73 83 74 84 53 85
REMARK SMILES IDX 54 86 62 87 55 88 61 89 56 90 57 91 58 92 59 93 60 94
REMARK H PARENT 9 27 81 50 51 61
REMARK Flexibility Score: inf
ROOT
ATOM      1  O   UNL A   1      43.961  18.088  25.768  1.00  0.00    -0.374 OA
ENDROOT
BRANCH   1   2
ATOM      2  C   UNL A   1      42.801  18.482  26.498  1.00  0.00     0.202 C 
BRANCH   2   3
ATOM      3  C   UNL A   1      41.973  19.659  25.978  1.00  0.00     0.261 C 
BRANCH   3   4
ATOM      4  O   UNL A   1      40.810  19.922  26.778  1.00  0.00    -0.460 OA
BRANCH   4   5
ATOM      5  C   UNL A   1      40.742  21.191  27.246  1.00  0.00     0.338 C 
ATOM      6  O   UNL A   1      41.524  21.741  28.005  1.00  0.00    -0.246 OA
BRANCH   5   7
ATOM      7  C   UNL A   1      39.659  21.938  26.576  1.00  0.00     0.060 A 
ATOM      8  C   UNL A   1      37.452  23.382  25.724  1.00  0.00    -0.005 A 
ATOM      9  C   UNL A   1      38.452  24.035  26.441  1.00  0.00     0.010 A 
ATOM     10  C   UNL A   1      37.599  22.041  25.336  1.00  0.00     0.010 A 
ATOM     11  C   UNL A   1      39.548  23.303  26.883  1.00  0.00     0.016 A 
ATOM     12  C   UNL A   1      38.719  21.315  25.751  1.00  0.00     0.016 A 
BRANCH   8  13
ATOM     13  C   UNL A   1      36.162  24.080  25.581  1.00  0.00     0.141 C 
ATOM     14  N   UNL A   1      35.066  23.444  25.833  1.00  0.00    -0.180 NA
BRANCH  14  15
ATOM     15  N   UNL A   1      33.919  24.141  25.877  1.00  0.00    -0.233 NA
ATOM     16  C   UNL A   1      32.737  23.609  26.550  1.00  0.00     0.274 C 
ATOM     17  N   UNL A   1      31.598  24.499  26.214  1.00  0.00    -0.161 NA
ATOM     18  N   UNL A   1      31.974  25.415  25.439  1.00  0.00    -0.153 NA
ATOM     19  C   UNL A   1      33.389  25.215  25.045  1.00  0.00     0.298 C 
BRANCH  16  20
ATOM     20  C   UNL A   1      32.445  22.125  26.216  1.00  0.00     0.201 C 
ATOM     21  C   UNL A   1      34.882  19.673  24.898  1.00  0.00     0.068 C 
ATOM     22  C   UNL A   1      33.810  20.650  25.213  1.00  0.00     0.058 C 
ATOM     23  C   UNL A   1      33.570  21.172  26.412  1.00  0.00     0.031 C 
ATOM     24  N   UNL A   1      32.950  21.120  24.254  1.00  0.00    -0.160 NA
ATOM     25  N   UNL A   1      32.140  21.951  24.763  1.00  0.00    -0.177 NA
ENDBRANCH  16  20
BRANCH  19  26
ATOM     26  S   UNL A   1      33.610  24.924  23.256  1.00  0.00    -0.128 SA
ATOM     27  H   UNL A   1      32.776  23.928  22.852  1.00  0.00     0.106 HD
ENDBRANCH  19  26
ENDBRANCH  14  15
ENDBRANCH   8  13
ENDBRANCH   5   7
ENDBRANCH   4   5
ENDBRANCH   3   4
ENDBRANCH   2   3
ENDBRANCH   1   2
BRANCH   1  28
ATOM     28  C   UNL A   1      44.367  18.823  24.618  1.00  0.00     0.202 C 
BRANCH  28  29
ATOM     29  C   UNL A   1      45.620  19.683  24.688  1.00  0.00     0.261 C 
BRANCH  29  30
ATOM     30  O   UNL A   1      45.415  20.880  25.421  1.00  0.00    -0.460 OA
BRANCH  30  31
ATOM     31  C   UNL A   1      44.652  21.789  24.768  1.00  0.00     0.338 C 
ATOM     32  O   UNL A   1      44.566  21.945  23.566  1.00  0.00    -0.246 OA
BRANCH  31  33
ATOM     33  C   UNL A   1      44.027  22.669  25.760  1.00  0.00     0.060 A 
ATOM     34  C   UNL A   1      43.011  23.500  25.289  1.00  0.00     0.016 A 
ATOM     35  C   UNL A   1      44.647  22.871  27.002  1.00  0.00     0.016 A 
ATOM     36  C   UNL A   1      42.796  24.687  25.949  1.00  0.00     0.010 A 
ATOM     37  C   UNL A   1      44.432  24.058  27.657  1.00  0.00     0.010 A 
ATOM     38  C   UNL A   1      43.592  24.990  27.061  1.00  0.00    -0.014 A 
BRANCH  38  39
ATOM     39  C   UNL A   1      43.470  26.305  27.642  1.00  0.00     0.031 A 
ATOM     40  C   UNL A   1      44.686  27.120  27.441  1.00  0.00     0.074 A 
ATOM     41  C   UNL A   1      42.341  26.743  28.229  1.00  0.00     0.049 A 
ATOM     42  N   UNL A   1      45.560  27.447  28.331  1.00  0.00    -0.248 NA
ATOM     43  C   UNL A   1      45.084  27.423  26.056  1.00  0.00     0.031 C 
ATOM     44  C   UNL A   1      41.011  26.129  28.258  1.00  0.00     0.029 A 
ATOM     45  N   UNL A   1      42.139  27.919  28.871  1.00  0.00    -0.354 N 
ATOM     46  C   UNL A   1      46.519  28.187  27.653  1.00  0.00     0.074 A 
ATOM     47  C   UNL A   1      46.284  27.971  26.248  1.00  0.00     0.031 C 
ATOM     48  C   UNL A   1      40.103  27.051  28.663  1.00  0.00     0.029 A 
ATOM     49  C   UNL A   1      40.806  28.258  29.066  1.00  0.00     0.049 A 
ATOM     50  H   UNL A   1      42.880  28.490  29.177  1.00  0.00     0.167 HD
ATOM     51  C   UNL A   1      47.277  29.118  28.290  1.00  0.00     0.031 A 
ATOM     52  C   UNL A   1      40.341  29.469  29.473  1.00  0.00     0.031 A 
ATOM     53  C   UNL A   1      47.234  28.956  29.719  1.00  0.00     0.049 A 
ATOM     54  C   UNL A   1      41.478  30.163  30.135  1.00  0.00     0.074 A 
ATOM     55  C   UNL A   1      47.619  27.950  30.583  1.00  0.00     0.029 A 
ATOM     56  N   UNL A   1      46.330  29.728  30.413  1.00  0.00    -0.354 N 
ATOM     57  N   UNL A   1      42.018  29.738  31.245  1.00  0.00    -0.248 NA
ATOM     58  C   UNL A   1      42.329  31.013  29.315  1.00  0.00     0.031 C 
ATOM     59  C   UNL A   1      46.581  27.885  31.557  1.00  0.00     0.029 A 
ATOM     60  C   UNL A   1      45.665  28.905  31.289  1.00  0.00     0.049 A 
ATOM     61  H   UNL A   1      46.186  30.695  30.301  1.00  0.00     0.167 HD
ATOM     62  C   UNL A   1      43.386  29.895  31.061  1.00  0.00     0.074 A 
ATOM     63  C   UNL A   1      43.512  30.754  29.882  1.00  0.00     0.031 C 
ATOM     64  C   UNL A   1      44.287  29.092  31.702  1.00  0.00     0.031 A 
BRANCH  51  65
ATOM     65  C   UNL A   1      47.727  30.386  27.619  1.00  0.00    -0.014 A 
ATOM     66  C   UNL A   1      49.099  30.683  27.554  1.00  0.00     0.010 A 
ATOM     67  C   UNL A   1      46.827  31.418  27.272  1.00  0.00     0.010 A 
ATOM     68  C   UNL A   1      49.544  31.962  27.191  1.00  0.00     0.020 A 
ATOM     69  C   UNL A   1      47.258  32.679  26.868  1.00  0.00     0.020 A 
ATOM     70  C   UNL A   1      48.618  32.952  26.856  1.00  0.00     0.054 A 
BRANCH  70  71
ATOM     71  S   UNL A   1      49.198  34.618  26.460  1.00  0.00     0.124 S 
ATOM     72  O   UNL A   1      50.467  34.674  27.179  1.00  0.00    -0.237 OA
ATOM     73  O   UNL A   1      49.294  34.572  25.004  1.00  0.00    -0.237 OA
ATOM     74  O   UNL A   1      48.142  35.482  26.984  1.00  0.00    -0.744 OA
ENDBRANCH  70  71
ENDBRANCH  51  65
BRANCH  52  75
ATOM     75  C   UNL A   1      39.146  30.199  28.969  1.00  0.00    -0.014 A 
ATOM     76  C   UNL A   1      38.166  29.554  28.188  1.00  0.00     0.010 A 
ATOM     77  C   UNL A   1      38.817  31.459  29.510  1.00  0.00     0.010 A 
ATOM     78  C   UNL A   1      36.890  30.123  28.004  1.00  0.00     0.020 A 
ATOM     79  C   UNL A   1      37.551  32.032  29.330  1.00  0.00     0.020 A 
ATOM     80  C   UNL A   1      36.584  31.351  28.596  1.00  0.00     0.054 A 
BRANCH  80  81
ATOM     81  S   UNL A   1      34.885  31.997  28.508  1.00  0.00     0.124 S 
ATOM     82  O   UNL A   1      34.595  32.303  29.907  1.00  0.00    -0.237 OA
ATOM     83  O   UNL A   1      35.028  33.152  27.626  1.00  0.00    -0.237 OA
ATOM     84  O   UNL A   1      34.122  30.884  27.946  1.00  0.00    -0.744 OA
ENDBRANCH  80  81
ENDBRANCH  52  75
BRANCH  64  85
ATOM     85  C   UNL A   1      43.781  28.174  32.796  1.00  0.00    -0.014 A 
ATOM     86  C   UNL A   1      43.540  26.794  32.627  1.00  0.00     0.010 A 
ATOM     87  C   UNL A   1      43.694  28.708  34.092  1.00  0.00     0.010 A 
ATOM     88  C   UNL A   1      43.194  25.983  33.722  1.00  0.00     0.020 A 
ATOM     89  C   UNL A   1      43.369  27.906  35.189  1.00  0.00     0.020 A 
ATOM     90  C   UNL A   1      43.109  26.548  34.999  1.00  0.00     0.054 A 
BRANCH  90  91
ATOM     91  S   UNL A   1      42.690  25.501  36.422  1.00  0.00     0.124 S 
ATOM     92  O   UNL A   1      41.940  26.414  37.280  1.00  0.00    -0.237 OA
ATOM     93  O   UNL A   1      41.910  24.424  35.816  1.00  0.00    -0.237 OA
ATOM     94  O   UNL A   1      43.992  25.090  36.948  1.00  0.00    -0.744 OA
ENDBRANCH  90  91
ENDBRANCH  64  85
ENDBRANCH  38  39
ENDBRANCH  31  33
ENDBRANCH  30  31
ENDBRANCH  29  30
ENDBRANCH  28  29
ENDBRANCH   1  28
TORSDOF 21
ENDMDL
