MODEL 1
REMARK VINA RESULT:      -9.6      0.000      0.000
REMARK SMILES CC[C@H](C)N1C(=O)c2ccccc2[C@@H](C(=O)OCCOCCOC(=O)c2ccc(-c3c4nc(c(-c5ccc(S(=O)(=O)[O-])cc5)c5ccc([nH]5)c(-c5ccc(S(=O)(=O)[O-])cc5)c5nc(c(-c6ccc(S(=O)(=O)[O-])cc6)c6ccc3[nH]6)C=C5)C=C4)cc2)C12CCCCC2
REMARK SMILES IDX 21 1 20 2 19 3 18 4 17 5 15 6 16 7 14 8 5 9 6 10 86 11 7 12
REMARK SMILES IDX 8 13 87 14 91 15 9 16 13 17 88 18 90 19 10 20 12 21 89 22
REMARK SMILES IDX 11 23 3 24 4 25 2 26 1 27 22 28 23 29 24 30 25 31 26 32
REMARK SMILES IDX 27 33 85 34 28 35 84 36 29 37 30 38 31 39 78 40 32 41 83 42
REMARK SMILES IDX 77 43 79 44 33 45 82 46 76 47 75 48 34 50 64 51 45 52 63 53
REMARK SMILES IDX 46 54 49 55 62 56 80 57 47 58 48 59 61 61 81 62 50 63 35 64
REMARK SMILES IDX 36 65 44 66 37 67 43 68 38 69 39 70 40 71 41 72 42 73 65 74
REMARK SMILES IDX 66 75 74 76 67 77 73 78 68 79 69 80 70 81 71 82 72 83 51 84
REMARK SMILES IDX 52 85 60 86 53 87 59 88 54 89 55 90 56 91 57 92 58 93
REMARK H PARENT 79 49 49 60
REMARK Flexibility Score: inf
ROOT
ATOM      1  C   UNL A   1      49.586  40.129  29.782  1.00  0.00     0.202 C 
ENDROOT
BRANCH   1   2
ATOM      2  O   UNL A   1      49.584  41.625  29.805  1.00  0.00    -0.374 OA
BRANCH   2   3
ATOM      3  C   UNL A   1      48.363  42.362  29.643  1.00  0.00     0.202 C 
BRANCH   3   4
ATOM      4  C   UNL A   1      47.497  42.367  28.353  1.00  0.00     0.261 C 
BRANCH   4   5
ATOM      5  O   UNL A   1      46.522  41.334  28.159  1.00  0.00    -0.463 OA
BRANCH   5   6
ATOM      6  C   UNL A   1      45.195  41.639  28.254  1.00  0.00     0.315 C 
ATOM      7  O   UNL A   1      44.756  42.665  28.754  1.00  0.00    -0.251 OA
BRANCH   6   8
ATOM      8  C   UNL A   1      44.337  40.548  27.520  1.00  0.00     0.156 C 
ATOM      9  N   UNL A   1      42.434  38.836  27.352  1.00  0.00    -0.329 N 
ATOM     10  C   UNL A   1      41.755  39.606  26.384  1.00  0.00     0.254 C 
ATOM     11  C   UNL A   1      43.233  39.646  28.427  1.00  0.00     0.061 C 
ATOM     12  O   UNL A   1      40.674  39.300  25.894  1.00  0.00    -0.269 OA
ATOM     13  C   UNL A   1      42.449  40.807  25.840  1.00  0.00     0.044 A 
ATOM     14  C   UNL A   1      41.927  40.838  29.237  1.00  0.00     0.030 C 
ATOM     15  C   UNL A   1      44.206  38.479  29.647  1.00  0.00     0.030 C 
ATOM     16  C   UNL A   1      41.862  41.490  24.758  1.00  0.00     0.014 A 
ATOM     17  C   UNL A   1      43.700  41.208  26.305  1.00  0.00    -0.019 A 
ATOM     18  C   UNL A   1      42.073  41.341  31.129  1.00  0.00     0.002 C 
ATOM     19  C   UNL A   1      44.341  38.885  31.554  1.00  0.00     0.002 C 
ATOM     20  C   UNL A   1      42.503  42.574  24.152  1.00  0.00     0.001 A 
ATOM     21  C   UNL A   1      44.364  42.264  25.631  1.00  0.00     0.005 A 
ATOM     22  C   UNL A   1      43.121  40.204  32.347  1.00  0.00     0.000 C 
ATOM     23  C   UNL A   1      43.760  42.960  24.588  1.00  0.00     0.000 A 
BRANCH   9  24
ATOM     24  C   UNL A   1      42.283  37.317  27.294  1.00  0.00     0.082 C 
ATOM     25  C   UNL A   1      43.441  36.589  26.601  1.00  0.00     0.031 C 
BRANCH  24  26
ATOM     26  C   UNL A   1      42.040  36.641  28.696  1.00  0.00     0.021 C 
ATOM     27  C   UNL A   1      42.733  35.304  28.960  1.00  0.00     0.006 C 
ENDBRANCH  24  26
ENDBRANCH   9  24
ENDBRANCH   6   8
ENDBRANCH   5   6
ENDBRANCH   4   5
ENDBRANCH   3   4
ENDBRANCH   2   3
ENDBRANCH   1   2
BRANCH   1  28
ATOM     28  C   UNL A   1      48.148  38.686  30.249  1.00  0.00     0.261 C 
BRANCH  28  29
ATOM     29  O   UNL A   1      47.835  37.384  29.465  1.00  0.00    -0.460 OA
BRANCH  29  30
ATOM     30  C   UNL A   1      47.260  37.254  28.239  1.00  0.00     0.338 C 
ATOM     31  O   UNL A   1      47.234  38.056  27.326  1.00  0.00    -0.246 OA
BRANCH  30  32
ATOM     32  C   UNL A   1      46.914  35.807  28.153  1.00  0.00     0.060 A 
ATOM     33  C   UNL A   1      47.075  35.016  29.287  1.00  0.00     0.016 A 
ATOM     34  C   UNL A   1      46.697  35.206  26.896  1.00  0.00     0.016 A 
ATOM     35  C   UNL A   1      47.050  33.626  29.166  1.00  0.00     0.010 A 
ATOM     36  C   UNL A   1      46.716  33.808  26.772  1.00  0.00     0.010 A 
ATOM     37  C   UNL A   1      46.882  33.006  27.912  1.00  0.00    -0.014 A 
BRANCH  37  38
ATOM     38  C   UNL A   1      46.567  31.555  27.898  1.00  0.00     0.031 A 
ATOM     39  C   UNL A   1      45.184  30.997  28.040  1.00  0.00     0.074 A 
ATOM     40  C   UNL A   1      47.600  30.745  27.600  1.00  0.00     0.049 A 
ATOM     41  N   UNL A   1      44.751  29.810  27.697  1.00  0.00    -0.248 NA
ATOM     42  C   UNL A   1      44.165  31.856  28.655  1.00  0.00     0.031 C 
ATOM     43  C   UNL A   1      48.985  31.199  27.462  1.00  0.00     0.029 A 
ATOM     44  N   UNL A   1      47.647  29.410  27.297  1.00  0.00    -0.354 N 
ATOM     45  C   UNL A   1      43.402  29.778  28.034  1.00  0.00     0.074 A 
ATOM     46  C   UNL A   1      43.100  31.057  28.647  1.00  0.00     0.031 C 
ATOM     47  C   UNL A   1      49.735  30.181  27.028  1.00  0.00     0.029 A 
ATOM     48  C   UNL A   1      48.888  29.004  26.868  1.00  0.00     0.049 A 
ATOM     49  H   UNL A   1      46.874  28.806  27.376  1.00  0.00     0.167 HD
ATOM     50  C   UNL A   1      42.513  28.772  27.837  1.00  0.00     0.031 A 
ATOM     51  C   UNL A   1      49.307  27.833  26.352  1.00  0.00     0.031 A 
ATOM     52  C   UNL A   1      42.857  27.500  27.240  1.00  0.00     0.049 A 
ATOM     53  C   UNL A   1      48.305  26.747  26.111  1.00  0.00     0.074 A 
ATOM     54  C   UNL A   1      42.016  26.445  26.922  1.00  0.00     0.029 A 
ATOM     55  N   UNL A   1      44.140  27.099  26.890  1.00  0.00    -0.354 N 
ATOM     56  N   UNL A   1      47.011  26.773  26.319  1.00  0.00    -0.248 NA
ATOM     57  C   UNL A   1      48.809  25.487  25.555  1.00  0.00     0.031 C 
ATOM     58  C   UNL A   1      42.798  25.383  26.459  1.00  0.00     0.029 A 
ATOM     59  C   UNL A   1      44.120  25.798  26.412  1.00  0.00     0.049 A 
ATOM     60  H   UNL A   1      44.947  27.658  26.969  1.00  0.00     0.167 HD
ATOM     61  C   UNL A   1      46.540  25.528  25.923  1.00  0.00     0.074 A 
ATOM     62  C   UNL A   1      47.688  24.785  25.437  1.00  0.00     0.031 C 
ATOM     63  C   UNL A   1      45.273  25.049  25.965  1.00  0.00     0.031 A 
BRANCH  50  64
ATOM     64  C   UNL A   1      41.075  28.971  28.262  1.00  0.00    -0.014 A 
ATOM     65  C   UNL A   1      40.102  29.318  27.304  1.00  0.00     0.010 A 
ATOM     66  C   UNL A   1      40.708  28.954  29.620  1.00  0.00     0.010 A 
ATOM     67  C   UNL A   1      38.800  29.654  27.691  1.00  0.00     0.020 A 
ATOM     68  C   UNL A   1      39.399  29.266  30.011  1.00  0.00     0.020 A 
ATOM     69  C   UNL A   1      38.457  29.629  29.046  1.00  0.00     0.054 A 
BRANCH  69  70
ATOM     70  S   UNL A   1      36.760  30.058  29.533  1.00  0.00     0.124 S 
ATOM     71  O   UNL A   1      35.960  29.285  28.588  1.00  0.00    -0.237 OA
ATOM     72  O   UNL A   1      36.703  29.609  30.923  1.00  0.00    -0.237 OA
ATOM     73  O   UNL A   1      36.712  31.508  29.356  1.00  0.00    -0.744 OA
ENDBRANCH  69  70
ENDBRANCH  50  64
BRANCH  51  74
ATOM     74  C   UNL A   1      50.737  27.721  25.959  1.00  0.00    -0.014 A 
ATOM     75  C   UNL A   1      51.116  27.976  24.627  1.00  0.00     0.010 A 
ATOM     76  C   UNL A   1      51.673  27.162  26.846  1.00  0.00     0.010 A 
ATOM     77  C   UNL A   1      52.375  27.590  24.164  1.00  0.00     0.020 A 
ATOM     78  C   UNL A   1      52.946  26.802  26.392  1.00  0.00     0.020 A 
ATOM     79  C   UNL A   1      53.272  26.980  25.045  1.00  0.00     0.054 A 
BRANCH  79  80
ATOM     80  S   UNL A   1      54.850  26.370  24.390  1.00  0.00     0.124 S 
ATOM     81  O   UNL A   1      54.672  26.564  22.954  1.00  0.00    -0.237 OA
ATOM     82  O   UNL A   1      55.823  27.253  25.028  1.00  0.00    -0.237 OA
ATOM     83  O   UNL A   1      54.889  24.980  24.835  1.00  0.00    -0.744 OA
ENDBRANCH  79  80
ENDBRANCH  51  74
BRANCH  63  84
ATOM     84  C   UNL A   1      45.045  23.627  25.522  1.00  0.00    -0.014 A 
ATOM     85  C   UNL A   1      45.191  22.571  26.440  1.00  0.00     0.010 A 
ATOM     86  C   UNL A   1      44.811  23.329  24.168  1.00  0.00     0.010 A 
ATOM     87  C   UNL A   1      45.147  21.244  26.006  1.00  0.00     0.020 A 
ATOM     88  C   UNL A   1      44.740  22.003  23.734  1.00  0.00     0.020 A 
ATOM     89  C   UNL A   1      44.935  20.968  24.653  1.00  0.00     0.054 A 
BRANCH  89  90
ATOM     90  S   UNL A   1      44.927  19.241  24.100  1.00  0.00     0.124 S 
ATOM     91  O   UNL A   1      44.525  19.368  22.702  1.00  0.00    -0.237 OA
ATOM     92  O   UNL A   1      46.310  18.825  24.322  1.00  0.00    -0.237 OA
ATOM     93  O   UNL A   1      43.946  18.605  24.977  1.00  0.00    -0.744 OA
ENDBRANCH  89  90
ENDBRANCH  63  84
ENDBRANCH  37  38
ENDBRANCH  30  32
ENDBRANCH  29  30
ENDBRANCH  28  29
ENDBRANCH   1  28
TORSDOF 19
ENDMDL
MODEL 2
REMARK VINA RESULT:      -9.5      3.827     10.435
REMARK SMILES CC[C@H](C)N1C(=O)c2ccccc2[C@@H](C(=O)OCCOCCOC(=O)c2ccc(-c3c4nc(c(-c5ccc(S(=O)(=O)[O-])cc5)c5ccc([nH]5)c(-c5ccc(S(=O)(=O)[O-])cc5)c5nc(c(-c6ccc(S(=O)(=O)[O-])cc6)c6ccc3[nH]6)C=C5)C=C4)cc2)C12CCCCC2
REMARK SMILES IDX 21 1 20 2 19 3 18 4 17 5 15 6 16 7 14 8 5 9 6 10 86 11 7 12
REMARK SMILES IDX 8 13 87 14 91 15 9 16 13 17 88 18 90 19 10 20 12 21 89 22
REMARK SMILES IDX 11 23 3 24 4 25 2 26 1 27 22 28 23 29 24 30 25 31 26 32
REMARK SMILES IDX 27 33 85 34 28 35 84 36 29 37 30 38 31 39 78 40 32 41 83 42
REMARK SMILES IDX 77 43 79 44 33 45 82 46 76 47 75 48 34 50 64 51 45 52 63 53
REMARK SMILES IDX 46 54 49 55 62 56 80 57 47 58 48 59 61 61 81 62 50 63 35 64
REMARK SMILES IDX 36 65 44 66 37 67 43 68 38 69 39 70 40 71 41 72 42 73 65 74
REMARK SMILES IDX 66 75 74 76 67 77 73 78 68 79 69 80 70 81 71 82 72 83 51 84
REMARK SMILES IDX 52 85 60 86 53 87 59 88 54 89 55 90 56 91 57 92 58 93
REMARK H PARENT 79 49 49 60
REMARK Flexibility Score: inf
ROOT
ATOM      1  C   UNL A   1      34.183  33.364  29.429  1.00  0.00     0.202 C 
ENDROOT
BRANCH   1   2
ATOM      2  O   UNL A   1      34.467  34.438  30.432  1.00  0.00    -0.374 OA
BRANCH   2   3
ATOM      3  C   UNL A   1      34.814  34.108  31.785  1.00  0.00     0.202 C 
BRANCH   3   4
ATOM      4  C   UNL A   1      36.265  33.906  32.302  1.00  0.00     0.261 C 
BRANCH   4   5
ATOM      5  O   UNL A   1      36.812  34.842  33.240  1.00  0.00    -0.463 OA
BRANCH   5   6
ATOM      6  C   UNL A   1      37.940  34.511  33.935  1.00  0.00     0.315 C 
ATOM      7  O   UNL A   1      38.749  35.321  34.365  1.00  0.00    -0.251 OA
BRANCH   6   8
ATOM      8  C   UNL A   1      37.972  32.965  34.205  1.00  0.00     0.156 C 
ATOM      9  N   UNL A   1      39.085  30.654  34.258  1.00  0.00    -0.329 N 
ATOM     10  C   UNL A   1      39.042  30.607  35.668  1.00  0.00     0.254 C 
ATOM     11  C   UNL A   1      39.289  32.074  33.631  1.00  0.00     0.061 C 
ATOM     12  O   UNL A   1      39.490  29.685  36.341  1.00  0.00    -0.269 OA
ATOM     13  C   UNL A   1      38.303  31.688  36.377  1.00  0.00     0.044 A 
ATOM     14  C   UNL A   1      40.929  32.749  34.429  1.00  0.00     0.030 C 
ATOM     15  C   UNL A   1      39.235  32.029  31.685  1.00  0.00     0.030 C 
ATOM     16  C   UNL A   1      38.106  31.570  37.766  1.00  0.00     0.014 A 
ATOM     17  C   UNL A   1      37.723  32.754  35.692  1.00  0.00    -0.019 A 
ATOM     18  C   UNL A   1      42.122  33.930  33.412  1.00  0.00     0.002 C 
ATOM     19  C   UNL A   1      40.433  33.132  30.606  1.00  0.00     0.002 C 
ATOM     20  C   UNL A   1      37.353  32.510  38.474  1.00  0.00     0.001 A 
ATOM     21  C   UNL A   1      36.904  33.658  36.417  1.00  0.00     0.005 A 
ATOM     22  C   UNL A   1      42.014  33.943  31.446  1.00  0.00     0.000 C 
ATOM     23  C   UNL A   1      36.747  33.556  37.797  1.00  0.00     0.000 A 
BRANCH   9  24
ATOM     24  C   UNL A   1      38.988  29.335  33.493  1.00  0.00     0.082 C 
ATOM     25  C   UNL A   1      37.705  29.172  32.668  1.00  0.00     0.031 C 
BRANCH  24  26
ATOM     26  C   UNL A   1      40.221  29.043  32.558  1.00  0.00     0.021 C 
ATOM     27  C   UNL A   1      41.614  29.300  33.132  1.00  0.00     0.006 C 
ENDBRANCH  24  26
ENDBRANCH   9  24
ENDBRANCH   6   8
ENDBRANCH   5   6
ENDBRANCH   4   5
ENDBRANCH   3   4
ENDBRANCH   2   3
ENDBRANCH   1   2
BRANCH   1  28
ATOM     28  C   UNL A   1      35.355  32.396  27.995  1.00  0.00     0.261 C 
BRANCH  28  29
ATOM     29  O   UNL A   1      36.445  31.321  28.242  1.00  0.00    -0.460 OA
BRANCH  29  30
ATOM     30  C   UNL A   1      36.318  29.966  28.212  1.00  0.00     0.338 C 
ATOM     31  O   UNL A   1      35.314  29.304  28.036  1.00  0.00    -0.246 OA
BRANCH  30  32
ATOM     32  C   UNL A   1      37.722  29.472  28.158  1.00  0.00     0.060 A 
ATOM     33  C   UNL A   1      38.412  29.296  29.355  1.00  0.00     0.016 A 
ATOM     34  C   UNL A   1      38.417  29.448  26.932  1.00  0.00     0.016 A 
ATOM     35  C   UNL A   1      39.797  29.126  29.333  1.00  0.00     0.010 A 
ATOM     36  C   UNL A   1      39.815  29.321  26.917  1.00  0.00     0.010 A 
ATOM     37  C   UNL A   1      40.515  29.148  28.121  1.00  0.00    -0.014 A 
BRANCH  37  38
ATOM     38  C   UNL A   1      41.919  28.667  28.145  1.00  0.00     0.031 A 
ATOM     39  C   UNL A   1      42.328  27.259  27.843  1.00  0.00     0.074 A 
ATOM     40  C   UNL A   1      42.852  29.623  28.317  1.00  0.00     0.049 A 
ATOM     41  N   UNL A   1      43.509  26.815  27.492  1.00  0.00    -0.248 NA
ATOM     42  C   UNL A   1      41.305  26.214  27.964  1.00  0.00     0.031 C 
ATOM     43  C   UNL A   1      42.545  31.020  28.635  1.00  0.00     0.029 A 
ATOM     44  N   UNL A   1      44.215  29.595  28.189  1.00  0.00    -0.354 N 
ATOM     45  C   UNL A   1      43.374  25.441  27.329  1.00  0.00     0.074 A 
ATOM     46  C   UNL A   1      42.000  25.120  27.661  1.00  0.00     0.031 C 
ATOM     47  C   UNL A   1      43.677  31.732  28.601  1.00  0.00     0.029 A 
ATOM     48  C   UNL A   1      44.786  30.842  28.273  1.00  0.00     0.049 A 
ATOM     49  H   UNL A   1      44.732  28.768  28.050  1.00  0.00     0.167 HD
ATOM     50  C   UNL A   1      44.317  24.547  26.934  1.00  0.00     0.031 A 
ATOM     51  C   UNL A   1      46.051  31.253  28.061  1.00  0.00     0.031 A 
ATOM     52  C   UNL A   1      45.685  24.904  26.631  1.00  0.00     0.049 A 
ATOM     53  C   UNL A   1      47.066  30.260  27.594  1.00  0.00     0.074 A 
ATOM     54  C   UNL A   1      46.697  24.090  26.146  1.00  0.00     0.029 A 
ATOM     55  N   UNL A   1      46.243  26.164  26.802  1.00  0.00    -0.354 N 
ATOM     56  N   UNL A   1      46.898  28.988  27.324  1.00  0.00    -0.248 NA
ATOM     57  C   UNL A   1      48.433  30.752  27.384  1.00  0.00     0.031 C 
ATOM     58  C   UNL A   1      47.878  24.835  26.101  1.00  0.00     0.029 A 
ATOM     59  C   UNL A   1      47.593  26.136  26.484  1.00  0.00     0.049 A 
ATOM     60  H   UNL A   1      45.752  26.962  27.106  1.00  0.00     0.167 HD
ATOM     61  C   UNL A   1      48.141  28.520  26.917  1.00  0.00     0.074 A 
ATOM     62  C   UNL A   1      49.043  29.656  26.948  1.00  0.00     0.031 C 
ATOM     63  C   UNL A   1      48.495  27.263  26.555  1.00  0.00     0.031 A 
BRANCH  50  64
ATOM     64  C   UNL A   1      43.933  23.091  26.798  1.00  0.00    -0.014 A 
ATOM     65  C   UNL A   1      44.249  22.390  25.618  1.00  0.00     0.010 A 
ATOM     66  C   UNL A   1      43.143  22.452  27.771  1.00  0.00     0.010 A 
ATOM     67  C   UNL A   1      43.775  21.089  25.406  1.00  0.00     0.020 A 
ATOM     68  C   UNL A   1      42.687  21.142  27.575  1.00  0.00     0.020 A 
ATOM     69  C   UNL A   1      42.992  20.474  26.386  1.00  0.00     0.054 A 
BRANCH  69  70
ATOM     70  S   UNL A   1      42.394  18.783  26.102  1.00  0.00     0.124 S 
ATOM     71  O   UNL A   1      41.002  19.004  25.723  1.00  0.00    -0.237 OA
ATOM     72  O   UNL A   1      43.272  18.308  25.033  1.00  0.00    -0.237 OA
ATOM     73  O   UNL A   1      42.595  18.129  27.394  1.00  0.00    -0.744 OA
ENDBRANCH  69  70
ENDBRANCH  50  64
BRANCH  51  74
ATOM     74  C   UNL A   1      46.342  32.704  28.216  1.00  0.00    -0.014 A 
ATOM     75  C   UNL A   1      46.586  33.233  29.497  1.00  0.00     0.010 A 
ATOM     76  C   UNL A   1      46.166  33.580  27.131  1.00  0.00     0.010 A 
ATOM     77  C   UNL A   1      46.558  34.612  29.709  1.00  0.00     0.020 A 
ATOM     78  C   UNL A   1      46.168  34.964  27.336  1.00  0.00     0.020 A 
ATOM     79  C   UNL A   1      46.322  35.467  28.630  1.00  0.00     0.054 A 
BRANCH  79  80
ATOM     80  S   UNL A   1      46.161  37.245  28.952  1.00  0.00     0.124 S 
ATOM     81  O   UNL A   1      45.633  37.732  27.680  1.00  0.00    -0.237 OA
ATOM     82  O   UNL A   1      45.228  37.283  30.075  1.00  0.00    -0.237 OA
ATOM     83  O   UNL A   1      47.525  37.661  29.264  1.00  0.00    -0.744 OA
ENDBRANCH  79  80
ENDBRANCH  51  74
BRANCH  63  84
ATOM     84  C   UNL A   1      49.940  27.014  26.208  1.00  0.00    -0.014 A 
ATOM     85  C   UNL A   1      50.375  27.124  24.875  1.00  0.00     0.010 A 
ATOM     86  C   UNL A   1      50.838  26.547  27.185  1.00  0.00     0.010 A 
ATOM     87  C   UNL A   1      51.668  26.734  24.516  1.00  0.00     0.020 A 
ATOM     88  C   UNL A   1      52.141  26.183  26.836  1.00  0.00     0.020 A 
ATOM     89  C   UNL A   1      52.539  26.253  25.498  1.00  0.00     0.054 A 
BRANCH  89  90
ATOM     90  S   UNL A   1      54.199  25.709  25.008  1.00  0.00     0.124 S 
ATOM     91  O   UNL A   1      54.058  24.256  25.009  1.00  0.00    -0.237 OA
ATOM     92  O   UNL A   1      54.364  26.325  23.694  1.00  0.00    -0.237 OA
ATOM     93  O   UNL A   1      55.061  26.253  26.055  1.00  0.00    -0.744 OA
ENDBRANCH  89  90
ENDBRANCH  63  84
ENDBRANCH  37  38
ENDBRANCH  30  32
ENDBRANCH  29  30
ENDBRANCH  28  29
ENDBRANCH   1  28
TORSDOF 19
ENDMDL
MODEL 3
REMARK VINA RESULT:      -9.5      7.879     14.289
REMARK SMILES CC[C@H](C)N1C(=O)c2ccccc2[C@@H](C(=O)OCCOCCOC(=O)c2ccc(-c3c4nc(c(-c5ccc(S(=O)(=O)[O-])cc5)c5ccc([nH]5)c(-c5ccc(S(=O)(=O)[O-])cc5)c5nc(c(-c6ccc(S(=O)(=O)[O-])cc6)c6ccc3[nH]6)C=C5)C=C4)cc2)C12CCCCC2
REMARK SMILES IDX 21 1 20 2 19 3 18 4 17 5 15 6 16 7 14 8 5 9 6 10 86 11 7 12
REMARK SMILES IDX 8 13 87 14 91 15 9 16 13 17 88 18 90 19 10 20 12 21 89 22
REMARK SMILES IDX 11 23 3 24 4 25 2 26 1 27 22 28 23 29 24 30 25 31 26 32
REMARK SMILES IDX 27 33 85 34 28 35 84 36 29 37 30 38 31 39 78 40 32 41 83 42
REMARK SMILES IDX 77 43 79 44 33 45 82 46 76 47 75 48 34 50 64 51 45 52 63 53
REMARK SMILES IDX 46 54 49 55 62 56 80 57 47 58 48 59 61 61 81 62 50 63 35 64
REMARK SMILES IDX 36 65 44 66 37 67 43 68 38 69 39 70 40 71 41 72 42 73 65 74
REMARK SMILES IDX 66 75 74 76 67 77 73 78 68 79 69 80 70 81 71 82 72 83 51 84
REMARK SMILES IDX 52 85 60 86 53 87 59 88 54 89 55 90 56 91 57 92 58 93
REMARK H PARENT 79 49 49 60
REMARK Flexibility Score: inf
ROOT
ATOM      1  C   UNL A   1      31.907  29.828  24.775  1.00  0.00     0.202 C 
ENDROOT
BRANCH   1   2
ATOM      2  O   UNL A   1      30.708  29.379  23.999  1.00  0.00    -0.374 OA
BRANCH   2   3
ATOM      3  C   UNL A   1      30.462  27.984  23.768  1.00  0.00     0.202 C 
BRANCH   3   4
ATOM      4  C   UNL A   1      31.324  27.073  22.853  1.00  0.00     0.261 C 
BRANCH   4   5
ATOM      5  O   UNL A   1      31.971  25.924  23.416  1.00  0.00    -0.463 OA
BRANCH   5   6
ATOM      6  C   UNL A   1      32.491  24.974  22.584  1.00  0.00     0.315 C 
ATOM      7  O   UNL A   1      32.463  25.034  21.363  1.00  0.00    -0.251 OA
BRANCH   6   8
ATOM      8  C   UNL A   1      33.231  23.872  23.423  1.00  0.00     0.156 C 
ATOM      9  N   UNL A   1      33.800  22.607  25.581  1.00  0.00    -0.329 N 
ATOM     10  C   UNL A   1      33.181  21.427  25.116  1.00  0.00     0.254 C 
ATOM     11  C   UNL A   1      33.147  23.949  25.108  1.00  0.00     0.061 C 
ATOM     12  O   UNL A   1      33.094  20.392  25.767  1.00  0.00    -0.269 OA
ATOM     13  C   UNL A   1      32.708  21.401  23.704  1.00  0.00     0.044 A 
ATOM     14  C   UNL A   1      31.289  23.834  25.674  1.00  0.00     0.030 C 
ATOM     15  C   UNL A   1      34.141  25.505  25.731  1.00  0.00     0.030 C 
ATOM     16  C   UNL A   1      32.242  20.184  23.173  1.00  0.00     0.014 A 
ATOM     17  C   UNL A   1      32.806  22.516  22.874  1.00  0.00    -0.019 A 
ATOM     18  C   UNL A   1      30.306  25.448  26.204  1.00  0.00     0.002 C 
ATOM     19  C   UNL A   1      33.227  27.124  26.331  1.00  0.00     0.002 C 
ATOM     20  C   UNL A   1      31.860  20.076  21.833  1.00  0.00     0.001 A 
ATOM     21  C   UNL A   1      32.480  22.368  21.501  1.00  0.00     0.005 A 
ATOM     22  C   UNL A   1      31.311  27.047  26.758  1.00  0.00     0.000 C 
ATOM     23  C   UNL A   1      31.983  21.171  20.993  1.00  0.00     0.000 A 
BRANCH   9  24
ATOM     24  C   UNL A   1      34.990  22.467  26.528  1.00  0.00     0.082 C 
ATOM     25  C   UNL A   1      34.629  21.973  27.934  1.00  0.00     0.031 C 
BRANCH  24  26
ATOM     26  C   UNL A   1      36.154  21.564  25.969  1.00  0.00     0.021 C 
ATOM     27  C   UNL A   1      36.739  21.937  24.606  1.00  0.00     0.006 C 
ENDBRANCH  24  26
ENDBRANCH   9  24
ENDBRANCH   6   8
ENDBRANCH   5   6
ENDBRANCH   4   5
ENDBRANCH   3   4
ENDBRANCH   2   3
ENDBRANCH   1   2
BRANCH   1  28
ATOM     28  C   UNL A   1      32.163  30.584  26.707  1.00  0.00     0.261 C 
BRANCH  28  29
ATOM     29  O   UNL A   1      33.502  30.845  27.443  1.00  0.00    -0.460 OA
BRANCH  29  30
ATOM     30  C   UNL A   1      34.039  32.036  27.825  1.00  0.00     0.338 C 
ATOM     31  O   UNL A   1      33.526  33.138  27.808  1.00  0.00    -0.246 OA
BRANCH  30  32
ATOM     32  C   UNL A   1      35.294  31.657  28.533  1.00  0.00     0.060 A 
ATOM     33  C   UNL A   1      36.361  32.553  28.523  1.00  0.00     0.016 A 
ATOM     34  C   UNL A   1      35.490  30.328  28.961  1.00  0.00     0.016 A 
ATOM     35  C   UNL A   1      37.628  32.117  28.909  1.00  0.00     0.010 A 
ATOM     36  C   UNL A   1      36.776  29.883  29.307  1.00  0.00     0.010 A 
ATOM     37  C   UNL A   1      37.855  30.780  29.294  1.00  0.00    -0.014 A 
BRANCH  37  38
ATOM     38  C   UNL A   1      39.139  30.468  29.970  1.00  0.00     0.031 A 
ATOM     39  C   UNL A   1      39.539  31.018  31.304  1.00  0.00     0.074 A 
ATOM     40  C   UNL A   1      39.889  29.522  29.373  1.00  0.00     0.049 A 
ATOM     41  N   UNL A   1      40.440  30.556  32.134  1.00  0.00    -0.248 NA
ATOM     42  C   UNL A   1      38.869  32.241  31.763  1.00  0.00     0.031 C 
ATOM     43  C   UNL A   1      39.586  28.942  28.062  1.00  0.00     0.029 A 
ATOM     44  N   UNL A   1      40.998  28.841  29.799  1.00  0.00    -0.354 N 
ATOM     45  C   UNL A   1      40.438  31.417  33.226  1.00  0.00     0.074 A 
ATOM     46  C   UNL A   1      39.470  32.454  32.931  1.00  0.00     0.031 C 
ATOM     47  C   UNL A   1      40.439  27.941  27.823  1.00  0.00     0.029 A 
ATOM     48  C   UNL A   1      41.353  27.816  28.953  1.00  0.00     0.049 A 
ATOM     49  H   UNL A   1      41.489  29.060  30.623  1.00  0.00     0.167 HD
ATOM     50  C   UNL A   1      41.177  31.331  34.362  1.00  0.00     0.031 A 
ATOM     51  C   UNL A   1      42.274  26.843  29.080  1.00  0.00     0.031 A 
ATOM     52  C   UNL A   1      42.150  30.290  34.611  1.00  0.00     0.049 A 
ATOM     53  C   UNL A   1      43.054  26.745  30.353  1.00  0.00     0.074 A 
ATOM     54  C   UNL A   1      42.892  30.067  35.760  1.00  0.00     0.029 A 
ATOM     55  N   UNL A   1      42.535  29.317  33.699  1.00  0.00    -0.354 N 
ATOM     56  N   UNL A   1      42.956  27.490  31.428  1.00  0.00    -0.248 NA
ATOM     57  C   UNL A   1      44.052  25.673  30.442  1.00  0.00     0.031 C 
ATOM     58  C   UNL A   1      43.778  29.014  35.514  1.00  0.00     0.029 A 
ATOM     59  C   UNL A   1      43.539  28.527  34.239  1.00  0.00     0.049 A 
ATOM     60  H   UNL A   1      42.151  29.204  32.799  1.00  0.00     0.167 HD
ATOM     61  C   UNL A   1      43.886  26.982  32.325  1.00  0.00     0.074 A 
ATOM     62  C   UNL A   1      44.515  25.847  31.675  1.00  0.00     0.031 C 
ATOM     63  C   UNL A   1      44.188  27.421  33.571  1.00  0.00     0.031 A 
BRANCH  50  64
ATOM     64  C   UNL A   1      40.987  32.375  35.439  1.00  0.00    -0.014 A 
ATOM     65  C   UNL A   1      39.948  32.231  36.380  1.00  0.00     0.010 A 
ATOM     66  C   UNL A   1      41.739  33.564  35.442  1.00  0.00     0.010 A 
ATOM     67  C   UNL A   1      39.657  33.252  37.292  1.00  0.00     0.020 A 
ATOM     68  C   UNL A   1      41.468  34.580  36.369  1.00  0.00     0.020 A 
ATOM     69  C   UNL A   1      40.418  34.424  37.277  1.00  0.00     0.054 A 
BRANCH  69  70
ATOM     70  S   UNL A   1      40.035  35.737  38.473  1.00  0.00     0.124 S 
ATOM     71  O   UNL A   1      41.286  35.857  39.216  1.00  0.00    -0.237 OA
ATOM     72  O   UNL A   1      39.703  36.869  37.610  1.00  0.00    -0.237 OA
ATOM     73  O   UNL A   1      38.908  35.192  39.227  1.00  0.00    -0.744 OA
ENDBRANCH  69  70
ENDBRANCH  50  64
BRANCH  51  74
ATOM     74  C   UNL A   1      42.395  25.856  27.974  1.00  0.00    -0.014 A 
ATOM     75  C   UNL A   1      41.616  24.684  27.996  1.00  0.00     0.010 A 
ATOM     76  C   UNL A   1      43.425  25.979  27.025  1.00  0.00     0.010 A 
ATOM     77  C   UNL A   1      41.921  23.615  27.153  1.00  0.00     0.020 A 
ATOM     78  C   UNL A   1      43.714  24.921  26.157  1.00  0.00     0.020 A 
ATOM     79  C   UNL A   1      42.987  23.732  26.257  1.00  0.00     0.054 A 
BRANCH  79  80
ATOM     80  S   UNL A   1      43.447  22.285  25.264  1.00  0.00     0.124 S 
ATOM     81  O   UNL A   1      42.355  21.362  25.558  1.00  0.00    -0.237 OA
ATOM     82  O   UNL A   1      43.467  22.823  23.907  1.00  0.00    -0.237 OA
ATOM     83  O   UNL A   1      44.751  21.903  25.800  1.00  0.00    -0.744 OA
ENDBRANCH  79  80
ENDBRANCH  51  74
BRANCH  63  84
ATOM     84  C   UNL A   1      45.291  26.715  34.316  1.00  0.00    -0.014 A 
ATOM     85  C   UNL A   1      44.989  25.634  35.166  1.00  0.00     0.010 A 
ATOM     86  C   UNL A   1      46.609  27.203  34.272  1.00  0.00     0.010 A 
ATOM     87  C   UNL A   1      45.975  25.082  35.987  1.00  0.00     0.020 A 
ATOM     88  C   UNL A   1      47.604  26.635  35.071  1.00  0.00     0.020 A 
ATOM     89  C   UNL A   1      47.274  25.595  35.944  1.00  0.00     0.054 A 
BRANCH  89  90
ATOM     90  S   UNL A   1      48.530  24.896  37.050  1.00  0.00     0.124 S 
ATOM     91  O   UNL A   1      49.205  26.092  37.544  1.00  0.00    -0.237 OA
ATOM     92  O   UNL A   1      47.727  24.174  38.034  1.00  0.00    -0.237 OA
ATOM     93  O   UNL A   1      49.330  24.047  36.168  1.00  0.00    -0.744 OA
ENDBRANCH  89  90
ENDBRANCH  63  84
ENDBRANCH  37  38
ENDBRANCH  30  32
ENDBRANCH  29  30
ENDBRANCH  28  29
ENDBRANCH   1  28
TORSDOF 19
ENDMDL
