MODEL 1
REMARK VINA RESULT:     -11.5      0.000      0.000
REMARK SMILES O=C(OCCOCCOC(=O)c1ccc(-c2c3nc(c(-c4ccc(S(=O)(=O)[O-])cc4)c4ccc([nH]4)c(-c4ccc(S(=O)(=O)[O-])cc4)c4nc(c(-c5ccc(S(=O)(=O)[O-])cc5)c5ccc2[nH]5)C=C4)C=C3)cc1)C1=Cc2cc(S(F)(F)(F)(F)F)ccc2O[C@@H]1C(F)(F)F
REMARK SMILES IDX 7 1 6 2 5 3 4 4 3 5 2 6 1 7 72 8 73 9 87 10 74 11 86 12
REMARK SMILES IDX 75 13 85 14 76 15 84 16 83 17 88 18 89 19 90 20 91 21 77 22
REMARK SMILES IDX 78 23 79 24 80 25 81 26 82 27 8 28 9 29 10 30 11 31 12 32
REMARK SMILES IDX 13 33 71 34 14 35 70 36 15 37 16 38 17 39 64 40 18 41 69 42
REMARK SMILES IDX 63 43 65 44 19 45 68 46 62 47 61 48 20 50 50 51 31 52 49 53
REMARK SMILES IDX 32 54 35 55 48 56 66 57 33 58 34 59 47 61 67 62 36 63 21 64
REMARK SMILES IDX 22 65 30 66 23 67 29 68 24 69 25 70 26 71 27 72 28 73 51 74
REMARK SMILES IDX 52 75 60 76 53 77 59 78 54 79 55 80 56 81 57 82 58 83 37 84
REMARK SMILES IDX 38 85 46 86 39 87 45 88 40 89 41 90 42 91 43 92 44 93
REMARK H PARENT 65 49 35 60
REMARK Flexibility Score: inf
ROOT
ATOM      1  C   UNL A   1      32.078  28.154  26.387  1.00  0.00     0.202 C 
ENDROOT
BRANCH   1   2
ATOM      2  O   UNL A   1      32.454  27.500  25.184  1.00  0.00    -0.374 OA
BRANCH   2   3
ATOM      3  C   UNL A   1      33.534  26.617  25.444  1.00  0.00     0.202 C 
BRANCH   3   4
ATOM      4  C   UNL A   1      33.961  25.945  24.149  1.00  0.00     0.261 C 
BRANCH   4   5
ATOM      5  O   UNL A   1      34.213  24.568  24.390  1.00  0.00    -0.460 OA
BRANCH   5   6
ATOM      6  C   UNL A   1      33.405  23.579  23.770  1.00  0.00     0.338 C 
ATOM      7  O   UNL A   1      33.745  23.094  22.645  1.00  0.00    -0.246 OA
BRANCH   6   8
ATOM      8  C   UNL A   1      32.132  23.101  24.450  1.00  0.00     0.087 C 
ATOM      9  C   UNL A   1      32.029  21.810  24.869  1.00  0.00     0.027 C 
ATOM     10  C   UNL A   1      30.976  24.064  24.663  1.00  0.00     0.316 C 
ATOM     11  C   UNL A   1      33.186  20.847  24.656  1.00  0.00     0.019 A 
ATOM     12  O   UNL A   1      34.736  22.583  25.139  1.00  0.00    -0.475 OA
ATOM     13  C   UNL A   1      32.880  19.547  24.291  1.00  0.00     0.036 A 
ATOM     14  C   UNL A   1      34.434  21.212  24.927  1.00  0.00     0.128 A 
ATOM     15  C   UNL A   1      33.929  18.625  24.521  1.00  0.00     0.107 A 
ATOM     16  C   UNL A   1      35.436  20.274  25.001  1.00  0.00     0.048 A 
ATOM     17  C   UNL A   1      35.192  18.961  24.712  1.00  0.00     0.028 A 
BRANCH  10  18
ATOM     18  C   UNL A   1      30.682  24.183  26.149  1.00  0.00     0.430 C 
ATOM     19  F   UNL A   1      30.153  25.376  26.403  1.00  0.00    -0.167 F 
ATOM     20  F   UNL A   1      29.824  23.232  26.509  1.00  0.00    -0.167 F 
ATOM     21  F   UNL A   1      31.812  24.044  26.838  1.00  0.00    -0.167 F 
ENDBRANCH  10  18
BRANCH  15  22
ATOM     22  S   UNL A   1      33.510  16.865  24.556  1.00  0.00     0.310 S 
ATOM     23  F   UNL A   1      31.960  17.167  24.412  1.00  0.00    -0.094 F 
ATOM     24  F   UNL A   1      33.317  16.973  26.116  1.00  0.00    -0.094 F 
ATOM     25  F   UNL A   1      33.149  15.353  24.588  1.00  0.00    -0.094 F 
ATOM     26  F   UNL A   1      33.571  16.808  22.978  1.00  0.00    -0.094 F 
ATOM     27  F   UNL A   1      33.767  18.423  24.494  1.00  0.00    -0.094 F 
ENDBRANCH  15  22
ENDBRANCH   6   8
ENDBRANCH   5   6
ENDBRANCH   4   5
ENDBRANCH   3   4
ENDBRANCH   2   3
ENDBRANCH   1   2
BRANCH   1  28
ATOM     28  C   UNL A   1      33.321  28.480  27.197  1.00  0.00     0.261 C 
BRANCH  28  29
ATOM     29  O   UNL A   1      33.879  29.702  26.739  1.00  0.00    -0.460 OA
BRANCH  29  30
ATOM     30  C   UNL A   1      34.494  30.591  27.660  1.00  0.00     0.338 C 
ATOM     31  O   UNL A   1      33.871  31.626  28.056  1.00  0.00    -0.246 OA
BRANCH  30  32
ATOM     32  C   UNL A   1      35.897  30.306  28.171  1.00  0.00     0.060 A 
ATOM     33  C   UNL A   1      36.952  30.421  27.282  1.00  0.00     0.016 A 
ATOM     34  C   UNL A   1      36.073  29.811  29.391  1.00  0.00     0.016 A 
ATOM     35  C   UNL A   1      38.112  29.711  27.675  1.00  0.00     0.010 A 
ATOM     36  C   UNL A   1      37.277  29.256  29.753  1.00  0.00     0.010 A 
ATOM     37  C   UNL A   1      38.347  29.280  28.902  1.00  0.00    -0.014 A 
BRANCH  37  38
ATOM     38  C   UNL A   1      39.732  28.835  29.343  1.00  0.00     0.031 A 
ATOM     39  C   UNL A   1      40.217  27.571  29.006  1.00  0.00     0.074 A 
ATOM     40  C   UNL A   1      40.491  29.819  29.952  1.00  0.00     0.049 A 
ATOM     41  N   UNL A   1      41.457  27.107  29.168  1.00  0.00    -0.248 NA
ATOM     42  C   UNL A   1      39.404  26.512  28.391  1.00  0.00     0.031 C 
ATOM     43  C   UNL A   1      40.010  31.101  30.288  1.00  0.00     0.029 A 
ATOM     44  N   UNL A   1      41.812  29.751  30.338  1.00  0.00    -0.354 N 
ATOM     45  C   UNL A   1      41.545  25.857  28.706  1.00  0.00     0.074 A 
ATOM     46  C   UNL A   1      40.223  25.454  28.206  1.00  0.00     0.031 C 
ATOM     47  C   UNL A   1      41.022  31.789  30.877  1.00  0.00     0.029 A 
ATOM     48  C   UNL A   1      42.153  30.952  30.919  1.00  0.00     0.049 A 
ATOM     49  H   UNL A   1      42.408  28.978  30.218  1.00  0.00     0.167 HD
ATOM     50  C   UNL A   1      42.676  25.038  28.682  1.00  0.00     0.031 A 
ATOM     51  C   UNL A   1      43.374  31.314  31.464  1.00  0.00     0.031 A 
ATOM     52  C   UNL A   1      43.910  25.417  29.188  1.00  0.00     0.049 A 
ATOM     53  C   UNL A   1      44.490  30.474  31.492  1.00  0.00     0.074 A 
ATOM     54  C   UNL A   1      45.061  24.607  29.165  1.00  0.00     0.029 A 
ATOM     55  N   UNL A   1      44.244  26.608  29.792  1.00  0.00    -0.354 N 
ATOM     56  N   UNL A   1      44.589  29.240  30.996  1.00  0.00    -0.248 NA
ATOM     57  C   UNL A   1      45.780  30.836  32.094  1.00  0.00     0.031 C 
ATOM     58  C   UNL A   1      46.074  25.297  29.754  1.00  0.00     0.029 A 
ATOM     59  C   UNL A   1      45.571  26.549  30.157  1.00  0.00     0.049 A 
ATOM     60  H   UNL A   1      43.639  27.372  29.938  1.00  0.00     0.167 HD
ATOM     61  C   UNL A   1      45.817  28.761  31.195  1.00  0.00     0.074 A 
ATOM     62  C   UNL A   1      46.600  29.777  31.912  1.00  0.00     0.031 C 
ATOM     63  C   UNL A   1      46.320  27.518  30.806  1.00  0.00     0.031 A 
BRANCH  50  64
ATOM     64  C   UNL A   1      42.546  23.654  28.068  1.00  0.00    -0.014 A 
ATOM     65  C   UNL A   1      42.814  23.557  26.712  1.00  0.00     0.010 A 
ATOM     66  C   UNL A   1      42.242  22.581  28.787  1.00  0.00     0.010 A 
ATOM     67  C   UNL A   1      42.451  22.315  26.143  1.00  0.00     0.020 A 
ATOM     68  C   UNL A   1      42.033  21.367  28.179  1.00  0.00     0.020 A 
ATOM     69  C   UNL A   1      42.222  21.213  26.835  1.00  0.00     0.054 A 
BRANCH  69  70
ATOM     70  S   UNL A   1      42.162  19.586  26.043  1.00  0.00     0.124 S 
ATOM     71  O   UNL A   1      43.033  19.599  24.784  1.00  0.00    -0.237 OA
ATOM     72  O   UNL A   1      42.687  18.526  27.015  1.00  0.00    -0.237 OA
ATOM     73  O   UNL A   1      40.548  19.218  25.616  1.00  0.00    -0.744 OA
ENDBRANCH  69  70
ENDBRANCH  50  64
BRANCH  51  74
ATOM     74  C   UNL A   1      43.509  32.704  32.063  1.00  0.00    -0.014 A 
ATOM     75  C   UNL A   1      43.101  32.979  33.357  1.00  0.00     0.010 A 
ATOM     76  C   UNL A   1      43.983  33.660  31.272  1.00  0.00     0.010 A 
ATOM     77  C   UNL A   1      42.962  34.361  33.633  1.00  0.00     0.020 A 
ATOM     78  C   UNL A   1      43.938  34.976  31.662  1.00  0.00     0.020 A 
ATOM     79  C   UNL A   1      43.491  35.327  32.906  1.00  0.00     0.054 A 
BRANCH  79  80
ATOM     80  S   UNL A   1      43.620  37.024  33.522  1.00  0.00     0.124 S 
ATOM     81  O   UNL A   1      44.881  37.162  34.378  1.00  0.00    -0.237 OA
ATOM     82  O   UNL A   1      43.698  37.991  32.338  1.00  0.00    -0.237 OA
ATOM     83  O   UNL A   1      42.245  37.393  34.469  1.00  0.00    -0.744 OA
ENDBRANCH  79  80
ENDBRANCH  51  74
BRANCH  63  84
ATOM     84  C   UNL A   1      47.777  27.208  31.112  1.00  0.00    -0.014 A 
ATOM     85  C   UNL A   1      48.673  27.242  30.057  1.00  0.00     0.010 A 
ATOM     86  C   UNL A   1      48.150  26.807  32.321  1.00  0.00     0.010 A 
ATOM     87  C   UNL A   1      49.883  26.554  30.311  1.00  0.00     0.020 A 
ATOM     88  C   UNL A   1      49.397  26.269  32.525  1.00  0.00     0.020 A 
ATOM     89  C   UNL A   1      50.315  26.217  31.513  1.00  0.00     0.054 A 
BRANCH  89  90
ATOM     90  S   UNL A   1      52.029  25.712  31.804  1.00  0.00     0.124 S 
ATOM     91  O   UNL A   1      52.080  24.206  32.068  1.00  0.00    -0.237 OA
ATOM     92  O   UNL A   1      52.874  26.044  30.572  1.00  0.00    -0.237 OA
ATOM     93  O   UNL A   1      52.647  26.550  33.160  1.00  0.00    -0.744 OA
ENDBRANCH  89  90
ENDBRANCH  63  84
ENDBRANCH  37  38
ENDBRANCH  30  32
ENDBRANCH  29  30
ENDBRANCH  28  29
ENDBRANCH   1  28
TORSDOF 19
ENDMDL
MODEL 2
REMARK VINA RESULT:     -11.3      4.104      9.895
REMARK SMILES O=C(OCCOCCOC(=O)c1ccc(-c2c3nc(c(-c4ccc(S(=O)(=O)[O-])cc4)c4ccc([nH]4)c(-c4ccc(S(=O)(=O)[O-])cc4)c4nc(c(-c5ccc(S(=O)(=O)[O-])cc5)c5ccc2[nH]5)C=C4)C=C3)cc1)C1=Cc2cc(S(F)(F)(F)(F)F)ccc2O[C@@H]1C(F)(F)F
REMARK SMILES IDX 7 1 6 2 5 3 4 4 3 5 2 6 1 7 72 8 73 9 87 10 74 11 86 12
REMARK SMILES IDX 75 13 85 14 76 15 84 16 83 17 88 18 89 19 90 20 91 21 77 22
REMARK SMILES IDX 78 23 79 24 80 25 81 26 82 27 8 28 9 29 10 30 11 31 12 32
REMARK SMILES IDX 13 33 71 34 14 35 70 36 15 37 16 38 17 39 64 40 18 41 69 42
REMARK SMILES IDX 63 43 65 44 19 45 68 46 62 47 61 48 20 50 50 51 31 52 49 53
REMARK SMILES IDX 32 54 35 55 48 56 66 57 33 58 34 59 47 61 67 62 36 63 21 64
REMARK SMILES IDX 22 65 30 66 23 67 29 68 24 69 25 70 26 71 27 72 28 73 51 74
REMARK SMILES IDX 52 75 60 76 53 77 59 78 54 79 55 80 56 81 57 82 58 83 37 84
REMARK SMILES IDX 38 85 46 86 39 87 45 88 40 89 41 90 42 91 43 92 44 93
REMARK H PARENT 65 49 35 60
REMARK Flexibility Score: inf
ROOT
ATOM      1  C   UNL A   1      35.595  23.392  26.171  1.00  0.00     0.202 C 
ENDROOT
BRANCH   1   2
ATOM      2  O   UNL A   1      34.296  22.821  26.169  1.00  0.00    -0.374 OA
BRANCH   2   3
ATOM      3  C   UNL A   1      33.481  23.502  25.227  1.00  0.00     0.202 C 
BRANCH   3   4
ATOM      4  C   UNL A   1      34.075  24.872  24.941  1.00  0.00     0.261 C 
BRANCH   4   5
ATOM      5  O   UNL A   1      33.091  25.871  25.167  1.00  0.00    -0.460 OA
BRANCH   5   6
ATOM      6  C   UNL A   1      33.104  27.066  24.402  1.00  0.00     0.338 C 
ATOM      7  O   UNL A   1      33.089  27.008  23.132  1.00  0.00    -0.246 OA
BRANCH   6   8
ATOM      8  C   UNL A   1      33.136  28.416  25.100  1.00  0.00     0.087 C 
ATOM      9  C   UNL A   1      32.100  29.285  24.949  1.00  0.00     0.027 C 
ATOM     10  C   UNL A   1      34.326  28.795  25.968  1.00  0.00     0.316 C 
ATOM     11  C   UNL A   1      30.911  28.906  24.081  1.00  0.00     0.019 A 
ATOM     12  O   UNL A   1      31.039  26.665  24.863  1.00  0.00    -0.475 OA
ATOM     13  C   UNL A   1      30.354  29.895  23.288  1.00  0.00     0.036 A 
ATOM     14  C   UNL A   1      30.357  27.702  24.173  1.00  0.00     0.128 A 
ATOM     15  C   UNL A   1      29.039  29.606  22.851  1.00  0.00     0.107 A 
ATOM     16  C   UNL A   1      29.132  27.451  23.604  1.00  0.00     0.048 A 
ATOM     17  C   UNL A   1      28.496  28.402  22.857  1.00  0.00     0.028 A 
BRANCH  10  18
ATOM     18  C   UNL A   1      33.854  29.055  27.389  1.00  0.00     0.430 C 
ATOM     19  F   UNL A   1      33.278  30.252  27.453  1.00  0.00    -0.167 F 
ATOM     20  F   UNL A   1      32.976  28.121  27.742  1.00  0.00    -0.167 F 
ATOM     21  F   UNL A   1      34.896  29.020  28.215  1.00  0.00    -0.167 F 
ENDBRANCH  10  18
BRANCH  15  22
ATOM     22  S   UNL A   1      28.033  30.982  22.241  1.00  0.00     0.310 S 
ATOM     23  F   UNL A   1      29.307  31.907  22.046  1.00  0.00    -0.094 F 
ATOM     24  F   UNL A   1      27.946  31.530  23.715  1.00  0.00    -0.094 F 
ATOM     25  F   UNL A   1      27.170  32.165  21.719  1.00  0.00    -0.094 F 
ATOM     26  F   UNL A   1      28.250  30.495  20.753  1.00  0.00    -0.094 F 
ATOM     27  F   UNL A   1      29.005  29.839  22.740  1.00  0.00    -0.094 F 
ENDBRANCH  15  22
ENDBRANCH   6   8
ENDBRANCH   5   6
ENDBRANCH   4   5
ENDBRANCH   3   4
ENDBRANCH   2   3
ENDBRANCH   1   2
BRANCH   1  28
ATOM     28  C   UNL A   1      36.609  22.348  25.734  1.00  0.00     0.261 C 
BRANCH  28  29
ATOM     29  O   UNL A   1      37.816  22.990  25.350  1.00  0.00    -0.460 OA
BRANCH  29  30
ATOM     30  C   UNL A   1      38.991  22.815  26.127  1.00  0.00     0.338 C 
ATOM     31  O   UNL A   1      39.529  21.667  26.216  1.00  0.00    -0.246 OA
BRANCH  30  32
ATOM     32  C   UNL A   1      39.608  24.001  26.851  1.00  0.00     0.060 A 
ATOM     33  C   UNL A   1      39.209  24.249  28.154  1.00  0.00     0.016 A 
ATOM     34  C   UNL A   1      40.382  24.855  26.193  1.00  0.00     0.016 A 
ATOM     35  C   UNL A   1      39.445  25.578  28.582  1.00  0.00     0.010 A 
ATOM     36  C   UNL A   1      40.684  26.083  26.730  1.00  0.00     0.010 A 
ATOM     37  C   UNL A   1      40.273  26.419  27.990  1.00  0.00    -0.014 A 
BRANCH  37  38
ATOM     38  C   UNL A   1      40.743  27.694  28.673  1.00  0.00     0.031 A 
ATOM     39  C   UNL A   1      39.892  28.791  28.802  1.00  0.00     0.074 A 
ATOM     40  C   UNL A   1      41.991  27.608  29.265  1.00  0.00     0.049 A 
ATOM     41  N   UNL A   1      40.096  29.900  29.515  1.00  0.00    -0.248 NA
ATOM     42  C   UNL A   1      38.580  28.900  28.146  1.00  0.00     0.031 C 
ATOM     43  C   UNL A   1      42.854  26.500  29.146  1.00  0.00     0.029 A 
ATOM     44  N   UNL A   1      42.618  28.546  30.055  1.00  0.00    -0.354 N 
ATOM     45  C   UNL A   1      39.045  30.717  29.409  1.00  0.00     0.074 A 
ATOM     46  C   UNL A   1      38.058  30.087  28.521  1.00  0.00     0.031 C 
ATOM     47  C   UNL A   1      43.987  26.771  29.844  1.00  0.00     0.029 A 
ATOM     48  C   UNL A   1      43.853  28.052  30.412  1.00  0.00     0.049 A 
ATOM     49  H   UNL A   1      42.248  29.419  30.319  1.00  0.00     0.167 HD
ATOM     50  C   UNL A   1      38.872  31.960  30.019  1.00  0.00     0.031 A 
ATOM     51  C   UNL A   1      44.823  28.669  31.186  1.00  0.00     0.031 A 
ATOM     52  C   UNL A   1      39.824  32.559  30.829  1.00  0.00     0.049 A 
ATOM     53  C   UNL A   1      44.673  29.939  31.749  1.00  0.00     0.074 A 
ATOM     54  C   UNL A   1      39.662  33.808  31.457  1.00  0.00     0.029 A 
ATOM     55  N   UNL A   1      41.069  32.075  31.165  1.00  0.00    -0.354 N 
ATOM     56  N   UNL A   1      43.608  30.738  31.675  1.00  0.00    -0.248 NA
ATOM     57  C   UNL A   1      45.706  30.616  32.544  1.00  0.00     0.031 C 
ATOM     58  C   UNL A   1      40.797  34.079  32.156  1.00  0.00     0.029 A 
ATOM     59  C   UNL A   1      41.686  33.003  31.974  1.00  0.00     0.049 A 
ATOM     60  H   UNL A   1      41.452  31.215  30.878  1.00  0.00     0.167 HD
ATOM     61  C   UNL A   1      43.829  31.864  32.355  1.00  0.00     0.074 A 
ATOM     62  C   UNL A   1      45.185  31.805  32.918  1.00  0.00     0.031 C 
ATOM     63  C   UNL A   1      42.954  32.937  32.532  1.00  0.00     0.031 A 
BRANCH  50  64
ATOM     64  C   UNL A   1      37.565  32.699  29.781  1.00  0.00    -0.014 A 
ATOM     65  C   UNL A   1      36.536  32.428  30.668  1.00  0.00     0.010 A 
ATOM     66  C   UNL A   1      37.419  33.594  28.811  1.00  0.00     0.010 A 
ATOM     67  C   UNL A   1      35.283  32.948  30.269  1.00  0.00     0.020 A 
ATOM     68  C   UNL A   1      36.194  34.164  28.563  1.00  0.00     0.020 A 
ATOM     69  C   UNL A   1      35.120  33.896  29.364  1.00  0.00     0.054 A 
BRANCH  69  70
ATOM     70  S   UNL A   1      33.556  34.792  29.194  1.00  0.00     0.124 S 
ATOM     71  O   UNL A   1      32.859  34.867  30.555  1.00  0.00    -0.237 OA
ATOM     72  O   UNL A   1      33.832  36.209  28.684  1.00  0.00    -0.237 OA
ATOM     73  O   UNL A   1      32.548  33.973  28.081  1.00  0.00    -0.744 OA
ENDBRANCH  69  70
ENDBRANCH  50  64
BRANCH  51  74
ATOM     74  C   UNL A   1      46.123  27.923  31.438  1.00  0.00    -0.014 A 
ATOM     75  C   UNL A   1      47.196  28.021  30.569  1.00  0.00     0.010 A 
ATOM     76  C   UNL A   1      46.166  27.126  32.500  1.00  0.00     0.010 A 
ATOM     77  C   UNL A   1      48.172  27.011  30.747  1.00  0.00     0.020 A 
ATOM     78  C   UNL A   1      47.216  26.260  32.682  1.00  0.00     0.020 A 
ATOM     79  C   UNL A   1      48.285  26.260  31.827  1.00  0.00     0.054 A 
BRANCH  79  80
ATOM     80  S   UNL A   1      49.772  25.285  32.161  1.00  0.00     0.124 S 
ATOM     81  O   UNL A   1      49.465  24.238  33.234  1.00  0.00    -0.237 OA
ATOM     82  O   UNL A   1      50.219  24.582  30.876  1.00  0.00    -0.237 OA
ATOM     83  O   UNL A   1      51.019  26.317  32.710  1.00  0.00    -0.744 OA
ENDBRANCH  79  80
ENDBRANCH  51  74
BRANCH  63  84
ATOM     84  C   UNL A   1      43.418  34.104  33.389  1.00  0.00    -0.014 A 
ATOM     85  C   UNL A   1      43.062  34.098  34.726  1.00  0.00     0.010 A 
ATOM     86  C   UNL A   1      44.041  35.144  32.846  1.00  0.00     0.010 A 
ATOM     87  C   UNL A   1      43.150  35.366  35.349  1.00  0.00     0.020 A 
ATOM     88  C   UNL A   1      44.213  36.306  33.559  1.00  0.00     0.020 A 
ATOM     89  C   UNL A   1      43.831  36.390  34.869  1.00  0.00     0.054 A 
BRANCH  89  90
ATOM     90  S   UNL A   1      44.237  37.828  35.890  1.00  0.00     0.124 S 
ATOM     91  O   UNL A   1      45.742  37.856  36.160  1.00  0.00    -0.237 OA
ATOM     92  O   UNL A   1      43.825  39.107  35.157  1.00  0.00    -0.237 OA
ATOM     93  O   UNL A   1      43.394  37.728  37.375  1.00  0.00    -0.744 OA
ENDBRANCH  89  90
ENDBRANCH  63  84
ENDBRANCH  37  38
ENDBRANCH  30  32
ENDBRANCH  29  30
ENDBRANCH  28  29
ENDBRANCH   1  28
TORSDOF 19
ENDMDL
MODEL 3
REMARK VINA RESULT:     -11.2      3.580      4.516
REMARK SMILES O=C(OCCOCCOC(=O)c1ccc(-c2c3nc(c(-c4ccc(S(=O)(=O)[O-])cc4)c4ccc([nH]4)c(-c4ccc(S(=O)(=O)[O-])cc4)c4nc(c(-c5ccc(S(=O)(=O)[O-])cc5)c5ccc2[nH]5)C=C4)C=C3)cc1)C1=Cc2cc(S(F)(F)(F)(F)F)ccc2O[C@@H]1C(F)(F)F
REMARK SMILES IDX 7 1 6 2 5 3 4 4 3 5 2 6 1 7 72 8 73 9 87 10 74 11 86 12
REMARK SMILES IDX 75 13 85 14 76 15 84 16 83 17 88 18 89 19 90 20 91 21 77 22
REMARK SMILES IDX 78 23 79 24 80 25 81 26 82 27 8 28 9 29 10 30 11 31 12 32
REMARK SMILES IDX 13 33 71 34 14 35 70 36 15 37 16 38 17 39 64 40 18 41 69 42
REMARK SMILES IDX 63 43 65 44 19 45 68 46 62 47 61 48 20 50 50 51 31 52 49 53
REMARK SMILES IDX 32 54 35 55 48 56 66 57 33 58 34 59 47 61 67 62 36 63 21 64
REMARK SMILES IDX 22 65 30 66 23 67 29 68 24 69 25 70 26 71 27 72 28 73 51 74
REMARK SMILES IDX 52 75 60 76 53 77 59 78 54 79 55 80 56 81 57 82 58 83 37 84
REMARK SMILES IDX 38 85 46 86 39 87 45 88 40 89 41 90 42 91 43 92 44 93
REMARK H PARENT 65 49 35 60
REMARK Flexibility Score: inf
ROOT
ATOM      1  C   UNL A   1      33.598  29.190  26.639  1.00  0.00     0.202 C 
ENDROOT
BRANCH   1   2
ATOM      2  O   UNL A   1      34.119  27.964  26.147  1.00  0.00    -0.374 OA
BRANCH   2   3
ATOM      3  C   UNL A   1      33.222  26.910  26.457  1.00  0.00     0.202 C 
BRANCH   3   4
ATOM      4  C   UNL A   1      32.987  26.063  25.217  1.00  0.00     0.261 C 
BRANCH   4   5
ATOM      5  O   UNL A   1      34.054  25.138  25.066  1.00  0.00    -0.460 OA
BRANCH   5   6
ATOM      6  C   UNL A   1      34.028  23.903  25.766  1.00  0.00     0.338 C 
ATOM      7  O   UNL A   1      32.938  23.476  26.261  1.00  0.00    -0.246 OA
BRANCH   6   8
ATOM      8  C   UNL A   1      35.304  23.092  25.924  1.00  0.00     0.087 C 
ATOM      9  C   UNL A   1      35.360  21.814  25.460  1.00  0.00     0.027 C 
ATOM     10  C   UNL A   1      36.518  23.709  26.602  1.00  0.00     0.316 C 
ATOM     11  C   UNL A   1      34.147  21.198  24.783  1.00  0.00     0.019 A 
ATOM     12  O   UNL A   1      33.658  23.277  23.739  1.00  0.00    -0.475 OA
ATOM     13  C   UNL A   1      33.867  19.869  25.053  1.00  0.00     0.036 A 
ATOM     14  C   UNL A   1      33.454  21.878  23.876  1.00  0.00     0.128 A 
ATOM     15  C   UNL A   1      33.018  19.257  24.100  1.00  0.00     0.107 A 
ATOM     16  C   UNL A   1      32.542  21.241  23.071  1.00  0.00     0.048 A 
ATOM     17  C   UNL A   1      32.258  19.915  23.243  1.00  0.00     0.028 A 
BRANCH  10  18
ATOM     18  C   UNL A   1      37.688  23.722  25.631  1.00  0.00     0.430 C 
ATOM     19  F   UNL A   1      38.263  22.523  25.614  1.00  0.00    -0.167 F 
ATOM     20  F   UNL A   1      37.249  24.021  24.412  1.00  0.00    -0.167 F 
ATOM     21  F   UNL A   1      38.575  24.634  26.019  1.00  0.00    -0.167 F 
ENDBRANCH  10  18
BRANCH  15  22
ATOM     22  S   UNL A   1      32.970  17.449  24.054  1.00  0.00     0.310 S 
ATOM     23  F   UNL A   1      34.005  17.329  25.250  1.00  0.00    -0.094 F 
ATOM     24  F   UNL A   1      34.206  17.472  23.077  1.00  0.00    -0.094 F 
ATOM     25  F   UNL A   1      32.933  15.895  24.014  1.00  0.00    -0.094 F 
ATOM     26  F   UNL A   1      31.824  17.440  25.141  1.00  0.00    -0.094 F 
ATOM     27  F   UNL A   1      33.070  19.020  24.193  1.00  0.00    -0.094 F 
ENDBRANCH  15  22
ENDBRANCH   6   8
ENDBRANCH   5   6
ENDBRANCH   4   5
ENDBRANCH   3   4
ENDBRANCH   2   3
ENDBRANCH   1   2
BRANCH   1  28
ATOM     28  C   UNL A   1      34.605  29.827  27.583  1.00  0.00     0.261 C 
BRANCH  28  29
ATOM     29  O   UNL A   1      35.795  29.054  27.598  1.00  0.00    -0.460 OA
BRANCH  29  30
ATOM     30  C   UNL A   1      36.796  29.311  28.571  1.00  0.00     0.338 C 
ATOM     31  O   UNL A   1      36.485  29.864  29.672  1.00  0.00    -0.246 OA
BRANCH  30  32
ATOM     32  C   UNL A   1      38.241  28.924  28.296  1.00  0.00     0.060 A 
ATOM     33  C   UNL A   1      38.965  28.334  29.318  1.00  0.00     0.016 A 
ATOM     34  C   UNL A   1      38.824  29.290  27.161  1.00  0.00     0.016 A 
ATOM     35  C   UNL A   1      40.368  28.434  29.160  1.00  0.00     0.010 A 
ATOM     36  C   UNL A   1      40.190  29.234  27.026  1.00  0.00     0.010 A 
ATOM     37  C   UNL A   1      40.974  28.717  28.020  1.00  0.00    -0.014 A 
BRANCH  37  38
ATOM     38  C   UNL A   1      42.463  28.481  27.826  1.00  0.00     0.031 A 
ATOM     39  C   UNL A   1      42.934  27.272  27.313  1.00  0.00     0.074 A 
ATOM     40  C   UNL A   1      43.260  29.589  28.052  1.00  0.00     0.049 A 
ATOM     41  N   UNL A   1      44.178  26.981  26.929  1.00  0.00    -0.248 NA
ATOM     42  C   UNL A   1      42.096  26.082  27.105  1.00  0.00     0.031 C 
ATOM     43  C   UNL A   1      42.791  30.816  28.561  1.00  0.00     0.029 A 
ATOM     44  N   UNL A   1      44.615  29.715  27.835  1.00  0.00    -0.354 N 
ATOM     45  C   UNL A   1      44.238  25.727  26.473  1.00  0.00     0.074 A 
ATOM     46  C   UNL A   1      42.901  25.129  26.586  1.00  0.00     0.031 C 
ATOM     47  C   UNL A   1      43.848  31.664  28.662  1.00  0.00     0.029 A 
ATOM     48  C   UNL A   1      44.996  30.982  28.215  1.00  0.00     0.049 A 
ATOM     49  H   UNL A   1      45.208  29.018  27.472  1.00  0.00     0.167 HD
ATOM     50  C   UNL A   1      45.356  25.060  25.967  1.00  0.00     0.031 A 
ATOM     51  C   UNL A   1      46.268  31.530  28.185  1.00  0.00     0.031 A 
ATOM     52  C   UNL A   1      46.620  25.624  25.896  1.00  0.00     0.049 A 
ATOM     53  C   UNL A   1      47.398  30.844  27.733  1.00  0.00     0.074 A 
ATOM     54  C   UNL A   1      47.755  24.969  25.383  1.00  0.00     0.029 A 
ATOM     55  N   UNL A   1      47.006  26.883  26.300  1.00  0.00    -0.354 N 
ATOM     56  N   UNL A   1      47.451  29.605  27.241  1.00  0.00    -0.248 NA
ATOM     57  C   UNL A   1      48.756  31.404  27.725  1.00  0.00     0.031 C 
ATOM     58  C   UNL A   1      48.813  25.817  25.482  1.00  0.00     0.029 A 
ATOM     59  C   UNL A   1      48.356  27.016  26.062  1.00  0.00     0.049 A 
ATOM     60  H   UNL A   1      46.419  27.570  26.691  1.00  0.00     0.167 HD
ATOM     61  C   UNL A   1      48.703  29.300  26.896  1.00  0.00     0.074 A 
ATOM     62  C   UNL A   1      49.562  30.450  27.210  1.00  0.00     0.031 C 
ATOM     63  C   UNL A   1      49.164  28.111  26.328  1.00  0.00     0.031 A 
BRANCH  50  64
ATOM     64  C   UNL A   1      45.176  23.637  25.467  1.00  0.00    -0.014 A 
ATOM     65  C   UNL A   1      45.595  22.629  26.319  1.00  0.00     0.010 A 
ATOM     66  C   UNL A   1      44.606  23.359  24.300  1.00  0.00     0.010 A 
ATOM     67  C   UNL A   1      45.630  21.349  25.720  1.00  0.00     0.020 A 
ATOM     68  C   UNL A   1      44.555  22.066  23.836  1.00  0.00     0.020 A 
ATOM     69  C   UNL A   1      45.005  21.027  24.602  1.00  0.00     0.054 A 
BRANCH  69  70
ATOM     70  S   UNL A   1      44.756  19.303  24.110  1.00  0.00     0.124 S 
ATOM     71  O   UNL A   1      44.548  19.230  22.595  1.00  0.00    -0.237 OA
ATOM     72  O   UNL A   1      45.988  18.480  24.496  1.00  0.00    -0.237 OA
ATOM     73  O   UNL A   1      43.379  18.676  24.906  1.00  0.00    -0.744 OA
ENDBRANCH  69  70
ENDBRANCH  50  64
BRANCH  51  74
ATOM     74  C   UNL A   1      46.446  32.960  28.670  1.00  0.00    -0.014 A 
ATOM     75  C   UNL A   1      46.362  34.036  27.803  1.00  0.00     0.010 A 
ATOM     76  C   UNL A   1      46.741  33.130  29.953  1.00  0.00     0.010 A 
ATOM     77  C   UNL A   1      46.895  35.238  28.328  1.00  0.00     0.020 A 
ATOM     78  C   UNL A   1      47.124  34.362  30.425  1.00  0.00     0.020 A 
ATOM     79  C   UNL A   1      47.123  35.460  29.609  1.00  0.00     0.054 A 
BRANCH  79  80
ATOM     80  S   UNL A   1      47.416  37.126  30.252  1.00  0.00     0.124 S 
ATOM     81  O   UNL A   1      46.446  37.407  31.402  1.00  0.00    -0.237 OA
ATOM     82  O   UNL A   1      48.856  37.230  30.761  1.00  0.00    -0.237 OA
ATOM     83  O   UNL A   1      47.168  38.270  29.005  1.00  0.00    -0.744 OA
ENDBRANCH  79  80
ENDBRANCH  51  74
BRANCH  63  84
ATOM     84  C   UNL A   1      50.640  28.010  25.981  1.00  0.00    -0.014 A 
ATOM     85  C   UNL A   1      51.012  28.291  24.678  1.00  0.00     0.010 A 
ATOM     86  C   UNL A   1      51.520  27.556  26.866  1.00  0.00     0.010 A 
ATOM     87  C   UNL A   1      52.285  27.784  24.322  1.00  0.00     0.020 A 
ATOM     88  C   UNL A   1      52.790  27.207  26.474  1.00  0.00     0.020 A 
ATOM     89  C   UNL A   1      53.207  27.403  25.187  1.00  0.00     0.054 A 
BRANCH  89  90
ATOM     90  S   UNL A   1      54.931  27.153  24.694  1.00  0.00     0.124 S 
ATOM     91  O   UNL A   1      55.855  27.824  25.712  1.00  0.00    -0.237 OA
ATOM     92  O   UNL A   1      55.233  25.654  24.639  1.00  0.00    -0.237 OA
ATOM     93  O   UNL A   1      55.187  27.842  23.150  1.00  0.00    -0.744 OA
ENDBRANCH  89  90
ENDBRANCH  63  84
ENDBRANCH  37  38
ENDBRANCH  30  32
ENDBRANCH  29  30
ENDBRANCH  28  29
ENDBRANCH   1  28
TORSDOF 19
ENDMDL
