MODEL 1
REMARK VINA RESULT:      -9.4      0.000      0.000
REMARK SMILES CC(C)Cc1ccc([C@H](CC[C@@H](C)O)C(=O)OCCOCCOC(=O)c2ccc(-c3c4nc(c(-c5ccc(S(=O)(=O)[O-])cc5)c5ccc([nH]5)c(-c5ccc(S(=O)(=O)[O-])cc5)c5nc(c(-c6ccc(S(=O)(=O)[O-])cc6)c6ccc3[nH]6)C=C5)C=C4)cc2)cc1
REMARK SMILES IDX 19 1 18 2 17 3 15 4 16 5 9 6 8 7 5 8 6 9 87 10 7 11 86 12
REMARK SMILES IDX 4 13 2 14 1 15 3 16 10 17 11 18 12 19 13 20 14 21 20 23
REMARK SMILES IDX 21 24 22 25 23 26 24 27 25 28 26 29 27 30 85 31 28 32 84 33
REMARK SMILES IDX 29 34 30 35 31 36 78 37 32 38 83 39 77 40 79 41 33 42 82 43
REMARK SMILES IDX 76 44 75 45 34 47 64 48 45 49 63 50 46 51 49 52 62 53 80 54
REMARK SMILES IDX 47 55 48 56 61 58 81 59 50 60 35 61 36 62 44 63 37 64 43 65
REMARK SMILES IDX 38 66 39 67 40 68 41 69 42 70 65 71 66 72 74 73 67 74 73 75
REMARK SMILES IDX 68 76 69 77 70 78 71 79 72 80 51 81 52 82 60 83 53 84 59 85
REMARK SMILES IDX 54 86 55 87 56 88 57 89 58 90
REMARK H PARENT 14 22 79 46 49 57
REMARK Flexibility Score: inf
ROOT
ATOM      1  C   UNL A   1      34.219  29.993  26.986  1.00  0.00     0.202 C 
ENDROOT
BRANCH   1   2
ATOM      2  C   UNL A   1      33.470  28.659  26.926  1.00  0.00     0.261 C 
BRANCH   2   3
ATOM      3  O   UNL A   1      32.400  28.664  25.966  1.00  0.00    -0.463 OA
BRANCH   3   4
ATOM      4  C   UNL A   1      31.430  27.732  26.176  1.00  0.00     0.313 C 
ATOM      5  O   UNL A   1      31.137  27.264  27.274  1.00  0.00    -0.252 OA
BRANCH   4   6
ATOM      6  C   UNL A   1      30.734  27.290  24.887  1.00  0.00     0.129 C 
BRANCH   6   7
ATOM      7  C   UNL A   1      31.196  25.914  24.484  1.00  0.00    -0.034 A 
ATOM      8  C   UNL A   1      32.095  23.367  23.740  1.00  0.00    -0.048 A 
ATOM      9  C   UNL A   1      31.098  23.503  24.711  1.00  0.00     0.004 A 
ATOM     10  C   UNL A   1      32.651  24.511  23.156  1.00  0.00     0.004 A 
ATOM     11  C   UNL A   1      30.652  24.767  25.082  1.00  0.00     0.005 A 
ATOM     12  C   UNL A   1      32.196  25.774  23.514  1.00  0.00     0.005 A 
BRANCH   8  13
ATOM     13  C   UNL A   1      32.496  21.996  23.263  1.00  0.00     0.038 C 
BRANCH  13  14
ATOM     14  C   UNL A   1      32.913  21.085  24.434  1.00  0.00    -0.013 C 
ATOM     15  C   UNL A   1      32.894  19.601  24.052  1.00  0.00     0.008 C 
ATOM     16  C   UNL A   1      34.305  21.478  24.922  1.00  0.00     0.008 C 
ENDBRANCH  13  14
ENDBRANCH   8  13
ENDBRANCH   6   7
BRANCH   6  17
ATOM     17  C   UNL A   1      30.637  28.342  23.755  1.00  0.00     0.023 C 
BRANCH  17  18
ATOM     18  C   UNL A   1      29.509  28.269  22.711  1.00  0.00     0.033 C 
BRANCH  18  19
ATOM     19  C   UNL A   1      28.262  29.148  22.919  1.00  0.00     0.111 C 
ATOM     20  C   UNL A   1      27.952  30.107  21.779  1.00  0.00     0.038 C 
BRANCH  19  21
ATOM     21  O   UNL A   1      27.127  28.297  23.106  1.00  0.00    -0.393 OA
ATOM     22  H   UNL A   1      27.387  27.375  22.950  1.00  0.00     0.210 HD
ENDBRANCH  19  21
ENDBRANCH  18  19
ENDBRANCH  17  18
ENDBRANCH   6  17
ENDBRANCH   4   6
ENDBRANCH   3   4
ENDBRANCH   2   3
ENDBRANCH   1   2
BRANCH   1  23
ATOM     23  O   UNL A   1      33.638  31.034  27.767  1.00  0.00    -0.374 OA
BRANCH  23  24
ATOM     24  C   UNL A   1      34.493  32.066  28.252  1.00  0.00     0.202 C 
BRANCH  24  25
ATOM     25  C   UNL A   1      35.323  31.764  29.507  1.00  0.00     0.261 C 
BRANCH  25  26
ATOM     26  O   UNL A   1      35.833  30.418  29.531  1.00  0.00    -0.460 OA
BRANCH  26  27
ATOM     27  C   UNL A   1      36.647  30.146  30.581  1.00  0.00     0.338 C 
ATOM     28  O   UNL A   1      36.307  29.779  31.697  1.00  0.00    -0.246 OA
BRANCH  27  29
ATOM     29  C   UNL A   1      38.061  30.176  30.170  1.00  0.00     0.060 A 
ATOM     30  C   UNL A   1      38.339  30.059  28.802  1.00  0.00     0.016 A 
ATOM     31  C   UNL A   1      39.098  30.186  31.106  1.00  0.00     0.016 A 
ATOM     32  C   UNL A   1      39.652  29.895  28.367  1.00  0.00     0.010 A 
ATOM     33  C   UNL A   1      40.417  30.012  30.667  1.00  0.00     0.010 A 
ATOM     34  C   UNL A   1      40.695  29.824  29.300  1.00  0.00    -0.014 A 
BRANCH  34  35
ATOM     35  C   UNL A   1      42.042  29.397  28.847  1.00  0.00     0.031 A 
ATOM     36  C   UNL A   1      42.251  27.969  28.417  1.00  0.00     0.074 A 
ATOM     37  C   UNL A   1      43.054  30.280  28.766  1.00  0.00     0.049 A 
ATOM     38  N   UNL A   1      43.337  27.390  27.970  1.00  0.00    -0.248 NA
ATOM     39  C   UNL A   1      41.083  27.077  28.497  1.00  0.00     0.031 C 
ATOM     40  C   UNL A   1      42.967  31.699  29.108  1.00  0.00     0.029 A 
ATOM     41  N   UNL A   1      44.354  30.110  28.363  1.00  0.00    -0.354 N 
ATOM     42  C   UNL A   1      42.985  26.069  27.720  1.00  0.00     0.074 A 
ATOM     43  C   UNL A   1      41.594  25.924  28.089  1.00  0.00     0.031 C 
ATOM     44  C   UNL A   1      44.166  32.270  28.903  1.00  0.00     0.029 A 
ATOM     45  C   UNL A   1      45.111  31.254  28.442  1.00  0.00     0.049 A 
ATOM     46  H   UNL A   1      44.713  29.248  28.048  1.00  0.00     0.167 HD
ATOM     47  C   UNL A   1      43.748  25.067  27.220  1.00  0.00     0.031 A 
ATOM     48  C   UNL A   1      46.419  31.457  28.186  1.00  0.00     0.031 A 
ATOM     49  C   UNL A   1      45.134  25.206  26.862  1.00  0.00     0.049 A 
ATOM     50  C   UNL A   1      47.265  30.311  27.700  1.00  0.00     0.074 A 
ATOM     51  C   UNL A   1      45.987  24.251  26.336  1.00  0.00     0.029 A 
ATOM     52  N   UNL A   1      45.874  26.370  26.999  1.00  0.00    -0.354 N 
ATOM     53  N   UNL A   1      46.910  29.073  27.446  1.00  0.00    -0.248 NA
ATOM     54  C   UNL A   1      48.687  30.591  27.457  1.00  0.00     0.031 C 
ATOM     55  C   UNL A   1      47.257  24.824  26.204  1.00  0.00     0.029 A 
ATOM     56  C   UNL A   1      47.180  26.152  26.594  1.00  0.00     0.049 A 
ATOM     57  H   UNL A   1      45.523  27.226  27.335  1.00  0.00     0.167 HD
ATOM     58  C   UNL A   1      48.059  28.434  26.990  1.00  0.00     0.074 A 
ATOM     59  C   UNL A   1      49.117  29.424  26.992  1.00  0.00     0.031 C 
ATOM     60  C   UNL A   1      48.223  27.145  26.603  1.00  0.00     0.031 A 
BRANCH  47  61
ATOM     61  C   UNL A   1      43.102  23.716  27.061  1.00  0.00    -0.014 A 
ATOM     62  C   UNL A   1      43.033  22.811  28.136  1.00  0.00     0.010 A 
ATOM     63  C   UNL A   1      42.523  23.362  25.830  1.00  0.00     0.010 A 
ATOM     64  C   UNL A   1      42.430  21.561  27.970  1.00  0.00     0.020 A 
ATOM     65  C   UNL A   1      41.898  22.123  25.666  1.00  0.00     0.020 A 
ATOM     66  C   UNL A   1      41.871  21.223  26.733  1.00  0.00     0.054 A 
BRANCH  66  67
ATOM     67  S   UNL A   1      41.079  19.601  26.548  1.00  0.00     0.124 S 
ATOM     68  O   UNL A   1      42.084  18.861  25.789  1.00  0.00    -0.237 OA
ATOM     69  O   UNL A   1      40.897  19.173  27.932  1.00  0.00    -0.237 OA
ATOM     70  O   UNL A   1      39.846  19.898  25.824  1.00  0.00    -0.744 OA
ENDBRANCH  66  67
ENDBRANCH  47  61
BRANCH  48  71
ATOM     71  C   UNL A   1      47.016  32.802  28.404  1.00  0.00    -0.014 A 
ATOM     72  C   UNL A   1      47.738  33.089  29.575  1.00  0.00     0.010 A 
ATOM     73  C   UNL A   1      46.862  33.808  27.430  1.00  0.00     0.010 A 
ATOM     74  C   UNL A   1      48.283  34.361  29.777  1.00  0.00     0.020 A 
ATOM     75  C   UNL A   1      47.428  35.072  27.617  1.00  0.00     0.020 A 
ATOM     76  C   UNL A   1      48.126  35.344  28.794  1.00  0.00     0.054 A 
BRANCH  76  77
ATOM     77  S   UNL A   1      48.888  36.970  29.051  1.00  0.00     0.124 S 
ATOM     78  O   UNL A   1      50.000  36.648  29.938  1.00  0.00    -0.237 OA
ATOM     79  O   UNL A   1      49.253  37.367  27.694  1.00  0.00    -0.237 OA
ATOM     80  O   UNL A   1      47.813  37.758  29.653  1.00  0.00    -0.744 OA
ENDBRANCH  76  77
ENDBRANCH  48  71
BRANCH  60  81
ATOM     81  C   UNL A   1      49.588  26.732  26.118  1.00  0.00    -0.014 A 
ATOM     82  C   UNL A   1      50.036  27.067  24.828  1.00  0.00     0.010 A 
ATOM     83  C   UNL A   1      50.455  26.048  26.989  1.00  0.00     0.010 A 
ATOM     84  C   UNL A   1      51.318  26.700  24.408  1.00  0.00     0.020 A 
ATOM     85  C   UNL A   1      51.747  25.701  26.582  1.00  0.00     0.020 A 
ATOM     86  C   UNL A   1      52.164  26.018  25.288  1.00  0.00     0.054 A 
BRANCH  86  87
ATOM     87  S   UNL A   1      53.840  25.591  24.736  1.00  0.00     0.124 S 
ATOM     88  O   UNL A   1      53.812  26.006  23.336  1.00  0.00    -0.237 OA
ATOM     89  O   UNL A   1      54.684  26.397  25.614  1.00  0.00    -0.237 OA
ATOM     90  O   UNL A   1      53.920  24.149  24.957  1.00  0.00    -0.744 OA
ENDBRANCH  86  87
ENDBRANCH  60  81
ENDBRANCH  34  35
ENDBRANCH  27  29
ENDBRANCH  26  27
ENDBRANCH  25  26
ENDBRANCH  24  25
ENDBRANCH  23  24
ENDBRANCH   1  23
TORSDOF 24
ENDMDL
MODEL 2
REMARK VINA RESULT:      -9.2      5.806     10.461
REMARK SMILES CC(C)Cc1ccc([C@H](CC[C@@H](C)O)C(=O)OCCOCCOC(=O)c2ccc(-c3c4nc(c(-c5ccc(S(=O)(=O)[O-])cc5)c5ccc([nH]5)c(-c5ccc(S(=O)(=O)[O-])cc5)c5nc(c(-c6ccc(S(=O)(=O)[O-])cc6)c6ccc3[nH]6)C=C5)C=C4)cc2)cc1
REMARK SMILES IDX 19 1 18 2 17 3 15 4 16 5 9 6 8 7 5 8 6 9 87 10 7 11 86 12
REMARK SMILES IDX 4 13 2 14 1 15 3 16 10 17 11 18 12 19 13 20 14 21 20 23
REMARK SMILES IDX 21 24 22 25 23 26 24 27 25 28 26 29 27 30 85 31 28 32 84 33
REMARK SMILES IDX 29 34 30 35 31 36 78 37 32 38 83 39 77 40 79 41 33 42 82 43
REMARK SMILES IDX 76 44 75 45 34 47 64 48 45 49 63 50 46 51 49 52 62 53 80 54
REMARK SMILES IDX 47 55 48 56 61 58 81 59 50 60 35 61 36 62 44 63 37 64 43 65
REMARK SMILES IDX 38 66 39 67 40 68 41 69 42 70 65 71 66 72 74 73 67 74 73 75
REMARK SMILES IDX 68 76 69 77 70 78 71 79 72 80 51 81 52 82 60 83 53 84 59 85
REMARK SMILES IDX 54 86 55 87 56 88 57 89 58 90
REMARK H PARENT 14 22 79 46 49 57
REMARK Flexibility Score: inf
ROOT
ATOM      1  C   UNL A   1      31.408  28.516  26.787  1.00  0.00     0.202 C 
ENDROOT
BRANCH   1   2
ATOM      2  C   UNL A   1      31.795  27.043  26.620  1.00  0.00     0.261 C 
BRANCH   2   3
ATOM      3  O   UNL A   1      30.668  26.203  26.317  1.00  0.00    -0.463 OA
BRANCH   3   4
ATOM      4  C   UNL A   1      30.937  24.869  26.270  1.00  0.00     0.313 C 
ATOM      5  O   UNL A   1      31.012  24.137  27.254  1.00  0.00    -0.252 OA
BRANCH   4   6
ATOM      6  C   UNL A   1      31.168  24.354  24.848  1.00  0.00     0.129 C 
BRANCH   6   7
ATOM      7  C   UNL A   1      32.615  23.988  24.648  1.00  0.00    -0.034 A 
ATOM      8  C   UNL A   1      35.299  23.298  24.234  1.00  0.00    -0.048 A 
ATOM      9  C   UNL A   1      34.973  24.525  24.820  1.00  0.00     0.004 A 
ATOM     10  C   UNL A   1      34.277  22.426  23.841  1.00  0.00     0.004 A 
ATOM     11  C   UNL A   1      33.640  24.869  25.024  1.00  0.00     0.005 A 
ATOM     12  C   UNL A   1      32.945  22.761  24.059  1.00  0.00     0.005 A 
BRANCH   8  13
ATOM     13  C   UNL A   1      36.741  22.882  24.115  1.00  0.00     0.038 C 
BRANCH  13  14
ATOM     14  C   UNL A   1      37.329  22.466  25.478  1.00  0.00    -0.013 C 
ATOM     15  C   UNL A   1      38.204  21.213  25.376  1.00  0.00     0.008 C 
ATOM     16  C   UNL A   1      38.139  23.620  26.064  1.00  0.00     0.008 C 
ENDBRANCH  13  14
ENDBRANCH   8  13
ENDBRANCH   6   7
BRANCH   6  17
ATOM     17  C   UNL A   1      30.496  25.152  23.703  1.00  0.00     0.023 C 
BRANCH  17  18
ATOM     18  C   UNL A   1      31.341  25.773  22.578  1.00  0.00     0.033 C 
BRANCH  18  19
ATOM     19  C   UNL A   1      31.280  27.298  22.374  1.00  0.00     0.111 C 
ATOM     20  C   UNL A   1      30.184  28.010  23.153  1.00  0.00     0.038 C 
BRANCH  19  21
ATOM     21  O   UNL A   1      32.538  27.862  22.760  1.00  0.00    -0.393 OA
ATOM     22  H   UNL A   1      32.836  28.483  22.077  1.00  0.00     0.210 HD
ENDBRANCH  19  21
ENDBRANCH  18  19
ENDBRANCH  17  18
ENDBRANCH   6  17
ENDBRANCH   4   6
ENDBRANCH   3   4
ENDBRANCH   2   3
ENDBRANCH   1   2
BRANCH   1  23
ATOM     23  O   UNL A   1      32.386  29.387  27.347  1.00  0.00    -0.374 OA
BRANCH  23  24
ATOM     24  C   UNL A   1      32.703  30.584  26.640  1.00  0.00     0.202 C 
BRANCH  24  25
ATOM     25  C   UNL A   1      32.427  31.917  27.347  1.00  0.00     0.261 C 
BRANCH  25  26
ATOM     26  O   UNL A   1      33.563  32.801  27.341  1.00  0.00    -0.460 OA
BRANCH  26  27
ATOM     27  C   UNL A   1      33.550  33.737  28.322  1.00  0.00     0.338 C 
ATOM     28  O   UNL A   1      32.705  34.604  28.498  1.00  0.00    -0.246 OA
BRANCH  27  29
ATOM     29  C   UNL A   1      34.623  33.487  29.300  1.00  0.00     0.060 A 
ATOM     30  C   UNL A   1      35.905  33.957  28.986  1.00  0.00     0.016 A 
ATOM     31  C   UNL A   1      34.414  32.701  30.435  1.00  0.00     0.016 A 
ATOM     32  C   UNL A   1      36.994  33.595  29.775  1.00  0.00     0.010 A 
ATOM     33  C   UNL A   1      35.512  32.330  31.222  1.00  0.00     0.010 A 
ATOM     34  C   UNL A   1      36.811  32.741  30.871  1.00  0.00    -0.014 A 
BRANCH  34  35
ATOM     35  C   UNL A   1      38.002  32.163  31.543  1.00  0.00     0.031 A 
ATOM     36  C   UNL A   1      38.432  32.718  32.875  1.00  0.00     0.074 A 
ATOM     37  C   UNL A   1      38.659  31.120  31.003  1.00  0.00     0.049 A 
ATOM     38  N   UNL A   1      39.427  32.349  33.642  1.00  0.00    -0.248 NA
ATOM     39  C   UNL A   1      37.635  33.830  33.417  1.00  0.00     0.031 C 
ATOM     40  C   UNL A   1      38.314  30.464  29.743  1.00  0.00     0.029 A 
ATOM     41  N   UNL A   1      39.755  30.429  31.454  1.00  0.00    -0.354 N 
ATOM     42  C   UNL A   1      39.378  33.185  34.752  1.00  0.00     0.074 A 
ATOM     43  C   UNL A   1      38.273  34.097  34.547  1.00  0.00     0.031 C 
ATOM     44  C   UNL A   1      39.185  29.464  29.521  1.00  0.00     0.029 A 
ATOM     45  C   UNL A   1      40.163  29.428  30.606  1.00  0.00     0.049 A 
ATOM     46  H   UNL A   1      40.207  30.631  32.305  1.00  0.00     0.167 HD
ATOM     47  C   UNL A   1      40.175  33.190  35.848  1.00  0.00     0.031 A 
ATOM     48  C   UNL A   1      41.214  28.587  30.687  1.00  0.00     0.031 A 
ATOM     49  C   UNL A   1      41.281  32.293  36.048  1.00  0.00     0.049 A 
ATOM     50  C   UNL A   1      42.130  28.659  31.880  1.00  0.00     0.074 A 
ATOM     51  C   UNL A   1      42.139  32.214  37.131  1.00  0.00     0.029 A 
ATOM     52  N   UNL A   1      41.688  31.324  35.145  1.00  0.00    -0.354 N 
ATOM     53  N   UNL A   1      42.055  29.440  32.932  1.00  0.00    -0.248 NA
ATOM     54  C   UNL A   1      43.268  27.730  31.901  1.00  0.00     0.031 C 
ATOM     55  C   UNL A   1      43.097  31.230  36.859  1.00  0.00     0.029 A 
ATOM     56  C   UNL A   1      42.800  30.659  35.632  1.00  0.00     0.049 A 
ATOM     57  H   UNL A   1      41.250  31.136  34.283  1.00  0.00     0.167 HD
ATOM     58  C   UNL A   1      43.120  29.079  33.750  1.00  0.00     0.074 A 
ATOM     59  C   UNL A   1      43.818  28.002  33.078  1.00  0.00     0.031 C 
ATOM     60  C   UNL A   1      43.486  29.591  34.952  1.00  0.00     0.031 A 
BRANCH  47  61
ATOM     61  C   UNL A   1      39.896  34.227  36.903  1.00  0.00    -0.014 A 
ATOM     62  C   UNL A   1      39.016  33.963  37.968  1.00  0.00     0.010 A 
ATOM     63  C   UNL A   1      40.553  35.469  36.849  1.00  0.00     0.010 A 
ATOM     64  C   UNL A   1      38.768  34.938  38.939  1.00  0.00     0.020 A 
ATOM     65  C   UNL A   1      40.327  36.438  37.831  1.00  0.00     0.020 A 
ATOM     66  C   UNL A   1      39.422  36.172  38.860  1.00  0.00     0.054 A 
BRANCH  66  67
ATOM     67  S   UNL A   1      39.097  37.415  40.142  1.00  0.00     0.124 S 
ATOM     68  O   UNL A   1      40.435  37.949  40.388  1.00  0.00    -0.237 OA
ATOM     69  O   UNL A   1      38.169  38.327  39.478  1.00  0.00    -0.237 OA
ATOM     70  O   UNL A   1      38.526  36.640  41.240  1.00  0.00    -0.744 OA
ENDBRANCH  66  67
ENDBRANCH  47  61
BRANCH  48  71
ATOM     71  C   UNL A   1      41.469  27.613  29.592  1.00  0.00    -0.014 A 
ATOM     72  C   UNL A   1      40.567  26.566  29.334  1.00  0.00     0.010 A 
ATOM     73  C   UNL A   1      42.626  27.730  28.799  1.00  0.00     0.010 A 
ATOM     74  C   UNL A   1      40.823  25.647  28.313  1.00  0.00     0.020 A 
ATOM     75  C   UNL A   1      42.872  26.828  27.760  1.00  0.00     0.020 A 
ATOM     76  C   UNL A   1      41.973  25.786  27.531  1.00  0.00     0.054 A 
BRANCH  76  77
ATOM     77  S   UNL A   1      42.259  24.614  26.175  1.00  0.00     0.124 S 
ATOM     78  O   UNL A   1      41.085  23.753  26.264  1.00  0.00    -0.237 OA
ATOM     79  O   UNL A   1      42.315  25.490  25.006  1.00  0.00    -0.237 OA
ATOM     80  O   UNL A   1      43.529  23.984  26.531  1.00  0.00    -0.744 OA
ENDBRANCH  76  77
ENDBRANCH  48  71
BRANCH  60  81
ATOM     81  C   UNL A   1      44.678  28.976  35.636  1.00  0.00    -0.014 A 
ATOM     82  C   UNL A   1      44.545  27.838  36.452  1.00  0.00     0.010 A 
ATOM     83  C   UNL A   1      45.959  29.512  35.412  1.00  0.00     0.010 A 
ATOM     84  C   UNL A   1      45.668  27.264  37.054  1.00  0.00     0.020 A 
ATOM     85  C   UNL A   1      47.088  28.927  35.993  1.00  0.00     0.020 A 
ATOM     86  C   UNL A   1      46.933  27.814  36.821  1.00  0.00     0.054 A 
BRANCH  86  87
ATOM     87  S   UNL A   1      48.382  27.026  37.578  1.00  0.00     0.124 S 
ATOM     88  O   UNL A   1      48.065  27.112  39.001  1.00  0.00    -0.237 OA
ATOM     89  O   UNL A   1      48.353  25.682  37.008  1.00  0.00    -0.237 OA
ATOM     90  O   UNL A   1      49.499  27.859  37.137  1.00  0.00    -0.744 OA
ENDBRANCH  86  87
ENDBRANCH  60  81
ENDBRANCH  34  35
ENDBRANCH  27  29
ENDBRANCH  26  27
ENDBRANCH  25  26
ENDBRANCH  24  25
ENDBRANCH  23  24
ENDBRANCH   1  23
TORSDOF 24
ENDMDL
MODEL 3
REMARK VINA RESULT:      -9.1      2.278      9.420
REMARK SMILES CC(C)Cc1ccc([C@H](CC[C@@H](C)O)C(=O)OCCOCCOC(=O)c2ccc(-c3c4nc(c(-c5ccc(S(=O)(=O)[O-])cc5)c5ccc([nH]5)c(-c5ccc(S(=O)(=O)[O-])cc5)c5nc(c(-c6ccc(S(=O)(=O)[O-])cc6)c6ccc3[nH]6)C=C5)C=C4)cc2)cc1
REMARK SMILES IDX 19 1 18 2 17 3 15 4 16 5 9 6 8 7 5 8 6 9 87 10 7 11 86 12
REMARK SMILES IDX 4 13 2 14 1 15 3 16 10 17 11 18 12 19 13 20 14 21 20 23
REMARK SMILES IDX 21 24 22 25 23 26 24 27 25 28 26 29 27 30 85 31 28 32 84 33
REMARK SMILES IDX 29 34 30 35 31 36 78 37 32 38 83 39 77 40 79 41 33 42 82 43
REMARK SMILES IDX 76 44 75 45 34 47 64 48 45 49 63 50 46 51 49 52 62 53 80 54
REMARK SMILES IDX 47 55 48 56 61 58 81 59 50 60 35 61 36 62 44 63 37 64 43 65
REMARK SMILES IDX 38 66 39 67 40 68 41 69 42 70 65 71 66 72 74 73 67 74 73 75
REMARK SMILES IDX 68 76 69 77 70 78 71 79 72 80 51 81 52 82 60 83 53 84 59 85
REMARK SMILES IDX 54 86 55 87 56 88 57 89 58 90
REMARK H PARENT 14 22 79 46 49 57
REMARK Flexibility Score: inf
ROOT
ATOM      1  C   UNL A   1      36.992  20.928  25.375  1.00  0.00     0.202 C 
ENDROOT
BRANCH   1   2
ATOM      2  C   UNL A   1      37.061  22.370  24.864  1.00  0.00     0.261 C 
BRANCH   2   3
ATOM      3  O   UNL A   1      35.779  23.020  24.857  1.00  0.00    -0.463 OA
BRANCH   3   4
ATOM      4  C   UNL A   1      35.048  22.847  23.722  1.00  0.00     0.313 C 
ATOM      5  O   UNL A   1      35.434  23.138  22.592  1.00  0.00    -0.252 OA
BRANCH   4   6
ATOM      6  C   UNL A   1      33.659  22.263  23.986  1.00  0.00     0.129 C 
BRANCH   6   7
ATOM      7  C   UNL A   1      32.628  23.360  24.039  1.00  0.00    -0.034 A 
ATOM      8  C   UNL A   1      30.739  25.427  24.125  1.00  0.00    -0.048 A 
ATOM      9  C   UNL A   1      30.477  24.268  23.388  1.00  0.00     0.004 A 
ATOM     10  C   UNL A   1      31.957  25.554  24.803  1.00  0.00     0.004 A 
ATOM     11  C   UNL A   1      31.415  23.242  23.343  1.00  0.00     0.005 A 
ATOM     12  C   UNL A   1      32.888  24.523  24.773  1.00  0.00     0.005 A 
BRANCH   8  13
ATOM     13  C   UNL A   1      29.678  26.487  24.261  1.00  0.00     0.038 C 
BRANCH  13  14
ATOM     14  C   UNL A   1      30.033  27.754  23.457  1.00  0.00    -0.013 C 
ATOM     15  C   UNL A   1      30.801  28.779  24.298  1.00  0.00     0.008 C 
ATOM     16  C   UNL A   1      30.853  27.371  22.228  1.00  0.00     0.008 C 
ENDBRANCH  13  14
ENDBRANCH   8  13
ENDBRANCH   6   7
BRANCH   6  17
ATOM     17  C   UNL A   1      33.561  21.173  25.082  1.00  0.00     0.023 C 
BRANCH  17  18
ATOM     18  C   UNL A   1      32.432  20.129  25.051  1.00  0.00     0.033 C 
BRANCH  18  19
ATOM     19  C   UNL A   1      32.813  18.638  25.117  1.00  0.00     0.111 C 
ATOM     20  C   UNL A   1      34.166  18.291  24.513  1.00  0.00     0.038 C 
BRANCH  19  21
ATOM     21  O   UNL A   1      32.819  18.228  26.488  1.00  0.00    -0.393 OA
ATOM     22  H   UNL A   1      31.994  18.510  26.913  1.00  0.00     0.210 HD
ENDBRANCH  19  21
ENDBRANCH  18  19
ENDBRANCH  17  18
ENDBRANCH   6  17
ENDBRANCH   4   6
ENDBRANCH   3   4
ENDBRANCH   2   3
ENDBRANCH   1   2
BRANCH   1  23
ATOM     23  O   UNL A   1      37.787  19.958  24.701  1.00  0.00    -0.374 OA
BRANCH  23  24
ATOM     24  C   UNL A   1      38.774  19.257  25.454  1.00  0.00     0.202 C 
BRANCH  24  25
ATOM     25  C   UNL A   1      39.959  20.068  25.992  1.00  0.00     0.261 C 
BRANCH  25  26
ATOM     26  O   UNL A   1      41.207  19.725  25.361  1.00  0.00    -0.460 OA
BRANCH  26  27
ATOM     27  C   UNL A   1      42.231  19.510  26.224  1.00  0.00     0.338 C 
ATOM     28  O   UNL A   1      42.601  18.433  26.670  1.00  0.00    -0.246 OA
BRANCH  27  29
ATOM     29  C   UNL A   1      42.997  20.748  26.448  1.00  0.00     0.060 A 
ATOM     30  C   UNL A   1      43.002  21.278  27.745  1.00  0.00     0.016 A 
ATOM     31  C   UNL A   1      43.589  21.448  25.394  1.00  0.00     0.016 A 
ATOM     32  C   UNL A   1      43.549  22.537  27.983  1.00  0.00     0.010 A 
ATOM     33  C   UNL A   1      44.131  22.717  25.634  1.00  0.00     0.010 A 
ATOM     34  C   UNL A   1      44.075  23.284  26.921  1.00  0.00    -0.014 A 
BRANCH  34  35
ATOM     35  C   UNL A   1      44.417  24.712  27.141  1.00  0.00     0.031 A 
ATOM     36  C   UNL A   1      45.836  25.166  26.926  1.00  0.00     0.074 A 
ATOM     37  C   UNL A   1      43.466  25.605  27.474  1.00  0.00     0.049 A 
ATOM     38  N   UNL A   1      46.347  26.365  27.043  1.00  0.00    -0.248 NA
ATOM     39  C   UNL A   1      46.806  24.135  26.523  1.00  0.00     0.031 C 
ATOM     40  C   UNL A   1      42.049  25.299  27.666  1.00  0.00     0.029 A 
ATOM     41  N   UNL A   1      43.555  26.954  27.705  1.00  0.00    -0.354 N 
ATOM     42  C   UNL A   1      47.696  26.233  26.732  1.00  0.00     0.074 A 
ATOM     43  C   UNL A   1      47.930  24.833  26.448  1.00  0.00     0.031 C 
ATOM     44  C   UNL A   1      41.400  26.432  27.989  1.00  0.00     0.029 A 
ATOM     45  C   UNL A   1      42.359  27.534  28.053  1.00  0.00     0.049 A 
ATOM     46  H   UNL A   1      44.396  27.460  27.629  1.00  0.00     0.167 HD
ATOM     47  C   UNL A   1      48.654  27.190  26.679  1.00  0.00     0.031 A 
ATOM     48  C   UNL A   1      42.071  28.804  28.398  1.00  0.00     0.031 A 
ATOM     49  C   UNL A   1      48.426  28.579  26.972  1.00  0.00     0.049 A 
ATOM     50  C   UNL A   1      43.166  29.837  28.403  1.00  0.00     0.074 A 
ATOM     51  C   UNL A   1      49.331  29.626  26.934  1.00  0.00     0.029 A 
ATOM     52  N   UNL A   1      47.210  29.117  27.364  1.00  0.00    -0.354 N 
ATOM     53  N   UNL A   1      44.432  29.700  28.083  1.00  0.00    -0.248 NA
ATOM     54  C   UNL A   1      42.793  31.200  28.807  1.00  0.00     0.031 C 
ATOM     55  C   UNL A   1      48.673  30.788  27.353  1.00  0.00     0.029 A 
ATOM     56  C   UNL A   1      47.346  30.475  27.597  1.00  0.00     0.049 A 
ATOM     57  H   UNL A   1      46.373  28.608  27.461  1.00  0.00     0.167 HD
ATOM     58  C   UNL A   1      44.999  30.962  28.223  1.00  0.00     0.074 A 
ATOM     59  C   UNL A   1      43.937  31.853  28.646  1.00  0.00     0.031 C 
ATOM     60  C   UNL A   1      46.282  31.350  28.019  1.00  0.00     0.031 A 
BRANCH  47  61
ATOM     61  C   UNL A   1      50.050  26.755  26.320  1.00  0.00    -0.014 A 
ATOM     62  C   UNL A   1      50.641  27.136  25.103  1.00  0.00     0.010 A 
ATOM     63  C   UNL A   1      50.794  25.985  27.231  1.00  0.00     0.010 A 
ATOM     64  C   UNL A   1      51.938  26.723  24.786  1.00  0.00     0.020 A 
ATOM     65  C   UNL A   1      52.100  25.589  26.929  1.00  0.00     0.020 A 
ATOM     66  C   UNL A   1      52.657  25.946  25.700  1.00  0.00     0.054 A 
BRANCH  66  67
ATOM     67  S   UNL A   1      54.345  25.436  25.273  1.00  0.00     0.124 S 
ATOM     68  O   UNL A   1      54.268  23.985  25.426  1.00  0.00    -0.237 OA
ATOM     69  O   UNL A   1      54.489  25.917  23.901  1.00  0.00    -0.237 OA
ATOM     70  O   UNL A   1      55.175  26.121  26.260  1.00  0.00    -0.744 OA
ENDBRANCH  66  67
ENDBRANCH  47  61
BRANCH  48  71
ATOM     71  C   UNL A   1      40.682  29.169  28.788  1.00  0.00    -0.014 A 
ATOM     72  C   UNL A   1      39.704  29.430  27.813  1.00  0.00     0.010 A 
ATOM     73  C   UNL A   1      40.332  29.258  30.149  1.00  0.00     0.010 A 
ATOM     74  C   UNL A   1      38.406  29.786  28.189  1.00  0.00     0.020 A 
ATOM     75  C   UNL A   1      39.028  29.589  30.529  1.00  0.00     0.020 A 
ATOM     76  C   UNL A   1      38.076  29.861  29.546  1.00  0.00     0.054 A 
BRANCH  76  77
ATOM     77  S   UNL A   1      36.371  30.272  30.013  1.00  0.00     0.124 S 
ATOM     78  O   UNL A   1      36.163  29.422  31.180  1.00  0.00    -0.237 OA
ATOM     79  O   UNL A   1      36.453  31.706  30.280  1.00  0.00    -0.237 OA
ATOM     80  O   UNL A   1      35.597  29.912  28.826  1.00  0.00    -0.744 OA
ENDBRANCH  76  77
ENDBRANCH  48  71
BRANCH  60  81
ATOM     81  C   UNL A   1      46.609  32.806  28.217  1.00  0.00    -0.014 A 
ATOM     82  C   UNL A   1      47.146  33.274  29.430  1.00  0.00     0.010 A 
ATOM     83  C   UNL A   1      46.430  33.708  27.153  1.00  0.00     0.010 A 
ATOM     84  C   UNL A   1      47.471  34.626  29.583  1.00  0.00     0.020 A 
ATOM     85  C   UNL A   1      46.777  35.055  27.294  1.00  0.00     0.020 A 
ATOM     86  C   UNL A   1      47.282  35.507  28.515  1.00  0.00     0.054 A 
BRANCH  86  87
ATOM     87  S   UNL A   1      47.753  37.248  28.723  1.00  0.00     0.124 S 
ATOM     88  O   UNL A   1      47.708  37.740  27.349  1.00  0.00    -0.237 OA
ATOM     89  O   UNL A   1      46.710  37.760  29.608  1.00  0.00    -0.237 OA
ATOM     90  O   UNL A   1      49.086  37.177  29.317  1.00  0.00    -0.744 OA
ENDBRANCH  86  87
ENDBRANCH  60  81
ENDBRANCH  34  35
ENDBRANCH  27  29
ENDBRANCH  26  27
ENDBRANCH  25  26
ENDBRANCH  24  25
ENDBRANCH  23  24
ENDBRANCH   1  23
TORSDOF 24
ENDMDL
