MODEL 1
REMARK VINA RESULT:     -11.1      0.000      0.000
REMARK SMILES O=C(OCCOCCOC(=O)[C@H]1CC2(CC[NH+](C(=O)C3CC3)CC2)CN1C(=O)CCn1cccn1)c1ccc(-c2c3nc(c(-c4ccc(S(=O)(=O)[O-])cc4)c4ccc([nH]4)c(-c4ccc(S(=O)(=O)[O-])cc4)c4nc(c(-c5ccc(S(=O)(=O)[O-])cc5)c5ccc2[nH]5)C=C4)C=C3)cc1
REMARK SMILES IDX 7 1 6 2 5 3 4 4 3 5 2 6 1 7 36 8 37 9 95 10 38 11 94 12
REMARK SMILES IDX 39 13 40 14 41 15 88 16 42 17 93 18 87 19 89 20 43 21 92 22
REMARK SMILES IDX 86 23 85 24 44 26 74 27 55 28 73 29 56 30 59 31 72 32 90 33
REMARK SMILES IDX 57 34 58 35 71 37 91 38 60 39 45 40 46 41 54 42 47 43 53 44
REMARK SMILES IDX 48 45 49 46 50 47 51 48 52 49 75 50 76 51 84 52 77 53 83 54
REMARK SMILES IDX 78 55 79 56 80 57 81 58 82 59 61 60 62 61 70 62 63 63 69 64
REMARK SMILES IDX 64 65 65 66 66 67 67 68 68 69 8 70 9 71 10 72 11 73 12 74
REMARK SMILES IDX 13 75 26 76 14 77 25 78 15 79 24 80 16 81 23 82 17 83 27 85
REMARK SMILES IDX 28 86 29 87 30 88 31 89 32 90 35 91 33 92 34 93 18 94 19 95
REMARK SMILES IDX 20 96 21 97 22 98
REMARK H PARENT 89 25 59 36 17 84
REMARK Flexibility Score: inf
ROOT
ATOM      1  C   UNL A   1      38.703  22.527  26.178  1.00  0.00     0.202 C 
ENDROOT
BRANCH   1   2
ATOM      2  O   UNL A   1      39.514  21.408  25.887  1.00  0.00    -0.374 OA
BRANCH   2   3
ATOM      3  C   UNL A   1      40.726  21.252  26.614  1.00  0.00     0.202 C 
BRANCH   3   4
ATOM      4  C   UNL A   1      41.911  20.426  26.041  1.00  0.00     0.261 C 
BRANCH   4   5
ATOM      5  O   UNL A   1      43.162  21.119  25.955  1.00  0.00    -0.460 OA
BRANCH   5   6
ATOM      6  C   UNL A   1      43.322  22.306  25.329  1.00  0.00     0.338 C 
ATOM      7  O   UNL A   1      43.407  22.373  24.116  1.00  0.00    -0.246 OA
BRANCH   6   8
ATOM      8  C   UNL A   1      43.154  23.527  26.138  1.00  0.00     0.060 A 
ATOM      9  C   UNL A   1      42.327  24.607  25.808  1.00  0.00     0.016 A 
ATOM     10  C   UNL A   1      43.898  23.540  27.319  1.00  0.00     0.016 A 
ATOM     11  C   UNL A   1      42.284  25.722  26.593  1.00  0.00     0.010 A 
ATOM     12  C   UNL A   1      43.829  24.639  28.142  1.00  0.00     0.010 A 
ATOM     13  C   UNL A   1      43.040  25.722  27.747  1.00  0.00    -0.014 A 
BRANCH  13  14
ATOM     14  C   UNL A   1      42.832  26.854  28.610  1.00  0.00     0.031 A 
ATOM     15  C   UNL A   1      43.908  27.883  28.524  1.00  0.00     0.074 A 
ATOM     16  C   UNL A   1      41.671  26.933  29.273  1.00  0.00     0.049 A 
ATOM     17  N   UNL A   1      44.595  28.420  29.478  1.00  0.00    -0.248 NA
ATOM     18  C   UNL A   1      44.399  28.232  27.173  1.00  0.00     0.031 C 
ATOM     19  C   UNL A   1      40.514  26.042  29.142  1.00  0.00     0.029 A 
ATOM     20  N   UNL A   1      41.198  27.962  30.008  1.00  0.00    -0.354 N 
ATOM     21  C   UNL A   1      45.453  29.328  28.860  1.00  0.00     0.074 A 
ATOM     22  C   UNL A   1      45.428  29.026  27.455  1.00  0.00     0.031 C 
ATOM     23  C   UNL A   1      39.406  26.738  29.470  1.00  0.00     0.029 A 
ATOM     24  C   UNL A   1      39.816  28.048  29.951  1.00  0.00     0.049 A 
ATOM     25  H   UNL A   1      41.767  28.577  30.525  1.00  0.00     0.167 HD
ATOM     26  C   UNL A   1      45.925  30.434  29.497  1.00  0.00     0.031 A 
ATOM     27  C   UNL A   1      39.093  29.180  30.114  1.00  0.00     0.031 A 
ATOM     28  C   UNL A   1      45.797  30.325  30.925  1.00  0.00     0.049 A 
ATOM     29  C   UNL A   1      39.976  30.176  30.780  1.00  0.00     0.074 A 
ATOM     30  C   UNL A   1      46.310  29.468  31.877  1.00  0.00     0.029 A 
ATOM     31  N   UNL A   1      44.723  30.956  31.509  1.00  0.00    -0.354 N 
ATOM     32  N   UNL A   1      40.467  30.013  31.980  1.00  0.00    -0.248 NA
ATOM     33  C   UNL A   1      40.697  31.136  29.953  1.00  0.00     0.031 C 
ATOM     34  C   UNL A   1      45.250  29.282  32.810  1.00  0.00     0.029 A 
ATOM     35  C   UNL A   1      44.173  30.078  32.408  1.00  0.00     0.049 A 
ATOM     36  H   UNL A   1      44.408  31.869  31.319  1.00  0.00     0.167 HD
ATOM     37  C   UNL A   1      41.764  30.507  31.917  1.00  0.00     0.074 A 
ATOM     38  C   UNL A   1      41.805  31.293  30.686  1.00  0.00     0.031 C 
ATOM     39  C   UNL A   1      42.757  29.994  32.705  1.00  0.00     0.031 A 
BRANCH  26  40
ATOM     40  C   UNL A   1      46.095  31.766  28.804  1.00  0.00    -0.014 A 
ATOM     41  C   UNL A   1      44.993  32.336  28.138  1.00  0.00     0.010 A 
ATOM     42  C   UNL A   1      47.363  32.324  28.532  1.00  0.00     0.010 A 
ATOM     43  C   UNL A   1      45.167  33.345  27.181  1.00  0.00     0.020 A 
ATOM     44  C   UNL A   1      47.542  33.360  27.617  1.00  0.00     0.020 A 
ATOM     45  C   UNL A   1      46.446  33.832  26.912  1.00  0.00     0.054 A 
BRANCH  45  46
ATOM     46  S   UNL A   1      46.688  35.019  25.568  1.00  0.00     0.124 S 
ATOM     47  O   UNL A   1      48.035  34.686  25.118  1.00  0.00    -0.237 OA
ATOM     48  O   UNL A   1      45.606  34.673  24.652  1.00  0.00    -0.237 OA
ATOM     49  O   UNL A   1      46.551  36.315  26.230  1.00  0.00    -0.744 OA
ENDBRANCH  45  46
ENDBRANCH  26  40
BRANCH  27  50
ATOM     50  C   UNL A   1      37.860  29.526  29.369  1.00  0.00    -0.014 A 
ATOM     51  C   UNL A   1      37.878  29.654  27.974  1.00  0.00     0.010 A 
ATOM     52  C   UNL A   1      36.601  29.525  30.015  1.00  0.00     0.010 A 
ATOM     53  C   UNL A   1      36.681  29.741  27.246  1.00  0.00     0.020 A 
ATOM     54  C   UNL A   1      35.405  29.629  29.298  1.00  0.00     0.020 A 
ATOM     55  C   UNL A   1      35.451  29.716  27.912  1.00  0.00     0.054 A 
BRANCH  55  56
ATOM     56  S   UNL A   1      33.914  29.679  26.949  1.00  0.00     0.124 S 
ATOM     57  O   UNL A   1      34.364  29.144  25.667  1.00  0.00    -0.237 OA
ATOM     58  O   UNL A   1      33.066  28.792  27.742  1.00  0.00    -0.237 OA
ATOM     59  O   UNL A   1      33.489  31.077  26.923  1.00  0.00    -0.744 OA
ENDBRANCH  55  56
ENDBRANCH  27  50
BRANCH  39  60
ATOM     60  C   UNL A   1      42.373  29.043  33.818  1.00  0.00    -0.014 A 
ATOM     61  C   UNL A   1      41.888  27.740  33.586  1.00  0.00     0.010 A 
ATOM     62  C   UNL A   1      42.682  29.414  35.137  1.00  0.00     0.010 A 
ATOM     63  C   UNL A   1      41.690  26.844  34.645  1.00  0.00     0.020 A 
ATOM     64  C   UNL A   1      42.504  28.520  36.197  1.00  0.00     0.020 A 
ATOM     65  C   UNL A   1      42.001  27.242  35.947  1.00  0.00     0.054 A 
BRANCH  65  66
ATOM     66  S   UNL A   1      41.792  26.060  37.308  1.00  0.00     0.124 S 
ATOM     67  O   UNL A   1      42.055  24.780  36.658  1.00  0.00    -0.237 OA
ATOM     68  O   UNL A   1      42.798  26.495  38.273  1.00  0.00    -0.237 OA
ATOM     69  O   UNL A   1      40.408  26.263  37.736  1.00  0.00    -0.744 OA
ENDBRANCH  65  66
ENDBRANCH  39  60
ENDBRANCH  13  14
ENDBRANCH   6   8
ENDBRANCH   5   6
ENDBRANCH   4   5
ENDBRANCH   3   4
ENDBRANCH   2   3
ENDBRANCH   1   2
BRANCH   1  70
ATOM     70  C   UNL A   1      37.382  22.429  25.431  1.00  0.00     0.261 C 
BRANCH  70  71
ATOM     71  O   UNL A   1      36.931  23.694  24.893  1.00  0.00    -0.462 OA
BRANCH  71  72
ATOM     72  C   UNL A   1      35.826  23.545  24.140  1.00  0.00     0.328 C 
ATOM     73  O   UNL A   1      35.879  23.364  22.921  1.00  0.00    -0.250 OA
BRANCH  72  74
ATOM     74  C   UNL A   1      34.463  23.487  24.868  1.00  0.00     0.195 C 
ATOM     75  C   UNL A   1      33.490  24.304  24.023  1.00  0.00     0.046 C 
ATOM     76  N   UNL A   1      33.497  22.644  25.603  1.00  0.00    -0.328 N 
ATOM     77  C   UNL A   1      32.276  24.554  24.953  1.00  0.00     0.001 C 
ATOM     78  C   UNL A   1      32.514  23.588  26.144  1.00  0.00     0.128 C 
ATOM     79  C   UNL A   1      30.957  24.212  24.232  1.00  0.00     0.071 C 
ATOM     80  C   UNL A   1      32.250  26.027  25.386  1.00  0.00     0.071 C 
ATOM     81  C   UNL A   1      30.672  25.175  23.082  1.00  0.00     0.270 C 
ATOM     82  C   UNL A   1      31.947  26.953  24.201  1.00  0.00     0.270 C 
ATOM     83  N   UNL A   1      30.698  26.564  23.545  1.00  0.00    -0.272 N 
ATOM     84  H   UNL A   1      29.812  26.983  23.462  1.00  0.00     0.356 HD
BRANCH  76  85
ATOM     85  C   UNL A   1      32.986  21.380  25.374  1.00  0.00     0.225 C 
ATOM     86  O   UNL A   1      31.923  21.205  24.769  1.00  0.00    -0.275 OA
BRANCH  85  87
ATOM     87  C   UNL A   1      33.714  20.174  25.869  1.00  0.00     0.124 C 
BRANCH  87  88
ATOM     88  C   UNL A   1      32.803  18.952  25.925  1.00  0.00     0.154 C 
BRANCH  88  89
ATOM     89  N   UNL A   1      33.217  17.879  25.031  1.00  0.00    -0.272 N 
ATOM     90  C   UNL A   1      33.576  18.000  23.722  1.00  0.00     0.108 A 
ATOM     91  N   UNL A   1      33.329  16.612  25.474  1.00  0.00    -0.182 NA
ATOM     92  C   UNL A   1      33.946  16.760  23.281  1.00  0.00     0.042 A 
ATOM     93  C   UNL A   1      33.801  15.945  24.413  1.00  0.00     0.135 A 
ENDBRANCH  88  89
ENDBRANCH  87  88
ENDBRANCH  85  87
ENDBRANCH  76  85
BRANCH  83  94
ATOM     94  C   UNL A   1      29.743  27.563  23.363  1.00  0.00     0.315 C 
ATOM     95  O   UNL A   1      28.557  27.350  23.616  1.00  0.00    -0.231 OA
BRANCH  94  96
ATOM     96  C   UNL A   1      30.029  28.909  22.788  1.00  0.00     0.119 C 
ATOM     97  C   UNL A   1      29.116  29.819  22.022  1.00  0.00     0.019 C 
ATOM     98  C   UNL A   1      29.557  30.194  23.416  1.00  0.00     0.019 C 
ENDBRANCH  94  96
ENDBRANCH  83  94
ENDBRANCH  72  74
ENDBRANCH  71  72
ENDBRANCH  70  71
ENDBRANCH   1  70
TORSDOF 23
ENDMDL
MODEL 2
REMARK VINA RESULT:     -10.5      1.398      1.922
REMARK SMILES O=C(OCCOCCOC(=O)[C@H]1CC2(CC[NH+](C(=O)C3CC3)CC2)CN1C(=O)CCn1cccn1)c1ccc(-c2c3nc(c(-c4ccc(S(=O)(=O)[O-])cc4)c4ccc([nH]4)c(-c4ccc(S(=O)(=O)[O-])cc4)c4nc(c(-c5ccc(S(=O)(=O)[O-])cc5)c5ccc2[nH]5)C=C4)C=C3)cc1
REMARK SMILES IDX 7 1 6 2 5 3 4 4 3 5 2 6 1 7 36 8 37 9 95 10 38 11 94 12
REMARK SMILES IDX 39 13 40 14 41 15 88 16 42 17 93 18 87 19 89 20 43 21 92 22
REMARK SMILES IDX 86 23 85 24 44 26 74 27 55 28 73 29 56 30 59 31 72 32 90 33
REMARK SMILES IDX 57 34 58 35 71 37 91 38 60 39 45 40 46 41 54 42 47 43 53 44
REMARK SMILES IDX 48 45 49 46 50 47 51 48 52 49 75 50 76 51 84 52 77 53 83 54
REMARK SMILES IDX 78 55 79 56 80 57 81 58 82 59 61 60 62 61 70 62 63 63 69 64
REMARK SMILES IDX 64 65 65 66 66 67 67 68 68 69 8 70 9 71 10 72 11 73 12 74
REMARK SMILES IDX 13 75 26 76 14 77 25 78 15 79 24 80 16 81 23 82 17 83 27 85
REMARK SMILES IDX 28 86 29 87 30 88 31 89 32 90 35 91 33 92 34 93 18 94 19 95
REMARK SMILES IDX 20 96 21 97 22 98
REMARK H PARENT 89 25 59 36 17 84
REMARK Flexibility Score: inf
ROOT
ATOM      1  C   UNL A   1      39.371  23.562  26.873  1.00  0.00     0.202 C 
ENDROOT
BRANCH   1   2
ATOM      2  O   UNL A   1      40.556  22.875  27.217  1.00  0.00    -0.374 OA
BRANCH   2   3
ATOM      3  C   UNL A   1      40.877  21.691  26.499  1.00  0.00     0.202 C 
BRANCH   3   4
ATOM      4  C   UNL A   1      42.307  21.445  25.944  1.00  0.00     0.261 C 
BRANCH   4   5
ATOM      5  O   UNL A   1      42.654  22.201  24.777  1.00  0.00    -0.460 OA
BRANCH   5   6
ATOM      6  C   UNL A   1      43.621  23.144  24.753  1.00  0.00     0.338 C 
ATOM      7  O   UNL A   1      44.466  23.158  23.875  1.00  0.00    -0.246 OA
BRANCH   6   8
ATOM      8  C   UNL A   1      43.481  24.283  25.678  1.00  0.00     0.060 A 
ATOM      9  C   UNL A   1      42.571  25.336  25.531  1.00  0.00     0.016 A 
ATOM     10  C   UNL A   1      44.346  24.243  26.774  1.00  0.00     0.016 A 
ATOM     11  C   UNL A   1      42.558  26.379  26.410  1.00  0.00     0.010 A 
ATOM     12  C   UNL A   1      44.311  25.265  27.692  1.00  0.00     0.010 A 
ATOM     13  C   UNL A   1      43.432  26.328  27.476  1.00  0.00    -0.014 A 
BRANCH  13  14
ATOM     14  C   UNL A   1      43.263  27.372  28.452  1.00  0.00     0.031 A 
ATOM     15  C   UNL A   1      44.304  28.438  28.382  1.00  0.00     0.074 A 
ATOM     16  C   UNL A   1      42.153  27.356  29.202  1.00  0.00     0.049 A 
ATOM     17  N   UNL A   1      45.048  28.908  29.328  1.00  0.00    -0.248 NA
ATOM     18  C   UNL A   1      44.683  28.920  27.036  1.00  0.00     0.031 C 
ATOM     19  C   UNL A   1      41.011  26.445  29.074  1.00  0.00     0.029 A 
ATOM     20  N   UNL A   1      41.713  28.300  30.060  1.00  0.00    -0.354 N 
ATOM     21  C   UNL A   1      45.835  29.893  28.734  1.00  0.00     0.074 A 
ATOM     22  C   UNL A   1      45.711  29.717  27.313  1.00  0.00     0.031 C 
ATOM     23  C   UNL A   1      39.915  27.075  29.545  1.00  0.00     0.029 A 
ATOM     24  C   UNL A   1      40.328  28.348  30.112  1.00  0.00     0.049 A 
ATOM     25  H   UNL A   1      42.304  28.884  30.588  1.00  0.00     0.167 HD
ATOM     26  C   UNL A   1      46.326  30.952  29.434  1.00  0.00     0.031 A 
ATOM     27  C   UNL A   1      39.592  29.439  30.429  1.00  0.00     0.031 A 
ATOM     28  C   UNL A   1      46.309  30.712  30.851  1.00  0.00     0.049 A 
ATOM     29  C   UNL A   1      40.499  30.398  31.117  1.00  0.00     0.074 A 
ATOM     30  C   UNL A   1      46.913  29.790  31.681  1.00  0.00     0.029 A 
ATOM     31  N   UNL A   1      45.267  31.255  31.567  1.00  0.00    -0.354 N 
ATOM     32  N   UNL A   1      41.082  30.144  32.258  1.00  0.00    -0.248 NA
ATOM     33  C   UNL A   1      41.132  31.450  30.331  1.00  0.00     0.031 C 
ATOM     34  C   UNL A   1      45.931  29.490  32.668  1.00  0.00     0.029 A 
ATOM     35  C   UNL A   1      44.807  30.284  32.419  1.00  0.00     0.049 A 
ATOM     36  H   UNL A   1      44.917  32.171  31.484  1.00  0.00     0.167 HD
ATOM     37  C   UNL A   1      42.358  30.681  32.146  1.00  0.00     0.074 A 
ATOM     38  C   UNL A   1      42.288  31.575  30.992  1.00  0.00     0.031 C 
ATOM     39  C   UNL A   1      43.420  30.131  32.810  1.00  0.00     0.031 A 
BRANCH  26  40
ATOM     40  C   UNL A   1      46.411  32.345  28.854  1.00  0.00    -0.014 A 
ATOM     41  C   UNL A   1      47.666  32.845  28.455  1.00  0.00     0.010 A 
ATOM     42  C   UNL A   1      45.358  33.280  28.965  1.00  0.00     0.010 A 
ATOM     43  C   UNL A   1      47.874  34.219  28.272  1.00  0.00     0.020 A 
ATOM     44  C   UNL A   1      45.543  34.643  28.740  1.00  0.00     0.020 A 
ATOM     45  C   UNL A   1      46.813  35.110  28.440  1.00  0.00     0.054 A 
BRANCH  45  46
ATOM     46  S   UNL A   1      47.118  36.890  28.359  1.00  0.00     0.124 S 
ATOM     47  O   UNL A   1      47.046  37.138  26.923  1.00  0.00    -0.237 OA
ATOM     48  O   UNL A   1      46.019  37.428  29.154  1.00  0.00    -0.237 OA
ATOM     49  O   UNL A   1      48.445  37.036  28.955  1.00  0.00    -0.744 OA
ENDBRANCH  45  46
ENDBRANCH  26  40
BRANCH  27  50
ATOM     50  C   UNL A   1      38.299  29.811  29.811  1.00  0.00    -0.014 A 
ATOM     51  C   UNL A   1      37.171  30.060  30.604  1.00  0.00     0.010 A 
ATOM     52  C   UNL A   1      38.221  30.132  28.435  1.00  0.00     0.010 A 
ATOM     53  C   UNL A   1      36.019  30.642  30.051  1.00  0.00     0.020 A 
ATOM     54  C   UNL A   1      37.071  30.695  27.874  1.00  0.00     0.020 A 
ATOM     55  C   UNL A   1      35.981  30.968  28.692  1.00  0.00     0.054 A 
BRANCH  55  56
ATOM     56  S   UNL A   1      34.545  31.854  28.025  1.00  0.00     0.124 S 
ATOM     57  O   UNL A   1      33.848  32.272  29.238  1.00  0.00    -0.237 OA
ATOM     58  O   UNL A   1      35.167  32.926  27.251  1.00  0.00    -0.237 OA
ATOM     59  O   UNL A   1      33.853  30.842  27.230  1.00  0.00    -0.744 OA
ENDBRANCH  55  56
ENDBRANCH  27  50
BRANCH  39  60
ATOM     60  C   UNL A   1      43.144  29.073  33.857  1.00  0.00    -0.014 A 
ATOM     61  C   UNL A   1      42.850  29.377  35.201  1.00  0.00     0.010 A 
ATOM     62  C   UNL A   1      42.998  27.744  33.427  1.00  0.00     0.010 A 
ATOM     63  C   UNL A   1      42.452  28.376  36.097  1.00  0.00     0.020 A 
ATOM     64  C   UNL A   1      42.584  26.742  34.310  1.00  0.00     0.020 A 
ATOM     65  C   UNL A   1      42.321  27.061  35.644  1.00  0.00     0.054 A 
BRANCH  65  66
ATOM     66  S   UNL A   1      41.755  25.779  36.795  1.00  0.00     0.124 S 
ATOM     67  O   UNL A   1      42.989  25.398  37.476  1.00  0.00    -0.237 OA
ATOM     68  O   UNL A   1      40.776  26.489  37.616  1.00  0.00    -0.237 OA
ATOM     69  O   UNL A   1      41.188  24.752  35.921  1.00  0.00    -0.744 OA
ENDBRANCH  65  66
ENDBRANCH  39  60
ENDBRANCH  13  14
ENDBRANCH   6   8
ENDBRANCH   5   6
ENDBRANCH   4   5
ENDBRANCH   3   4
ENDBRANCH   2   3
ENDBRANCH   1   2
BRANCH   1  70
ATOM     70  C   UNL A   1      38.384  22.613  26.213  1.00  0.00     0.261 C 
BRANCH  70  71
ATOM     71  O   UNL A   1      37.078  23.198  26.000  1.00  0.00    -0.462 OA
BRANCH  71  72
ATOM     72  C   UNL A   1      36.360  22.492  25.107  1.00  0.00     0.328 C 
ATOM     73  O   UNL A   1      36.869  21.631  24.385  1.00  0.00    -0.250 OA
BRANCH  72  74
ATOM     74  C   UNL A   1      34.829  22.708  25.086  1.00  0.00     0.195 C 
ATOM     75  C   UNL A   1      34.592  24.041  24.384  1.00  0.00     0.046 C 
ATOM     76  N   UNL A   1      33.503  22.088  24.881  1.00  0.00    -0.328 N 
ATOM     77  C   UNL A   1      33.126  24.409  24.723  1.00  0.00     0.001 C 
ATOM     78  C   UNL A   1      32.543  23.103  25.324  1.00  0.00     0.128 C 
ATOM     79  C   UNL A   1      32.356  24.812  23.449  1.00  0.00     0.071 C 
ATOM     80  C   UNL A   1      33.103  25.578  25.719  1.00  0.00     0.071 C 
ATOM     81  C   UNL A   1      32.877  26.120  22.860  1.00  0.00     0.270 C 
ATOM     82  C   UNL A   1      33.623  26.871  25.077  1.00  0.00     0.270 C 
ATOM     83  N   UNL A   1      32.869  27.186  23.864  1.00  0.00    -0.272 N 
ATOM     84  H   UNL A   1      32.239  27.901  23.618  1.00  0.00     0.356 HD
BRANCH  76  85
ATOM     85  C   UNL A   1      33.002  21.233  23.915  1.00  0.00     0.225 C 
ATOM     86  O   UNL A   1      32.820  21.600  22.750  1.00  0.00    -0.275 OA
BRANCH  85  87
ATOM     87  C   UNL A   1      32.656  19.824  24.265  1.00  0.00     0.124 C 
BRANCH  87  88
ATOM     88  C   UNL A   1      33.896  19.013  24.625  1.00  0.00     0.154 C 
BRANCH  88  89
ATOM     89  N   UNL A   1      33.603  17.631  24.979  1.00  0.00    -0.272 N 
ATOM     90  C   UNL A   1      32.527  17.180  25.684  1.00  0.00     0.108 A 
ATOM     91  N   UNL A   1      34.399  16.626  24.568  1.00  0.00    -0.182 NA
ATOM     92  C   UNL A   1      32.614  15.817  25.738  1.00  0.00     0.042 A 
ATOM     93  C   UNL A   1      33.775  15.526  25.008  1.00  0.00     0.135 A 
ENDBRANCH  88  89
ENDBRANCH  87  88
ENDBRANCH  85  87
ENDBRANCH  76  85
BRANCH  83  94
ATOM     94  C   UNL A   1      32.324  28.466  23.773  1.00  0.00     0.315 C 
ATOM     95  O   UNL A   1      33.020  29.420  23.423  1.00  0.00    -0.231 OA
BRANCH  94  96
ATOM     96  C   UNL A   1      30.925  28.817  24.154  1.00  0.00     0.119 C 
ATOM     97  C   UNL A   1      29.949  29.702  23.438  1.00  0.00     0.019 C 
ATOM     98  C   UNL A   1      29.713  28.212  23.498  1.00  0.00     0.019 C 
ENDBRANCH  94  96
ENDBRANCH  83  94
ENDBRANCH  72  74
ENDBRANCH  71  72
ENDBRANCH  70  71
ENDBRANCH   1  70
TORSDOF 23
ENDMDL
MODEL 3
REMARK VINA RESULT:     -10.1      3.069      9.882
REMARK SMILES O=C(OCCOCCOC(=O)[C@H]1CC2(CC[NH+](C(=O)C3CC3)CC2)CN1C(=O)CCn1cccn1)c1ccc(-c2c3nc(c(-c4ccc(S(=O)(=O)[O-])cc4)c4ccc([nH]4)c(-c4ccc(S(=O)(=O)[O-])cc4)c4nc(c(-c5ccc(S(=O)(=O)[O-])cc5)c5ccc2[nH]5)C=C4)C=C3)cc1
REMARK SMILES IDX 7 1 6 2 5 3 4 4 3 5 2 6 1 7 36 8 37 9 95 10 38 11 94 12
REMARK SMILES IDX 39 13 40 14 41 15 88 16 42 17 93 18 87 19 89 20 43 21 92 22
REMARK SMILES IDX 86 23 85 24 44 26 74 27 55 28 73 29 56 30 59 31 72 32 90 33
REMARK SMILES IDX 57 34 58 35 71 37 91 38 60 39 45 40 46 41 54 42 47 43 53 44
REMARK SMILES IDX 48 45 49 46 50 47 51 48 52 49 75 50 76 51 84 52 77 53 83 54
REMARK SMILES IDX 78 55 79 56 80 57 81 58 82 59 61 60 62 61 70 62 63 63 69 64
REMARK SMILES IDX 64 65 65 66 66 67 67 68 68 69 8 70 9 71 10 72 11 73 12 74
REMARK SMILES IDX 13 75 26 76 14 77 25 78 15 79 24 80 16 81 23 82 17 83 27 85
REMARK SMILES IDX 28 86 29 87 30 88 31 89 32 90 35 91 33 92 34 93 18 94 19 95
REMARK SMILES IDX 20 96 21 97 22 98
REMARK H PARENT 89 25 59 36 17 84
REMARK Flexibility Score: inf
ROOT
ATOM      1  C   UNL A   1      36.309  31.203  27.932  1.00  0.00     0.202 C 
ENDROOT
BRANCH   1   2
ATOM      2  O   UNL A   1      35.642  32.336  28.449  1.00  0.00    -0.374 OA
BRANCH   2   3
ATOM      3  C   UNL A   1      35.925  32.728  29.786  1.00  0.00     0.202 C 
BRANCH   3   4
ATOM      4  C   UNL A   1      35.126  32.146  30.984  1.00  0.00     0.261 C 
BRANCH   4   5
ATOM      5  O   UNL A   1      35.761  31.069  31.684  1.00  0.00    -0.460 OA
BRANCH   5   6
ATOM      6  C   UNL A   1      36.650  31.245  32.686  1.00  0.00     0.338 C 
ATOM      7  O   UNL A   1      36.312  31.728  33.753  1.00  0.00    -0.246 OA
BRANCH   6   8
ATOM      8  C   UNL A   1      37.977  30.623  32.532  1.00  0.00     0.060 A 
ATOM      9  C   UNL A   1      39.197  31.309  32.536  1.00  0.00     0.016 A 
ATOM     10  C   UNL A   1      37.947  29.234  32.387  1.00  0.00     0.016 A 
ATOM     11  C   UNL A   1      40.373  30.651  32.326  1.00  0.00     0.010 A 
ATOM     12  C   UNL A   1      39.129  28.553  32.220  1.00  0.00     0.010 A 
ATOM     13  C   UNL A   1      40.320  29.281  32.168  1.00  0.00    -0.014 A 
BRANCH  13  14
ATOM     14  C   UNL A   1      41.599  28.625  32.109  1.00  0.00     0.031 A 
ATOM     15  C   UNL A   1      42.174  28.304  33.448  1.00  0.00     0.074 A 
ATOM     16  C   UNL A   1      42.062  28.258  30.907  1.00  0.00     0.049 A 
ATOM     17  N   UNL A   1      43.346  28.583  33.915  1.00  0.00    -0.248 NA
ATOM     18  C   UNL A   1      41.251  27.745  34.459  1.00  0.00     0.031 C 
ATOM     19  C   UNL A   1      41.359  28.348  29.623  1.00  0.00     0.029 A 
ATOM     20  N   UNL A   1      43.146  27.507  30.624  1.00  0.00    -0.354 N 
ATOM     21  C   UNL A   1      43.376  28.046  35.202  1.00  0.00     0.074 A 
ATOM     22  C   UNL A   1      42.017  27.727  35.546  1.00  0.00     0.031 C 
ATOM     23  C   UNL A   1      41.850  27.394  28.807  1.00  0.00     0.029 A 
ATOM     24  C   UNL A   1      42.967  26.749  29.477  1.00  0.00     0.049 A 
ATOM     25  H   UNL A   1      43.967  27.498  31.167  1.00  0.00     0.167 HD
ATOM     26  C   UNL A   1      44.534  27.651  35.798  1.00  0.00     0.031 A 
ATOM     27  C   UNL A   1      43.582  25.573  29.210  1.00  0.00     0.031 A 
ATOM     28  C   UNL A   1      45.688  28.228  35.163  1.00  0.00     0.049 A 
ATOM     29  C   UNL A   1      44.761  25.475  30.114  1.00  0.00     0.074 A 
ATOM     30  C   UNL A   1      46.140  29.517  34.971  1.00  0.00     0.029 A 
ATOM     31  N   UNL A   1      46.369  27.439  34.264  1.00  0.00    -0.354 N 
ATOM     32  N   UNL A   1      45.769  26.305  30.072  1.00  0.00    -0.248 NA
ATOM     33  C   UNL A   1      44.621  24.749  31.370  1.00  0.00     0.031 C 
ATOM     34  C   UNL A   1      46.714  29.511  33.667  1.00  0.00     0.029 A 
ATOM     35  C   UNL A   1      46.632  28.210  33.162  1.00  0.00     0.049 A 
ATOM     36  H   UNL A   1      46.622  26.496  34.390  1.00  0.00     0.167 HD
ATOM     37  C   UNL A   1      46.124  26.519  31.398  1.00  0.00     0.074 A 
ATOM     38  C   UNL A   1      45.466  25.445  32.140  1.00  0.00     0.031 C 
ATOM     39  C   UNL A   1      46.668  27.706  31.804  1.00  0.00     0.031 A 
BRANCH  26  40
ATOM     40  C   UNL A   1      44.625  26.419  36.668  1.00  0.00    -0.014 A 
ATOM     41  C   UNL A   1      45.198  26.527  37.950  1.00  0.00     0.010 A 
ATOM     42  C   UNL A   1      44.444  25.114  36.159  1.00  0.00     0.010 A 
ATOM     43  C   UNL A   1      45.651  25.394  38.640  1.00  0.00     0.020 A 
ATOM     44  C   UNL A   1      44.848  23.977  36.856  1.00  0.00     0.020 A 
ATOM     45  C   UNL A   1      45.492  24.128  38.074  1.00  0.00     0.054 A 
BRANCH  45  46
ATOM     46  S   UNL A   1      46.217  22.686  38.890  1.00  0.00     0.124 S 
ATOM     47  O   UNL A   1      45.360  22.548  40.063  1.00  0.00    -0.237 OA
ATOM     48  O   UNL A   1      46.074  21.651  37.872  1.00  0.00    -0.237 OA
ATOM     49  O   UNL A   1      47.591  23.103  39.162  1.00  0.00    -0.744 OA
ENDBRANCH  45  46
ENDBRANCH  26  40
BRANCH  27  50
ATOM     50  C   UNL A   1      42.961  24.417  28.521  1.00  0.00    -0.014 A 
ATOM     51  C   UNL A   1      42.840  24.397  27.125  1.00  0.00     0.010 A 
ATOM     52  C   UNL A   1      42.673  23.225  29.226  1.00  0.00     0.010 A 
ATOM     53  C   UNL A   1      42.480  23.218  26.453  1.00  0.00     0.020 A 
ATOM     54  C   UNL A   1      42.296  22.052  28.565  1.00  0.00     0.020 A 
ATOM     55  C   UNL A   1      42.222  22.049  27.178  1.00  0.00     0.054 A 
BRANCH  55  56
ATOM     56  S   UNL A   1      41.904  20.499  26.289  1.00  0.00     0.124 S 
ATOM     57  O   UNL A   1      42.091  19.498  27.335  1.00  0.00    -0.237 OA
ATOM     58  O   UNL A   1      40.532  20.679  25.823  1.00  0.00    -0.237 OA
ATOM     59  O   UNL A   1      42.917  20.492  25.235  1.00  0.00    -0.744 OA
ENDBRANCH  55  56
ENDBRANCH  27  50
BRANCH  39  60
ATOM     60  C   UNL A   1      47.099  28.698  30.744  1.00  0.00    -0.014 A 
ATOM     61  C   UNL A   1      48.290  28.565  30.002  1.00  0.00     0.010 A 
ATOM     62  C   UNL A   1      46.185  29.694  30.363  1.00  0.00     0.010 A 
ATOM     63  C   UNL A   1      48.572  29.422  28.929  1.00  0.00     0.020 A 
ATOM     64  C   UNL A   1      46.450  30.541  29.283  1.00  0.00     0.020 A 
ATOM     65  C   UNL A   1      47.647  30.407  28.577  1.00  0.00     0.054 A 
BRANCH  65  66
ATOM     66  S   UNL A   1      47.994  31.479  27.155  1.00  0.00     0.124 S 
ATOM     67  O   UNL A   1      47.654  32.803  27.666  1.00  0.00    -0.237 OA
ATOM     68  O   UNL A   1      49.415  31.243  26.910  1.00  0.00    -0.237 OA
ATOM     69  O   UNL A   1      47.103  30.971  26.111  1.00  0.00    -0.744 OA
ENDBRANCH  65  66
ENDBRANCH  39  60
ENDBRANCH  13  14
ENDBRANCH   6   8
ENDBRANCH   5   6
ENDBRANCH   4   5
ENDBRANCH   3   4
ENDBRANCH   2   3
ENDBRANCH   1   2
BRANCH   1  70
ATOM     70  C   UNL A   1      35.467  29.955  28.139  1.00  0.00     0.261 C 
BRANCH  70  71
ATOM     71  O   UNL A   1      35.250  29.200  26.924  1.00  0.00    -0.462 OA
BRANCH  71  72
ATOM     72  C   UNL A   1      33.942  28.968  26.713  1.00  0.00     0.328 C 
ATOM     73  O   UNL A   1      33.078  29.263  27.542  1.00  0.00    -0.250 OA
BRANCH  72  74
ATOM     74  C   UNL A   1      33.525  28.419  25.329  1.00  0.00     0.195 C 
ATOM     75  C   UNL A   1      33.200  26.942  25.533  1.00  0.00     0.046 C 
ATOM     76  N   UNL A   1      32.760  28.665  24.088  1.00  0.00    -0.328 N 
ATOM     77  C   UNL A   1      33.173  26.344  24.105  1.00  0.00     0.001 C 
ATOM     78  C   UNL A   1      33.167  27.589  23.179  1.00  0.00     0.128 C 
ATOM     79  C   UNL A   1      31.901  25.501  23.889  1.00  0.00     0.071 C 
ATOM     80  C   UNL A   1      34.410  25.458  23.891  1.00  0.00     0.071 C 
ATOM     81  C   UNL A   1      31.899  24.243  24.753  1.00  0.00     0.270 C 
ATOM     82  C   UNL A   1      34.356  24.202  24.770  1.00  0.00     0.270 C 
ATOM     83  N   UNL A   1      33.117  23.459  24.537  1.00  0.00    -0.272 N 
ATOM     84  H   UNL A   1      32.911  22.585  24.134  1.00  0.00     0.356 HD
BRANCH  76  85
ATOM     85  C   UNL A   1      31.485  29.144  23.847  1.00  0.00     0.225 C 
ATOM     86  O   UNL A   1      30.783  29.614  24.748  1.00  0.00    -0.275 OA
BRANCH  85  87
ATOM     87  C   UNL A   1      30.912  29.095  22.469  1.00  0.00     0.124 C 
BRANCH  87  88
ATOM     88  C   UNL A   1      29.388  29.126  22.494  1.00  0.00     0.154 C 
BRANCH  88  89
ATOM     89  N   UNL A   1      28.825  30.378  22.009  1.00  0.00    -0.272 N 
ATOM     90  C   UNL A   1      28.954  31.607  22.583  1.00  0.00     0.108 A 
ATOM     91  N   UNL A   1      28.129  30.426  20.857  1.00  0.00    -0.182 NA
ATOM     92  C   UNL A   1      28.321  32.508  21.773  1.00  0.00     0.042 A 
ATOM     93  C   UNL A   1      27.853  31.728  20.706  1.00  0.00     0.135 A 
ENDBRANCH  88  89
ENDBRANCH  87  88
ENDBRANCH  85  87
ENDBRANCH  76  85
BRANCH  83  94
ATOM     94  C   UNL A   1      33.241  22.104  24.235  1.00  0.00     0.315 C 
ATOM     95  O   UNL A   1      32.793  21.654  23.180  1.00  0.00    -0.231 OA
BRANCH  94  96
ATOM     96  C   UNL A   1      33.827  21.084  25.153  1.00  0.00     0.119 C 
ATOM     97  C   UNL A   1      33.972  19.606  24.947  1.00  0.00     0.019 C 
ATOM     98  C   UNL A   1      35.196  20.489  24.961  1.00  0.00     0.019 C 
ENDBRANCH  94  96
ENDBRANCH  83  94
ENDBRANCH  72  74
ENDBRANCH  71  72
ENDBRANCH  70  71
ENDBRANCH   1  70
TORSDOF 23
ENDMDL
