MODEL 1
REMARK VINA RESULT:     -11.4      0.000      0.000
REMARK SMILES Cc1nc(S[C@@H](C(=O)OCCOCCOC(=O)c2ccc(-c3c4nc(c(-c5ccc(S(=O)(=O)[O-])cc5)c5ccc([nH]5)c(-c5ccc(S(=O)(=O)[O-])cc5)c5nc(c(-c6ccc(S(=O)(=O)[O-])cc6)c6ccc3[nH]6)C=C5)C=C4)cc2)c2ccccc2)nc2ccccc12
REMARK SMILES IDX 13 1 12 2 11 3 10 4 9 5 7 6 8 7 6 8 5 9 4 10 1 11 2 12 3 13
REMARK SMILES IDX 90 14 85 15 89 16 84 17 86 18 88 19 87 20 78 21 79 22 83 23
REMARK SMILES IDX 80 24 82 25 81 26 14 27 15 28 16 29 17 30 18 31 19 32 77 33
REMARK SMILES IDX 20 34 76 35 21 36 22 37 23 38 70 39 24 40 75 41 69 42 71 43
REMARK SMILES IDX 25 44 74 45 68 46 67 47 26 49 56 50 37 51 55 52 38 53 41 54
REMARK SMILES IDX 54 55 72 56 39 57 40 58 53 60 73 61 42 62 27 63 28 64 36 65
REMARK SMILES IDX 29 66 35 67 30 68 31 69 32 70 33 71 34 72 57 73 58 74 66 75
REMARK SMILES IDX 59 76 65 77 60 78 61 79 62 80 63 81 64 82 43 83 44 84 52 85
REMARK SMILES IDX 45 86 51 87 46 88 47 89 48 90 49 91 50 92
REMARK H PARENT 71 48 41 59
REMARK Flexibility Score: inf
ROOT
ATOM      1  C   UNL A   1      39.236  22.100  26.280  1.00  0.00     0.202 C 
ENDROOT
BRANCH   1   2
ATOM      2  O   UNL A   1      38.198  22.384  25.353  1.00  0.00    -0.374 OA
BRANCH   2   3
ATOM      3  C   UNL A   1      36.872  22.501  25.856  1.00  0.00     0.202 C 
BRANCH   3   4
ATOM      4  C   UNL A   1      36.031  23.741  25.507  1.00  0.00     0.261 C 
BRANCH   4   5
ATOM      5  O   UNL A   1      34.596  23.618  25.672  1.00  0.00    -0.462 OA
BRANCH   5   6
ATOM      6  C   UNL A   1      33.927  23.290  24.526  1.00  0.00     0.324 C 
ATOM      7  O   UNL A   1      34.349  23.639  23.422  1.00  0.00    -0.251 OA
BRANCH   6   8
ATOM      8  C   UNL A   1      32.565  22.558  24.690  1.00  0.00     0.194 C 
BRANCH   8   9
ATOM      9  S   UNL A   1      31.446  23.217  25.981  1.00  0.00    -0.066 SA
BRANCH   9  10
ATOM     10  C   UNL A   1      31.263  24.964  25.735  1.00  0.00     0.189 A 
ATOM     11  C   UNL A   1      31.802  28.106  27.522  1.00  0.00     0.067 C 
ATOM     12  C   UNL A   1      31.403  27.162  26.423  1.00  0.00     0.050 A 
ATOM     13  N   UNL A   1      31.553  25.840  26.705  1.00  0.00    -0.227 NA
ATOM     14  C   UNL A   1      31.023  27.631  25.159  1.00  0.00     0.022 A 
ATOM     15  C   UNL A   1      30.710  26.628  24.235  1.00  0.00     0.075 A 
ATOM     16  C   UNL A   1      30.974  28.994  24.769  1.00  0.00     0.012 A 
ATOM     17  N   UNL A   1      30.814  25.323  24.521  1.00  0.00    -0.222 NA
ATOM     18  C   UNL A   1      30.301  27.016  22.961  1.00  0.00     0.029 A 
ATOM     19  C   UNL A   1      30.590  29.352  23.479  1.00  0.00     0.001 A 
ATOM     20  C   UNL A   1      30.238  28.359  22.575  1.00  0.00     0.002 A 
ENDBRANCH   9  10
ENDBRANCH   8   9
BRANCH   8  21
ATOM     21  C   UNL A   1      32.675  21.038  24.457  1.00  0.00    -0.023 A 
ATOM     22  C   UNL A   1      32.395  20.380  23.254  1.00  0.00     0.005 A 
ATOM     23  C   UNL A   1      33.017  20.215  25.552  1.00  0.00     0.005 A 
ATOM     24  C   UNL A   1      32.243  18.990  23.199  1.00  0.00     0.000 A 
ATOM     25  C   UNL A   1      32.891  18.827  25.500  1.00  0.00     0.000 A 
ATOM     26  C   UNL A   1      32.461  18.216  24.331  1.00  0.00     0.000 A 
ENDBRANCH   8  21
ENDBRANCH   6   8
ENDBRANCH   5   6
ENDBRANCH   4   5
ENDBRANCH   3   4
ENDBRANCH   2   3
ENDBRANCH   1   2
BRANCH   1  27
ATOM     27  C   UNL A   1      40.143  23.244  26.742  1.00  0.00     0.261 C 
BRANCH  27  28
ATOM     28  O   UNL A   1      39.623  24.546  26.545  1.00  0.00    -0.460 OA
BRANCH  28  29
ATOM     29  C   UNL A   1      40.562  25.490  26.341  1.00  0.00     0.338 C 
ATOM     30  O   UNL A   1      41.222  25.709  25.340  1.00  0.00    -0.246 OA
BRANCH  29  31
ATOM     31  C   UNL A   1      40.565  26.314  27.543  1.00  0.00     0.060 A 
ATOM     32  C   UNL A   1      41.515  27.327  27.688  1.00  0.00     0.016 A 
ATOM     33  C   UNL A   1      39.622  26.032  28.533  1.00  0.00     0.016 A 
ATOM     34  C   UNL A   1      41.500  28.094  28.844  1.00  0.00     0.010 A 
ATOM     35  C   UNL A   1      39.602  26.811  29.680  1.00  0.00     0.010 A 
ATOM     36  C   UNL A   1      40.526  27.855  29.829  1.00  0.00    -0.014 A 
BRANCH  36  37
ATOM     37  C   UNL A   1      40.378  28.790  30.960  1.00  0.00     0.031 A 
ATOM     38  C   UNL A   1      41.248  28.672  32.169  1.00  0.00     0.074 A 
ATOM     39  C   UNL A   1      39.407  29.717  30.876  1.00  0.00     0.049 A 
ATOM     40  N   UNL A   1      41.249  29.413  33.243  1.00  0.00    -0.248 NA
ATOM     41  C   UNL A   1      42.238  27.581  32.185  1.00  0.00     0.031 C 
ATOM     42  C   UNL A   1      38.504  29.882  29.733  1.00  0.00     0.029 A 
ATOM     43  N   UNL A   1      39.022  30.700  31.748  1.00  0.00    -0.354 N 
ATOM     44  C   UNL A   1      42.244  28.892  34.060  1.00  0.00     0.074 A 
ATOM     45  C   UNL A   1      42.792  27.740  33.380  1.00  0.00     0.031 C 
ATOM     46  C   UNL A   1      37.706  30.935  29.951  1.00  0.00     0.029 A 
ATOM     47  C   UNL A   1      38.000  31.487  31.269  1.00  0.00     0.049 A 
ATOM     48  H   UNL A   1      39.435  30.832  32.631  1.00  0.00     0.167 HD
ATOM     49  C   UNL A   1      42.665  29.360  35.257  1.00  0.00     0.031 A 
ATOM     50  C   UNL A   1      37.377  32.543  31.826  1.00  0.00     0.031 A 
ATOM     51  C   UNL A   1      42.088  30.508  35.909  1.00  0.00     0.049 A 
ATOM     52  C   UNL A   1      37.841  33.011  33.177  1.00  0.00     0.074 A 
ATOM     53  C   UNL A   1      42.455  31.079  37.115  1.00  0.00     0.029 A 
ATOM     54  N   UNL A   1      41.033  31.263  35.414  1.00  0.00    -0.354 N 
ATOM     55  N   UNL A   1      38.816  32.539  33.916  1.00  0.00    -0.248 NA
ATOM     56  C   UNL A   1      37.138  34.158  33.761  1.00  0.00     0.031 C 
ATOM     57  C   UNL A   1      41.574  32.127  37.385  1.00  0.00     0.029 A 
ATOM     58  C   UNL A   1      40.717  32.275  36.304  1.00  0.00     0.049 A 
ATOM     59  H   UNL A   1      40.577  31.102  34.556  1.00  0.00     0.167 HD
ATOM     60  C   UNL A   1      38.865  33.352  35.042  1.00  0.00     0.074 A 
ATOM     61  C   UNL A   1      37.833  34.355  34.874  1.00  0.00     0.031 C 
ATOM     62  C   UNL A   1      39.689  33.271  36.117  1.00  0.00     0.031 A 
BRANCH  49  63
ATOM     63  C   UNL A   1      43.812  28.662  35.942  1.00  0.00    -0.014 A 
ATOM     64  C   UNL A   1      45.138  28.999  35.613  1.00  0.00     0.010 A 
ATOM     65  C   UNL A   1      43.578  27.566  36.794  1.00  0.00     0.010 A 
ATOM     66  C   UNL A   1      46.205  28.224  36.076  1.00  0.00     0.020 A 
ATOM     67  C   UNL A   1      44.645  26.807  37.285  1.00  0.00     0.020 A 
ATOM     68  C   UNL A   1      45.949  27.123  36.897  1.00  0.00     0.054 A 
BRANCH  68  69
ATOM     69  S   UNL A   1      47.340  26.084  37.423  1.00  0.00     0.124 S 
ATOM     70  O   UNL A   1      46.803  25.428  38.611  1.00  0.00    -0.237 OA
ATOM     71  O   UNL A   1      47.546  25.220  36.263  1.00  0.00    -0.237 OA
ATOM     72  O   UNL A   1      48.412  27.045  37.671  1.00  0.00    -0.744 OA
ENDBRANCH  68  69
ENDBRANCH  49  63
BRANCH  50  73
ATOM     73  C   UNL A   1      36.312  33.250  31.061  1.00  0.00    -0.014 A 
ATOM     74  C   UNL A   1      36.611  33.922  29.860  1.00  0.00     0.010 A 
ATOM     75  C   UNL A   1      35.009  33.337  31.583  1.00  0.00     0.010 A 
ATOM     76  C   UNL A   1      35.648  34.712  29.229  1.00  0.00     0.020 A 
ATOM     77  C   UNL A   1      34.031  34.097  30.933  1.00  0.00     0.020 A 
ATOM     78  C   UNL A   1      34.367  34.805  29.777  1.00  0.00     0.054 A 
BRANCH  78  79
ATOM     79  S   UNL A   1      33.150  35.880  28.968  1.00  0.00     0.124 S 
ATOM     80  O   UNL A   1      34.006  36.750  28.166  1.00  0.00    -0.237 OA
ATOM     81  O   UNL A   1      32.338  34.928  28.213  1.00  0.00    -0.237 OA
ATOM     82  O   UNL A   1      32.469  36.529  30.085  1.00  0.00    -0.744 OA
ENDBRANCH  78  79
ENDBRANCH  50  73
BRANCH  62  83
ATOM     83  C   UNL A   1      39.531  34.301  37.207  1.00  0.00    -0.014 A 
ATOM     84  C   UNL A   1      40.224  35.523  37.112  1.00  0.00     0.010 A 
ATOM     85  C   UNL A   1      38.811  34.012  38.378  1.00  0.00     0.010 A 
ATOM     86  C   UNL A   1      40.239  36.416  38.185  1.00  0.00     0.020 A 
ATOM     87  C   UNL A   1      38.789  34.922  39.439  1.00  0.00     0.020 A 
ATOM     88  C   UNL A   1      39.527  36.105  39.346  1.00  0.00     0.054 A 
BRANCH  88  89
ATOM     89  S   UNL A   1      39.589  37.260  40.742  1.00  0.00     0.124 S 
ATOM     90  O   UNL A   1      38.820  38.393  40.237  1.00  0.00    -0.237 OA
ATOM     91  O   UNL A   1      38.956  36.497  41.816  1.00  0.00    -0.237 OA
ATOM     92  O   UNL A   1      41.018  37.506  40.921  1.00  0.00    -0.744 OA
ENDBRANCH  88  89
ENDBRANCH  62  83
ENDBRANCH  36  37
ENDBRANCH  29  31
ENDBRANCH  28  29
ENDBRANCH  27  28
ENDBRANCH   1  27
TORSDOF 20
ENDMDL
MODEL 2
REMARK VINA RESULT:     -11.2      1.402      2.157
REMARK SMILES Cc1nc(S[C@@H](C(=O)OCCOCCOC(=O)c2ccc(-c3c4nc(c(-c5ccc(S(=O)(=O)[O-])cc5)c5ccc([nH]5)c(-c5ccc(S(=O)(=O)[O-])cc5)c5nc(c(-c6ccc(S(=O)(=O)[O-])cc6)c6ccc3[nH]6)C=C5)C=C4)cc2)c2ccccc2)nc2ccccc12
REMARK SMILES IDX 13 1 12 2 11 3 10 4 9 5 7 6 8 7 6 8 5 9 4 10 1 11 2 12 3 13
REMARK SMILES IDX 90 14 85 15 89 16 84 17 86 18 88 19 87 20 78 21 79 22 83 23
REMARK SMILES IDX 80 24 82 25 81 26 14 27 15 28 16 29 17 30 18 31 19 32 77 33
REMARK SMILES IDX 20 34 76 35 21 36 22 37 23 38 70 39 24 40 75 41 69 42 71 43
REMARK SMILES IDX 25 44 74 45 68 46 67 47 26 49 56 50 37 51 55 52 38 53 41 54
REMARK SMILES IDX 54 55 72 56 39 57 40 58 53 60 73 61 42 62 27 63 28 64 36 65
REMARK SMILES IDX 29 66 35 67 30 68 31 69 32 70 33 71 34 72 57 73 58 74 66 75
REMARK SMILES IDX 59 76 65 77 60 78 61 79 62 80 63 81 64 82 43 83 44 84 52 85
REMARK SMILES IDX 45 86 51 87 46 88 47 89 48 90 49 91 50 92
REMARK H PARENT 71 48 41 59
REMARK Flexibility Score: inf
ROOT
ATOM      1  C   UNL A   1      37.884  23.054  25.693  1.00  0.00     0.202 C 
ENDROOT
BRANCH   1   2
ATOM      2  O   UNL A   1      37.506  21.691  25.820  1.00  0.00    -0.374 OA
BRANCH   2   3
ATOM      3  C   UNL A   1      36.520  21.189  24.925  1.00  0.00     0.202 C 
BRANCH   3   4
ATOM      4  C   UNL A   1      35.864  22.135  23.906  1.00  0.00     0.261 C 
BRANCH   4   5
ATOM      5  O   UNL A   1      34.634  22.782  24.320  1.00  0.00    -0.462 OA
BRANCH   5   6
ATOM      6  C   UNL A   1      33.578  22.567  23.481  1.00  0.00     0.324 C 
ATOM      7  O   UNL A   1      33.559  23.050  22.347  1.00  0.00    -0.251 OA
BRANCH   6   8
ATOM      8  C   UNL A   1      32.366  21.783  24.059  1.00  0.00     0.194 C 
BRANCH   8   9
ATOM      9  S   UNL A   1      31.528  22.542  25.500  1.00  0.00    -0.066 SA
BRANCH   9  10
ATOM     10  C   UNL A   1      31.429  24.294  25.240  1.00  0.00     0.189 A 
ATOM     11  C   UNL A   1      29.136  26.788  23.868  1.00  0.00     0.067 C 
ATOM     12  C   UNL A   1      30.372  26.204  24.495  1.00  0.00     0.050 A 
ATOM     13  N   UNL A   1      30.374  24.852  24.635  1.00  0.00    -0.227 NA
ATOM     14  C   UNL A   1      31.386  27.023  25.009  1.00  0.00     0.022 A 
ATOM     15  C   UNL A   1      32.456  26.332  25.588  1.00  0.00     0.075 A 
ATOM     16  C   UNL A   1      31.377  28.441  25.008  1.00  0.00     0.012 A 
ATOM     17  N   UNL A   1      32.484  24.995  25.688  1.00  0.00    -0.222 NA
ATOM     18  C   UNL A   1      33.515  27.075  26.101  1.00  0.00     0.029 A 
ATOM     19  C   UNL A   1      32.437  29.160  25.555  1.00  0.00     0.001 A 
ATOM     20  C   UNL A   1      33.518  28.474  26.091  1.00  0.00     0.002 A 
ENDBRANCH   9  10
ENDBRANCH   8   9
BRANCH   8  21
ATOM     21  C   UNL A   1      32.556  20.255  23.986  1.00  0.00    -0.023 A 
ATOM     22  C   UNL A   1      33.155  19.465  24.973  1.00  0.00     0.005 A 
ATOM     23  C   UNL A   1      32.162  19.586  22.807  1.00  0.00     0.005 A 
ATOM     24  C   UNL A   1      33.543  18.145  24.717  1.00  0.00     0.000 A 
ATOM     25  C   UNL A   1      32.525  18.263  22.552  1.00  0.00     0.000 A 
ATOM     26  C   UNL A   1      33.256  17.554  23.494  1.00  0.00     0.000 A 
ENDBRANCH   8  21
ENDBRANCH   6   8
ENDBRANCH   5   6
ENDBRANCH   4   5
ENDBRANCH   3   4
ENDBRANCH   2   3
ENDBRANCH   1   2
BRANCH   1  27
ATOM     27  C   UNL A   1      39.074  23.567  26.510  1.00  0.00     0.261 C 
BRANCH  27  28
ATOM     28  O   UNL A   1      38.851  24.778  27.207  1.00  0.00    -0.460 OA
BRANCH  28  29
ATOM     29  C   UNL A   1      39.777  25.729  26.971  1.00  0.00     0.338 C 
ATOM     30  O   UNL A   1      40.446  25.913  25.970  1.00  0.00    -0.246 OA
BRANCH  29  31
ATOM     31  C   UNL A   1      39.749  26.608  28.133  1.00  0.00     0.060 A 
ATOM     32  C   UNL A   1      38.988  26.259  29.250  1.00  0.00     0.016 A 
ATOM     33  C   UNL A   1      40.471  27.801  28.069  1.00  0.00     0.016 A 
ATOM     34  C   UNL A   1      38.973  27.116  30.341  1.00  0.00     0.010 A 
ATOM     35  C   UNL A   1      40.465  28.647  29.168  1.00  0.00     0.010 A 
ATOM     36  C   UNL A   1      39.735  28.297  30.312  1.00  0.00    -0.014 A 
BRANCH  36  37
ATOM     37  C   UNL A   1      39.883  29.107  31.536  1.00  0.00     0.031 A 
ATOM     38  C   UNL A   1      41.018  28.868  32.478  1.00  0.00     0.074 A 
ATOM     39  C   UNL A   1      38.939  30.032  31.787  1.00  0.00     0.049 A 
ATOM     40  N   UNL A   1      41.293  29.493  33.591  1.00  0.00    -0.248 NA
ATOM     41  C   UNL A   1      41.961  27.789  32.140  1.00  0.00     0.031 C 
ATOM     42  C   UNL A   1      37.789  30.309  30.920  1.00  0.00     0.029 A 
ATOM     43  N   UNL A   1      38.795  30.915  32.822  1.00  0.00    -0.354 N 
ATOM     44  C   UNL A   1      42.446  28.895  34.083  1.00  0.00     0.074 A 
ATOM     45  C   UNL A   1      42.791  27.824  33.175  1.00  0.00     0.031 C 
ATOM     46  C   UNL A   1      37.088  31.328  31.433  1.00  0.00     0.029 A 
ATOM     47  C   UNL A   1      37.703  31.741  32.690  1.00  0.00     0.049 A 
ATOM     48  H   UNL A   1      39.413  30.956  33.588  1.00  0.00     0.167 HD
ATOM     49  C   UNL A   1      43.153  29.237  35.184  1.00  0.00     0.031 A 
ATOM     50  C   UNL A   1      37.254  32.728  33.488  1.00  0.00     0.031 A 
ATOM     51  C   UNL A   1      42.774  30.307  36.071  1.00  0.00     0.049 A 
ATOM     52  C   UNL A   1      38.039  33.055  34.727  1.00  0.00     0.074 A 
ATOM     53  C   UNL A   1      43.432  30.751  37.205  1.00  0.00     0.029 A 
ATOM     54  N   UNL A   1      41.645  31.102  35.928  1.00  0.00    -0.354 N 
ATOM     55  N   UNL A   1      39.156  32.514  35.154  1.00  0.00    -0.248 NA
ATOM     56  C   UNL A   1      37.522  34.129  35.580  1.00  0.00     0.031 C 
ATOM     57  C   UNL A   1      42.663  31.758  37.787  1.00  0.00     0.029 A 
ATOM     58  C   UNL A   1      41.573  32.014  36.968  1.00  0.00     0.049 A 
ATOM     59  H   UNL A   1      40.992  31.030  35.195  1.00  0.00     0.167 HD
ATOM     60  C   UNL A   1      39.491  33.204  36.313  1.00  0.00     0.074 A 
ATOM     61  C   UNL A   1      38.469  34.213  36.506  1.00  0.00     0.031 C 
ATOM     62  C   UNL A   1      40.549  33.017  37.141  1.00  0.00     0.031 A 
BRANCH  49  63
ATOM     63  C   UNL A   1      44.418  28.479  35.494  1.00  0.00    -0.014 A 
ATOM     64  C   UNL A   1      44.379  27.370  36.361  1.00  0.00     0.010 A 
ATOM     65  C   UNL A   1      45.666  28.955  35.053  1.00  0.00     0.010 A 
ATOM     66  C   UNL A   1      45.562  26.788  36.825  1.00  0.00     0.020 A 
ATOM     67  C   UNL A   1      46.852  28.355  35.489  1.00  0.00     0.020 A 
ATOM     68  C   UNL A   1      46.791  27.296  36.397  1.00  0.00     0.054 A 
BRANCH  68  69
ATOM     69  S   UNL A   1      48.315  26.578  37.071  1.00  0.00     0.124 S 
ATOM     70  O   UNL A   1      49.324  27.546  36.651  1.00  0.00    -0.237 OA
ATOM     71  O   UNL A   1      48.037  26.535  38.505  1.00  0.00    -0.237 OA
ATOM     72  O   UNL A   1      48.395  25.271  36.422  1.00  0.00    -0.744 OA
ENDBRANCH  68  69
ENDBRANCH  49  63
BRANCH  50  73
ATOM     73  C   UNL A   1      36.049  33.505  33.083  1.00  0.00    -0.014 A 
ATOM     74  C   UNL A   1      36.175  34.783  32.505  1.00  0.00     0.010 A 
ATOM     75  C   UNL A   1      34.763  33.008  33.361  1.00  0.00     0.010 A 
ATOM     76  C   UNL A   1      35.047  35.571  32.270  1.00  0.00     0.020 A 
ATOM     77  C   UNL A   1      33.628  33.780  33.093  1.00  0.00     0.020 A 
ATOM     78  C   UNL A   1      33.780  35.069  32.578  1.00  0.00     0.054 A 
BRANCH  78  79
ATOM     79  S   UNL A   1      32.335  36.133  32.313  1.00  0.00     0.124 S 
ATOM     80  O   UNL A   1      32.489  36.504  30.909  1.00  0.00    -0.237 OA
ATOM     81  O   UNL A   1      31.221  35.233  32.607  1.00  0.00    -0.237 OA
ATOM     82  O   UNL A   1      32.526  37.218  33.272  1.00  0.00    -0.744 OA
ENDBRANCH  78  79
ENDBRANCH  50  73
BRANCH  62  83
ATOM     83  C   UNL A   1      40.680  33.926  38.337  1.00  0.00    -0.014 A 
ATOM     84  C   UNL A   1      39.953  33.639  39.508  1.00  0.00     0.010 A 
ATOM     85  C   UNL A   1      41.407  35.126  38.260  1.00  0.00     0.010 A 
ATOM     86  C   UNL A   1      39.915  34.554  40.562  1.00  0.00     0.020 A 
ATOM     87  C   UNL A   1      41.403  36.026  39.329  1.00  0.00     0.020 A 
ATOM     88  C   UNL A   1      40.634  35.746  40.462  1.00  0.00     0.054 A 
BRANCH  88  89
ATOM     89  S   UNL A   1      40.541  36.939  41.824  1.00  0.00     0.124 S 
ATOM     90  O   UNL A   1      41.389  38.024  41.340  1.00  0.00    -0.237 OA
ATOM     91  O   UNL A   1      39.112  37.236  41.891  1.00  0.00    -0.237 OA
ATOM     92  O   UNL A   1      41.069  36.196  42.966  1.00  0.00    -0.744 OA
ENDBRANCH  88  89
ENDBRANCH  62  83
ENDBRANCH  36  37
ENDBRANCH  29  31
ENDBRANCH  28  29
ENDBRANCH  27  28
ENDBRANCH   1  27
TORSDOF 20
ENDMDL
MODEL 3
REMARK VINA RESULT:     -11.2      6.679     12.376
REMARK SMILES Cc1nc(S[C@@H](C(=O)OCCOCCOC(=O)c2ccc(-c3c4nc(c(-c5ccc(S(=O)(=O)[O-])cc5)c5ccc([nH]5)c(-c5ccc(S(=O)(=O)[O-])cc5)c5nc(c(-c6ccc(S(=O)(=O)[O-])cc6)c6ccc3[nH]6)C=C5)C=C4)cc2)c2ccccc2)nc2ccccc12
REMARK SMILES IDX 13 1 12 2 11 3 10 4 9 5 7 6 8 7 6 8 5 9 4 10 1 11 2 12 3 13
REMARK SMILES IDX 90 14 85 15 89 16 84 17 86 18 88 19 87 20 78 21 79 22 83 23
REMARK SMILES IDX 80 24 82 25 81 26 14 27 15 28 16 29 17 30 18 31 19 32 77 33
REMARK SMILES IDX 20 34 76 35 21 36 22 37 23 38 70 39 24 40 75 41 69 42 71 43
REMARK SMILES IDX 25 44 74 45 68 46 67 47 26 49 56 50 37 51 55 52 38 53 41 54
REMARK SMILES IDX 54 55 72 56 39 57 40 58 53 60 73 61 42 62 27 63 28 64 36 65
REMARK SMILES IDX 29 66 35 67 30 68 31 69 32 70 33 71 34 72 57 73 58 74 66 75
REMARK SMILES IDX 59 76 65 77 60 78 61 79 62 80 63 81 64 82 43 83 44 84 52 85
REMARK SMILES IDX 45 86 51 87 46 88 47 89 48 90 49 91 50 92
REMARK H PARENT 71 48 41 59
REMARK Flexibility Score: inf
ROOT
ATOM      1  C   UNL A   1      34.727  31.257  27.595  1.00  0.00     0.202 C 
ENDROOT
BRANCH   1   2
ATOM      2  O   UNL A   1      33.309  31.292  27.660  1.00  0.00    -0.374 OA
BRANCH   2   3
ATOM      3  C   UNL A   1      32.588  30.262  26.993  1.00  0.00     0.202 C 
BRANCH   3   4
ATOM      4  C   UNL A   1      33.311  29.358  25.980  1.00  0.00     0.261 C 
BRANCH   4   5
ATOM      5  O   UNL A   1      33.196  27.928  26.189  1.00  0.00    -0.462 OA
BRANCH   5   6
ATOM      6  C   UNL A   1      31.955  27.422  25.920  1.00  0.00     0.324 C 
ATOM      7  O   UNL A   1      31.156  27.184  26.827  1.00  0.00    -0.251 OA
BRANCH   6   8
ATOM      8  C   UNL A   1      31.647  27.062  24.439  1.00  0.00     0.194 C 
BRANCH   8   9
ATOM      9  S   UNL A   1      33.080  26.559  23.417  1.00  0.00    -0.066 SA
BRANCH   9  10
ATOM     10  C   UNL A   1      33.596  24.938  23.920  1.00  0.00     0.189 A 
ATOM     11  C   UNL A   1      36.061  23.341  26.096  1.00  0.00     0.067 C 
ATOM     12  C   UNL A   1      34.939  23.484  25.105  1.00  0.00     0.050 A 
ATOM     13  N   UNL A   1      34.625  24.760  24.757  1.00  0.00    -0.227 NA
ATOM     14  C   UNL A   1      34.197  22.375  24.678  1.00  0.00     0.022 A 
ATOM     15  C   UNL A   1      33.167  22.674  23.779  1.00  0.00     0.075 A 
ATOM     16  C   UNL A   1      34.395  21.038  25.108  1.00  0.00     0.012 A 
ATOM     17  N   UNL A   1      32.882  23.927  23.397  1.00  0.00    -0.222 NA
ATOM     18  C   UNL A   1      32.398  21.621  23.290  1.00  0.00     0.029 A 
ATOM     19  C   UNL A   1      33.592  20.008  24.625  1.00  0.00     0.001 A 
ATOM     20  C   UNL A   1      32.598  20.299  23.700  1.00  0.00     0.002 A 
ENDBRANCH   9  10
ENDBRANCH   8   9
BRANCH   8  21
ATOM     21  C   UNL A   1      30.529  27.933  23.835  1.00  0.00    -0.023 A 
ATOM     22  C   UNL A   1      30.589  29.319  23.653  1.00  0.00     0.005 A 
ATOM     23  C   UNL A   1      29.307  27.313  23.493  1.00  0.00     0.005 A 
ATOM     24  C   UNL A   1      29.444  30.070  23.366  1.00  0.00     0.000 A 
ATOM     25  C   UNL A   1      28.165  28.053  23.184  1.00  0.00     0.000 A 
ATOM     26  C   UNL A   1      28.224  29.438  23.163  1.00  0.00     0.000 A 
ENDBRANCH   8  21
ENDBRANCH   6   8
ENDBRANCH   5   6
ENDBRANCH   4   5
ENDBRANCH   3   4
ENDBRANCH   2   3
ENDBRANCH   1   2
BRANCH   1  27
ATOM     27  C   UNL A   1      35.509  30.776  28.821  1.00  0.00     0.261 C 
BRANCH  27  28
ATOM     28  O   UNL A   1      36.361  29.669  28.598  1.00  0.00    -0.460 OA
BRANCH  28  29
ATOM     29  C   UNL A   1      37.049  29.273  29.687  1.00  0.00     0.338 C 
ATOM     30  O   UNL A   1      36.637  29.045  30.811  1.00  0.00    -0.246 OA
BRANCH  29  31
ATOM     31  C   UNL A   1      38.415  29.043  29.234  1.00  0.00     0.060 A 
ATOM     32  C   UNL A   1      38.764  29.328  27.913  1.00  0.00     0.016 A 
ATOM     33  C   UNL A   1      39.326  28.507  30.145  1.00  0.00     0.016 A 
ATOM     34  C   UNL A   1      40.070  29.094  27.504  1.00  0.00     0.010 A 
ATOM     35  C   UNL A   1      40.633  28.289  29.736  1.00  0.00     0.010 A 
ATOM     36  C   UNL A   1      41.012  28.601  28.423  1.00  0.00    -0.014 A 
BRANCH  36  37
ATOM     37  C   UNL A   1      42.439  28.542  28.053  1.00  0.00     0.031 A 
ATOM     38  C   UNL A   1      43.339  29.712  28.282  1.00  0.00     0.074 A 
ATOM     39  C   UNL A   1      42.882  27.414  27.467  1.00  0.00     0.049 A 
ATOM     40  N   UNL A   1      44.613  29.820  28.019  1.00  0.00    -0.248 NA
ATOM     41  C   UNL A   1      42.738  30.920  28.873  1.00  0.00     0.031 C 
ATOM     42  C   UNL A   1      42.055  26.234  27.194  1.00  0.00     0.029 A 
ATOM     43  N   UNL A   1      44.123  27.064  27.010  1.00  0.00    -0.354 N 
ATOM     44  C   UNL A   1      44.973  31.100  28.421  1.00  0.00     0.074 A 
ATOM     45  C   UNL A   1      43.774  31.750  28.900  1.00  0.00     0.031 C 
ATOM     46  C   UNL A   1      42.824  25.274  26.664  1.00  0.00     0.029 A 
ATOM     47  C   UNL A   1      44.182  25.784  26.509  1.00  0.00     0.049 A 
ATOM     48  H   UNL A   1      44.900  27.669  27.036  1.00  0.00     0.167 HD
ATOM     49  C   UNL A   1      46.205  31.658  28.406  1.00  0.00     0.031 A 
ATOM     50  C   UNL A   1      45.217  25.096  25.992  1.00  0.00     0.031 A 
ATOM     51  C   UNL A   1      47.379  30.981  27.914  1.00  0.00     0.049 A 
ATOM     52  C   UNL A   1      46.564  25.761  25.951  1.00  0.00     0.074 A 
ATOM     53  C   UNL A   1      48.680  31.449  27.873  1.00  0.00     0.029 A 
ATOM     54  N   UNL A   1      47.398  29.699  27.382  1.00  0.00    -0.354 N 
ATOM     55  N   UNL A   1      46.901  26.954  26.380  1.00  0.00    -0.248 NA
ATOM     56  C   UNL A   1      47.670  24.989  25.376  1.00  0.00     0.031 C 
ATOM     57  C   UNL A   1      49.469  30.483  27.248  1.00  0.00     0.029 A 
ATOM     58  C   UNL A   1      48.683  29.371  26.985  1.00  0.00     0.049 A 
ATOM     59  H   UNL A   1      46.614  29.109  27.301  1.00  0.00     0.167 HD
ATOM     60  C   UNL A   1      48.268  27.064  26.154  1.00  0.00     0.074 A 
ATOM     61  C   UNL A   1      48.695  25.810  25.568  1.00  0.00     0.031 C 
ATOM     62  C   UNL A   1      49.092  28.112  26.408  1.00  0.00     0.031 A 
BRANCH  49  63
ATOM     63  C   UNL A   1      46.372  33.052  28.953  1.00  0.00    -0.014 A 
ATOM     64  C   UNL A   1      46.550  33.249  30.335  1.00  0.00     0.010 A 
ATOM     65  C   UNL A   1      46.197  34.174  28.121  1.00  0.00     0.010 A 
ATOM     66  C   UNL A   1      46.495  34.534  30.884  1.00  0.00     0.020 A 
ATOM     67  C   UNL A   1      46.174  35.463  28.662  1.00  0.00     0.020 A 
ATOM     68  C   UNL A   1      46.291  35.631  30.043  1.00  0.00     0.054 A 
BRANCH  68  69
ATOM     69  S   UNL A   1      46.144  37.282  30.782  1.00  0.00     0.124 S 
ATOM     70  O   UNL A   1      47.465  37.474  31.373  1.00  0.00    -0.237 OA
ATOM     71  O   UNL A   1      45.839  38.120  29.626  1.00  0.00    -0.237 OA
ATOM     72  O   UNL A   1      45.048  37.134  31.738  1.00  0.00    -0.744 OA
ENDBRANCH  68  69
ENDBRANCH  49  63
BRANCH  50  73
ATOM     73  C   UNL A   1      45.011  23.687  25.553  1.00  0.00    -0.014 A 
ATOM     74  C   UNL A   1      45.243  22.615  26.435  1.00  0.00     0.010 A 
ATOM     75  C   UNL A   1      44.675  23.407  24.216  1.00  0.00     0.010 A 
ATOM     76  C   UNL A   1      45.201  21.296  25.978  1.00  0.00     0.020 A 
ATOM     77  C   UNL A   1      44.595  22.087  23.764  1.00  0.00     0.020 A 
ATOM     78  C   UNL A   1      44.889  21.041  24.641  1.00  0.00     0.054 A 
BRANCH  78  79
ATOM     79  S   UNL A   1      44.893  19.323  24.059  1.00  0.00     0.124 S 
ATOM     80  O   UNL A   1      43.959  18.691  24.986  1.00  0.00    -0.237 OA
ATOM     81  O   UNL A   1      44.422  19.453  22.682  1.00  0.00    -0.237 OA
ATOM     82  O   UNL A   1      46.289  18.914  24.202  1.00  0.00    -0.744 OA
ENDBRANCH  78  79
ENDBRANCH  50  73
BRANCH  62  83
ATOM     83  C   UNL A   1      50.553  27.959  26.070  1.00  0.00    -0.014 A 
ATOM     84  C   UNL A   1      50.988  28.188  24.751  1.00  0.00     0.010 A 
ATOM     85  C   UNL A   1      51.467  27.462  27.015  1.00  0.00     0.010 A 
ATOM     86  C   UNL A   1      52.295  27.882  24.370  1.00  0.00     0.020 A 
ATOM     87  C   UNL A   1      52.789  27.193  26.647  1.00  0.00     0.020 A 
ATOM     88  C   UNL A   1      53.186  27.378  25.320  1.00  0.00     0.054 A 
BRANCH  88  89
ATOM     89  S   UNL A   1      54.869  26.951  24.798  1.00  0.00     0.124 S 
ATOM     90  O   UNL A   1      54.626  25.919  23.795  1.00  0.00    -0.237 OA
ATOM     91  O   UNL A   1      55.376  28.222  24.286  1.00  0.00    -0.237 OA
ATOM     92  O   UNL A   1      55.503  26.487  26.030  1.00  0.00    -0.744 OA
ENDBRANCH  88  89
ENDBRANCH  62  83
ENDBRANCH  36  37
ENDBRANCH  29  31
ENDBRANCH  28  29
ENDBRANCH  27  28
ENDBRANCH   1  27
TORSDOF 20
ENDMDL
