MODEL 1
REMARK VINA RESULT:      -9.4      0.000      0.000
REMARK SMILES CCC[C@H](C)NC(=O)C[NH+]1CC(n2cc(C(=O)OCCOCCOC(=O)c3ccc(-c4c5nc(c(-c6ccc(S(=O)(=O)[O-])cc6)c6ccc([nH]6)c(-c6ccc(S(=O)(=O)[O-])cc6)c6nc(c(-c7ccc(S(=O)(=O)[O-])cc7)c7ccc4[nH]7)C=C6)C=C5)cc3)nn2)C1
REMARK SMILES IDX 19 1 18 2 16 3 17 4 15 5 13 6 14 7 88 8 87 9 12 10 10 11
REMARK SMILES IDX 11 12 89 13 9 15 7 16 6 17 8 19 4 20 5 21 3 22 2 23 1 24
REMARK SMILES IDX 20 25 21 26 22 27 23 28 24 29 25 30 26 31 27 32 28 33 86 34
REMARK SMILES IDX 29 35 85 36 30 37 31 38 32 39 79 40 33 41 84 42 78 43 80 44
REMARK SMILES IDX 34 45 83 46 77 47 76 48 35 50 65 51 46 52 64 53 47 54 50 55
REMARK SMILES IDX 63 56 81 57 48 58 49 59 62 61 82 62 51 63 36 64 37 65 45 66
REMARK SMILES IDX 38 67 44 68 39 69 40 70 41 71 42 72 43 73 66 74 67 75 75 76
REMARK SMILES IDX 68 77 74 78 69 79 70 80 71 81 72 82 73 83 52 84 53 85 61 86
REMARK SMILES IDX 54 87 60 88 55 89 56 90 57 91 58 92 59 93
REMARK H PARENT 10 14 6 18 80 49 50 60
REMARK Flexibility Score: inf
ROOT
ATOM      1  C   UNL A   1      46.463  21.633  24.225  1.00  0.00     0.261 C 
ENDROOT
BRANCH   1   2
ATOM      2  O   UNL A   1      46.229  20.521  25.102  1.00  0.00    -0.458 OA
BRANCH   2   3
ATOM      3  C   UNL A   1      45.491  19.509  24.552  1.00  0.00     0.360 C 
ATOM      4  O   UNL A   1      45.853  18.814  23.618  1.00  0.00    -0.244 OA
BRANCH   3   5
ATOM      5  C   UNL A   1      44.247  19.280  25.269  1.00  0.00     0.190 A 
ATOM      6  N   UNL A   1      42.360  19.405  26.306  1.00  0.00    -0.237 N 
ATOM      7  C   UNL A   1      43.388  20.185  25.862  1.00  0.00     0.147 A 
ATOM      8  N   UNL A   1      42.611  18.102  26.114  1.00  0.00    -0.066 NA
ATOM      9  N   UNL A   1      43.761  18.010  25.469  1.00  0.00    -0.123 NA
BRANCH   6  10
ATOM     10  C   UNL A   1      41.145  19.898  26.854  1.00  0.00     0.218 C 
ATOM     11  N   UNL A   1      39.746  21.412  26.654  1.00  0.00    -0.323 N 
ATOM     12  C   UNL A   1      40.032  20.217  25.825  1.00  0.00     0.296 C 
ATOM     13  C   UNL A   1      41.178  21.436  27.049  1.00  0.00     0.296 C 
ATOM     14  H   UNL A   1      38.997  21.405  27.347  1.00  0.00     0.348 HD
BRANCH  11  15
ATOM     15  C   UNL A   1      39.389  22.583  25.845  1.00  0.00     0.363 C 
BRANCH  15  16
ATOM     16  C   UNL A   1      38.584  23.532  26.732  1.00  0.00     0.275 C 
ATOM     17  N   UNL A   1      37.238  23.657  26.513  1.00  0.00    -0.349 N 
ATOM     18  H   UNL A   1      36.753  24.226  27.154  1.00  0.00     0.163 HD
ATOM     19  O   UNL A   1      39.113  24.182  27.636  1.00  0.00    -0.268 OA
BRANCH  17  20
ATOM     20  C   UNL A   1      36.426  23.061  25.456  1.00  0.00     0.079 C 
ATOM     21  C   UNL A   1      36.170  21.586  25.750  1.00  0.00     0.031 C 
BRANCH  20  22
ATOM     22  C   UNL A   1      35.144  23.867  25.190  1.00  0.00     0.024 C 
BRANCH  22  23
ATOM     23  C   UNL A   1      34.806  24.183  23.730  1.00  0.00    -0.001 C 
ATOM     24  C   UNL A   1      34.118  23.044  22.990  1.00  0.00     0.004 C 
ENDBRANCH  22  23
ENDBRANCH  20  22
ENDBRANCH  17  20
ENDBRANCH  15  16
ENDBRANCH  11  15
ENDBRANCH   6  10
ENDBRANCH   3   5
ENDBRANCH   2   3
ENDBRANCH   1   2
BRANCH   1  25
ATOM     25  C   UNL A   1      46.085  22.968  24.870  1.00  0.00     0.202 C 
BRANCH  25  26
ATOM     26  O   UNL A   1      45.752  22.950  26.257  1.00  0.00    -0.374 OA
BRANCH  26  27
ATOM     27  C   UNL A   1      44.666  23.739  26.730  1.00  0.00     0.202 C 
BRANCH  27  28
ATOM     28  C   UNL A   1      44.835  25.251  26.781  1.00  0.00     0.261 C 
BRANCH  28  29
ATOM     29  O   UNL A   1      44.300  25.904  25.637  1.00  0.00    -0.460 OA
BRANCH  29  30
ATOM     30  C   UNL A   1      44.926  27.067  25.336  1.00  0.00     0.338 C 
ATOM     31  O   UNL A   1      45.857  27.220  24.567  1.00  0.00    -0.246 OA
BRANCH  30  32
ATOM     32  C   UNL A   1      44.396  28.127  26.202  1.00  0.00     0.060 A 
ATOM     33  C   UNL A   1      45.322  28.829  26.976  1.00  0.00     0.016 A 
ATOM     34  C   UNL A   1      43.014  28.243  26.417  1.00  0.00     0.016 A 
ATOM     35  C   UNL A   1      44.867  29.504  28.087  1.00  0.00     0.010 A 
ATOM     36  C   UNL A   1      42.562  28.914  27.530  1.00  0.00     0.010 A 
ATOM     37  C   UNL A   1      43.500  29.469  28.394  1.00  0.00    -0.014 A 
BRANCH  37  38
ATOM     38  C   UNL A   1      43.056  30.153  29.591  1.00  0.00     0.031 A 
ATOM     39  C   UNL A   1      42.965  29.244  30.754  1.00  0.00     0.074 A 
ATOM     40  C   UNL A   1      42.832  31.479  29.657  1.00  0.00     0.049 A 
ATOM     41  N   UNL A   1      41.889  28.799  31.311  1.00  0.00    -0.248 NA
ATOM     42  C   UNL A   1      44.201  28.596  31.222  1.00  0.00     0.031 C 
ATOM     43  C   UNL A   1      43.130  32.512  28.661  1.00  0.00     0.029 A 
ATOM     44  N   UNL A   1      42.355  32.201  30.704  1.00  0.00    -0.354 N 
ATOM     45  C   UNL A   1      42.318  27.990  32.352  1.00  0.00     0.074 A 
ATOM     46  C   UNL A   1      43.720  27.745  32.129  1.00  0.00     0.031 C 
ATOM     47  C   UNL A   1      43.047  33.732  29.245  1.00  0.00     0.029 A 
ATOM     48  C   UNL A   1      42.547  33.575  30.601  1.00  0.00     0.049 A 
ATOM     49  H   UNL A   1      41.908  31.785  31.476  1.00  0.00     0.167 HD
ATOM     50  C   UNL A   1      41.555  27.809  33.464  1.00  0.00     0.031 A 
ATOM     51  C   UNL A   1      42.348  34.495  31.582  1.00  0.00     0.031 A 
ATOM     52  C   UNL A   1      40.185  28.190  33.239  1.00  0.00     0.049 A 
ATOM     53  C   UNL A   1      41.429  33.877  32.571  1.00  0.00     0.074 A 
ATOM     54  C   UNL A   1      39.198  27.769  32.370  1.00  0.00     0.029 A 
ATOM     55  N   UNL A   1      39.802  29.435  33.679  1.00  0.00    -0.354 N 
ATOM     56  N   UNL A   1      40.188  33.577  32.303  1.00  0.00    -0.248 NA
ATOM     57  C   UNL A   1      42.019  33.155  33.689  1.00  0.00     0.031 C 
ATOM     58  C   UNL A   1      38.533  28.962  31.965  1.00  0.00     0.029 A 
ATOM     59  C   UNL A   1      39.088  30.033  32.670  1.00  0.00     0.049 A 
ATOM     60  H   UNL A   1      40.003  29.828  34.559  1.00  0.00     0.167 HD
ATOM     61  C   UNL A   1      39.983  32.345  32.909  1.00  0.00     0.074 A 
ATOM     62  C   UNL A   1      41.119  32.176  33.816  1.00  0.00     0.031 C 
ATOM     63  C   UNL A   1      39.066  31.460  32.422  1.00  0.00     0.031 A 
BRANCH  50  64
ATOM     64  C   UNL A   1      42.153  27.690  34.839  1.00  0.00    -0.014 A 
ATOM     65  C   UNL A   1      42.924  28.750  35.350  1.00  0.00     0.010 A 
ATOM     66  C   UNL A   1      42.203  26.465  35.540  1.00  0.00     0.010 A 
ATOM     67  C   UNL A   1      43.731  28.579  36.483  1.00  0.00     0.020 A 
ATOM     68  C   UNL A   1      42.967  26.295  36.692  1.00  0.00     0.020 A 
ATOM     69  C   UNL A   1      43.748  27.348  37.143  1.00  0.00     0.054 A 
BRANCH  69  70
ATOM     70  S   UNL A   1      44.837  27.116  38.568  1.00  0.00     0.124 S 
ATOM     71  O   UNL A   1      45.002  28.485  39.046  1.00  0.00    -0.237 OA
ATOM     72  O   UNL A   1      44.044  26.235  39.419  1.00  0.00    -0.237 OA
ATOM     73  O   UNL A   1      46.031  26.505  37.988  1.00  0.00    -0.744 OA
ENDBRANCH  69  70
ENDBRANCH  50  64
BRANCH  51  74
ATOM     74  C   UNL A   1      43.167  35.694  31.907  1.00  0.00    -0.014 A 
ATOM     75  C   UNL A   1      43.796  36.445  30.894  1.00  0.00     0.010 A 
ATOM     76  C   UNL A   1      43.077  36.277  33.187  1.00  0.00     0.010 A 
ATOM     77  C   UNL A   1      44.255  37.754  31.135  1.00  0.00     0.020 A 
ATOM     78  C   UNL A   1      43.535  37.579  33.436  1.00  0.00     0.020 A 
ATOM     79  C   UNL A   1      44.100  38.322  32.402  1.00  0.00     0.054 A 
BRANCH  79  80
ATOM     80  S   UNL A   1      44.522  40.073  32.663  1.00  0.00     0.124 S 
ATOM     81  O   UNL A   1      44.087  40.297  34.038  1.00  0.00    -0.237 OA
ATOM     82  O   UNL A   1      45.967  40.089  32.446  1.00  0.00    -0.237 OA
ATOM     83  O   UNL A   1      43.739  40.770  31.643  1.00  0.00    -0.744 OA
ENDBRANCH  79  80
ENDBRANCH  51  74
BRANCH  63  84
ATOM     84  C   UNL A   1      38.068  31.941  31.390  1.00  0.00    -0.014 A 
ATOM     85  C   UNL A   1      38.264  31.873  29.996  1.00  0.00     0.010 A 
ATOM     86  C   UNL A   1      36.806  32.337  31.868  1.00  0.00     0.010 A 
ATOM     87  C   UNL A   1      37.225  32.208  29.109  1.00  0.00     0.020 A 
ATOM     88  C   UNL A   1      35.766  32.652  30.993  1.00  0.00     0.020 A 
ATOM     89  C   UNL A   1      35.981  32.594  29.617  1.00  0.00     0.054 A 
BRANCH  89  90
ATOM     90  S   UNL A   1      34.620  32.980  28.477  1.00  0.00     0.124 S 
ATOM     91  O   UNL A   1      35.273  33.819  27.476  1.00  0.00    -0.237 OA
ATOM     92  O   UNL A   1      34.199  31.659  28.015  1.00  0.00    -0.237 OA
ATOM     93  O   UNL A   1      33.645  33.671  29.321  1.00  0.00    -0.744 OA
ENDBRANCH  89  90
ENDBRANCH  63  84
ENDBRANCH  37  38
ENDBRANCH  30  32
ENDBRANCH  29  30
ENDBRANCH  28  29
ENDBRANCH  27  28
ENDBRANCH  26  27
ENDBRANCH  25  26
ENDBRANCH   1  25
TORSDOF 23
ENDMDL
MODEL 2
REMARK VINA RESULT:      -8.8      3.256      4.525
REMARK SMILES CCC[C@H](C)NC(=O)C[NH+]1CC(n2cc(C(=O)OCCOCCOC(=O)c3ccc(-c4c5nc(c(-c6ccc(S(=O)(=O)[O-])cc6)c6ccc([nH]6)c(-c6ccc(S(=O)(=O)[O-])cc6)c6nc(c(-c7ccc(S(=O)(=O)[O-])cc7)c7ccc4[nH]7)C=C6)C=C5)cc3)nn2)C1
REMARK SMILES IDX 19 1 18 2 16 3 17 4 15 5 13 6 14 7 88 8 87 9 12 10 10 11
REMARK SMILES IDX 11 12 89 13 9 15 7 16 6 17 8 19 4 20 5 21 3 22 2 23 1 24
REMARK SMILES IDX 20 25 21 26 22 27 23 28 24 29 25 30 26 31 27 32 28 33 86 34
REMARK SMILES IDX 29 35 85 36 30 37 31 38 32 39 79 40 33 41 84 42 78 43 80 44
REMARK SMILES IDX 34 45 83 46 77 47 76 48 35 50 65 51 46 52 64 53 47 54 50 55
REMARK SMILES IDX 63 56 81 57 48 58 49 59 62 61 82 62 51 63 36 64 37 65 45 66
REMARK SMILES IDX 38 67 44 68 39 69 40 70 41 71 42 72 43 73 66 74 67 75 75 76
REMARK SMILES IDX 68 77 74 78 69 79 70 80 71 81 72 82 73 83 52 84 53 85 61 86
REMARK SMILES IDX 54 87 60 88 55 89 56 90 57 91 58 92 59 93
REMARK H PARENT 10 14 6 18 80 49 50 60
REMARK Flexibility Score: inf
ROOT
ATOM      1  C   UNL A   1      46.436  21.105  24.282  1.00  0.00     0.261 C 
ENDROOT
BRANCH   1   2
ATOM      2  O   UNL A   1      46.240  20.351  25.486  1.00  0.00    -0.458 OA
BRANCH   2   3
ATOM      3  C   UNL A   1      45.696  19.109  25.298  1.00  0.00     0.360 C 
ATOM      4  O   UNL A   1      46.330  18.111  25.002  1.00  0.00    -0.244 OA
BRANCH   3   5
ATOM      5  C   UNL A   1      44.270  19.082  25.583  1.00  0.00     0.190 A 
ATOM      6  N   UNL A   1      42.198  19.506  26.005  1.00  0.00    -0.237 N 
ATOM      7  C   UNL A   1      43.422  20.108  25.955  1.00  0.00     0.147 A 
ATOM      8  N   UNL A   1      42.288  18.184  25.799  1.00  0.00    -0.066 NA
ATOM      9  N   UNL A   1      43.553  17.911  25.528  1.00  0.00    -0.123 NA
BRANCH   6  10
ATOM     10  C   UNL A   1      40.966  20.189  26.194  1.00  0.00     0.218 C 
ATOM     11  N   UNL A   1      40.144  21.899  27.022  1.00  0.00    -0.323 N 
ATOM     12  C   UNL A   1      40.970  21.689  25.810  1.00  0.00     0.296 C 
ATOM     13  C   UNL A   1      40.817  20.727  27.640  1.00  0.00     0.296 C 
ATOM     14  H   UNL A   1      39.128  21.966  26.961  1.00  0.00     0.348 HD
BRANCH  11  15
ATOM     15  C   UNL A   1      40.480  23.145  27.720  1.00  0.00     0.363 C 
BRANCH  15  16
ATOM     16  C   UNL A   1      39.445  24.196  27.320  1.00  0.00     0.275 C 
ATOM     17  N   UNL A   1      39.648  25.498  27.692  1.00  0.00    -0.349 N 
ATOM     18  H   UNL A   1      38.991  26.147  27.351  1.00  0.00     0.163 HD
ATOM     19  O   UNL A   1      38.438  23.902  26.673  1.00  0.00    -0.268 OA
BRANCH  17  20
ATOM     20  C   UNL A   1      40.710  26.053  28.526  1.00  0.00     0.079 C 
ATOM     21  C   UNL A   1      42.045  26.007  27.789  1.00  0.00     0.031 C 
BRANCH  20  22
ATOM     22  C   UNL A   1      40.352  27.449  29.062  1.00  0.00     0.024 C 
BRANCH  22  23
ATOM     23  C   UNL A   1      40.965  28.655  28.343  1.00  0.00    -0.001 C 
ATOM     24  C   UNL A   1      40.260  29.031  27.047  1.00  0.00     0.004 C 
ENDBRANCH  22  23
ENDBRANCH  20  22
ENDBRANCH  17  20
ENDBRANCH  15  16
ENDBRANCH  11  15
ENDBRANCH   6  10
ENDBRANCH   3   5
ENDBRANCH   2   3
ENDBRANCH   1   2
BRANCH   1  25
ATOM     25  C   UNL A   1      46.037  22.573  24.447  1.00  0.00     0.202 C 
BRANCH  25  26
ATOM     26  O   UNL A   1      46.420  23.220  25.660  1.00  0.00    -0.374 OA
BRANCH  26  27
ATOM     27  C   UNL A   1      45.600  24.253  26.196  1.00  0.00     0.202 C 
BRANCH  27  28
ATOM     28  C   UNL A   1      45.071  25.322  25.249  1.00  0.00     0.261 C 
BRANCH  28  29
ATOM     29  O   UNL A   1      46.101  26.139  24.708  1.00  0.00    -0.460 OA
BRANCH  29  30
ATOM     30  C   UNL A   1      46.800  26.821  25.645  1.00  0.00     0.338 C 
ATOM     31  O   UNL A   1      47.823  26.462  26.200  1.00  0.00    -0.246 OA
BRANCH  30  32
ATOM     32  C   UNL A   1      46.050  28.028  26.010  1.00  0.00     0.060 A 
ATOM     33  C   UNL A   1      46.660  29.254  25.739  1.00  0.00     0.016 A 
ATOM     34  C   UNL A   1      44.904  27.934  26.814  1.00  0.00     0.016 A 
ATOM     35  C   UNL A   1      46.226  30.366  26.426  1.00  0.00     0.010 A 
ATOM     36  C   UNL A   1      44.474  29.045  27.504  1.00  0.00     0.010 A 
ATOM     37  C   UNL A   1      45.191  30.229  27.362  1.00  0.00    -0.014 A 
BRANCH  37  38
ATOM     38  C   UNL A   1      44.784  31.407  28.100  1.00  0.00     0.031 A 
ATOM     39  C   UNL A   1      45.171  31.335  29.525  1.00  0.00     0.074 A 
ATOM     40  C   UNL A   1      44.194  32.478  27.536  1.00  0.00     0.049 A 
ATOM     41  N   UNL A   1      44.390  31.146  30.534  1.00  0.00    -0.248 NA
ATOM     42  C   UNL A   1      46.606  31.263  29.848  1.00  0.00     0.031 C 
ATOM     43  C   UNL A   1      43.995  32.775  26.115  1.00  0.00     0.029 A 
ATOM     44  N   UNL A   1      43.719  33.595  28.145  1.00  0.00    -0.354 N 
ATOM     45  C   UNL A   1      45.215  31.160  31.649  1.00  0.00     0.074 A 
ATOM     46  C   UNL A   1      46.565  31.034  31.161  1.00  0.00     0.031 C 
ATOM     47  C   UNL A   1      43.661  34.081  25.974  1.00  0.00     0.029 A 
ATOM     48  C   UNL A   1      43.476  34.667  27.291  1.00  0.00     0.049 A 
ATOM     49  H   UNL A   1      43.558  33.643  29.115  1.00  0.00     0.167 HD
ATOM     50  C   UNL A   1      44.748  31.548  32.867  1.00  0.00     0.031 A 
ATOM     51  C   UNL A   1      43.192  35.944  27.659  1.00  0.00     0.031 A 
ATOM     52  C   UNL A   1      43.309  31.528  32.918  1.00  0.00     0.049 A 
ATOM     53  C   UNL A   1      42.686  35.888  29.054  1.00  0.00     0.074 A 
ATOM     54  C   UNL A   1      42.353  30.545  32.751  1.00  0.00     0.029 A 
ATOM     55  N   UNL A   1      42.660  32.727  32.743  1.00  0.00    -0.354 N 
ATOM     56  N   UNL A   1      41.561  35.315  29.383  1.00  0.00    -0.248 NA
ATOM     57  C   UNL A   1      43.649  36.039  30.134  1.00  0.00     0.031 C 
ATOM     58  C   UNL A   1      41.306  31.175  32.018  1.00  0.00     0.029 A 
ATOM     59  C   UNL A   1      41.636  32.522  31.853  1.00  0.00     0.049 A 
ATOM     60  H   UNL A   1      42.889  33.580  33.179  1.00  0.00     0.167 HD
ATOM     61  C   UNL A   1      41.838  34.646  30.567  1.00  0.00     0.074 A 
ATOM     62  C   UNL A   1      43.115  35.196  31.023  1.00  0.00     0.031 C 
ATOM     63  C   UNL A   1      41.151  33.521  30.923  1.00  0.00     0.031 A 
BRANCH  50  64
ATOM     64  C   UNL A   1      45.587  32.332  33.837  1.00  0.00    -0.014 A 
ATOM     65  C   UNL A   1      45.399  32.146  35.219  1.00  0.00     0.010 A 
ATOM     66  C   UNL A   1      46.370  33.439  33.440  1.00  0.00     0.010 A 
ATOM     67  C   UNL A   1      45.938  33.044  36.150  1.00  0.00     0.020 A 
ATOM     68  C   UNL A   1      46.947  34.313  34.358  1.00  0.00     0.020 A 
ATOM     69  C   UNL A   1      46.706  34.125  35.710  1.00  0.00     0.054 A 
BRANCH  69  70
ATOM     70  S   UNL A   1      47.347  35.312  36.913  1.00  0.00     0.124 S 
ATOM     71  O   UNL A   1      48.782  35.049  36.860  1.00  0.00    -0.237 OA
ATOM     72  O   UNL A   1      46.912  36.586  36.347  1.00  0.00    -0.237 OA
ATOM     73  O   UNL A   1      46.683  34.929  38.157  1.00  0.00    -0.744 OA
ENDBRANCH  69  70
ENDBRANCH  50  64
BRANCH  51  74
ATOM     74  C   UNL A   1      43.666  37.213  27.042  1.00  0.00    -0.014 A 
ATOM     75  C   UNL A   1      42.811  38.326  26.914  1.00  0.00     0.010 A 
ATOM     76  C   UNL A   1      45.047  37.430  26.860  1.00  0.00     0.010 A 
ATOM     77  C   UNL A   1      43.324  39.616  26.680  1.00  0.00     0.020 A 
ATOM     78  C   UNL A   1      45.565  38.711  26.623  1.00  0.00     0.020 A 
ATOM     79  C   UNL A   1      44.703  39.804  26.559  1.00  0.00     0.054 A 
BRANCH  79  80
ATOM     80  S   UNL A   1      45.376  41.490  26.443  1.00  0.00     0.124 S 
ATOM     81  O   UNL A   1      46.003  41.486  25.124  1.00  0.00    -0.237 OA
ATOM     82  O   UNL A   1      44.182  42.321  26.573  1.00  0.00    -0.237 OA
ATOM     83  O   UNL A   1      46.306  41.567  27.570  1.00  0.00    -0.744 OA
ENDBRANCH  79  80
ENDBRANCH  51  74
BRANCH  63  84
ATOM     84  C   UNL A   1      39.890  33.169  30.163  1.00  0.00    -0.014 A 
ATOM     85  C   UNL A   1      39.588  31.884  29.669  1.00  0.00     0.010 A 
ATOM     86  C   UNL A   1      38.898  34.163  30.090  1.00  0.00     0.010 A 
ATOM     87  C   UNL A   1      38.329  31.612  29.103  1.00  0.00     0.020 A 
ATOM     88  C   UNL A   1      37.641  33.894  29.548  1.00  0.00     0.020 A 
ATOM     89  C   UNL A   1      37.363  32.622  29.049  1.00  0.00     0.054 A 
BRANCH  89  90
ATOM     90  S   UNL A   1      35.719  32.264  28.365  1.00  0.00     0.124 S 
ATOM     91  O   UNL A   1      35.956  31.049  27.590  1.00  0.00    -0.237 OA
ATOM     92  O   UNL A   1      34.898  32.096  29.563  1.00  0.00    -0.237 OA
ATOM     93  O   UNL A   1      35.405  33.452  27.573  1.00  0.00    -0.744 OA
ENDBRANCH  89  90
ENDBRANCH  63  84
ENDBRANCH  37  38
ENDBRANCH  30  32
ENDBRANCH  29  30
ENDBRANCH  28  29
ENDBRANCH  27  28
ENDBRANCH  26  27
ENDBRANCH  25  26
ENDBRANCH   1  25
TORSDOF 23
ENDMDL
MODEL 3
REMARK VINA RESULT:      -8.6      8.428     13.860
REMARK SMILES CCC[C@H](C)NC(=O)C[NH+]1CC(n2cc(C(=O)OCCOCCOC(=O)c3ccc(-c4c5nc(c(-c6ccc(S(=O)(=O)[O-])cc6)c6ccc([nH]6)c(-c6ccc(S(=O)(=O)[O-])cc6)c6nc(c(-c7ccc(S(=O)(=O)[O-])cc7)c7ccc4[nH]7)C=C6)C=C5)cc3)nn2)C1
REMARK SMILES IDX 19 1 18 2 16 3 17 4 15 5 13 6 14 7 88 8 87 9 12 10 10 11
REMARK SMILES IDX 11 12 89 13 9 15 7 16 6 17 8 19 4 20 5 21 3 22 2 23 1 24
REMARK SMILES IDX 20 25 21 26 22 27 23 28 24 29 25 30 26 31 27 32 28 33 86 34
REMARK SMILES IDX 29 35 85 36 30 37 31 38 32 39 79 40 33 41 84 42 78 43 80 44
REMARK SMILES IDX 34 45 83 46 77 47 76 48 35 50 65 51 46 52 64 53 47 54 50 55
REMARK SMILES IDX 63 56 81 57 48 58 49 59 62 61 82 62 51 63 36 64 37 65 45 66
REMARK SMILES IDX 38 67 44 68 39 69 40 70 41 71 42 72 43 73 66 74 67 75 75 76
REMARK SMILES IDX 68 77 74 78 69 79 70 80 71 81 72 82 73 83 52 84 53 85 61 86
REMARK SMILES IDX 54 87 60 88 55 89 56 90 57 91 58 92 59 93
REMARK H PARENT 10 14 6 18 80 49 50 60
REMARK Flexibility Score: inf
ROOT
ATOM      1  C   UNL A   1      47.165  20.571  36.879  1.00  0.00     0.261 C 
ENDROOT
BRANCH   1   2
ATOM      2  O   UNL A   1      47.137  19.309  37.561  1.00  0.00    -0.458 OA
BRANCH   2   3
ATOM      3  C   UNL A   1      47.933  19.245  38.673  1.00  0.00     0.360 C 
ATOM      4  O   UNL A   1      49.151  19.270  38.657  1.00  0.00    -0.244 OA
BRANCH   3   5
ATOM      5  C   UNL A   1      47.160  19.241  39.905  1.00  0.00     0.190 A 
ATOM      6  N   UNL A   1      45.709  18.986  41.481  1.00  0.00    -0.237 N 
ATOM      7  C   UNL A   1      45.859  18.835  40.133  1.00  0.00     0.147 A 
ATOM      8  N   UNL A   1      46.790  19.553  42.037  1.00  0.00    -0.066 NA
ATOM      9  N   UNL A   1      47.693  19.706  41.084  1.00  0.00    -0.123 NA
BRANCH   6  10
ATOM     10  C   UNL A   1      44.581  18.549  42.226  1.00  0.00     0.218 C 
ATOM     11  N   UNL A   1      43.822  16.925  43.261  1.00  0.00    -0.323 N 
ATOM     12  C   UNL A   1      44.898  17.888  43.590  1.00  0.00     0.296 C 
ATOM     13  C   UNL A   1      44.136  17.120  41.821  1.00  0.00     0.296 C 
ATOM     14  H   UNL A   1      42.877  17.045  43.626  1.00  0.00     0.348 HD
BRANCH  11  15
ATOM     15  C   UNL A   1      44.137  15.561  43.701  1.00  0.00     0.363 C 
BRANCH  15  16
ATOM     16  C   UNL A   1      42.822  14.878  44.074  1.00  0.00     0.275 C 
ATOM     17  N   UNL A   1      42.846  13.845  44.973  1.00  0.00    -0.349 N 
ATOM     18  H   UNL A   1      41.967  13.485  45.233  1.00  0.00     0.163 HD
ATOM     19  O   UNL A   1      41.746  15.233  43.590  1.00  0.00    -0.268 OA
BRANCH  17  20
ATOM     20  C   UNL A   1      44.000  13.206  45.597  1.00  0.00     0.079 C 
ATOM     21  C   UNL A   1      43.733  12.953  47.078  1.00  0.00     0.031 C 
BRANCH  20  22
ATOM     22  C   UNL A   1      44.450  11.951  44.831  1.00  0.00     0.024 C 
BRANCH  22  23
ATOM     23  C   UNL A   1      43.960  10.597  45.353  1.00  0.00    -0.001 C 
ATOM     24  C   UNL A   1      44.861   9.974  46.409  1.00  0.00     0.004 C 
ENDBRANCH  22  23
ENDBRANCH  20  22
ENDBRANCH  17  20
ENDBRANCH  15  16
ENDBRANCH  11  15
ENDBRANCH   6  10
ENDBRANCH   3   5
ENDBRANCH   2   3
ENDBRANCH   1   2
BRANCH   1  25
ATOM     25  C   UNL A   1      47.767  20.458  35.477  1.00  0.00     0.202 C 
BRANCH  25  26
ATOM     26  O   UNL A   1      48.849  21.331  35.160  1.00  0.00    -0.374 OA
BRANCH  26  27
ATOM     27  C   UNL A   1      49.889  20.880  34.299  1.00  0.00     0.202 C 
BRANCH  27  28
ATOM     28  C   UNL A   1      51.086  21.792  34.067  1.00  0.00     0.261 C 
BRANCH  28  29
ATOM     29  O   UNL A   1      50.835  22.791  33.087  1.00  0.00    -0.460 OA
BRANCH  29  30
ATOM     30  C   UNL A   1      50.957  24.055  33.559  1.00  0.00     0.338 C 
ATOM     31  O   UNL A   1      51.354  24.390  34.660  1.00  0.00    -0.246 OA
BRANCH  30  32
ATOM     32  C   UNL A   1      50.391  24.983  32.574  1.00  0.00     0.060 A 
ATOM     33  C   UNL A   1      49.000  25.108  32.553  1.00  0.00     0.016 A 
ATOM     34  C   UNL A   1      51.196  25.513  31.554  1.00  0.00     0.016 A 
ATOM     35  C   UNL A   1      48.406  25.602  31.413  1.00  0.00     0.010 A 
ATOM     36  C   UNL A   1      50.600  26.002  30.414  1.00  0.00     0.010 A 
ATOM     37  C   UNL A   1      49.212  25.967  30.326  1.00  0.00    -0.014 A 
BRANCH  37  38
ATOM     38  C   UNL A   1      48.557  26.444  29.126  1.00  0.00     0.031 A 
ATOM     39  C   UNL A   1      47.451  27.378  29.425  1.00  0.00     0.074 A 
ATOM     40  C   UNL A   1      48.962  26.135  27.878  1.00  0.00     0.049 A 
ATOM     41  N   UNL A   1      46.186  27.145  29.323  1.00  0.00    -0.248 NA
ATOM     42  C   UNL A   1      47.780  28.641  30.106  1.00  0.00     0.031 C 
ATOM     43  C   UNL A   1      50.180  25.441  27.453  1.00  0.00     0.029 A 
ATOM     44  N   UNL A   1      48.382  26.474  26.698  1.00  0.00    -0.354 N 
ATOM     45  C   UNL A   1      45.559  28.319  29.712  1.00  0.00     0.074 A 
ATOM     46  C   UNL A   1      46.563  29.121  30.364  1.00  0.00     0.031 C 
ATOM     47  C   UNL A   1      50.355  25.622  26.121  1.00  0.00     0.029 A 
ATOM     48  C   UNL A   1      49.194  26.310  25.581  1.00  0.00     0.049 A 
ATOM     49  H   UNL A   1      47.458  26.810  26.637  1.00  0.00     0.167 HD
ATOM     50  C   UNL A   1      44.334  28.657  29.227  1.00  0.00     0.031 A 
ATOM     51  C   UNL A   1      48.936  26.753  24.322  1.00  0.00     0.031 A 
ATOM     52  C   UNL A   1      43.658  27.526  28.648  1.00  0.00     0.049 A 
ATOM     53  C   UNL A   1      47.469  26.968  24.233  1.00  0.00     0.074 A 
ATOM     54  C   UNL A   1      43.240  26.302  29.132  1.00  0.00     0.029 A 
ATOM     55  N   UNL A   1      43.710  27.399  27.280  1.00  0.00    -0.354 N 
ATOM     56  N   UNL A   1      46.600  25.997  24.301  1.00  0.00    -0.248 NA
ATOM     57  C   UNL A   1      46.955  28.290  24.554  1.00  0.00     0.031 C 
ATOM     58  C   UNL A   1      43.528  25.378  28.086  1.00  0.00     0.029 A 
ATOM     59  C   UNL A   1      44.022  26.094  26.993  1.00  0.00     0.049 A 
ATOM     60  H   UNL A   1      43.552  28.116  26.624  1.00  0.00     0.167 HD
ATOM     61  C   UNL A   1      45.570  26.499  25.084  1.00  0.00     0.074 A 
ATOM     62  C   UNL A   1      45.806  27.941  25.141  1.00  0.00     0.031 C 
ATOM     63  C   UNL A   1      44.785  25.673  25.836  1.00  0.00     0.031 A 
BRANCH  50  64
ATOM     64  C   UNL A   1      43.957  30.080  28.915  1.00  0.00    -0.014 A 
ATOM     65  C   UNL A   1      44.675  30.782  27.930  1.00  0.00     0.010 A 
ATOM     66  C   UNL A   1      43.096  30.834  29.742  1.00  0.00     0.010 A 
ATOM     67  C   UNL A   1      44.561  32.174  27.805  1.00  0.00     0.020 A 
ATOM     68  C   UNL A   1      42.941  32.211  29.598  1.00  0.00     0.020 A 
ATOM     69  C   UNL A   1      43.695  32.878  28.645  1.00  0.00     0.054 A 
BRANCH  69  70
ATOM     70  S   UNL A   1      43.599  34.678  28.519  1.00  0.00     0.124 S 
ATOM     71  O   UNL A   1      43.047  34.857  27.179  1.00  0.00    -0.237 OA
ATOM     72  O   UNL A   1      42.707  35.016  29.624  1.00  0.00    -0.237 OA
ATOM     73  O   UNL A   1      44.985  35.107  28.690  1.00  0.00    -0.744 OA
ENDBRANCH  69  70
ENDBRANCH  50  64
BRANCH  51  74
ATOM     74  C   UNL A   1      49.881  27.346  23.337  1.00  0.00    -0.014 A 
ATOM     75  C   UNL A   1      49.599  27.334  21.956  1.00  0.00     0.010 A 
ATOM     76  C   UNL A   1      50.914  28.196  23.781  1.00  0.00     0.010 A 
ATOM     77  C   UNL A   1      50.277  28.188  21.066  1.00  0.00     0.020 A 
ATOM     78  C   UNL A   1      51.597  29.046  22.900  1.00  0.00     0.020 A 
ATOM     79  C   UNL A   1      51.258  29.057  21.549  1.00  0.00     0.054 A 
BRANCH  79  80
ATOM     80  S   UNL A   1      52.000  30.288  20.433  1.00  0.00     0.124 S 
ATOM     81  O   UNL A   1      52.320  29.488  19.254  1.00  0.00    -0.237 OA
ATOM     82  O   UNL A   1      50.921  31.258  20.264  1.00  0.00    -0.237 OA
ATOM     83  O   UNL A   1      53.157  30.777  21.182  1.00  0.00    -0.744 OA
ENDBRANCH  79  80
ENDBRANCH  51  74
BRANCH  63  84
ATOM     84  C   UNL A   1      44.856  24.181  25.591  1.00  0.00    -0.014 A 
ATOM     85  C   UNL A   1      45.578  23.273  26.392  1.00  0.00     0.010 A 
ATOM     86  C   UNL A   1      44.017  23.665  24.587  1.00  0.00     0.010 A 
ATOM     87  C   UNL A   1      45.470  21.887  26.178  1.00  0.00     0.020 A 
ATOM     88  C   UNL A   1      43.891  22.290  24.383  1.00  0.00     0.020 A 
ATOM     89  C   UNL A   1      44.624  21.406  25.174  1.00  0.00     0.054 A 
BRANCH  89  90
ATOM     90  S   UNL A   1      44.442  19.616  24.925  1.00  0.00     0.124 S 
ATOM     91  O   UNL A   1      44.217  19.517  23.485  1.00  0.00    -0.237 OA
ATOM     92  O   UNL A   1      45.721  19.091  25.400  1.00  0.00    -0.237 OA
ATOM     93  O   UNL A   1      43.292  19.264  25.756  1.00  0.00    -0.744 OA
ENDBRANCH  89  90
ENDBRANCH  63  84
ENDBRANCH  37  38
ENDBRANCH  30  32
ENDBRANCH  29  30
ENDBRANCH  28  29
ENDBRANCH  27  28
ENDBRANCH  26  27
ENDBRANCH  25  26
ENDBRANCH   1  25
TORSDOF 23
ENDMDL
