MODEL 1
REMARK VINA RESULT:      -9.1      0.000      0.000
REMARK SMILES C#CCN(CC(=O)OCCOCCOC(=O)c1ccc(-c2c3nc(c(-c4ccc(S(=O)(=O)[O-])cc4)c4ccc([nH]4)c(-c4ccc(S(=O)(=O)[O-])cc4)c4nc(c(-c5ccc(S(=O)(=O)[O-])cc5)c5ccc2[nH]5)C=C4)C=C3)cc1)C(=O)CCOc1ccc(C)cc1
REMARK SMILES IDX 9 1 8 2 6 3 7 4 5 5 4 6 3 7 2 8 1 9 77 10 78 11 79 12 80 13
REMARK SMILES IDX 81 14 82 15 83 16 88 17 84 18 87 19 85 20 86 21 10 22 11 23
REMARK SMILES IDX 12 24 13 25 14 26 15 27 16 28 17 29 18 30 76 31 19 32 75 33
REMARK SMILES IDX 20 34 21 35 22 36 69 37 23 38 74 39 68 40 70 41 24 42 73 43
REMARK SMILES IDX 67 44 66 45 25 47 55 48 36 49 54 50 37 51 40 52 53 53 71 54
REMARK SMILES IDX 38 55 39 56 52 58 72 59 41 60 26 61 27 62 35 63 28 64 34 65
REMARK SMILES IDX 29 66 30 67 31 68 32 69 33 70 56 71 57 72 65 73 58 74 64 75
REMARK SMILES IDX 59 76 60 77 61 78 62 79 63 80 42 81 43 82 51 83 44 84 50 85
REMARK SMILES IDX 45 86 46 87 47 88 48 89 49 90
REMARK H PARENT 70 46 40 57
REMARK Flexibility Score: inf
ROOT
ATOM      1  C   UNL A   1      39.658  21.128  26.052  1.00  0.00     0.261 C 
ENDROOT
BRANCH   1   2
ATOM      2  O   UNL A   1      38.447  21.761  25.557  1.00  0.00    -0.462 OA
BRANCH   2   3
ATOM      3  C   UNL A   1      37.543  20.898  25.019  1.00  0.00     0.325 C 
ATOM      4  O   UNL A   1      37.784  19.711  24.798  1.00  0.00    -0.250 OA
BRANCH   3   5
ATOM      5  C   UNL A   1      36.140  21.454  24.705  1.00  0.00     0.243 C 
BRANCH   5   6
ATOM      6  N   UNL A   1      34.860  21.085  25.341  1.00  0.00    -0.320 N 
BRANCH   6   7
ATOM      7  C   UNL A   1      34.441  21.820  26.572  1.00  0.00     0.210 C 
BRANCH   7   8
ATOM      8  C   UNL A   1      34.190  23.294  26.298  1.00  0.00    -0.085 C 
ATOM      9  C   UNL A   1      33.974  24.558  26.063  1.00  0.00     0.006 C 
ENDBRANCH   7   8
ENDBRANCH   6   7
BRANCH   6  10
ATOM     10  C   UNL A   1      33.974  20.165  24.787  1.00  0.00     0.227 C 
ATOM     11  O   UNL A   1      34.318  19.013  24.506  1.00  0.00    -0.275 OA
BRANCH  10  12
ATOM     12  C   UNL A   1      32.509  20.552  24.581  1.00  0.00     0.141 C 
BRANCH  12  13
ATOM     13  C   UNL A   1      32.156  21.001  23.153  1.00  0.00     0.239 C 
BRANCH  13  14
ATOM     14  O   UNL A   1      32.920  22.119  22.653  1.00  0.00    -0.493 OA
BRANCH  14  15
ATOM     15  C   UNL A   1      32.468  23.392  22.867  1.00  0.00     0.119 A 
ATOM     16  C   UNL A   1      31.218  23.551  23.467  1.00  0.00     0.046 A 
ATOM     17  C   UNL A   1      33.125  24.533  22.453  1.00  0.00     0.046 A 
ATOM     18  C   UNL A   1      30.575  24.804  23.476  1.00  0.00     0.007 A 
ATOM     19  C   UNL A   1      32.472  25.768  22.413  1.00  0.00     0.007 A 
ATOM     20  C   UNL A   1      31.164  25.901  22.850  1.00  0.00    -0.051 A 
ATOM     21  C   UNL A   1      30.469  27.214  22.645  1.00  0.00     0.044 C 
ENDBRANCH  14  15
ENDBRANCH  13  14
ENDBRANCH  12  13
ENDBRANCH  10  12
ENDBRANCH   6  10
ENDBRANCH   5   6
ENDBRANCH   3   5
ENDBRANCH   2   3
ENDBRANCH   1   2
BRANCH   1  22
ATOM     22  C   UNL A   1      40.813  22.092  26.368  1.00  0.00     0.202 C 
BRANCH  22  23
ATOM     23  O   UNL A   1      41.936  22.107  25.491  1.00  0.00    -0.374 OA
BRANCH  23  24
ATOM     24  C   UNL A   1      43.017  22.968  25.833  1.00  0.00     0.202 C 
BRANCH  24  25
ATOM     25  C   UNL A   1      43.093  24.347  25.164  1.00  0.00     0.261 C 
BRANCH  25  26
ATOM     26  O   UNL A   1      41.986  25.201  25.495  1.00  0.00    -0.460 OA
BRANCH  26  27
ATOM     27  C   UNL A   1      42.290  26.520  25.511  1.00  0.00     0.338 C 
ATOM     28  O   UNL A   1      42.382  27.272  24.545  1.00  0.00    -0.246 OA
BRANCH  27  29
ATOM     29  C   UNL A   1      42.286  27.031  26.888  1.00  0.00     0.060 A 
ATOM     30  C   UNL A   1      41.335  26.488  27.762  1.00  0.00     0.016 A 
ATOM     31  C   UNL A   1      43.104  28.090  27.288  1.00  0.00     0.016 A 
ATOM     32  C   UNL A   1      41.159  27.040  29.021  1.00  0.00     0.010 A 
ATOM     33  C   UNL A   1      42.916  28.654  28.554  1.00  0.00     0.010 A 
ATOM     34  C   UNL A   1      41.912  28.158  29.404  1.00  0.00    -0.014 A 
BRANCH  34  35
ATOM     35  C   UNL A   1      41.499  28.865  30.638  1.00  0.00     0.031 A 
ATOM     36  C   UNL A   1      42.336  28.715  31.878  1.00  0.00     0.074 A 
ATOM     37  C   UNL A   1      40.475  29.735  30.594  1.00  0.00     0.049 A 
ATOM     38  N   UNL A   1      42.251  29.357  33.014  1.00  0.00    -0.248 NA
ATOM     39  C   UNL A   1      43.418  27.716  31.833  1.00  0.00     0.031 C 
ATOM     40  C   UNL A   1      39.629  29.980  29.423  1.00  0.00     0.029 A 
ATOM     41  N   UNL A   1      39.989  30.593  31.545  1.00  0.00    -0.354 N 
ATOM     42  C   UNL A   1      43.259  28.838  33.819  1.00  0.00     0.074 A 
ATOM     43  C   UNL A   1      43.929  27.811  33.053  1.00  0.00     0.031 C 
ATOM     44  C   UNL A   1      38.740  30.942  29.721  1.00  0.00     0.029 A 
ATOM     45  C   UNL A   1      38.934  31.357  31.108  1.00  0.00     0.049 A 
ATOM     46  H   UNL A   1      40.360  30.656  32.454  1.00  0.00     0.167 HD
ATOM     47  C   UNL A   1      43.594  29.191  35.082  1.00  0.00     0.031 A 
ATOM     48  C   UNL A   1      38.204  32.284  31.758  1.00  0.00     0.031 A 
ATOM     49  C   UNL A   1      42.912  30.215  35.831  1.00  0.00     0.049 A 
ATOM     50  C   UNL A   1      38.577  32.631  33.175  1.00  0.00     0.074 A 
ATOM     51  C   UNL A   1      43.186  30.674  37.107  1.00  0.00     0.029 A 
ATOM     52  N   UNL A   1      41.815  30.930  35.374  1.00  0.00    -0.354 N 
ATOM     53  N   UNL A   1      39.562  32.164  33.905  1.00  0.00    -0.248 NA
ATOM     54  C   UNL A   1      37.752  33.642  33.848  1.00  0.00     0.031 C 
ATOM     55  C   UNL A   1      42.210  31.616  37.449  1.00  0.00     0.029 A 
ATOM     56  C   UNL A   1      41.373  31.797  36.359  1.00  0.00     0.049 A 
ATOM     57  H   UNL A   1      41.409  30.834  34.483  1.00  0.00     0.167 HD
ATOM     58  C   UNL A   1      39.485  32.836  35.120  1.00  0.00     0.074 A 
ATOM     59  C   UNL A   1      38.378  33.765  35.009  1.00  0.00     0.031 C 
ATOM     60  C   UNL A   1      40.255  32.698  36.230  1.00  0.00     0.031 A 
BRANCH  47  61
ATOM     61  C   UNL A   1      44.711  28.435  35.756  1.00  0.00    -0.014 A 
ATOM     62  C   UNL A   1      46.044  28.879  35.700  1.00  0.00     0.010 A 
ATOM     63  C   UNL A   1      44.405  27.288  36.512  1.00  0.00     0.010 A 
ATOM     64  C   UNL A   1      47.053  28.177  36.370  1.00  0.00     0.020 A 
ATOM     65  C   UNL A   1      45.405  26.599  37.204  1.00  0.00     0.020 A 
ATOM     66  C   UNL A   1      46.726  27.043  37.120  1.00  0.00     0.054 A 
BRANCH  66  67
ATOM     67  S   UNL A   1      48.045  26.182  38.021  1.00  0.00     0.124 S 
ATOM     68  O   UNL A   1      47.411  24.905  38.337  1.00  0.00    -0.237 OA
ATOM     69  O   UNL A   1      49.119  26.123  37.034  1.00  0.00    -0.237 OA
ATOM     70  O   UNL A   1      48.305  27.047  39.168  1.00  0.00    -0.744 OA
ENDBRANCH  66  67
ENDBRANCH  47  61
BRANCH  48  71
ATOM     71  C   UNL A   1      37.034  32.918  31.087  1.00  0.00    -0.014 A 
ATOM     72  C   UNL A   1      35.716  32.614  31.467  1.00  0.00     0.010 A 
ATOM     73  C   UNL A   1      37.246  33.839  30.044  1.00  0.00     0.010 A 
ATOM     74  C   UNL A   1      34.633  33.198  30.800  1.00  0.00     0.020 A 
ATOM     75  C   UNL A   1      36.169  34.451  29.398  1.00  0.00     0.020 A 
ATOM     76  C   UNL A   1      34.868  34.113  29.769  1.00  0.00     0.054 A 
BRANCH  76  77
ATOM     77  S   UNL A   1      33.453  34.886  28.939  1.00  0.00     0.124 S 
ATOM     78  O   UNL A   1      32.705  33.725  28.468  1.00  0.00    -0.237 OA
ATOM     79  O   UNL A   1      32.828  35.645  30.021  1.00  0.00    -0.237 OA
ATOM     80  O   UNL A   1      34.071  35.700  27.895  1.00  0.00    -0.744 OA
ENDBRANCH  76  77
ENDBRANCH  48  71
BRANCH  60  81
ATOM     81  C   UNL A   1      39.929  33.588  37.400  1.00  0.00    -0.014 A 
ATOM     82  C   UNL A   1      39.002  33.193  38.381  1.00  0.00     0.010 A 
ATOM     83  C   UNL A   1      40.575  34.831  37.528  1.00  0.00     0.010 A 
ATOM     84  C   UNL A   1      38.681  34.050  39.435  1.00  0.00     0.020 A 
ATOM     85  C   UNL A   1      40.284  35.676  38.601  1.00  0.00     0.020 A 
ATOM     86  C   UNL A   1      39.321  35.290  39.535  1.00  0.00     0.054 A 
BRANCH  86  87
ATOM     87  S   UNL A   1      38.889  36.386  40.913  1.00  0.00     0.124 S 
ATOM     88  O   UNL A   1      38.417  37.578  40.215  1.00  0.00    -0.237 OA
ATOM     89  O   UNL A   1      37.863  35.623  41.620  1.00  0.00    -0.237 OA
ATOM     90  O   UNL A   1      40.149  36.545  41.637  1.00  0.00    -0.744 OA
ENDBRANCH  86  87
ENDBRANCH  60  81
ENDBRANCH  34  35
ENDBRANCH  27  29
ENDBRANCH  26  27
ENDBRANCH  25  26
ENDBRANCH  24  25
ENDBRANCH  23  24
ENDBRANCH  22  23
ENDBRANCH   1  22
TORSDOF 25
ENDMDL
MODEL 2
REMARK VINA RESULT:      -8.5      4.905     11.297
REMARK SMILES C#CCN(CC(=O)OCCOCCOC(=O)c1ccc(-c2c3nc(c(-c4ccc(S(=O)(=O)[O-])cc4)c4ccc([nH]4)c(-c4ccc(S(=O)(=O)[O-])cc4)c4nc(c(-c5ccc(S(=O)(=O)[O-])cc5)c5ccc2[nH]5)C=C4)C=C3)cc1)C(=O)CCOc1ccc(C)cc1
REMARK SMILES IDX 9 1 8 2 6 3 7 4 5 5 4 6 3 7 2 8 1 9 77 10 78 11 79 12 80 13
REMARK SMILES IDX 81 14 82 15 83 16 88 17 84 18 87 19 85 20 86 21 10 22 11 23
REMARK SMILES IDX 12 24 13 25 14 26 15 27 16 28 17 29 18 30 76 31 19 32 75 33
REMARK SMILES IDX 20 34 21 35 22 36 69 37 23 38 74 39 68 40 70 41 24 42 73 43
REMARK SMILES IDX 67 44 66 45 25 47 55 48 36 49 54 50 37 51 40 52 53 53 71 54
REMARK SMILES IDX 38 55 39 56 52 58 72 59 41 60 26 61 27 62 35 63 28 64 34 65
REMARK SMILES IDX 29 66 30 67 31 68 32 69 33 70 56 71 57 72 65 73 58 74 64 75
REMARK SMILES IDX 59 76 60 77 61 78 62 79 63 80 42 81 43 82 51 83 44 84 50 85
REMARK SMILES IDX 45 86 46 87 47 88 48 89 49 90
REMARK H PARENT 70 46 40 57
REMARK Flexibility Score: inf
ROOT
ATOM      1  C   UNL A   1      45.454  22.082  25.953  1.00  0.00     0.261 C 
ENDROOT
BRANCH   1   2
ATOM      2  O   UNL A   1      45.215  22.951  27.093  1.00  0.00    -0.462 OA
BRANCH   2   3
ATOM      3  C   UNL A   1      45.937  24.103  27.080  1.00  0.00     0.325 C 
ATOM      4  O   UNL A   1      46.367  24.648  28.098  1.00  0.00    -0.250 OA
BRANCH   3   5
ATOM      5  C   UNL A   1      46.245  24.725  25.704  1.00  0.00     0.243 C 
BRANCH   5   6
ATOM      6  N   UNL A   1      46.953  25.991  25.423  1.00  0.00    -0.320 N 
BRANCH   6   7
ATOM      7  C   UNL A   1      48.427  25.942  25.189  1.00  0.00     0.210 C 
BRANCH   7   8
ATOM      8  C   UNL A   1      49.181  25.434  26.408  1.00  0.00    -0.085 C 
ATOM      9  C   UNL A   1      49.827  24.999  27.453  1.00  0.00     0.006 C 
ENDBRANCH   7   8
ENDBRANCH   6   7
BRANCH   6  10
ATOM     10  C   UNL A   1      46.296  27.207  25.257  1.00  0.00     0.227 C 
ATOM     11  O   UNL A   1      46.119  27.708  24.142  1.00  0.00    -0.275 OA
BRANCH  10  12
ATOM     12  C   UNL A   1      45.707  27.923  26.472  1.00  0.00     0.141 C 
BRANCH  12  13
ATOM     13  C   UNL A   1      45.496  29.436  26.291  1.00  0.00     0.239 C 
BRANCH  13  14
ATOM     14  O   UNL A   1      46.344  30.276  27.102  1.00  0.00    -0.493 OA
BRANCH  14  15
ATOM     15  C   UNL A   1      45.792  31.312  27.804  1.00  0.00     0.119 A 
ATOM     16  C   UNL A   1      44.422  31.539  27.666  1.00  0.00     0.046 A 
ATOM     17  C   UNL A   1      46.511  32.203  28.574  1.00  0.00     0.046 A 
ATOM     18  C   UNL A   1      43.836  32.731  28.136  1.00  0.00     0.007 A 
ATOM     19  C   UNL A   1      45.947  33.410  28.997  1.00  0.00     0.007 A 
ATOM     20  C   UNL A   1      44.627  33.722  28.716  1.00  0.00    -0.051 A 
ATOM     21  C   UNL A   1      44.122  35.090  29.065  1.00  0.00     0.044 C 
ENDBRANCH  14  15
ENDBRANCH  13  14
ENDBRANCH  12  13
ENDBRANCH  10  12
ENDBRANCH   6  10
ENDBRANCH   5   6
ENDBRANCH   3   5
ENDBRANCH   2   3
ENDBRANCH   1   2
BRANCH   1  22
ATOM     22  C   UNL A   1      44.206  21.737  25.124  1.00  0.00     0.202 C 
BRANCH  22  23
ATOM     23  O   UNL A   1      43.113  21.108  25.786  1.00  0.00    -0.374 OA
BRANCH  23  24
ATOM     24  C   UNL A   1      41.914  21.865  25.924  1.00  0.00     0.202 C 
BRANCH  24  25
ATOM     25  C   UNL A   1      41.369  22.120  27.335  1.00  0.00     0.261 C 
BRANCH  25  26
ATOM     26  O   UNL A   1      39.935  22.063  27.409  1.00  0.00    -0.460 OA
BRANCH  26  27
ATOM     27  C   UNL A   1      39.303  22.954  26.610  1.00  0.00     0.338 C 
ATOM     28  O   UNL A   1      38.558  22.706  25.666  1.00  0.00    -0.246 OA
BRANCH  27  29
ATOM     29  C   UNL A   1      39.436  24.313  27.151  1.00  0.00     0.060 A 
ATOM     30  C   UNL A   1      40.133  25.240  26.366  1.00  0.00     0.016 A 
ATOM     31  C   UNL A   1      38.999  24.645  28.435  1.00  0.00     0.016 A 
ATOM     32  C   UNL A   1      40.445  26.487  26.885  1.00  0.00     0.010 A 
ATOM     33  C   UNL A   1      39.327  25.899  28.961  1.00  0.00     0.010 A 
ATOM     34  C   UNL A   1      40.089  26.804  28.202  1.00  0.00    -0.014 A 
BRANCH  34  35
ATOM     35  C   UNL A   1      40.677  28.030  28.789  1.00  0.00     0.031 A 
ATOM     36  C   UNL A   1      39.788  29.219  29.033  1.00  0.00     0.074 A 
ATOM     37  C   UNL A   1      41.949  28.015  29.222  1.00  0.00     0.049 A 
ATOM     38  N   UNL A   1      40.052  30.329  29.671  1.00  0.00    -0.248 NA
ATOM     39  C   UNL A   1      38.419  29.147  28.494  1.00  0.00     0.031 C 
ATOM     40  C   UNL A   1      42.877  26.892  29.069  1.00  0.00     0.029 A 
ATOM     41  N   UNL A   1      42.673  28.958  29.905  1.00  0.00    -0.354 N 
ATOM     42  C   UNL A   1      38.889  31.089  29.606  1.00  0.00     0.074 A 
ATOM     43  C   UNL A   1      37.924  30.326  28.846  1.00  0.00     0.031 C 
ATOM     44  C   UNL A   1      44.043  27.206  29.659  1.00  0.00     0.029 A 
ATOM     45  C   UNL A   1      43.953  28.557  30.204  1.00  0.00     0.049 A 
ATOM     46  H   UNL A   1      42.310  29.838  30.156  1.00  0.00     0.167 HD
ATOM     47  C   UNL A   1      38.650  32.311  30.137  1.00  0.00     0.031 A 
ATOM     48  C   UNL A   1      44.942  29.212  30.843  1.00  0.00     0.031 A 
ATOM     49  C   UNL A   1      39.626  33.057  30.890  1.00  0.00     0.049 A 
ATOM     50  C   UNL A   1      44.658  30.586  31.391  1.00  0.00     0.074 A 
ATOM     51  C   UNL A   1      39.482  34.291  31.498  1.00  0.00     0.029 A 
ATOM     52  N   UNL A   1      40.928  32.642  31.126  1.00  0.00    -0.354 N 
ATOM     53  N   UNL A   1      43.539  31.270  31.362  1.00  0.00    -0.248 NA
ATOM     54  C   UNL A   1      45.765  31.266  32.074  1.00  0.00     0.031 C 
ATOM     55  C   UNL A   1      40.719  34.655  32.041  1.00  0.00     0.029 A 
ATOM     56  C   UNL A   1      41.612  33.615  31.835  1.00  0.00     0.049 A 
ATOM     57  H   UNL A   1      41.309  31.784  30.833  1.00  0.00     0.167 HD
ATOM     58  C   UNL A   1      43.802  32.457  32.036  1.00  0.00     0.074 A 
ATOM     59  C   UNL A   1      45.177  32.378  32.491  1.00  0.00     0.031 C 
ATOM     60  C   UNL A   1      42.987  33.519  32.259  1.00  0.00     0.031 A 
BRANCH  47  61
ATOM     61  C   UNL A   1      37.306  32.943  29.884  1.00  0.00    -0.014 A 
ATOM     62  C   UNL A   1      36.512  33.442  30.932  1.00  0.00     0.010 A 
ATOM     63  C   UNL A   1      36.857  33.093  28.558  1.00  0.00     0.010 A 
ATOM     64  C   UNL A   1      35.286  34.059  30.660  1.00  0.00     0.020 A 
ATOM     65  C   UNL A   1      35.645  33.732  28.281  1.00  0.00     0.020 A 
ATOM     66  C   UNL A   1      34.862  34.203  29.336  1.00  0.00     0.054 A 
BRANCH  66  67
ATOM     67  S   UNL A   1      33.292  35.054  29.009  1.00  0.00     0.124 S 
ATOM     68  O   UNL A   1      32.740  34.258  27.916  1.00  0.00    -0.237 OA
ATOM     69  O   UNL A   1      32.595  34.938  30.287  1.00  0.00    -0.237 OA
ATOM     70  O   UNL A   1      33.700  36.409  28.646  1.00  0.00    -0.744 OA
ENDBRANCH  66  67
ENDBRANCH  47  61
BRANCH  48  71
ATOM     71  C   UNL A   1      46.291  28.592  30.964  1.00  0.00    -0.014 A 
ATOM     72  C   UNL A   1      47.196  28.586  29.889  1.00  0.00     0.010 A 
ATOM     73  C   UNL A   1      46.673  27.991  32.178  1.00  0.00     0.010 A 
ATOM     74  C   UNL A   1      48.445  27.969  30.018  1.00  0.00     0.020 A 
ATOM     75  C   UNL A   1      47.932  27.404  32.322  1.00  0.00     0.020 A 
ATOM     76  C   UNL A   1      48.805  27.382  31.235  1.00  0.00     0.054 A 
BRANCH  76  77
ATOM     77  S   UNL A   1      50.441  26.616  31.393  1.00  0.00     0.124 S 
ATOM     78  O   UNL A   1      51.199  27.300  30.351  1.00  0.00    -0.237 OA
ATOM     79  O   UNL A   1      50.812  26.947  32.768  1.00  0.00    -0.237 OA
ATOM     80  O   UNL A   1      50.181  25.199  31.151  1.00  0.00    -0.744 OA
ENDBRANCH  76  77
ENDBRANCH  48  71
BRANCH  60  81
ATOM     81  C   UNL A   1      43.564  34.668  33.042  1.00  0.00    -0.014 A 
ATOM     82  C   UNL A   1      44.061  35.815  32.398  1.00  0.00     0.010 A 
ATOM     83  C   UNL A   1      43.591  34.606  34.448  1.00  0.00     0.010 A 
ATOM     84  C   UNL A   1      44.631  36.851  33.140  1.00  0.00     0.020 A 
ATOM     85  C   UNL A   1      44.126  35.657  35.196  1.00  0.00     0.020 A 
ATOM     86  C   UNL A   1      44.665  36.762  34.535  1.00  0.00     0.054 A 
BRANCH  86  87
ATOM     87  S   UNL A   1      45.409  38.121  35.478  1.00  0.00     0.124 S 
ATOM     88  O   UNL A   1      44.304  39.073  35.558  1.00  0.00    -0.237 OA
ATOM     89  O   UNL A   1      45.776  37.475  36.736  1.00  0.00    -0.237 OA
ATOM     90  O   UNL A   1      46.536  38.542  34.649  1.00  0.00    -0.744 OA
ENDBRANCH  86  87
ENDBRANCH  60  81
ENDBRANCH  34  35
ENDBRANCH  27  29
ENDBRANCH  26  27
ENDBRANCH  25  26
ENDBRANCH  24  25
ENDBRANCH  23  24
ENDBRANCH  22  23
ENDBRANCH   1  22
TORSDOF 25
ENDMDL
MODEL 3
REMARK VINA RESULT:      -8.4      6.238      8.363
REMARK SMILES C#CCN(CC(=O)OCCOCCOC(=O)c1ccc(-c2c3nc(c(-c4ccc(S(=O)(=O)[O-])cc4)c4ccc([nH]4)c(-c4ccc(S(=O)(=O)[O-])cc4)c4nc(c(-c5ccc(S(=O)(=O)[O-])cc5)c5ccc2[nH]5)C=C4)C=C3)cc1)C(=O)CCOc1ccc(C)cc1
REMARK SMILES IDX 9 1 8 2 6 3 7 4 5 5 4 6 3 7 2 8 1 9 77 10 78 11 79 12 80 13
REMARK SMILES IDX 81 14 82 15 83 16 88 17 84 18 87 19 85 20 86 21 10 22 11 23
REMARK SMILES IDX 12 24 13 25 14 26 15 27 16 28 17 29 18 30 76 31 19 32 75 33
REMARK SMILES IDX 20 34 21 35 22 36 69 37 23 38 74 39 68 40 70 41 24 42 73 43
REMARK SMILES IDX 67 44 66 45 25 47 55 48 36 49 54 50 37 51 40 52 53 53 71 54
REMARK SMILES IDX 38 55 39 56 52 58 72 59 41 60 26 61 27 62 35 63 28 64 34 65
REMARK SMILES IDX 29 66 30 67 31 68 32 69 33 70 56 71 57 72 65 73 58 74 64 75
REMARK SMILES IDX 59 76 60 77 61 78 62 79 63 80 42 81 43 82 51 83 44 84 50 85
REMARK SMILES IDX 45 86 46 87 47 88 48 89 49 90
REMARK H PARENT 70 46 40 57
REMARK Flexibility Score: inf
ROOT
ATOM      1  C   UNL A   1      40.376  20.771  26.810  1.00  0.00     0.261 C 
ENDROOT
BRANCH   1   2
ATOM      2  O   UNL A   1      39.490  21.581  25.990  1.00  0.00    -0.462 OA
BRANCH   2   3
ATOM      3  C   UNL A   1      38.545  20.870  25.317  1.00  0.00     0.325 C 
ATOM      4  O   UNL A   1      38.533  19.640  25.255  1.00  0.00    -0.250 OA
BRANCH   3   5
ATOM      5  C   UNL A   1      37.422  21.671  24.627  1.00  0.00     0.243 C 
BRANCH   5   6
ATOM      6  N   UNL A   1      36.060  21.935  25.134  1.00  0.00    -0.320 N 
BRANCH   6   7
ATOM      7  C   UNL A   1      35.876  23.028  26.134  1.00  0.00     0.210 C 
BRANCH   7   8
ATOM      8  C   UNL A   1      34.659  22.795  27.016  1.00  0.00    -0.085 C 
ATOM      9  C   UNL A   1      33.616  22.595  27.771  1.00  0.00     0.006 C 
ENDBRANCH   7   8
ENDBRANCH   6   7
BRANCH   6  10
ATOM     10  C   UNL A   1      34.928  21.291  24.641  1.00  0.00     0.227 C 
ATOM     11  O   UNL A   1      34.755  20.076  24.777  1.00  0.00    -0.275 OA
BRANCH  10  12
ATOM     12  C   UNL A   1      33.822  22.108  23.973  1.00  0.00     0.141 C 
BRANCH  12  13
ATOM     13  C   UNL A   1      34.275  22.936  22.758  1.00  0.00     0.239 C 
BRANCH  13  14
ATOM     14  O   UNL A   1      34.673  24.292  23.053  1.00  0.00    -0.493 OA
BRANCH  14  15
ATOM     15  C   UNL A   1      33.728  25.280  23.082  1.00  0.00     0.119 A 
ATOM     16  C   UNL A   1      33.672  26.098  24.212  1.00  0.00     0.046 A 
ATOM     17  C   UNL A   1      32.768  25.470  22.109  1.00  0.00     0.046 A 
ATOM     18  C   UNL A   1      32.572  26.950  24.432  1.00  0.00     0.007 A 
ATOM     19  C   UNL A   1      31.650  26.274  22.346  1.00  0.00     0.007 A 
ATOM     20  C   UNL A   1      31.501  26.961  23.541  1.00  0.00    -0.051 A 
ATOM     21  C   UNL A   1      30.214  27.686  23.795  1.00  0.00     0.044 C 
ENDBRANCH  14  15
ENDBRANCH  13  14
ENDBRANCH  12  13
ENDBRANCH  10  12
ENDBRANCH   6  10
ENDBRANCH   5   6
ENDBRANCH   3   5
ENDBRANCH   2   3
ENDBRANCH   1   2
BRANCH   1  22
ATOM     22  C   UNL A   1      41.813  20.641  26.282  1.00  0.00     0.202 C 
BRANCH  22  23
ATOM     23  O   UNL A   1      42.093  19.608  25.342  1.00  0.00    -0.374 OA
BRANCH  23  24
ATOM     24  C   UNL A   1      43.348  18.946  25.457  1.00  0.00     0.202 C 
BRANCH  24  25
ATOM     25  C   UNL A   1      44.238  18.843  24.212  1.00  0.00     0.261 C 
BRANCH  25  26
ATOM     26  O   UNL A   1      44.783  20.106  23.796  1.00  0.00    -0.460 OA
BRANCH  26  27
ATOM     27  C   UNL A   1      45.846  20.518  24.525  1.00  0.00     0.338 C 
ATOM     28  O   UNL A   1      46.966  20.015  24.553  1.00  0.00    -0.246 OA
BRANCH  27  29
ATOM     29  C   UNL A   1      45.570  21.820  25.145  1.00  0.00     0.060 A 
ATOM     30  C   UNL A   1      45.530  22.931  24.292  1.00  0.00     0.016 A 
ATOM     31  C   UNL A   1      45.470  21.975  26.529  1.00  0.00     0.016 A 
ATOM     32  C   UNL A   1      45.446  24.208  24.825  1.00  0.00     0.010 A 
ATOM     33  C   UNL A   1      45.398  23.266  27.065  1.00  0.00     0.010 A 
ATOM     34  C   UNL A   1      45.432  24.385  26.214  1.00  0.00    -0.014 A 
BRANCH  34  35
ATOM     35  C   UNL A   1      45.613  25.762  26.726  1.00  0.00     0.031 A 
ATOM     36  C   UNL A   1      46.972  26.400  26.634  1.00  0.00     0.074 A 
ATOM     37  C   UNL A   1      44.542  26.467  27.132  1.00  0.00     0.049 A 
ATOM     38  N   UNL A   1      47.321  27.636  26.876  1.00  0.00    -0.248 NA
ATOM     39  C   UNL A   1      48.085  25.536  26.204  1.00  0.00     0.031 C 
ATOM     40  C   UNL A   1      43.175  25.946  27.217  1.00  0.00     0.029 A 
ATOM     41  N   UNL A   1      44.428  27.776  27.520  1.00  0.00    -0.354 N 
ATOM     42  C   UNL A   1      48.689  27.698  26.636  1.00  0.00     0.074 A 
ATOM     43  C   UNL A   1      49.114  26.370  26.253  1.00  0.00     0.031 C 
ATOM     44  C   UNL A   1      42.357  26.934  27.613  1.00  0.00     0.029 A 
ATOM     45  C   UNL A   1      43.143  28.145  27.837  1.00  0.00     0.049 A 
ATOM     46  H   UNL A   1      45.193  28.393  27.567  1.00  0.00     0.167 HD
ATOM     47  C   UNL A   1      49.513  28.768  26.725  1.00  0.00     0.031 A 
ATOM     48  C   UNL A   1      42.658  29.326  28.266  1.00  0.00     0.031 A 
ATOM     49  C   UNL A   1      49.072  30.083  27.111  1.00  0.00     0.049 A 
ATOM     50  C   UNL A   1      43.605  30.490  28.390  1.00  0.00     0.074 A 
ATOM     51  C   UNL A   1      49.815  31.247  27.207  1.00  0.00     0.029 A 
ATOM     52  N   UNL A   1      47.773  30.406  27.477  1.00  0.00    -0.354 N 
ATOM     53  N   UNL A   1      44.887  30.543  28.114  1.00  0.00    -0.248 NA
ATOM     54  C   UNL A   1      43.036  31.757  28.866  1.00  0.00     0.031 C 
ATOM     55  C   UNL A   1      48.981  32.256  27.699  1.00  0.00     0.029 A 
ATOM     56  C   UNL A   1      47.702  31.741  27.839  1.00  0.00     0.049 A 
ATOM     57  H   UNL A   1      47.015  29.779  27.479  1.00  0.00     0.167 HD
ATOM     58  C   UNL A   1      45.276  31.853  28.368  1.00  0.00     0.074 A 
ATOM     59  C   UNL A   1      44.084  32.565  28.786  1.00  0.00     0.031 C 
ATOM     60  C   UNL A   1      46.506  32.420  28.270  1.00  0.00     0.031 A 
BRANCH  47  61
ATOM     61  C   UNL A   1      50.980  28.558  26.451  1.00  0.00    -0.014 A 
ATOM     62  C   UNL A   1      51.881  28.205  27.472  1.00  0.00     0.010 A 
ATOM     63  C   UNL A   1      51.453  28.657  25.129  1.00  0.00     0.010 A 
ATOM     64  C   UNL A   1      53.230  27.977  27.178  1.00  0.00     0.020 A 
ATOM     65  C   UNL A   1      52.794  28.406  24.828  1.00  0.00     0.020 A 
ATOM     66  C   UNL A   1      53.678  28.076  25.857  1.00  0.00     0.054 A 
BRANCH  66  67
ATOM     67  S   UNL A   1      55.421  27.725  25.497  1.00  0.00     0.124 S 
ATOM     68  O   UNL A   1      55.356  27.261  24.114  1.00  0.00    -0.237 OA
ATOM     69  O   UNL A   1      56.056  29.026  25.695  1.00  0.00    -0.237 OA
ATOM     70  O   UNL A   1      55.781  26.705  26.479  1.00  0.00    -0.744 OA
ENDBRANCH  66  67
ENDBRANCH  47  61
BRANCH  48  71
ATOM     71  C   UNL A   1      41.221  29.453  28.637  1.00  0.00    -0.014 A 
ATOM     72  C   UNL A   1      40.202  29.368  27.673  1.00  0.00     0.010 A 
ATOM     73  C   UNL A   1      40.867  29.668  29.983  1.00  0.00     0.010 A 
ATOM     74  C   UNL A   1      38.862  29.522  28.042  1.00  0.00     0.020 A 
ATOM     75  C   UNL A   1      39.528  29.789  30.361  1.00  0.00     0.020 A 
ATOM     76  C   UNL A   1      38.534  29.731  29.386  1.00  0.00     0.054 A 
BRANCH  76  77
ATOM     77  S   UNL A   1      36.788  29.895  29.850  1.00  0.00     0.124 S 
ATOM     78  O   UNL A   1      36.108  29.426  28.648  1.00  0.00    -0.237 OA
ATOM     79  O   UNL A   1      36.689  29.019  31.017  1.00  0.00    -0.237 OA
ATOM     80  O   UNL A   1      36.643  31.320  30.138  1.00  0.00    -0.744 OA
ENDBRANCH  76  77
ENDBRANCH  48  71
BRANCH  60  81
ATOM     81  C   UNL A   1      46.610  33.884  28.606  1.00  0.00    -0.014 A 
ATOM     82  C   UNL A   1      46.907  34.314  29.912  1.00  0.00     0.010 A 
ATOM     83  C   UNL A   1      46.425  34.844  27.593  1.00  0.00     0.010 A 
ATOM     84  C   UNL A   1      46.957  35.677  30.212  1.00  0.00     0.020 A 
ATOM     85  C   UNL A   1      46.511  36.207  27.882  1.00  0.00     0.020 A 
ATOM     86  C   UNL A   1      46.752  36.615  29.196  1.00  0.00     0.054 A 
BRANCH  86  87
ATOM     87  S   UNL A   1      46.823  38.378  29.609  1.00  0.00     0.124 S 
ATOM     88  O   UNL A   1      46.984  38.343  31.060  1.00  0.00    -0.237 OA
ATOM     89  O   UNL A   1      47.989  38.837  28.858  1.00  0.00    -0.237 OA
ATOM     90  O   UNL A   1      45.541  38.897  29.137  1.00  0.00    -0.744 OA
ENDBRANCH  86  87
ENDBRANCH  60  81
ENDBRANCH  34  35
ENDBRANCH  27  29
ENDBRANCH  26  27
ENDBRANCH  25  26
ENDBRANCH  24  25
ENDBRANCH  23  24
ENDBRANCH  22  23
ENDBRANCH   1  22
TORSDOF 25
ENDMDL
