MODEL 1
REMARK VINA RESULT:     -10.2      0.000      0.000
REMARK SMILES COCc1cccc(O[C@@H](C)c2ccc(C(=O)OCCOCCOC(=O)c3ccc(-c4c5nc(c(-c6ccc(S(=O)(=O)[O-])cc6)c6ccc([nH]6)c(-c6ccc(S(=O)(=O)[O-])cc6)c6nc(c(-c7ccc(S(=O)(=O)[O-])cc7)c7ccc4[nH]7)C=C6)C=C5)cc3)o2)c1
REMARK SMILES IDX 20 1 19 2 18 3 16 4 17 5 15 6 12 7 13 8 87 9 14 10 10 11
REMARK SMILES IDX 11 12 9 13 8 14 4 15 5 16 88 17 6 18 7 19 3 20 2 21 1 22
REMARK SMILES IDX 21 23 22 24 23 25 24 26 25 27 26 28 27 29 28 30 86 31 29 32
REMARK SMILES IDX 85 33 30 34 31 35 32 36 79 37 33 38 84 39 78 40 80 41 34 42
REMARK SMILES IDX 83 43 77 44 76 45 35 47 65 48 46 49 64 50 47 51 50 52 63 53
REMARK SMILES IDX 81 54 48 55 49 56 62 58 82 59 51 60 36 61 37 62 45 63 38 64
REMARK SMILES IDX 44 65 39 66 40 67 41 68 42 69 43 70 66 71 67 72 75 73 68 74
REMARK SMILES IDX 74 75 69 76 70 77 71 78 72 79 73 80 52 81 53 82 61 83 54 84
REMARK SMILES IDX 60 85 55 86 56 87 57 88 58 89 59 90
REMARK H PARENT 80 46 50 57
REMARK Flexibility Score: inf
ROOT
ATOM      1  C   UNL A   1      38.113  21.936  25.418  1.00  0.00     0.202 C 
ENDROOT
BRANCH   1   2
ATOM      2  C   UNL A   1      36.591  21.841  25.548  1.00  0.00     0.261 C 
BRANCH   2   3
ATOM      3  O   UNL A   1      35.939  21.768  24.272  1.00  0.00    -0.457 OA
BRANCH   3   4
ATOM      4  C   UNL A   1      36.066  22.893  23.515  1.00  0.00     0.374 C 
ATOM      5  O   UNL A   1      36.864  23.023  22.589  1.00  0.00    -0.242 OA
BRANCH   4   6
ATOM      6  C   UNL A   1      35.071  23.869  23.888  1.00  0.00     0.211 A 
ATOM      7  C   UNL A   1      33.348  25.181  23.446  1.00  0.00     0.145 A 
ATOM      8  C   UNL A   1      33.682  25.403  24.767  1.00  0.00     0.050 A 
ATOM      9  O   UNL A   1      34.178  24.239  22.921  1.00  0.00    -0.450 OA
ATOM     10  C   UNL A   1      34.785  24.555  25.054  1.00  0.00     0.058 A 
BRANCH   7  11
ATOM     11  C   UNL A   1      32.323  25.764  22.521  1.00  0.00     0.236 C 
ATOM     12  C   UNL A   1      32.649  25.693  21.031  1.00  0.00     0.062 C 
BRANCH  11  13
ATOM     13  O   UNL A   1      31.922  27.090  22.922  1.00  0.00    -0.483 OA
BRANCH  13  14
ATOM     14  C   UNL A   1      30.613  27.479  22.941  1.00  0.00     0.120 A 
ATOM     15  C   UNL A   1      28.730  28.979  22.533  1.00  0.00    -0.019 A 
ATOM     16  C   UNL A   1      27.908  28.125  23.279  1.00  0.00     0.006 A 
ATOM     17  C   UNL A   1      30.079  28.624  22.353  1.00  0.00     0.052 A 
ATOM     18  C   UNL A   1      28.419  26.947  23.822  1.00  0.00     0.004 A 
ATOM     19  C   UNL A   1      29.765  26.629  23.654  1.00  0.00     0.046 A 
BRANCH  15  20
ATOM     20  C   UNL A   1      28.155  30.281  22.011  1.00  0.00     0.195 C 
BRANCH  20  21
ATOM     21  O   UNL A   1      29.051  31.383  22.136  1.00  0.00    -0.380 OA
ATOM     22  C   UNL A   1      28.727  32.217  23.241  1.00  0.00     0.195 C 
ENDBRANCH  20  21
ENDBRANCH  15  20
ENDBRANCH  13  14
ENDBRANCH  11  13
ENDBRANCH   7  11
ENDBRANCH   4   6
ENDBRANCH   3   4
ENDBRANCH   2   3
ENDBRANCH   1   2
BRANCH   1  23
ATOM     23  O   UNL A   1      38.883  22.153  26.598  1.00  0.00    -0.374 OA
BRANCH  23  24
ATOM     24  C   UNL A   1      40.293  22.325  26.486  1.00  0.00     0.202 C 
BRANCH  24  25
ATOM     25  C   UNL A   1      40.905  23.700  26.779  1.00  0.00     0.261 C 
BRANCH  25  26
ATOM     26  O   UNL A   1      39.933  24.743  26.940  1.00  0.00    -0.460 OA
BRANCH  26  27
ATOM     27  C   UNL A   1      40.406  25.984  26.661  1.00  0.00     0.338 C 
ATOM     28  O   UNL A   1      40.844  26.383  25.596  1.00  0.00    -0.246 OA
BRANCH  27  29
ATOM     29  C   UNL A   1      40.147  26.887  27.797  1.00  0.00     0.060 A 
ATOM     30  C   UNL A   1      40.749  28.152  27.770  1.00  0.00     0.016 A 
ATOM     31  C   UNL A   1      39.399  26.476  28.901  1.00  0.00     0.016 A 
ATOM     32  C   UNL A   1      40.651  28.994  28.874  1.00  0.00     0.010 A 
ATOM     33  C   UNL A   1      39.307  27.321  30.012  1.00  0.00     0.010 A 
ATOM     34  C   UNL A   1      39.963  28.565  30.017  1.00  0.00    -0.014 A 
BRANCH  34  35
ATOM     35  C   UNL A   1      40.054  29.359  31.265  1.00  0.00     0.031 A 
ATOM     36  C   UNL A   1      41.191  29.098  32.216  1.00  0.00     0.074 A 
ATOM     37  C   UNL A   1      39.148  30.314  31.538  1.00  0.00     0.049 A 
ATOM     38  N   UNL A   1      41.447  29.653  33.373  1.00  0.00    -0.248 NA
ATOM     39  C   UNL A   1      42.167  28.074  31.808  1.00  0.00     0.031 C 
ATOM     40  C   UNL A   1      38.031  30.691  30.673  1.00  0.00     0.029 A 
ATOM     41  N   UNL A   1      39.026  31.141  32.627  1.00  0.00    -0.354 N 
ATOM     42  C   UNL A   1      42.602  29.037  33.839  1.00  0.00     0.074 A 
ATOM     43  C   UNL A   1      42.979  28.046  32.855  1.00  0.00     0.031 C 
ATOM     44  C   UNL A   1      37.335  31.676  31.266  1.00  0.00     0.029 A 
ATOM     45  C   UNL A   1      37.934  31.971  32.566  1.00  0.00     0.049 A 
ATOM     46  H   UNL A   1      39.662  31.139  33.378  1.00  0.00     0.167 HD
ATOM     47  C   UNL A   1      43.291  29.278  34.981  1.00  0.00     0.031 A 
ATOM     48  C   UNL A   1      37.459  32.855  33.466  1.00  0.00     0.031 A 
ATOM     49  C   UNL A   1      42.900  30.254  35.965  1.00  0.00     0.049 A 
ATOM     50  C   UNL A   1      38.195  33.051  34.765  1.00  0.00     0.074 A 
ATOM     51  C   UNL A   1      43.538  30.589  37.145  1.00  0.00     0.029 A 
ATOM     52  N   UNL A   1      41.761  31.043  35.889  1.00  0.00    -0.354 N 
ATOM     53  N   UNL A   1      39.300  32.481  35.181  1.00  0.00    -0.248 NA
ATOM     54  C   UNL A   1      37.621  34.019  35.711  1.00  0.00     0.031 C 
ATOM     55  C   UNL A   1      42.751  31.531  37.815  1.00  0.00     0.029 A 
ATOM     56  C   UNL A   1      41.660  31.839  37.018  1.00  0.00     0.049 A 
ATOM     57  H   UNL A   1      41.120  31.039  35.141  1.00  0.00     0.167 HD
ATOM     58  C   UNL A   1      39.571  33.041  36.426  1.00  0.00     0.074 A 
ATOM     59  C   UNL A   1      38.520  34.003  36.687  1.00  0.00     0.031 C 
ATOM     60  C   UNL A   1      40.602  32.786  37.271  1.00  0.00     0.031 A 
BRANCH  47  61
ATOM     61  C   UNL A   1      44.511  28.432  35.247  1.00  0.00    -0.014 A 
ATOM     62  C   UNL A   1      45.788  28.826  34.809  1.00  0.00     0.010 A 
ATOM     63  C   UNL A   1      44.375  27.226  35.958  1.00  0.00     0.010 A 
ATOM     64  C   UNL A   1      46.897  28.003  35.028  1.00  0.00     0.020 A 
ATOM     65  C   UNL A   1      45.486  26.416  36.209  1.00  0.00     0.020 A 
ATOM     66  C   UNL A   1      46.737  26.799  35.722  1.00  0.00     0.054 A 
BRANCH  66  67
ATOM     67  S   UNL A   1      48.190  25.748  35.988  1.00  0.00     0.124 S 
ATOM     68  O   UNL A   1      47.824  25.031  37.208  1.00  0.00    -0.237 OA
ATOM     69  O   UNL A   1      48.226  24.939  34.772  1.00  0.00    -0.237 OA
ATOM     70  O   UNL A   1      49.288  26.702  36.132  1.00  0.00    -0.744 OA
ENDBRANCH  66  67
ENDBRANCH  47  61
BRANCH  48  71
ATOM     71  C   UNL A   1      36.217  33.617  33.164  1.00  0.00    -0.014 A 
ATOM     72  C   UNL A   1      36.286  34.935  32.681  1.00  0.00     0.010 A 
ATOM     73  C   UNL A   1      34.956  33.014  33.330  1.00  0.00     0.010 A 
ATOM     74  C   UNL A   1      35.117  35.637  32.371  1.00  0.00     0.020 A 
ATOM     75  C   UNL A   1      33.788  33.702  32.994  1.00  0.00     0.020 A 
ATOM     76  C   UNL A   1      33.875  35.013  32.522  1.00  0.00     0.054 A 
BRANCH  76  77
ATOM     77  S   UNL A   1      32.378  35.917  32.039  1.00  0.00     0.124 S 
ATOM     78  O   UNL A   1      32.463  35.890  30.582  1.00  0.00    -0.237 OA
ATOM     79  O   UNL A   1      31.317  35.102  32.628  1.00  0.00    -0.237 OA
ATOM     80  O   UNL A   1      32.558  37.229  32.654  1.00  0.00    -0.744 OA
ENDBRANCH  76  77
ENDBRANCH  48  71
BRANCH  60  81
ATOM     81  C   UNL A   1      40.667  33.584  38.549  1.00  0.00    -0.014 A 
ATOM     82  C   UNL A   1      41.676  34.537  38.769  1.00  0.00     0.010 A 
ATOM     83  C   UNL A   1      39.665  33.412  39.524  1.00  0.00     0.010 A 
ATOM     84  C   UNL A   1      41.700  35.282  39.951  1.00  0.00     0.020 A 
ATOM     85  C   UNL A   1      39.668  34.176  40.693  1.00  0.00     0.020 A 
ATOM     86  C   UNL A   1      40.695  35.097  40.906  1.00  0.00     0.054 A 
BRANCH  86  87
ATOM     87  S   UNL A   1      40.725  36.107  42.413  1.00  0.00     0.124 S 
ATOM     88  O   UNL A   1      41.421  35.231  43.351  1.00  0.00    -0.237 OA
ATOM     89  O   UNL A   1      41.467  37.291  41.989  1.00  0.00    -0.237 OA
ATOM     90  O   UNL A   1      39.312  36.335  42.706  1.00  0.00    -0.744 OA
ENDBRANCH  86  87
ENDBRANCH  60  81
ENDBRANCH  34  35
ENDBRANCH  27  29
ENDBRANCH  26  27
ENDBRANCH  25  26
ENDBRANCH  24  25
ENDBRANCH  23  24
ENDBRANCH   1  23
TORSDOF 22
ENDMDL
MODEL 2
REMARK VINA RESULT:      -9.7      2.065      3.001
REMARK SMILES COCc1cccc(O[C@@H](C)c2ccc(C(=O)OCCOCCOC(=O)c3ccc(-c4c5nc(c(-c6ccc(S(=O)(=O)[O-])cc6)c6ccc([nH]6)c(-c6ccc(S(=O)(=O)[O-])cc6)c6nc(c(-c7ccc(S(=O)(=O)[O-])cc7)c7ccc4[nH]7)C=C6)C=C5)cc3)o2)c1
REMARK SMILES IDX 20 1 19 2 18 3 16 4 17 5 15 6 12 7 13 8 87 9 14 10 10 11
REMARK SMILES IDX 11 12 9 13 8 14 4 15 5 16 88 17 6 18 7 19 3 20 2 21 1 22
REMARK SMILES IDX 21 23 22 24 23 25 24 26 25 27 26 28 27 29 28 30 86 31 29 32
REMARK SMILES IDX 85 33 30 34 31 35 32 36 79 37 33 38 84 39 78 40 80 41 34 42
REMARK SMILES IDX 83 43 77 44 76 45 35 47 65 48 46 49 64 50 47 51 50 52 63 53
REMARK SMILES IDX 81 54 48 55 49 56 62 58 82 59 51 60 36 61 37 62 45 63 38 64
REMARK SMILES IDX 44 65 39 66 40 67 41 68 42 69 43 70 66 71 67 72 75 73 68 74
REMARK SMILES IDX 74 75 69 76 70 77 71 78 72 79 73 80 52 81 53 82 61 83 54 84
REMARK SMILES IDX 60 85 55 86 56 87 57 88 58 89 59 90
REMARK H PARENT 80 46 50 57
REMARK Flexibility Score: inf
ROOT
ATOM      1  C   UNL A   1      40.678  20.785  27.084  1.00  0.00     0.202 C 
ENDROOT
BRANCH   1   2
ATOM      2  C   UNL A   1      39.776  20.318  25.938  1.00  0.00     0.261 C 
BRANCH   2   3
ATOM      3  O   UNL A   1      38.781  21.293  25.597  1.00  0.00    -0.457 OA
BRANCH   3   4
ATOM      4  C   UNL A   1      37.682  20.779  24.978  1.00  0.00     0.374 C 
ATOM      5  O   UNL A   1      37.567  19.607  24.624  1.00  0.00    -0.242 OA
BRANCH   4   6
ATOM      6  C   UNL A   1      36.642  21.774  24.885  1.00  0.00     0.211 A 
ATOM      7  C   UNL A   1      34.846  22.810  25.649  1.00  0.00     0.145 A 
ATOM      8  C   UNL A   1      35.145  23.388  24.432  1.00  0.00     0.050 A 
ATOM      9  O   UNL A   1      35.764  21.846  25.930  1.00  0.00    -0.450 OA
ATOM     10  C   UNL A   1      36.303  22.727  23.943  1.00  0.00     0.058 A 
BRANCH   7  11
ATOM     11  C   UNL A   1      33.750  23.008  26.652  1.00  0.00     0.236 C 
ATOM     12  C   UNL A   1      33.757  22.057  27.847  1.00  0.00     0.062 C 
BRANCH  11  13
ATOM     13  O   UNL A   1      32.451  23.084  26.030  1.00  0.00    -0.483 OA
BRANCH  13  14
ATOM     14  C   UNL A   1      31.978  24.238  25.473  1.00  0.00     0.120 A 
ATOM     15  C   UNL A   1      31.432  26.616  25.406  1.00  0.00    -0.019 A 
ATOM     16  C   UNL A   1      30.770  26.414  24.188  1.00  0.00     0.006 A 
ATOM     17  C   UNL A   1      32.055  25.517  26.022  1.00  0.00     0.052 A 
ATOM     18  C   UNL A   1      30.739  25.149  23.601  1.00  0.00     0.004 A 
ATOM     19  C   UNL A   1      31.339  24.068  24.244  1.00  0.00     0.046 A 
BRANCH  15  20
ATOM     20  C   UNL A   1      31.392  27.991  26.043  1.00  0.00     0.195 C 
BRANCH  20  21
ATOM     21  O   UNL A   1      31.604  29.050  25.111  1.00  0.00    -0.380 OA
ATOM     22  C   UNL A   1      32.602  29.962  25.551  1.00  0.00     0.195 C 
ENDBRANCH  20  21
ENDBRANCH  15  20
ENDBRANCH  13  14
ENDBRANCH  11  13
ENDBRANCH   7  11
ENDBRANCH   4   6
ENDBRANCH   3   4
ENDBRANCH   2   3
ENDBRANCH   1   2
BRANCH   1  23
ATOM     23  O   UNL A   1      42.058  20.428  27.050  1.00  0.00    -0.374 OA
BRANCH  23  24
ATOM     24  C   UNL A   1      42.944  21.156  26.204  1.00  0.00     0.202 C 
BRANCH  24  25
ATOM     25  C   UNL A   1      42.549  22.563  25.740  1.00  0.00     0.261 C 
BRANCH  25  26
ATOM     26  O   UNL A   1      42.832  23.589  26.702  1.00  0.00    -0.460 OA
BRANCH  26  27
ATOM     27  C   UNL A   1      42.882  24.839  26.175  1.00  0.00     0.338 C 
ATOM     28  O   UNL A   1      43.199  25.146  25.039  1.00  0.00    -0.246 OA
BRANCH  27  29
ATOM     29  C   UNL A   1      42.308  25.808  27.125  1.00  0.00     0.060 A 
ATOM     30  C   UNL A   1      42.865  27.093  27.157  1.00  0.00     0.016 A 
ATOM     31  C   UNL A   1      41.302  25.444  28.022  1.00  0.00     0.016 A 
ATOM     32  C   UNL A   1      42.456  28.006  28.125  1.00  0.00     0.010 A 
ATOM     33  C   UNL A   1      40.897  26.361  28.997  1.00  0.00     0.010 A 
ATOM     34  C   UNL A   1      41.499  27.630  29.076  1.00  0.00    -0.014 A 
BRANCH  34  35
ATOM     35  C   UNL A   1      41.234  28.514  30.236  1.00  0.00     0.031 A 
ATOM     36  C   UNL A   1      42.095  28.387  31.463  1.00  0.00     0.074 A 
ATOM     37  C   UNL A   1      40.252  29.431  30.189  1.00  0.00     0.049 A 
ATOM     38  N   UNL A   1      42.023  29.035  32.597  1.00  0.00    -0.248 NA
ATOM     39  C   UNL A   1      43.182  27.395  31.404  1.00  0.00     0.031 C 
ATOM     40  C   UNL A   1      39.383  29.681  29.040  1.00  0.00     0.029 A 
ATOM     41  N   UNL A   1      39.823  30.325  31.138  1.00  0.00    -0.354 N 
ATOM     42  C   UNL A   1      43.041  28.522  33.391  1.00  0.00     0.074 A 
ATOM     43  C   UNL A   1      43.697  27.487  32.620  1.00  0.00     0.031 C 
ATOM     44  C   UNL A   1      38.521  30.664  29.352  1.00  0.00     0.029 A 
ATOM     45  C   UNL A   1      38.753  31.084  30.733  1.00  0.00     0.049 A 
ATOM     46  H   UNL A   1      40.242  30.412  32.024  1.00  0.00     0.167 HD
ATOM     47  C   UNL A   1      43.402  28.883  34.647  1.00  0.00     0.031 A 
ATOM     48  C   UNL A   1      38.028  32.000  31.406  1.00  0.00     0.031 A 
ATOM     49  C   UNL A   1      42.733  29.901  35.414  1.00  0.00     0.049 A 
ATOM     50  C   UNL A   1      38.395  32.330  32.828  1.00  0.00     0.074 A 
ATOM     51  C   UNL A   1      43.032  30.355  36.686  1.00  0.00     0.029 A 
ATOM     52  N   UNL A   1      41.624  30.616  34.985  1.00  0.00    -0.354 N 
ATOM     53  N   UNL A   1      39.376  31.855  33.558  1.00  0.00    -0.248 NA
ATOM     54  C   UNL A   1      37.561  33.326  33.514  1.00  0.00     0.031 C 
ATOM     55  C   UNL A   1      42.063  31.295  37.053  1.00  0.00     0.029 A 
ATOM     56  C   UNL A   1      41.204  31.482  35.981  1.00  0.00     0.049 A 
ATOM     57  H   UNL A   1      41.198  30.522  34.102  1.00  0.00     0.167 HD
ATOM     58  C   UNL A   1      39.296  32.516  34.780  1.00  0.00     0.074 A 
ATOM     59  C   UNL A   1      38.176  33.431  34.684  1.00  0.00     0.031 C 
ATOM     60  C   UNL A   1      40.082  32.382  35.877  1.00  0.00     0.031 A 
BRANCH  47  61
ATOM     61  C   UNL A   1      44.543  28.130  35.283  1.00  0.00    -0.014 A 
ATOM     62  C   UNL A   1      45.882  28.492  35.053  1.00  0.00     0.010 A 
ATOM     63  C   UNL A   1      44.267  27.046  36.136  1.00  0.00     0.010 A 
ATOM     64  C   UNL A   1      46.924  27.751  35.619  1.00  0.00     0.020 A 
ATOM     65  C   UNL A   1      45.304  26.322  36.731  1.00  0.00     0.020 A 
ATOM     66  C   UNL A   1      46.627  26.666  36.450  1.00  0.00     0.054 A 
BRANCH  66  67
ATOM     67  S   UNL A   1      47.997  25.718  37.166  1.00  0.00     0.124 S 
ATOM     68  O   UNL A   1      47.638  24.348  36.801  1.00  0.00    -0.237 OA
ATOM     69  O   UNL A   1      49.161  26.266  36.475  1.00  0.00    -0.237 OA
ATOM     70  O   UNL A   1      47.922  26.021  38.594  1.00  0.00    -0.744 OA
ENDBRANCH  66  67
ENDBRANCH  47  61
BRANCH  48  71
ATOM     71  C   UNL A   1      36.878  32.666  30.735  1.00  0.00    -0.014 A 
ATOM     72  C   UNL A   1      35.569  32.187  30.916  1.00  0.00     0.010 A 
ATOM     73  C   UNL A   1      37.086  33.804  29.933  1.00  0.00     0.010 A 
ATOM     74  C   UNL A   1      34.489  32.834  30.307  1.00  0.00     0.020 A 
ATOM     75  C   UNL A   1      36.006  34.469  29.347  1.00  0.00     0.020 A 
ATOM     76  C   UNL A   1      34.714  33.976  29.533  1.00  0.00     0.054 A 
BRANCH  76  77
ATOM     77  S   UNL A   1      33.289  34.842  28.819  1.00  0.00     0.124 S 
ATOM     78  O   UNL A   1      32.474  35.112  29.999  1.00  0.00    -0.237 OA
ATOM     79  O   UNL A   1      33.912  36.008  28.197  1.00  0.00    -0.237 OA
ATOM     80  O   UNL A   1      32.732  33.870  27.881  1.00  0.00    -0.744 OA
ENDBRANCH  76  77
ENDBRANCH  48  71
BRANCH  60  81
ATOM     81  C   UNL A   1      39.784  33.269  37.059  1.00  0.00    -0.014 A 
ATOM     82  C   UNL A   1      38.859  32.890  38.048  1.00  0.00     0.010 A 
ATOM     83  C   UNL A   1      40.487  34.480  37.210  1.00  0.00     0.010 A 
ATOM     84  C   UNL A   1      38.620  33.719  39.148  1.00  0.00     0.020 A 
ATOM     85  C   UNL A   1      40.273  35.297  38.322  1.00  0.00     0.020 A 
ATOM     86  C   UNL A   1      39.329  34.917  39.278  1.00  0.00     0.054 A 
BRANCH  86  87
ATOM     87  S   UNL A   1      39.032  35.954  40.737  1.00  0.00     0.124 S 
ATOM     88  O   UNL A   1      38.195  35.085  41.561  1.00  0.00    -0.237 OA
ATOM     89  O   UNL A   1      40.381  36.190  41.242  1.00  0.00    -0.237 OA
ATOM     90  O   UNL A   1      38.360  37.133  40.194  1.00  0.00    -0.744 OA
ENDBRANCH  86  87
ENDBRANCH  60  81
ENDBRANCH  34  35
ENDBRANCH  27  29
ENDBRANCH  26  27
ENDBRANCH  25  26
ENDBRANCH  24  25
ENDBRANCH  23  24
ENDBRANCH   1  23
TORSDOF 22
ENDMDL
MODEL 3
REMARK VINA RESULT:      -9.5      2.653      7.698
REMARK SMILES COCc1cccc(O[C@@H](C)c2ccc(C(=O)OCCOCCOC(=O)c3ccc(-c4c5nc(c(-c6ccc(S(=O)(=O)[O-])cc6)c6ccc([nH]6)c(-c6ccc(S(=O)(=O)[O-])cc6)c6nc(c(-c7ccc(S(=O)(=O)[O-])cc7)c7ccc4[nH]7)C=C6)C=C5)cc3)o2)c1
REMARK SMILES IDX 20 1 19 2 18 3 16 4 17 5 15 6 12 7 13 8 87 9 14 10 10 11
REMARK SMILES IDX 11 12 9 13 8 14 4 15 5 16 88 17 6 18 7 19 3 20 2 21 1 22
REMARK SMILES IDX 21 23 22 24 23 25 24 26 25 27 26 28 27 29 28 30 86 31 29 32
REMARK SMILES IDX 85 33 30 34 31 35 32 36 79 37 33 38 84 39 78 40 80 41 34 42
REMARK SMILES IDX 83 43 77 44 76 45 35 47 65 48 46 49 64 50 47 51 50 52 63 53
REMARK SMILES IDX 81 54 48 55 49 56 62 58 82 59 51 60 36 61 37 62 45 63 38 64
REMARK SMILES IDX 44 65 39 66 40 67 41 68 42 69 43 70 66 71 67 72 75 73 68 74
REMARK SMILES IDX 74 75 69 76 70 77 71 78 72 79 73 80 52 81 53 82 61 83 54 84
REMARK SMILES IDX 60 85 55 86 56 87 57 88 58 89 59 90
REMARK H PARENT 80 46 50 57
REMARK Flexibility Score: inf
ROOT
ATOM      1  C   UNL A   1      31.756  29.881  25.358  1.00  0.00     0.202 C 
ENDROOT
BRANCH   1   2
ATOM      2  C   UNL A   1      31.696  28.951  24.143  1.00  0.00     0.261 C 
BRANCH   2   3
ATOM      3  O   UNL A   1      32.623  27.861  24.246  1.00  0.00    -0.457 OA
BRANCH   3   4
ATOM      4  C   UNL A   1      33.347  27.634  23.115  1.00  0.00     0.374 C 
ATOM      5  O   UNL A   1      33.880  28.513  22.441  1.00  0.00    -0.242 OA
BRANCH   4   6
ATOM      6  C   UNL A   1      33.479  26.218  22.875  1.00  0.00     0.211 A 
ATOM      7  C   UNL A   1      34.394  24.242  23.255  1.00  0.00     0.145 A 
ATOM      8  C   UNL A   1      33.466  24.059  22.249  1.00  0.00     0.050 A 
ATOM      9  O   UNL A   1      34.387  25.545  23.645  1.00  0.00    -0.450 OA
ATOM     10  C   UNL A   1      32.874  25.327  22.008  1.00  0.00     0.058 A 
BRANCH   7  11
ATOM     11  C   UNL A   1      35.372  23.339  23.943  1.00  0.00     0.236 C 
ATOM     12  C   UNL A   1      36.609  22.954  23.135  1.00  0.00     0.062 C 
BRANCH  11  13
ATOM     13  O   UNL A   1      34.730  22.187  24.527  1.00  0.00    -0.483 OA
BRANCH  13  14
ATOM     14  C   UNL A   1      33.876  22.291  25.589  1.00  0.00     0.120 A 
ATOM     15  C   UNL A   1      31.802  22.893  26.726  1.00  0.00    -0.019 A 
ATOM     16  C   UNL A   1      32.397  22.569  27.951  1.00  0.00     0.006 A 
ATOM     17  C   UNL A   1      32.551  22.722  25.549  1.00  0.00     0.052 A 
ATOM     18  C   UNL A   1      33.703  22.081  27.996  1.00  0.00     0.004 A 
ATOM     19  C   UNL A   1      34.436  21.946  26.819  1.00  0.00     0.046 A 
BRANCH  15  20
ATOM     20  C   UNL A   1      30.403  23.478  26.722  1.00  0.00     0.195 C 
BRANCH  20  21
ATOM     21  O   UNL A   1      30.389  24.904  26.770  1.00  0.00    -0.380 OA
ATOM     22  C   UNL A   1      30.229  25.484  25.482  1.00  0.00     0.195 C 
ENDBRANCH  20  21
ENDBRANCH  15  20
ENDBRANCH  13  14
ENDBRANCH  11  13
ENDBRANCH   7  11
ENDBRANCH   4   6
ENDBRANCH   3   4
ENDBRANCH   2   3
ENDBRANCH   1   2
BRANCH   1  23
ATOM     23  O   UNL A   1      32.962  29.927  26.117  1.00  0.00    -0.374 OA
BRANCH  23  24
ATOM     24  C   UNL A   1      32.978  30.637  27.353  1.00  0.00     0.202 C 
BRANCH  24  25
ATOM     25  C   UNL A   1      34.101  31.646  27.623  1.00  0.00     0.261 C 
BRANCH  25  26
ATOM     26  O   UNL A   1      33.769  32.992  27.251  1.00  0.00    -0.460 OA
BRANCH  26  27
ATOM     27  C   UNL A   1      33.603  33.830  28.305  1.00  0.00     0.338 C 
ATOM     28  O   UNL A   1      32.657  34.568  28.517  1.00  0.00    -0.246 OA
BRANCH  27  29
ATOM     29  C   UNL A   1      34.663  33.598  29.302  1.00  0.00     0.060 A 
ATOM     30  C   UNL A   1      35.962  34.010  28.976  1.00  0.00     0.016 A 
ATOM     31  C   UNL A   1      34.409  32.920  30.495  1.00  0.00     0.016 A 
ATOM     32  C   UNL A   1      37.025  33.697  29.818  1.00  0.00     0.010 A 
ATOM     33  C   UNL A   1      35.479  32.601  31.337  1.00  0.00     0.010 A 
ATOM     34  C   UNL A   1      36.794  32.954  30.983  1.00  0.00    -0.014 A 
BRANCH  34  35
ATOM     35  C   UNL A   1      37.945  32.427  31.754  1.00  0.00     0.031 A 
ATOM     36  C   UNL A   1      38.714  31.254  31.209  1.00  0.00     0.074 A 
ATOM     37  C   UNL A   1      38.312  32.998  32.914  1.00  0.00     0.049 A 
ATOM     38  N   UNL A   1      39.731  30.617  31.728  1.00  0.00    -0.248 NA
ATOM     39  C   UNL A   1      38.275  30.730  29.904  1.00  0.00     0.031 C 
ATOM     40  C   UNL A   1      37.676  34.166  33.520  1.00  0.00     0.029 A 
ATOM     41  N   UNL A   1      39.315  32.666  33.791  1.00  0.00    -0.354 N 
ATOM     42  C   UNL A   1      40.046  29.609  30.825  1.00  0.00     0.074 A 
ATOM     43  C   UNL A   1      39.092  29.700  29.741  1.00  0.00     0.031 C 
ATOM     44  C   UNL A   1      38.304  34.455  34.673  1.00  0.00     0.029 A 
ATOM     45  C   UNL A   1      39.358  33.470  34.904  1.00  0.00     0.049 A 
ATOM     46  H   UNL A   1      39.942  31.924  33.636  1.00  0.00     0.167 HD
ATOM     47  C   UNL A   1      41.042  28.691  30.889  1.00  0.00     0.031 A 
ATOM     48  C   UNL A   1      40.146  33.406  35.996  1.00  0.00     0.031 A 
ATOM     49  C   UNL A   1      41.977  28.596  31.981  1.00  0.00     0.049 A 
ATOM     50  C   UNL A   1      41.196  32.330  36.085  1.00  0.00     0.074 A 
ATOM     51  C   UNL A   1      43.033  27.717  32.133  1.00  0.00     0.029 A 
ATOM     52  N   UNL A   1      41.959  29.399  33.112  1.00  0.00    -0.354 N 
ATOM     53  N   UNL A   1      41.499  31.399  35.212  1.00  0.00    -0.248 NA
ATOM     54  C   UNL A   1      42.016  32.304  37.305  1.00  0.00     0.031 C 
ATOM     55  C   UNL A   1      43.613  27.943  33.386  1.00  0.00     0.029 A 
ATOM     56  C   UNL A   1      42.964  29.013  33.983  1.00  0.00     0.049 A 
ATOM     57  H   UNL A   1      41.326  30.135  33.272  1.00  0.00     0.167 HD
ATOM     58  C   UNL A   1      42.564  30.693  35.764  1.00  0.00     0.074 A 
ATOM     59  C   UNL A   1      42.858  31.314  37.040  1.00  0.00     0.031 C 
ATOM     60  C   UNL A   1      43.241  29.633  35.256  1.00  0.00     0.031 A 
BRANCH  47  61
ATOM     61  C   UNL A   1      41.135  27.689  29.767  1.00  0.00    -0.014 A 
ATOM     62  C   UNL A   1      40.105  26.763  29.522  1.00  0.00     0.010 A 
ATOM     63  C   UNL A   1      42.270  27.682  28.937  1.00  0.00     0.010 A 
ATOM     64  C   UNL A   1      40.233  25.814  28.503  1.00  0.00     0.020 A 
ATOM     65  C   UNL A   1      42.388  26.757  27.896  1.00  0.00     0.020 A 
ATOM     66  C   UNL A   1      41.378  25.813  27.701  1.00  0.00     0.054 A 
BRANCH  66  67
ATOM     67  S   UNL A   1      41.522  24.568  26.391  1.00  0.00     0.124 S 
ATOM     68  O   UNL A   1      42.687  23.801  26.831  1.00  0.00    -0.237 OA
ATOM     69  O   UNL A   1      40.243  23.867  26.473  1.00  0.00    -0.237 OA
ATOM     70  O   UNL A   1      41.721  25.359  25.178  1.00  0.00    -0.744 OA
ENDBRANCH  66  67
ENDBRANCH  47  61
BRANCH  48  71
ATOM     71  C   UNL A   1      39.964  34.395  37.094  1.00  0.00    -0.014 A 
ATOM     72  C   UNL A   1      40.645  35.624  37.070  1.00  0.00     0.010 A 
ATOM     73  C   UNL A   1      39.082  34.121  38.156  1.00  0.00     0.010 A 
ATOM     74  C   UNL A   1      40.449  36.561  38.089  1.00  0.00     0.020 A 
ATOM     75  C   UNL A   1      38.862  35.067  39.160  1.00  0.00     0.020 A 
ATOM     76  C   UNL A   1      39.551  36.279  39.124  1.00  0.00     0.054 A 
BRANCH  76  77
ATOM     77  S   UNL A   1      39.254  37.544  40.390  1.00  0.00     0.124 S 
ATOM     78  O   UNL A   1      38.915  36.733  41.556  1.00  0.00    -0.237 OA
ATOM     79  O   UNL A   1      40.540  38.234  40.450  1.00  0.00    -0.237 OA
ATOM     80  O   UNL A   1      38.158  38.333  39.835  1.00  0.00    -0.744 OA
ENDBRANCH  76  77
ENDBRANCH  48  71
BRANCH  60  81
ATOM     81  C   UNL A   1      44.393  29.090  36.063  1.00  0.00    -0.014 A 
ATOM     82  C   UNL A   1      45.691  29.613  35.932  1.00  0.00     0.010 A 
ATOM     83  C   UNL A   1      44.157  28.076  37.011  1.00  0.00     0.010 A 
ATOM     84  C   UNL A   1      46.738  29.110  36.710  1.00  0.00     0.020 A 
ATOM     85  C   UNL A   1      45.193  27.593  37.812  1.00  0.00     0.020 A 
ATOM     86  C   UNL A   1      46.482  28.103  37.647  1.00  0.00     0.054 A 
BRANCH  86  87
ATOM     87  S   UNL A   1      47.849  27.499  38.675  1.00  0.00     0.124 S 
ATOM     88  O   UNL A   1      48.449  26.482  37.815  1.00  0.00    -0.237 OA
ATOM     89  O   UNL A   1      48.651  28.702  38.880  1.00  0.00    -0.237 OA
ATOM     90  O   UNL A   1      47.184  26.988  39.872  1.00  0.00    -0.744 OA
ENDBRANCH  86  87
ENDBRANCH  60  81
ENDBRANCH  34  35
ENDBRANCH  27  29
ENDBRANCH  26  27
ENDBRANCH  25  26
ENDBRANCH  24  25
ENDBRANCH  23  24
ENDBRANCH   1  23
TORSDOF 22
ENDMDL
