MODEL 1
REMARK VINA RESULT:      -9.8      0.000      0.000
REMARK SMILES CSC[C@H](C(=O)OCCOCCOC(=O)c1ccc(-c2c3nc(c(-c4ccc(S(=O)(=O)[O-])cc4)c4ccc([nH]4)c(-c4ccc(S(=O)(=O)[O-])cc4)c4nc(c(-c5ccc(S(=O)(=O)[O-])cc5)c5ccc2[nH]5)C=C4)C=C3)cc1)c1ccccc1
REMARK SMILES IDX 11 1 10 2 9 3 8 4 7 5 5 6 6 7 4 8 3 9 2 10 1 11 76 12 77 13
REMARK SMILES IDX 81 14 78 15 80 16 79 17 12 18 13 19 14 20 15 21 16 22 17 23
REMARK SMILES IDX 75 24 18 25 74 26 19 27 20 28 21 29 68 30 22 31 73 32 67 33
REMARK SMILES IDX 69 34 23 35 72 36 66 37 65 38 24 40 54 41 35 42 53 43 36 44
REMARK SMILES IDX 39 45 52 46 70 47 37 48 38 49 51 51 71 52 40 53 25 54 26 55
REMARK SMILES IDX 34 56 27 57 33 58 28 59 29 60 30 61 31 62 32 63 55 64 56 65
REMARK SMILES IDX 64 66 57 67 63 68 58 69 59 70 60 71 61 72 62 73 41 74 42 75
REMARK SMILES IDX 50 76 43 77 49 78 44 79 45 80 46 81 47 82 48 83
REMARK H PARENT 69 39 39 50
REMARK Flexibility Score: inf
ROOT
ATOM      1  C   UNL A   1      39.858  21.793  26.588  1.00  0.00     0.202 C 
ENDROOT
BRANCH   1   2
ATOM      2  O   UNL A   1      39.060  21.713  25.406  1.00  0.00    -0.374 OA
BRANCH   2   3
ATOM      3  C   UNL A   1      37.704  21.276  25.548  1.00  0.00     0.202 C 
BRANCH   3   4
ATOM      4  C   UNL A   1      36.681  22.372  25.855  1.00  0.00     0.261 C 
BRANCH   4   5
ATOM      5  O   UNL A   1      35.505  22.105  25.084  1.00  0.00    -0.463 OA
BRANCH   5   6
ATOM      6  C   UNL A   1      34.467  21.499  25.723  1.00  0.00     0.314 C 
ATOM      7  O   UNL A   1      34.389  21.342  26.933  1.00  0.00    -0.252 OA
BRANCH   6   8
ATOM      8  C   UNL A   1      33.375  21.174  24.697  1.00  0.00     0.139 C 
BRANCH   8   9
ATOM      9  C   UNL A   1      33.354  22.222  23.571  1.00  0.00     0.089 C 
BRANCH   9  10
ATOM     10  S   UNL A   1      32.112  23.574  23.658  1.00  0.00    -0.164 SA
ATOM     11  C   UNL A   1      33.050  24.896  24.466  1.00  0.00     0.085 C 
ENDBRANCH   9  10
ENDBRANCH   8   9
BRANCH   8  12
ATOM     12  C   UNL A   1      33.476  19.704  24.258  1.00  0.00    -0.033 A 
ATOM     13  C   UNL A   1      32.520  19.077  23.447  1.00  0.00     0.004 A 
ATOM     14  C   UNL A   1      34.589  18.940  24.670  1.00  0.00     0.004 A 
ATOM     15  C   UNL A   1      32.701  17.759  23.014  1.00  0.00     0.000 A 
ATOM     16  C   UNL A   1      34.770  17.627  24.233  1.00  0.00     0.000 A 
ATOM     17  C   UNL A   1      33.830  17.038  23.396  1.00  0.00     0.000 A 
ENDBRANCH   8  12
ENDBRANCH   6   8
ENDBRANCH   5   6
ENDBRANCH   4   5
ENDBRANCH   3   4
ENDBRANCH   2   3
ENDBRANCH   1   2
BRANCH   1  18
ATOM     18  C   UNL A   1      40.622  23.100  26.838  1.00  0.00     0.261 C 
BRANCH  18  19
ATOM     19  O   UNL A   1      39.829  24.272  26.587  1.00  0.00    -0.460 OA
BRANCH  19  20
ATOM     20  C   UNL A   1      40.551  25.390  26.333  1.00  0.00     0.338 C 
ATOM     21  O   UNL A   1      40.929  25.790  25.240  1.00  0.00    -0.246 OA
BRANCH  20  22
ATOM     22  C   UNL A   1      40.673  26.198  27.558  1.00  0.00     0.060 A 
ATOM     23  C   UNL A   1      39.657  26.083  28.514  1.00  0.00     0.016 A 
ATOM     24  C   UNL A   1      41.722  27.102  27.739  1.00  0.00     0.016 A 
ATOM     25  C   UNL A   1      39.663  26.902  29.641  1.00  0.00     0.010 A 
ATOM     26  C   UNL A   1      41.721  27.929  28.868  1.00  0.00     0.010 A 
ATOM     27  C   UNL A   1      40.674  27.857  29.805  1.00  0.00    -0.014 A 
BRANCH  27  28
ATOM     28  C   UNL A   1      40.550  28.875  30.878  1.00  0.00     0.031 A 
ATOM     29  C   UNL A   1      41.464  28.791  32.071  1.00  0.00     0.074 A 
ATOM     30  C   UNL A   1      39.660  29.878  30.776  1.00  0.00     0.049 A 
ATOM     31  N   UNL A   1      41.511  29.554  33.132  1.00  0.00    -0.248 NA
ATOM     32  C   UNL A   1      42.455  27.703  32.068  1.00  0.00     0.031 C 
ATOM     33  C   UNL A   1      38.753  30.094  29.649  1.00  0.00     0.029 A 
ATOM     34  N   UNL A   1      39.372  30.904  31.641  1.00  0.00    -0.354 N 
ATOM     35  C   UNL A   1      42.524  29.032  33.929  1.00  0.00     0.074 A 
ATOM     36  C   UNL A   1      43.047  27.871  33.241  1.00  0.00     0.031 C 
ATOM     37  C   UNL A   1      38.006  31.184  29.895  1.00  0.00     0.029 A 
ATOM     38  C   UNL A   1      38.354  31.720  31.209  1.00  0.00     0.049 A 
ATOM     39  H   UNL A   1      39.851  31.044  32.490  1.00  0.00     0.167 HD
ATOM     40  C   UNL A   1      42.982  29.482  35.121  1.00  0.00     0.031 A 
ATOM     41  C   UNL A   1      37.754  32.765  31.815  1.00  0.00     0.031 A 
ATOM     42  C   UNL A   1      42.454  30.633  35.805  1.00  0.00     0.049 A 
ATOM     43  C   UNL A   1      38.231  33.201  33.177  1.00  0.00     0.074 A 
ATOM     44  C   UNL A   1      42.865  31.180  37.008  1.00  0.00     0.029 A 
ATOM     45  N   UNL A   1      41.398  31.409  35.352  1.00  0.00    -0.354 N 
ATOM     46  N   UNL A   1      39.209  32.714  33.905  1.00  0.00    -0.248 NA
ATOM     47  C   UNL A   1      37.530  34.336  33.793  1.00  0.00     0.031 C 
ATOM     48  C   UNL A   1      42.015  32.248  37.315  1.00  0.00     0.029 A 
ATOM     49  C   UNL A   1      41.122  32.411  36.268  1.00  0.00     0.049 A 
ATOM     50  H   UNL A   1      40.916  31.270  34.506  1.00  0.00     0.167 HD
ATOM     51  C   UNL A   1      39.258  33.502  35.050  1.00  0.00     0.074 A 
ATOM     52  C   UNL A   1      38.223  34.505  34.912  1.00  0.00     0.031 C 
ATOM     53  C   UNL A   1      40.089  33.405  36.119  1.00  0.00     0.031 A 
BRANCH  40  54
ATOM     54  C   UNL A   1      44.089  28.704  35.783  1.00  0.00    -0.014 A 
ATOM     55  C   UNL A   1      45.441  28.959  35.492  1.00  0.00     0.010 A 
ATOM     56  C   UNL A   1      43.770  27.729  36.748  1.00  0.00     0.010 A 
ATOM     57  C   UNL A   1      46.452  28.230  36.125  1.00  0.00     0.020 A 
ATOM     58  C   UNL A   1      44.778  27.020  37.405  1.00  0.00     0.020 A 
ATOM     59  C   UNL A   1      46.113  27.264  37.077  1.00  0.00     0.054 A 
BRANCH  59  60
ATOM     60  S   UNL A   1      47.447  26.351  37.903  1.00  0.00     0.124 S 
ATOM     61  O   UNL A   1      47.545  27.055  39.180  1.00  0.00    -0.237 OA
ATOM     62  O   UNL A   1      46.910  24.994  37.973  1.00  0.00    -0.237 OA
ATOM     63  O   UNL A   1      48.590  26.522  37.010  1.00  0.00    -0.744 OA
ENDBRANCH  59  60
ENDBRANCH  40  54
BRANCH  41  64
ATOM     64  C   UNL A   1      36.617  33.459  31.149  1.00  0.00    -0.014 A 
ATOM     65  C   UNL A   1      35.402  33.667  31.826  1.00  0.00     0.010 A 
ATOM     66  C   UNL A   1      36.745  33.911  29.823  1.00  0.00     0.010 A 
ATOM     67  C   UNL A   1      34.332  34.297  31.184  1.00  0.00     0.020 A 
ATOM     68  C   UNL A   1      35.688  34.570  29.187  1.00  0.00     0.020 A 
ATOM     69  C   UNL A   1      34.483  34.747  29.869  1.00  0.00     0.054 A 
BRANCH  69  70
ATOM     70  S   UNL A   1      33.095  35.601  29.073  1.00  0.00     0.124 S 
ATOM     71  O   UNL A   1      32.505  34.538  28.266  1.00  0.00    -0.237 OA
ATOM     72  O   UNL A   1      32.301  36.045  30.216  1.00  0.00    -0.237 OA
ATOM     73  O   UNL A   1      33.740  36.674  28.319  1.00  0.00    -0.744 OA
ENDBRANCH  69  70
ENDBRANCH  41  64
BRANCH  53  74
ATOM     74  C   UNL A   1      39.945  34.434  37.211  1.00  0.00    -0.014 A 
ATOM     75  C   UNL A   1      40.577  35.687  37.127  1.00  0.00     0.010 A 
ATOM     76  C   UNL A   1      39.110  34.162  38.311  1.00  0.00     0.010 A 
ATOM     77  C   UNL A   1      40.401  36.638  38.138  1.00  0.00     0.020 A 
ATOM     78  C   UNL A   1      38.906  35.121  39.308  1.00  0.00     0.020 A 
ATOM     79  C   UNL A   1      39.566  36.348  39.221  1.00  0.00     0.054 A 
BRANCH  79  80
ATOM     80  S   UNL A   1      39.318  37.615  40.496  1.00  0.00     0.124 S 
ATOM     81  O   UNL A   1      38.957  36.810  41.660  1.00  0.00    -0.237 OA
ATOM     82  O   UNL A   1      40.626  38.262  40.562  1.00  0.00    -0.237 OA
ATOM     83  O   UNL A   1      38.244  38.447  39.956  1.00  0.00    -0.744 OA
ENDBRANCH  79  80
ENDBRANCH  53  74
ENDBRANCH  27  28
ENDBRANCH  20  22
ENDBRANCH  19  20
ENDBRANCH  18  19
ENDBRANCH   1  18
TORSDOF 20
ENDMDL
MODEL 2
REMARK VINA RESULT:      -9.6      3.757      5.361
REMARK SMILES CSC[C@H](C(=O)OCCOCCOC(=O)c1ccc(-c2c3nc(c(-c4ccc(S(=O)(=O)[O-])cc4)c4ccc([nH]4)c(-c4ccc(S(=O)(=O)[O-])cc4)c4nc(c(-c5ccc(S(=O)(=O)[O-])cc5)c5ccc2[nH]5)C=C4)C=C3)cc1)c1ccccc1
REMARK SMILES IDX 11 1 10 2 9 3 8 4 7 5 5 6 6 7 4 8 3 9 2 10 1 11 76 12 77 13
REMARK SMILES IDX 81 14 78 15 80 16 79 17 12 18 13 19 14 20 15 21 16 22 17 23
REMARK SMILES IDX 75 24 18 25 74 26 19 27 20 28 21 29 68 30 22 31 73 32 67 33
REMARK SMILES IDX 69 34 23 35 72 36 66 37 65 38 24 40 54 41 35 42 53 43 36 44
REMARK SMILES IDX 39 45 52 46 70 47 37 48 38 49 51 51 71 52 40 53 25 54 26 55
REMARK SMILES IDX 34 56 27 57 33 58 28 59 29 60 30 61 31 62 32 63 55 64 56 65
REMARK SMILES IDX 64 66 57 67 63 68 58 69 59 70 60 71 61 72 62 73 41 74 42 75
REMARK SMILES IDX 50 76 43 77 49 78 44 79 45 80 46 81 47 82 48 83
REMARK H PARENT 69 39 39 50
REMARK Flexibility Score: inf
ROOT
ATOM      1  C   UNL A   1      36.831  21.527  24.273  1.00  0.00     0.202 C 
ENDROOT
BRANCH   1   2
ATOM      2  O   UNL A   1      36.682  22.753  23.557  1.00  0.00    -0.374 OA
BRANCH   2   3
ATOM      3  C   UNL A   1      35.398  23.386  23.581  1.00  0.00     0.202 C 
BRANCH   3   4
ATOM      4  C   UNL A   1      35.012  24.055  24.903  1.00  0.00     0.261 C 
BRANCH   4   5
ATOM      5  O   UNL A   1      34.688  25.422  24.624  1.00  0.00    -0.463 OA
BRANCH   5   6
ATOM      6  C   UNL A   1      33.712  25.995  25.381  1.00  0.00     0.314 C 
ATOM      7  O   UNL A   1      33.306  25.555  26.447  1.00  0.00    -0.252 OA
BRANCH   6   8
ATOM      8  C   UNL A   1      33.313  27.332  24.745  1.00  0.00     0.139 C 
BRANCH   8   9
ATOM      9  C   UNL A   1      31.989  27.199  23.975  1.00  0.00     0.089 C 
BRANCH   9  10
ATOM     10  S   UNL A   1      32.052  26.721  22.201  1.00  0.00    -0.164 SA
ATOM     11  C   UNL A   1      32.075  24.912  22.298  1.00  0.00     0.085 C 
ENDBRANCH   9  10
ENDBRANCH   8   9
BRANCH   8  12
ATOM     12  C   UNL A   1      33.385  28.461  25.786  1.00  0.00    -0.033 A 
ATOM     13  C   UNL A   1      34.555  28.787  26.487  1.00  0.00     0.004 A 
ATOM     14  C   UNL A   1      32.228  29.226  26.048  1.00  0.00     0.004 A 
ATOM     15  C   UNL A   1      34.582  29.874  27.368  1.00  0.00     0.000 A 
ATOM     16  C   UNL A   1      32.259  30.313  26.924  1.00  0.00     0.000 A 
ATOM     17  C   UNL A   1      33.440  30.644  27.577  1.00  0.00     0.000 A 
ENDBRANCH   8  12
ENDBRANCH   6   8
ENDBRANCH   5   6
ENDBRANCH   4   5
ENDBRANCH   3   4
ENDBRANCH   2   3
ENDBRANCH   1   2
BRANCH   1  18
ATOM     18  C   UNL A   1      38.012  21.417  25.247  1.00  0.00     0.261 C 
BRANCH  18  19
ATOM     19  O   UNL A   1      38.194  22.598  26.046  1.00  0.00    -0.460 OA
BRANCH  19  20
ATOM     20  C   UNL A   1      39.485  22.871  26.354  1.00  0.00     0.338 C 
ATOM     21  O   UNL A   1      40.469  22.206  26.058  1.00  0.00    -0.246 OA
BRANCH  20  22
ATOM     22  C   UNL A   1      39.585  24.213  26.951  1.00  0.00     0.060 A 
ATOM     23  C   UNL A   1      40.227  25.209  26.205  1.00  0.00     0.016 A 
ATOM     24  C   UNL A   1      39.126  24.477  28.243  1.00  0.00     0.016 A 
ATOM     25  C   UNL A   1      40.449  26.466  26.762  1.00  0.00     0.010 A 
ATOM     26  C   UNL A   1      39.357  25.738  28.804  1.00  0.00     0.010 A 
ATOM     27  C   UNL A   1      40.050  26.725  28.079  1.00  0.00    -0.014 A 
BRANCH  27  28
ATOM     28  C   UNL A   1      40.491  27.978  28.742  1.00  0.00     0.031 A 
ATOM     29  C   UNL A   1      41.892  28.061  29.286  1.00  0.00     0.074 A 
ATOM     30  C   UNL A   1      39.667  29.038  28.829  1.00  0.00     0.049 A 
ATOM     31  N   UNL A   1      42.476  29.042  29.923  1.00  0.00    -0.248 NA
ATOM     32  C   UNL A   1      42.748  26.880  29.086  1.00  0.00     0.031 C 
ATOM     33  C   UNL A   1      38.305  29.097  28.300  1.00  0.00     0.029 A 
ATOM     34  N   UNL A   1      39.861  30.271  29.401  1.00  0.00    -0.354 N 
ATOM     35  C   UNL A   1      43.760  28.594  30.212  1.00  0.00     0.074 A 
ATOM     36  C   UNL A   1      43.861  27.243  29.706  1.00  0.00     0.031 C 
ATOM     37  C   UNL A   1      37.784  30.305  28.576  1.00  0.00     0.029 A 
ATOM     38  C   UNL A   1      38.759  31.089  29.333  1.00  0.00     0.049 A 
ATOM     39  H   UNL A   1      40.710  30.544  29.818  1.00  0.00     0.167 HD
ATOM     40  C   UNL A   1      44.766  29.252  30.837  1.00  0.00     0.031 A 
ATOM     41  C   UNL A   1      38.550  32.319  29.844  1.00  0.00     0.031 A 
ATOM     42  C   UNL A   1      44.659  30.593  31.347  1.00  0.00     0.049 A 
ATOM     43  C   UNL A   1      39.660  33.001  30.601  1.00  0.00     0.074 A 
ATOM     44  C   UNL A   1      45.629  31.352  31.978  1.00  0.00     0.029 A 
ATOM     45  N   UNL A   1      43.514  31.373  31.292  1.00  0.00    -0.354 N 
ATOM     46  N   UNL A   1      40.879  32.575  30.842  1.00  0.00    -0.248 NA
ATOM     47  C   UNL A   1      39.370  34.335  31.147  1.00  0.00     0.031 C 
ATOM     48  C   UNL A   1      45.051  32.567  32.363  1.00  0.00     0.029 A 
ATOM     49  C   UNL A   1      43.743  32.593  31.906  1.00  0.00     0.049 A 
ATOM     50  H   UNL A   1      42.664  31.101  30.877  1.00  0.00     0.167 HD
ATOM     51  C   UNL A   1      41.507  33.601  31.541  1.00  0.00     0.074 A 
ATOM     52  C   UNL A   1      40.542  34.672  31.671  1.00  0.00     0.031 C 
ATOM     53  C   UNL A   1      42.773  33.652  32.029  1.00  0.00     0.031 A 
BRANCH  40  54
ATOM     54  C   UNL A   1      46.063  28.513  31.040  1.00  0.00    -0.014 A 
ATOM     55  C   UNL A   1      47.116  28.612  30.113  1.00  0.00     0.010 A 
ATOM     56  C   UNL A   1      46.247  27.741  32.203  1.00  0.00     0.010 A 
ATOM     57  C   UNL A   1      48.314  27.924  30.325  1.00  0.00     0.020 A 
ATOM     58  C   UNL A   1      47.454  27.076  32.434  1.00  0.00     0.020 A 
ATOM     59  C   UNL A   1      48.475  27.159  31.485  1.00  0.00     0.054 A 
BRANCH  59  60
ATOM     60  S   UNL A   1      50.050  26.299  31.749  1.00  0.00     0.124 S 
ATOM     61  O   UNL A   1      49.620  25.095  32.456  1.00  0.00    -0.237 OA
ATOM     62  O   UNL A   1      50.532  26.089  30.386  1.00  0.00    -0.237 OA
ATOM     63  O   UNL A   1      50.832  27.241  32.546  1.00  0.00    -0.744 OA
ENDBRANCH  59  60
ENDBRANCH  40  54
BRANCH  41  64
ATOM     64  C   UNL A   1      37.226  32.980  29.676  1.00  0.00    -0.014 A 
ATOM     65  C   UNL A   1      36.356  33.140  30.769  1.00  0.00     0.010 A 
ATOM     66  C   UNL A   1      36.825  33.449  28.411  1.00  0.00     0.010 A 
ATOM     67  C   UNL A   1      35.105  33.739  30.597  1.00  0.00     0.020 A 
ATOM     68  C   UNL A   1      35.588  34.077  28.241  1.00  0.00     0.020 A 
ATOM     69  C   UNL A   1      34.730  34.207  29.334  1.00  0.00     0.054 A 
BRANCH  69  70
ATOM     70  S   UNL A   1      33.119  35.020  29.146  1.00  0.00     0.124 S 
ATOM     71  O   UNL A   1      32.461  34.168  28.160  1.00  0.00    -0.237 OA
ATOM     72  O   UNL A   1      32.576  34.958  30.501  1.00  0.00    -0.237 OA
ATOM     73  O   UNL A   1      33.465  36.362  28.682  1.00  0.00    -0.744 OA
ENDBRANCH  69  70
ENDBRANCH  41  64
BRANCH  53  74
ATOM     74  C   UNL A   1      43.207  34.923  32.714  1.00  0.00    -0.014 A 
ATOM     75  C   UNL A   1      43.788  35.983  31.996  1.00  0.00     0.010 A 
ATOM     76  C   UNL A   1      42.969  35.081  34.092  1.00  0.00     0.010 A 
ATOM     77  C   UNL A   1      44.153  37.165  32.649  1.00  0.00     0.020 A 
ATOM     78  C   UNL A   1      43.303  36.272  34.743  1.00  0.00     0.020 A 
ATOM     79  C   UNL A   1      43.906  37.302  34.019  1.00  0.00     0.054 A 
BRANCH  79  80
ATOM     80  S   UNL A   1      44.345  38.862  34.834  1.00  0.00     0.124 S 
ATOM     81  O   UNL A   1      44.038  38.572  36.232  1.00  0.00    -0.237 OA
ATOM     82  O   UNL A   1      45.765  38.998  34.518  1.00  0.00    -0.237 OA
ATOM     83  O   UNL A   1      43.473  39.845  34.195  1.00  0.00    -0.744 OA
ENDBRANCH  79  80
ENDBRANCH  53  74
ENDBRANCH  27  28
ENDBRANCH  20  22
ENDBRANCH  19  20
ENDBRANCH  18  19
ENDBRANCH   1  18
TORSDOF 20
ENDMDL
MODEL 3
REMARK VINA RESULT:      -9.5      1.310      2.339
REMARK SMILES CSC[C@H](C(=O)OCCOCCOC(=O)c1ccc(-c2c3nc(c(-c4ccc(S(=O)(=O)[O-])cc4)c4ccc([nH]4)c(-c4ccc(S(=O)(=O)[O-])cc4)c4nc(c(-c5ccc(S(=O)(=O)[O-])cc5)c5ccc2[nH]5)C=C4)C=C3)cc1)c1ccccc1
REMARK SMILES IDX 11 1 10 2 9 3 8 4 7 5 5 6 6 7 4 8 3 9 2 10 1 11 76 12 77 13
REMARK SMILES IDX 81 14 78 15 80 16 79 17 12 18 13 19 14 20 15 21 16 22 17 23
REMARK SMILES IDX 75 24 18 25 74 26 19 27 20 28 21 29 68 30 22 31 73 32 67 33
REMARK SMILES IDX 69 34 23 35 72 36 66 37 65 38 24 40 54 41 35 42 53 43 36 44
REMARK SMILES IDX 39 45 52 46 70 47 37 48 38 49 51 51 71 52 40 53 25 54 26 55
REMARK SMILES IDX 34 56 27 57 33 58 28 59 29 60 30 61 31 62 32 63 55 64 56 65
REMARK SMILES IDX 64 66 57 67 63 68 58 69 59 70 60 71 61 72 62 73 41 74 42 75
REMARK SMILES IDX 50 76 43 77 49 78 44 79 45 80 46 81 47 82 48 83
REMARK H PARENT 69 39 39 50
REMARK Flexibility Score: inf
ROOT
ATOM      1  C   UNL A   1      41.082  21.816  26.634  1.00  0.00     0.202 C 
ENDROOT
BRANCH   1   2
ATOM      2  O   UNL A   1      40.079  21.584  25.644  1.00  0.00    -0.374 OA
BRANCH   2   3
ATOM      3  C   UNL A   1      38.712  21.590  26.069  1.00  0.00     0.202 C 
BRANCH   3   4
ATOM      4  C   UNL A   1      37.814  22.640  25.410  1.00  0.00     0.261 C 
BRANCH   4   5
ATOM      5  O   UNL A   1      36.865  21.953  24.587  1.00  0.00    -0.463 OA
BRANCH   5   6
ATOM      6  C   UNL A   1      36.268  22.671  23.596  1.00  0.00     0.314 C 
ATOM      7  O   UNL A   1      36.840  23.099  22.604  1.00  0.00    -0.252 OA
BRANCH   6   8
ATOM      8  C   UNL A   1      34.761  22.731  23.867  1.00  0.00     0.139 C 
BRANCH   8   9
ATOM      9  C   UNL A   1      34.355  21.703  24.937  1.00  0.00     0.089 C 
BRANCH   9  10
ATOM     10  S   UNL A   1      32.740  20.845  24.758  1.00  0.00    -0.164 SA
ATOM     11  C   UNL A   1      31.600  22.021  25.531  1.00  0.00     0.085 C 
ENDBRANCH   9  10
ENDBRANCH   8   9
BRANCH   8  12
ATOM     12  C   UNL A   1      34.321  24.183  24.117  1.00  0.00    -0.033 A 
ATOM     13  C   UNL A   1      33.890  25.042  23.096  1.00  0.00     0.004 A 
ATOM     14  C   UNL A   1      34.331  24.685  25.436  1.00  0.00     0.004 A 
ATOM     15  C   UNL A   1      33.429  26.330  23.391  1.00  0.00     0.000 A 
ATOM     16  C   UNL A   1      33.866  25.968  25.728  1.00  0.00     0.000 A 
ATOM     17  C   UNL A   1      33.405  26.788  24.706  1.00  0.00     0.000 A 
ENDBRANCH   8  12
ENDBRANCH   6   8
ENDBRANCH   5   6
ENDBRANCH   4   5
ENDBRANCH   3   4
ENDBRANCH   2   3
ENDBRANCH   1   2
BRANCH   1  18
ATOM     18  C   UNL A   1      41.529  23.265  26.861  1.00  0.00     0.261 C 
BRANCH  18  19
ATOM     19  O   UNL A   1      40.572  24.230  26.394  1.00  0.00    -0.460 OA
BRANCH  19  20
ATOM     20  C   UNL A   1      41.088  25.460  26.158  1.00  0.00     0.338 C 
ATOM     21  O   UNL A   1      41.334  25.959  25.067  1.00  0.00    -0.246 OA
BRANCH  20  22
ATOM     22  C   UNL A   1      41.150  26.228  27.412  1.00  0.00     0.060 A 
ATOM     23  C   UNL A   1      40.096  26.072  28.321  1.00  0.00     0.016 A 
ATOM     24  C   UNL A   1      42.180  27.136  27.667  1.00  0.00     0.016 A 
ATOM     25  C   UNL A   1      40.045  26.853  29.473  1.00  0.00     0.010 A 
ATOM     26  C   UNL A   1      42.122  27.926  28.821  1.00  0.00     0.010 A 
ATOM     27  C   UNL A   1      41.038  27.812  29.710  1.00  0.00    -0.014 A 
BRANCH  27  28
ATOM     28  C   UNL A   1      40.857  28.792  30.810  1.00  0.00     0.031 A 
ATOM     29  C   UNL A   1      41.759  28.713  32.012  1.00  0.00     0.074 A 
ATOM     30  C   UNL A   1      39.927  29.760  30.723  1.00  0.00     0.049 A 
ATOM     31  N   UNL A   1      41.760  29.447  33.096  1.00  0.00    -0.248 NA
ATOM     32  C   UNL A   1      42.795  27.668  31.993  1.00  0.00     0.031 C 
ATOM     33  C   UNL A   1      39.026  29.970  29.591  1.00  0.00     0.029 A 
ATOM     34  N   UNL A   1      39.586  30.748  31.613  1.00  0.00    -0.354 N 
ATOM     35  C   UNL A   1      42.784  28.945  33.891  1.00  0.00     0.074 A 
ATOM     36  C   UNL A   1      43.364  27.826  33.179  1.00  0.00     0.031 C 
ATOM     37  C   UNL A   1      38.231  31.021  29.857  1.00  0.00     0.029 A 
ATOM     38  C   UNL A   1      38.539  31.533  31.190  1.00  0.00     0.049 A 
ATOM     39  H   UNL A   1      40.048  30.883  32.472  1.00  0.00     0.167 HD
ATOM     40  C   UNL A   1      43.208  29.379  35.101  1.00  0.00     0.031 A 
ATOM     41  C   UNL A   1      37.888  32.534  31.817  1.00  0.00     0.031 A 
ATOM     42  C   UNL A   1      42.623  30.487  35.810  1.00  0.00     0.049 A 
ATOM     43  C   UNL A   1      38.329  32.950  33.196  1.00  0.00     0.074 A 
ATOM     44  C   UNL A   1      42.994  31.016  37.034  1.00  0.00     0.029 A 
ATOM     45  N   UNL A   1      41.541  31.231  35.365  1.00  0.00    -0.354 N 
ATOM     46  N   UNL A   1      39.317  32.484  33.924  1.00  0.00    -0.248 NA
ATOM     47  C   UNL A   1      37.573  34.037  33.835  1.00  0.00     0.031 C 
ATOM     48  C   UNL A   1      42.096  32.038  37.359  1.00  0.00     0.029 A 
ATOM     49  C   UNL A   1      41.211  32.194  36.305  1.00  0.00     0.049 A 
ATOM     50  H   UNL A   1      41.076  31.096  34.508  1.00  0.00     0.167 HD
ATOM     51  C   UNL A   1      39.318  33.240  35.092  1.00  0.00     0.074 A 
ATOM     52  C   UNL A   1      38.244  34.202  34.968  1.00  0.00     0.031 C 
ATOM     53  C   UNL A   1      40.139  33.148  36.169  1.00  0.00     0.031 A 
BRANCH  40  54
ATOM     54  C   UNL A   1      44.338  28.630  35.757  1.00  0.00    -0.014 A 
ATOM     55  C   UNL A   1      45.678  29.007  35.564  1.00  0.00     0.010 A 
ATOM     56  C   UNL A   1      44.049  27.553  36.618  1.00  0.00     0.010 A 
ATOM     57  C   UNL A   1      46.711  28.302  36.189  1.00  0.00     0.020 A 
ATOM     58  C   UNL A   1      45.075  26.864  37.268  1.00  0.00     0.020 A 
ATOM     59  C   UNL A   1      46.402  27.233  37.037  1.00  0.00     0.054 A 
BRANCH  59  60
ATOM     60  S   UNL A   1      47.760  26.352  37.856  1.00  0.00     0.124 S 
ATOM     61  O   UNL A   1      48.128  25.363  36.847  1.00  0.00    -0.237 OA
ATOM     62  O   UNL A   1      48.738  27.413  38.083  1.00  0.00    -0.237 OA
ATOM     63  O   UNL A   1      47.143  25.808  39.064  1.00  0.00    -0.744 OA
ENDBRANCH  59  60
ENDBRANCH  40  54
BRANCH  41  64
ATOM     64  C   UNL A   1      36.731  33.198  31.154  1.00  0.00    -0.014 A 
ATOM     65  C   UNL A   1      35.478  33.263  31.788  1.00  0.00     0.010 A 
ATOM     66  C   UNL A   1      36.880  33.767  29.876  1.00  0.00     0.010 A 
ATOM     67  C   UNL A   1      34.391  33.868  31.148  1.00  0.00     0.020 A 
ATOM     68  C   UNL A   1      35.805  34.400  29.246  1.00  0.00     0.020 A 
ATOM     69  C   UNL A   1      34.563  34.435  29.881  1.00  0.00     0.054 A 
BRANCH  69  70
ATOM     70  S   UNL A   1      33.149  35.252  29.090  1.00  0.00     0.124 S 
ATOM     71  O   UNL A   1      32.722  34.249  28.119  1.00  0.00    -0.237 OA
ATOM     72  O   UNL A   1      32.243  35.471  30.215  1.00  0.00    -0.237 OA
ATOM     73  O   UNL A   1      33.730  36.466  28.522  1.00  0.00    -0.744 OA
ENDBRANCH  69  70
ENDBRANCH  41  64
BRANCH  53  74
ATOM     74  C   UNL A   1      39.938  34.138  37.288  1.00  0.00    -0.014 A 
ATOM     75  C   UNL A   1      40.407  35.460  37.191  1.00  0.00     0.010 A 
ATOM     76  C   UNL A   1      39.209  33.753  38.429  1.00  0.00     0.010 A 
ATOM     77  C   UNL A   1      40.180  36.369  38.229  1.00  0.00     0.020 A 
ATOM     78  C   UNL A   1      38.952  34.667  39.455  1.00  0.00     0.020 A 
ATOM     79  C   UNL A   1      39.452  35.967  39.354  1.00  0.00     0.054 A 
BRANCH  79  80
ATOM     80  S   UNL A   1      39.130  37.178  40.665  1.00  0.00     0.124 S 
ATOM     81  O   UNL A   1      38.472  36.361  41.681  1.00  0.00    -0.237 OA
ATOM     82  O   UNL A   1      40.472  37.644  41.006  1.00  0.00    -0.237 OA
ATOM     83  O   UNL A   1      38.277  38.173  40.018  1.00  0.00    -0.744 OA
ENDBRANCH  79  80
ENDBRANCH  53  74
ENDBRANCH  27  28
ENDBRANCH  20  22
ENDBRANCH  19  20
ENDBRANCH  18  19
ENDBRANCH   1  18
TORSDOF 20
ENDMDL
