MODEL 1
REMARK VINA RESULT:      -9.2      0.000      0.000
REMARK SMILES [N-]=[N+]=NC[C@@H](Nc1ccccc1Br)C(=O)OCCOCCOC(=O)c1ccc(-c2c3nc(c(-c4ccc(S(=O)(=O)[O-])cc4)c4ccc([nH]4)c(-c4ccc(S(=O)(=O)[O-])cc4)c4nc(c(-c5ccc(S(=O)(=O)[O-])cc5)c5ccc2[nH]5)C=C4)C=C3)cc1
REMARK SMILES IDX 20 1 19 2 18 3 17 4 16 5 14 6 15 7 5 8 4 9 3 10 1 11 2 12
REMARK SMILES IDX 6 13 7 15 8 16 12 17 9 18 11 19 13 20 10 21 21 22 22 23
REMARK SMILES IDX 23 24 24 25 25 26 26 27 84 28 27 29 83 30 28 31 29 32 30 33
REMARK SMILES IDX 77 34 31 35 82 36 76 37 78 38 32 39 81 40 75 41 74 42 33 44
REMARK SMILES IDX 63 45 44 46 62 47 45 48 48 49 61 50 79 51 46 52 47 53 60 55
REMARK SMILES IDX 80 56 49 57 34 58 35 59 43 60 36 61 42 62 37 63 38 64 39 65
REMARK SMILES IDX 40 66 41 67 64 68 65 69 73 70 66 71 72 72 67 73 68 74 69 75
REMARK SMILES IDX 70 76 71 77 50 78 51 79 59 80 52 81 58 82 53 83 54 84 55 85
REMARK SMILES IDX 56 86 57 87
REMARK H PARENT 6 14 78 43 48 54
REMARK Flexibility Score: inf
ROOT
ATOM      1  C   UNL A   1      36.717  22.426  24.272  1.00  0.00     0.202 C 
ENDROOT
BRANCH   1   2
ATOM      2  O   UNL A   1      35.371  21.962  24.192  1.00  0.00    -0.374 OA
BRANCH   2   3
ATOM      3  C   UNL A   1      34.901  21.080  25.207  1.00  0.00     0.202 C 
BRANCH   3   4
ATOM      4  C   UNL A   1      33.836  21.590  26.181  1.00  0.00     0.261 C 
BRANCH   4   5
ATOM      5  O   UNL A   1      33.800  23.019  26.309  1.00  0.00    -0.462 OA
BRANCH   5   6
ATOM      6  C   UNL A   1      32.623  23.598  25.932  1.00  0.00     0.328 C 
ATOM      7  O   UNL A   1      31.557  22.998  25.830  1.00  0.00    -0.250 OA
BRANCH   6   8
ATOM      8  C   UNL A   1      32.767  25.102  25.684  1.00  0.00     0.195 C 
BRANCH   8   9
ATOM      9  C   UNL A   1      33.617  25.348  24.417  1.00  0.00     0.127 C 
BRANCH   9  10
ATOM     10  N   UNL A   1      33.050  24.641  23.248  1.00  0.00    -0.091 NA
ATOM     11  N   UNL A   1      33.282  25.749  21.153  1.00  0.00    -0.003 NA
ATOM     12  N   UNL A   1      33.154  25.221  22.157  1.00  0.00     0.001 N 
ENDBRANCH   9  10
ENDBRANCH   8   9
BRANCH   8  13
ATOM     13  N   UNL A   1      31.497  25.876  25.657  1.00  0.00    -0.371 N 
ATOM     14  H   UNL A   1      30.647  25.397  25.526  1.00  0.00     0.161 HD
BRANCH  13  15
ATOM     15  C   UNL A   1      31.480  27.259  25.811  1.00  0.00     0.049 A 
ATOM     16  C   UNL A   1      31.833  27.796  27.058  1.00  0.00     0.027 A 
ATOM     17  C   UNL A   1      31.204  28.162  24.766  1.00  0.00     0.041 A 
ATOM     18  C   UNL A   1      31.967  29.175  27.239  1.00  0.00     0.002 A 
ATOM     19  C   UNL A   1      31.392  29.539  24.930  1.00  0.00     0.018 A 
ATOM     20  Br  UNL A   1      30.410  27.598  23.128  1.00  0.00    -0.049 Br
ATOM     21  C   UNL A   1      31.780  30.044  26.168  1.00  0.00     0.001 A 
ENDBRANCH  13  15
ENDBRANCH   8  13
ENDBRANCH   6   8
ENDBRANCH   5   6
ENDBRANCH   4   5
ENDBRANCH   3   4
ENDBRANCH   2   3
ENDBRANCH   1   2
BRANCH   1  22
ATOM     22  C   UNL A   1      37.775  21.470  24.834  1.00  0.00     0.261 C 
BRANCH  22  23
ATOM     23  O   UNL A   1      38.230  21.854  26.140  1.00  0.00    -0.460 OA
BRANCH  23  24
ATOM     24  C   UNL A   1      39.575  22.016  26.226  1.00  0.00     0.338 C 
ATOM     25  O   UNL A   1      40.432  21.323  25.706  1.00  0.00    -0.246 OA
BRANCH  24  26
ATOM     26  C   UNL A   1      39.891  23.289  26.898  1.00  0.00     0.060 A 
ATOM     27  C   UNL A   1      39.333  24.455  26.355  1.00  0.00     0.016 A 
ATOM     28  C   UNL A   1      40.784  23.356  27.967  1.00  0.00     0.016 A 
ATOM     29  C   UNL A   1      39.725  25.701  26.833  1.00  0.00     0.010 A 
ATOM     30  C   UNL A   1      41.180  24.609  28.442  1.00  0.00     0.010 A 
ATOM     31  C   UNL A   1      40.690  25.785  27.844  1.00  0.00    -0.014 A 
BRANCH  31  32
ATOM     32  C   UNL A   1      41.303  27.098  28.156  1.00  0.00     0.031 A 
ATOM     33  C   UNL A   1      42.785  27.274  27.959  1.00  0.00     0.074 A 
ATOM     34  C   UNL A   1      40.544  28.126  28.571  1.00  0.00     0.049 A 
ATOM     35  N   UNL A   1      43.534  28.317  28.205  1.00  0.00    -0.248 NA
ATOM     36  C   UNL A   1      43.521  26.119  27.418  1.00  0.00     0.031 C 
ATOM     37  C   UNL A   1      39.092  28.090  28.746  1.00  0.00     0.029 A 
ATOM     38  N   UNL A   1      40.894  29.405  28.925  1.00  0.00    -0.354 N 
ATOM     39  C   UNL A   1      44.829  27.941  27.865  1.00  0.00     0.074 A 
ATOM     40  C   UNL A   1      44.769  26.564  27.425  1.00  0.00     0.031 C 
ATOM     41  C   UNL A   1      38.675  29.291  29.181  1.00  0.00     0.029 A 
ATOM     42  C   UNL A   1      39.833  30.164  29.356  1.00  0.00     0.049 A 
ATOM     43  H   UNL A   1      41.815  29.745  28.875  1.00  0.00     0.167 HD
ATOM     44  C   UNL A   1      45.964  28.677  27.914  1.00  0.00     0.031 A 
ATOM     45  C   UNL A   1      39.804  31.415  29.860  1.00  0.00     0.031 A 
ATOM     46  C   UNL A   1      46.013  30.045  28.361  1.00  0.00     0.049 A 
ATOM     47  C   UNL A   1      41.091  32.188  29.976  1.00  0.00     0.074 A 
ATOM     48  C   UNL A   1      47.110  30.887  28.429  1.00  0.00     0.029 A 
ATOM     49  N   UNL A   1      44.925  30.768  28.824  1.00  0.00    -0.354 N 
ATOM     50  N   UNL A   1      42.304  31.828  29.631  1.00  0.00    -0.248 NA
ATOM     51  C   UNL A   1      41.002  33.542  30.542  1.00  0.00     0.031 C 
ATOM     52  C   UNL A   1      46.697  32.094  29.001  1.00  0.00     0.029 A 
ATOM     53  C   UNL A   1      45.328  32.034  29.214  1.00  0.00     0.049 A 
ATOM     54  H   UNL A   1      44.001  30.430  28.870  1.00  0.00     0.167 HD
ATOM     55  C   UNL A   1      43.119  32.922  29.907  1.00  0.00     0.074 A 
ATOM     56  C   UNL A   1      42.256  33.960  30.433  1.00  0.00     0.031 C 
ATOM     57  C   UNL A   1      44.457  33.057  29.738  1.00  0.00     0.031 A 
BRANCH  44  58
ATOM     58  C   UNL A   1      47.254  28.008  27.514  1.00  0.00    -0.014 A 
ATOM     59  C   UNL A   1      47.775  28.128  26.212  1.00  0.00     0.010 A 
ATOM     60  C   UNL A   1      47.984  27.283  28.475  1.00  0.00     0.010 A 
ATOM     61  C   UNL A   1      48.981  27.508  25.871  1.00  0.00     0.020 A 
ATOM     62  C   UNL A   1      49.206  26.688  28.147  1.00  0.00     0.020 A 
ATOM     63  C   UNL A   1      49.689  26.792  26.842  1.00  0.00     0.054 A 
BRANCH  63  64
ATOM     64  S   UNL A   1      51.266  26.025  26.378  1.00  0.00     0.124 S 
ATOM     65  O   UNL A   1      52.233  27.006  26.866  1.00  0.00    -0.237 OA
ATOM     66  O   UNL A   1      51.232  24.760  27.107  1.00  0.00    -0.237 OA
ATOM     67  O   UNL A   1      51.181  25.907  24.925  1.00  0.00    -0.744 OA
ENDBRANCH  63  64
ENDBRANCH  44  58
BRANCH  45  68
ATOM     68  C   UNL A   1      38.513  31.999  30.318  1.00  0.00    -0.014 A 
ATOM     69  C   UNL A   1      37.685  32.707  29.430  1.00  0.00     0.010 A 
ATOM     70  C   UNL A   1      38.104  31.845  31.656  1.00  0.00     0.010 A 
ATOM     71  C   UNL A   1      36.483  33.264  29.874  1.00  0.00     0.020 A 
ATOM     72  C   UNL A   1      36.887  32.370  32.096  1.00  0.00     0.020 A 
ATOM     73  C   UNL A   1      36.089  33.086  31.204  1.00  0.00     0.054 A 
BRANCH  73  74
ATOM     74  S   UNL A   1      34.497  33.770  31.744  1.00  0.00     0.124 S 
ATOM     75  O   UNL A   1      33.958  32.683  32.554  1.00  0.00    -0.237 OA
ATOM     76  O   UNL A   1      34.904  34.966  32.477  1.00  0.00    -0.237 OA
ATOM     77  O   UNL A   1      33.793  34.027  30.490  1.00  0.00    -0.744 OA
ENDBRANCH  73  74
ENDBRANCH  45  68
BRANCH  57  78
ATOM     78  C   UNL A   1      45.073  34.389  30.082  1.00  0.00    -0.014 A 
ATOM     79  C   UNL A   1      45.588  34.651  31.365  1.00  0.00     0.010 A 
ATOM     80  C   UNL A   1      45.189  35.375  29.085  1.00  0.00     0.010 A 
ATOM     81  C   UNL A   1      46.174  35.888  31.651  1.00  0.00     0.020 A 
ATOM     82  C   UNL A   1      45.806  36.599  29.357  1.00  0.00     0.020 A 
ATOM     83  C   UNL A   1      46.282  36.853  30.644  1.00  0.00     0.054 A 
BRANCH  83  84
ATOM     84  S   UNL A   1      47.086  38.431  31.032  1.00  0.00     0.124 S 
ATOM     85  O   UNL A   1      46.778  39.229  29.848  1.00  0.00    -0.237 OA
ATOM     86  O   UNL A   1      46.409  38.841  32.260  1.00  0.00    -0.237 OA
ATOM     87  O   UNL A   1      48.494  38.074  31.192  1.00  0.00    -0.744 OA
ENDBRANCH  83  84
ENDBRANCH  57  78
ENDBRANCH  31  32
ENDBRANCH  24  26
ENDBRANCH  23  24
ENDBRANCH  22  23
ENDBRANCH   1  22
TORSDOF 21
ENDMDL
MODEL 2
REMARK VINA RESULT:      -9.1      5.288      6.866
REMARK SMILES [N-]=[N+]=NC[C@@H](Nc1ccccc1Br)C(=O)OCCOCCOC(=O)c1ccc(-c2c3nc(c(-c4ccc(S(=O)(=O)[O-])cc4)c4ccc([nH]4)c(-c4ccc(S(=O)(=O)[O-])cc4)c4nc(c(-c5ccc(S(=O)(=O)[O-])cc5)c5ccc2[nH]5)C=C4)C=C3)cc1
REMARK SMILES IDX 20 1 19 2 18 3 17 4 16 5 14 6 15 7 5 8 4 9 3 10 1 11 2 12
REMARK SMILES IDX 6 13 7 15 8 16 12 17 9 18 11 19 13 20 10 21 21 22 22 23
REMARK SMILES IDX 23 24 24 25 25 26 26 27 84 28 27 29 83 30 28 31 29 32 30 33
REMARK SMILES IDX 77 34 31 35 82 36 76 37 78 38 32 39 81 40 75 41 74 42 33 44
REMARK SMILES IDX 63 45 44 46 62 47 45 48 48 49 61 50 79 51 46 52 47 53 60 55
REMARK SMILES IDX 80 56 49 57 34 58 35 59 43 60 36 61 42 62 37 63 38 64 39 65
REMARK SMILES IDX 40 66 41 67 64 68 65 69 73 70 66 71 72 72 67 73 68 74 69 75
REMARK SMILES IDX 70 76 71 77 50 78 51 79 59 80 52 81 58 82 53 83 54 84 55 85
REMARK SMILES IDX 56 86 57 87
REMARK H PARENT 6 14 78 43 48 54
REMARK Flexibility Score: inf
ROOT
ATOM      1  C   UNL A   1      40.652  21.696  26.486  1.00  0.00     0.202 C 
ENDROOT
BRANCH   1   2
ATOM      2  O   UNL A   1      39.228  21.755  26.493  1.00  0.00    -0.374 OA
BRANCH   2   3
ATOM      3  C   UNL A   1      38.525  21.194  25.389  1.00  0.00     0.202 C 
BRANCH   3   4
ATOM      4  C   UNL A   1      37.002  21.336  25.345  1.00  0.00     0.261 C 
BRANCH   4   5
ATOM      5  O   UNL A   1      36.546  22.500  24.640  1.00  0.00    -0.462 OA
BRANCH   5   6
ATOM      6  C   UNL A   1      36.247  23.569  25.434  1.00  0.00     0.328 C 
ATOM      7  O   UNL A   1      37.060  24.157  26.140  1.00  0.00    -0.250 OA
BRANCH   6   8
ATOM      8  C   UNL A   1      34.778  23.986  25.320  1.00  0.00     0.195 C 
BRANCH   8   9
ATOM      9  C   UNL A   1      34.002  23.530  26.576  1.00  0.00     0.127 C 
BRANCH   9  10
ATOM     10  N   UNL A   1      32.823  22.716  26.208  1.00  0.00    -0.091 NA
ATOM     11  N   UNL A   1      30.771  23.332  27.248  1.00  0.00    -0.003 NA
ATOM     12  N   UNL A   1      31.755  23.022  26.758  1.00  0.00     0.001 N 
ENDBRANCH   9  10
ENDBRANCH   8   9
BRANCH   8  13
ATOM     13  N   UNL A   1      34.537  25.421  25.011  1.00  0.00    -0.371 N 
ATOM     14  H   UNL A   1      34.999  26.110  25.543  1.00  0.00     0.161 HD
BRANCH  13  15
ATOM     15  C   UNL A   1      33.677  25.815  23.991  1.00  0.00     0.049 A 
ATOM     16  C   UNL A   1      33.393  24.900  22.967  1.00  0.00     0.027 A 
ATOM     17  C   UNL A   1      33.009  27.055  23.962  1.00  0.00     0.041 A 
ATOM     18  C   UNL A   1      32.436  25.183  21.988  1.00  0.00     0.002 A 
ATOM     19  C   UNL A   1      32.011  27.317  23.017  1.00  0.00     0.018 A 
ATOM     20  Br  UNL A   1      33.523  28.504  25.088  1.00  0.00    -0.049 Br
ATOM     21  C   UNL A   1      31.721  26.377  22.033  1.00  0.00     0.001 A 
ENDBRANCH  13  15
ENDBRANCH   8  13
ENDBRANCH   6   8
ENDBRANCH   5   6
ENDBRANCH   4   5
ENDBRANCH   3   4
ENDBRANCH   2   3
ENDBRANCH   1   2
BRANCH   1  22
ATOM     22  C   UNL A   1      41.423  22.969  26.120  1.00  0.00     0.261 C 
BRANCH  22  23
ATOM     23  O   UNL A   1      40.638  24.159  26.290  1.00  0.00    -0.460 OA
BRANCH  23  24
ATOM     24  C   UNL A   1      41.337  25.308  26.104  1.00  0.00     0.338 C 
ATOM     25  O   UNL A   1      41.699  25.783  25.042  1.00  0.00    -0.246 OA
BRANCH  24  26
ATOM     26  C   UNL A   1      41.452  26.044  27.376  1.00  0.00     0.060 A 
ATOM     27  C   UNL A   1      40.526  25.734  28.382  1.00  0.00     0.016 A 
ATOM     28  C   UNL A   1      42.374  27.075  27.549  1.00  0.00     0.016 A 
ATOM     29  C   UNL A   1      40.469  26.506  29.537  1.00  0.00     0.010 A 
ATOM     30  C   UNL A   1      42.314  27.852  28.710  1.00  0.00     0.010 A 
ATOM     31  C   UNL A   1      41.329  27.601  29.683  1.00  0.00    -0.014 A 
BRANCH  31  32
ATOM     32  C   UNL A   1      41.085  28.575  30.773  1.00  0.00     0.031 A 
ATOM     33  C   UNL A   1      41.941  28.514  32.010  1.00  0.00     0.074 A 
ATOM     34  C   UNL A   1      40.141  29.523  30.645  1.00  0.00     0.049 A 
ATOM     35  N   UNL A   1      41.878  29.237  33.096  1.00  0.00    -0.248 NA
ATOM     36  C   UNL A   1      43.008  27.498  32.024  1.00  0.00     0.031 C 
ATOM     37  C   UNL A   1      39.288  29.714  29.472  1.00  0.00     0.029 A 
ATOM     38  N   UNL A   1      39.739  30.503  31.517  1.00  0.00    -0.354 N 
ATOM     39  C   UNL A   1      42.882  28.756  33.930  1.00  0.00     0.074 A 
ATOM     40  C   UNL A   1      43.520  27.659  33.236  1.00  0.00     0.031 C 
ATOM     41  C   UNL A   1      38.458  30.746  29.700  1.00  0.00     0.029 A 
ATOM     42  C   UNL A   1      38.692  31.259  31.048  1.00  0.00     0.049 A 
ATOM     43  H   UNL A   1      40.161  30.652  32.393  1.00  0.00     0.167 HD
ATOM     44  C   UNL A   1      43.240  29.191  35.161  1.00  0.00     0.031 A 
ATOM     45  C   UNL A   1      37.983  32.236  31.650  1.00  0.00     0.031 A 
ATOM     46  C   UNL A   1      42.594  30.280  35.846  1.00  0.00     0.049 A 
ATOM     47  C   UNL A   1      38.352  32.651  33.050  1.00  0.00     0.074 A 
ATOM     48  C   UNL A   1      42.894  30.814  37.087  1.00  0.00     0.029 A 
ATOM     49  N   UNL A   1      41.512  30.996  35.355  1.00  0.00    -0.354 N 
ATOM     50  N   UNL A   1      39.317  32.203  33.817  1.00  0.00    -0.248 NA
ATOM     51  C   UNL A   1      37.540  33.713  33.661  1.00  0.00     0.031 C 
ATOM     52  C   UNL A   1      41.949  31.802  37.377  1.00  0.00     0.029 A 
ATOM     53  C   UNL A   1      41.110  31.942  36.283  1.00  0.00     0.049 A 
ATOM     54  H   UNL A   1      41.092  30.852  34.476  1.00  0.00     0.167 HD
ATOM     55  C   UNL A   1      39.249  32.950  34.990  1.00  0.00     0.074 A 
ATOM     56  C   UNL A   1      38.158  33.889  34.821  1.00  0.00     0.031 C 
ATOM     57  C   UNL A   1      40.020  32.869  36.102  1.00  0.00     0.031 A 
BRANCH  44  58
ATOM     58  C   UNL A   1      44.356  28.463  35.867  1.00  0.00    -0.014 A 
ATOM     59  C   UNL A   1      45.697  28.871  35.744  1.00  0.00     0.010 A 
ATOM     60  C   UNL A   1      44.048  27.377  36.709  1.00  0.00     0.010 A 
ATOM     61  C   UNL A   1      46.711  28.186  36.421  1.00  0.00     0.020 A 
ATOM     62  C   UNL A   1      45.055  26.710  37.413  1.00  0.00     0.020 A 
ATOM     63  C   UNL A   1      46.382  27.110  37.251  1.00  0.00     0.054 A 
BRANCH  63  64
ATOM     64  S   UNL A   1      47.716  26.260  38.141  1.00  0.00     0.124 S 
ATOM     65  O   UNL A   1      48.896  26.685  37.392  1.00  0.00    -0.237 OA
ATOM     66  O   UNL A   1      47.598  26.807  39.490  1.00  0.00    -0.237 OA
ATOM     67  O   UNL A   1      47.375  24.846  38.012  1.00  0.00    -0.744 OA
ENDBRANCH  63  64
ENDBRANCH  44  58
BRANCH  45  68
ATOM     68  C   UNL A   1      36.837  32.866  30.939  1.00  0.00    -0.014 A 
ATOM     69  C   UNL A   1      35.514  32.636  31.355  1.00  0.00     0.010 A 
ATOM     70  C   UNL A   1      37.068  33.708  29.835  1.00  0.00     0.010 A 
ATOM     71  C   UNL A   1      34.445  33.221  30.672  1.00  0.00     0.020 A 
ATOM     72  C   UNL A   1      36.004  34.322  29.170  1.00  0.00     0.020 A 
ATOM     73  C   UNL A   1      34.698  34.066  29.587  1.00  0.00     0.054 A 
BRANCH  73  74
ATOM     74  S   UNL A   1      33.297  34.859  28.750  1.00  0.00     0.124 S 
ATOM     75  O   UNL A   1      33.907  36.074  28.219  1.00  0.00    -0.237 OA
ATOM     76  O   UNL A   1      32.916  33.855  27.759  1.00  0.00    -0.237 OA
ATOM     77  O   UNL A   1      32.328  35.062  29.824  1.00  0.00    -0.744 OA
ENDBRANCH  73  74
ENDBRANCH  45  68
BRANCH  57  78
ATOM     78  C   UNL A   1      39.746  33.850  37.214  1.00  0.00    -0.014 A 
ATOM     79  C   UNL A   1      38.945  33.504  38.317  1.00  0.00     0.010 A 
ATOM     80  C   UNL A   1      40.350  35.121  37.178  1.00  0.00     0.010 A 
ATOM     81  C   UNL A   1      38.725  34.426  39.346  1.00  0.00     0.020 A 
ATOM     82  C   UNL A   1      40.161  36.031  38.221  1.00  0.00     0.020 A 
ATOM     83  C   UNL A   1      39.337  35.683  39.292  1.00  0.00     0.054 A 
BRANCH  83  84
ATOM     84  S   UNL A   1      39.070  36.841  40.660  1.00  0.00     0.124 S 
ATOM     85  O   UNL A   1      40.436  37.136  41.082  1.00  0.00    -0.237 OA
ATOM     86  O   UNL A   1      38.361  37.943  40.013  1.00  0.00    -0.237 OA
ATOM     87  O   UNL A   1      38.276  36.073  41.617  1.00  0.00    -0.744 OA
ENDBRANCH  83  84
ENDBRANCH  57  78
ENDBRANCH  31  32
ENDBRANCH  24  26
ENDBRANCH  23  24
ENDBRANCH  22  23
ENDBRANCH   1  22
TORSDOF 21
ENDMDL
MODEL 3
REMARK VINA RESULT:      -8.6      2.856      9.272
REMARK SMILES [N-]=[N+]=NC[C@@H](Nc1ccccc1Br)C(=O)OCCOCCOC(=O)c1ccc(-c2c3nc(c(-c4ccc(S(=O)(=O)[O-])cc4)c4ccc([nH]4)c(-c4ccc(S(=O)(=O)[O-])cc4)c4nc(c(-c5ccc(S(=O)(=O)[O-])cc5)c5ccc2[nH]5)C=C4)C=C3)cc1
REMARK SMILES IDX 20 1 19 2 18 3 17 4 16 5 14 6 15 7 5 8 4 9 3 10 1 11 2 12
REMARK SMILES IDX 6 13 7 15 8 16 12 17 9 18 11 19 13 20 10 21 21 22 22 23
REMARK SMILES IDX 23 24 24 25 25 26 26 27 84 28 27 29 83 30 28 31 29 32 30 33
REMARK SMILES IDX 77 34 31 35 82 36 76 37 78 38 32 39 81 40 75 41 74 42 33 44
REMARK SMILES IDX 63 45 44 46 62 47 45 48 48 49 61 50 79 51 46 52 47 53 60 55
REMARK SMILES IDX 80 56 49 57 34 58 35 59 43 60 36 61 42 62 37 63 38 64 39 65
REMARK SMILES IDX 40 66 41 67 64 68 65 69 73 70 66 71 72 72 67 73 68 74 69 75
REMARK SMILES IDX 70 76 71 77 50 78 51 79 59 80 52 81 58 82 53 83 54 84 55 85
REMARK SMILES IDX 56 86 57 87
REMARK H PARENT 6 14 78 43 48 54
REMARK Flexibility Score: inf
ROOT
ATOM      1  C   UNL A   1      33.993  31.191  28.009  1.00  0.00     0.202 C 
ENDROOT
BRANCH   1   2
ATOM      2  O   UNL A   1      34.517  30.612  26.817  1.00  0.00    -0.374 OA
BRANCH   2   3
ATOM      3  C   UNL A   1      34.381  29.206  26.635  1.00  0.00     0.202 C 
BRANCH   3   4
ATOM      4  C   UNL A   1      32.988  28.585  26.761  1.00  0.00     0.261 C 
BRANCH   4   5
ATOM      5  O   UNL A   1      33.001  27.167  26.986  1.00  0.00    -0.462 OA
BRANCH   5   6
ATOM      6  C   UNL A   1      32.033  26.473  26.320  1.00  0.00     0.328 C 
ATOM      7  O   UNL A   1      30.868  26.842  26.210  1.00  0.00    -0.250 OA
BRANCH   6   8
ATOM      8  C   UNL A   1      32.572  25.188  25.685  1.00  0.00     0.195 C 
BRANCH   8   9
ATOM      9  C   UNL A   1      31.994  25.022  24.261  1.00  0.00     0.127 C 
BRANCH   9  10
ATOM     10  N   UNL A   1      32.574  26.015  23.331  1.00  0.00    -0.091 NA
ATOM     11  N   UNL A   1      31.055  27.621  22.447  1.00  0.00    -0.003 NA
ATOM     12  N   UNL A   1      31.785  26.844  22.855  1.00  0.00     0.001 N 
ENDBRANCH   9  10
ENDBRANCH   8   9
BRANCH   8  13
ATOM     13  N   UNL A   1      34.051  25.031  25.704  1.00  0.00    -0.371 N 
ATOM     14  H   UNL A   1      34.610  25.789  25.989  1.00  0.00     0.161 HD
BRANCH  13  15
ATOM     15  C   UNL A   1      34.664  23.839  25.328  1.00  0.00     0.049 A 
ATOM     16  C   UNL A   1      35.393  23.812  24.131  1.00  0.00     0.027 A 
ATOM     17  C   UNL A   1      34.662  22.673  26.118  1.00  0.00     0.041 A 
ATOM     18  C   UNL A   1      36.143  22.690  23.766  1.00  0.00     0.002 A 
ATOM     19  C   UNL A   1      35.456  21.570  25.783  1.00  0.00     0.018 A 
ATOM     20  Br  UNL A   1      33.473  22.453  27.591  1.00  0.00    -0.049 Br
ATOM     21  C   UNL A   1      36.201  21.583  24.607  1.00  0.00     0.001 A 
ENDBRANCH  13  15
ENDBRANCH   8  13
ENDBRANCH   6   8
ENDBRANCH   5   6
ENDBRANCH   4   5
ENDBRANCH   3   4
ENDBRANCH   2   3
ENDBRANCH   1   2
BRANCH   1  22
ATOM     22  C   UNL A   1      34.948  31.399  29.189  1.00  0.00     0.261 C 
BRANCH  22  23
ATOM     23  O   UNL A   1      35.845  30.293  29.377  1.00  0.00    -0.460 OA
BRANCH  23  24
ATOM     24  C   UNL A   1      36.552  30.352  30.533  1.00  0.00     0.338 C 
ATOM     25  O   UNL A   1      36.109  30.307  31.668  1.00  0.00    -0.246 OA
BRANCH  24  26
ATOM     26  C   UNL A   1      37.997  30.286  30.248  1.00  0.00     0.060 A 
ATOM     27  C   UNL A   1      38.390  30.385  28.906  1.00  0.00     0.016 A 
ATOM     28  C   UNL A   1      38.934  30.037  31.250  1.00  0.00     0.016 A 
ATOM     29  C   UNL A   1      39.717  30.159  28.552  1.00  0.00     0.010 A 
ATOM     30  C   UNL A   1      40.266  29.807  30.892  1.00  0.00     0.010 A 
ATOM     31  C   UNL A   1      40.650  29.819  29.538  1.00  0.00    -0.014 A 
BRANCH  31  32
ATOM     32  C   UNL A   1      41.984  29.315  29.132  1.00  0.00     0.031 A 
ATOM     33  C   UNL A   1      43.156  30.259  29.152  1.00  0.00     0.074 A 
ATOM     34  C   UNL A   1      42.153  28.026  28.788  1.00  0.00     0.049 A 
ATOM     35  N   UNL A   1      44.397  30.044  28.801  1.00  0.00    -0.248 NA
ATOM     36  C   UNL A   1      42.892  31.628  29.627  1.00  0.00     0.031 C 
ATOM     37  C   UNL A   1      41.103  27.007  28.783  1.00  0.00     0.029 A 
ATOM     38  N   UNL A   1      43.275  27.356  28.371  1.00  0.00    -0.354 N 
ATOM     39  C   UNL A   1      45.059  31.252  28.996  1.00  0.00     0.074 A 
ATOM     40  C   UNL A   1      44.075  32.203  29.467  1.00  0.00     0.031 C 
ATOM     41  C   UNL A   1      41.630  25.840  28.376  1.00  0.00     0.029 A 
ATOM     42  C   UNL A   1      43.041  26.040  28.052  1.00  0.00     0.049 A 
ATOM     43  H   UNL A   1      44.161  27.777  28.308  1.00  0.00     0.167 HD
ATOM     44  C   UNL A   1      46.367  31.541  28.802  1.00  0.00     0.031 A 
ATOM     45  C   UNL A   1      43.866  25.109  27.531  1.00  0.00     0.031 A 
ATOM     46  C   UNL A   1      47.336  30.588  28.327  1.00  0.00     0.049 A 
ATOM     47  C   UNL A   1      45.300  25.475  27.252  1.00  0.00     0.074 A 
ATOM     48  C   UNL A   1      48.692  30.773  28.117  1.00  0.00     0.029 A 
ATOM     49  N   UNL A   1      47.054  29.276  27.979  1.00  0.00    -0.354 N 
ATOM     50  N   UNL A   1      45.917  26.614  27.462  1.00  0.00    -0.248 NA
ATOM     51  C   UNL A   1      46.152  24.426  26.675  1.00  0.00     0.031 C 
ATOM     52  C   UNL A   1      49.213  29.595  27.573  1.00  0.00     0.029 A 
ATOM     53  C   UNL A   1      48.201  28.649  27.521  1.00  0.00     0.049 A 
ATOM     54  H   UNL A   1      46.167  28.851  28.047  1.00  0.00     0.167 HD
ATOM     55  C   UNL A   1      47.237  26.408  27.072  1.00  0.00     0.074 A 
ATOM     56  C   UNL A   1      47.330  25.032  26.630  1.00  0.00     0.031 C 
ATOM     57  C   UNL A   1      48.278  27.278  27.082  1.00  0.00     0.031 A 
BRANCH  44  58
ATOM     58  C   UNL A   1      46.822  32.954  29.063  1.00  0.00    -0.014 A 
ATOM     59  C   UNL A   1      47.325  33.347  30.317  1.00  0.00     0.010 A 
ATOM     60  C   UNL A   1      46.789  33.895  28.016  1.00  0.00     0.010 A 
ATOM     61  C   UNL A   1      47.753  34.662  30.528  1.00  0.00     0.020 A 
ATOM     62  C   UNL A   1      47.245  35.201  28.214  1.00  0.00     0.020 A 
ATOM     63  C   UNL A   1      47.710  35.580  29.473  1.00  0.00     0.054 A 
BRANCH  63  64
ATOM     64  S   UNL A   1      48.301  37.270  29.769  1.00  0.00     0.124 S 
ATOM     65  O   UNL A   1      49.503  37.318  28.939  1.00  0.00    -0.237 OA
ATOM     66  O   UNL A   1      47.183  38.086  29.303  1.00  0.00    -0.237 OA
ATOM     67  O   UNL A   1      48.539  37.308  31.209  1.00  0.00    -0.744 OA
ENDBRANCH  63  64
ENDBRANCH  44  58
BRANCH  45  68
ATOM     68  C   UNL A   1      43.345  23.751  27.214  1.00  0.00    -0.014 A 
ATOM     69  C   UNL A   1      42.903  23.431  25.919  1.00  0.00     0.010 A 
ATOM     70  C   UNL A   1      43.292  22.764  28.216  1.00  0.00     0.010 A 
ATOM     71  C   UNL A   1      42.402  22.157  25.636  1.00  0.00     0.020 A 
ATOM     72  C   UNL A   1      42.825  21.479  27.930  1.00  0.00     0.020 A 
ATOM     73  C   UNL A   1      42.373  21.187  26.643  1.00  0.00     0.054 A 
BRANCH  73  74
ATOM     74  S   UNL A   1      41.771  19.524  26.238  1.00  0.00     0.124 S 
ATOM     75  O   UNL A   1      42.509  19.223  25.016  1.00  0.00    -0.237 OA
ATOM     76  O   UNL A   1      42.160  18.756  27.419  1.00  0.00    -0.237 OA
ATOM     77  O   UNL A   1      40.332  19.712  26.073  1.00  0.00    -0.744 OA
ENDBRANCH  73  74
ENDBRANCH  45  68
BRANCH  57  78
ATOM     78  C   UNL A   1      49.624  26.760  26.644  1.00  0.00    -0.014 A 
ATOM     79  C   UNL A   1      50.476  26.080  27.534  1.00  0.00     0.010 A 
ATOM     80  C   UNL A   1      50.016  26.908  25.300  1.00  0.00     0.010 A 
ATOM     81  C   UNL A   1      51.710  25.591  27.094  1.00  0.00     0.020 A 
ATOM     82  C   UNL A   1      51.233  26.389  24.849  1.00  0.00     0.020 A 
ATOM     83  C   UNL A   1      52.079  25.746  25.754  1.00  0.00     0.054 A 
BRANCH  83  84
ATOM     84  S   UNL A   1      53.665  25.063  25.203  1.00  0.00     0.124 S 
ATOM     85  O   UNL A   1      54.581  25.552  26.229  1.00  0.00    -0.237 OA
ATOM     86  O   UNL A   1      53.416  23.624  25.217  1.00  0.00    -0.237 OA
ATOM     87  O   UNL A   1      53.852  25.645  23.875  1.00  0.00    -0.744 OA
ENDBRANCH  83  84
ENDBRANCH  57  78
ENDBRANCH  31  32
ENDBRANCH  24  26
ENDBRANCH  23  24
ENDBRANCH  22  23
ENDBRANCH   1  22
TORSDOF 21
ENDMDL
