MODEL 1
REMARK VINA RESULT:     -11.4      0.000      0.000
REMARK SMILES COc1cc(OC)cc(-n2nnc(C(=O)OCCOCCOC(=O)c3ccc(-c4c5nc(c(-c6ccc(S(=O)(=O)[O-])cc6)c6ccc([nH]6)c(-c6ccc(S(=O)(=O)[O-])cc6)c6nc(c(-c7ccc(S(=O)(=O)[O-])cc7)c7ccc4[nH]7)C=C6)C=C5)cc3)c2C(C)(C)C)c1
REMARK SMILES IDX 20 1 19 2 18 3 17 4 16 5 14 6 15 7 13 8 10 9 11 10 85 11
REMARK SMILES IDX 12 12 9 13 3 14 4 15 90 16 5 17 8 18 2 19 1 20 6 21 7 22
REMARK SMILES IDX 86 23 87 24 88 25 89 26 21 27 22 28 23 29 24 30 25 31 26 32
REMARK SMILES IDX 84 33 27 34 83 35 28 36 29 37 30 38 77 39 31 40 82 41 76 42
REMARK SMILES IDX 78 43 32 44 81 45 75 46 74 47 33 49 63 50 44 51 62 52 45 53
REMARK SMILES IDX 48 54 61 55 79 56 46 57 47 58 60 60 80 61 49 62 34 63 35 64
REMARK SMILES IDX 43 65 36 66 42 67 37 68 38 69 39 70 40 71 41 72 64 73 65 74
REMARK SMILES IDX 73 75 66 76 72 77 67 78 68 79 69 80 70 81 71 82 50 83 51 84
REMARK SMILES IDX 59 85 52 86 58 87 53 88 54 89 55 90 56 91 57 92
REMARK H PARENT 78 48 48 59
REMARK Flexibility Score: inf
ROOT
ATOM      1  C   UNL A   1      37.191  21.447  24.824  1.00  0.00     0.202 C 
ENDROOT
BRANCH   1   2
ATOM      2  O   UNL A   1      36.079  21.387  25.713  1.00  0.00    -0.374 OA
BRANCH   2   3
ATOM      3  C   UNL A   1      34.878  20.774  25.238  1.00  0.00     0.202 C 
BRANCH   3   4
ATOM      4  C   UNL A   1      33.638  21.093  26.071  1.00  0.00     0.261 C 
BRANCH   4   5
ATOM      5  O   UNL A   1      32.455  20.881  25.283  1.00  0.00    -0.458 OA
BRANCH   5   6
ATOM      6  C   UNL A   1      32.217  21.697  24.225  1.00  0.00     0.360 C 
ATOM      7  O   UNL A   1      32.285  21.332  23.055  1.00  0.00    -0.244 OA
BRANCH   6   8
ATOM      8  C   UNL A   1      31.766  23.033  24.622  1.00  0.00     0.194 A 
ATOM      9  N   UNL A   1      31.310  25.136  24.962  1.00  0.00    -0.216 N 
ATOM     10  N   UNL A   1      30.618  24.420  25.868  1.00  0.00    -0.061 NA
ATOM     11  C   UNL A   1      32.205  24.322  24.261  1.00  0.00     0.085 A 
ATOM     12  N   UNL A   1      30.796  23.144  25.591  1.00  0.00    -0.122 NA
BRANCH   9  13
ATOM     13  C   UNL A   1      30.967  26.480  24.748  1.00  0.00     0.074 A 
ATOM     14  C   UNL A   1      30.272  28.158  23.172  1.00  0.00     0.124 A 
ATOM     15  C   UNL A   1      30.740  29.132  24.061  1.00  0.00     0.093 A 
ATOM     16  C   UNL A   1      30.348  26.823  23.541  1.00  0.00     0.075 A 
ATOM     17  C   UNL A   1      31.272  28.788  25.313  1.00  0.00     0.124 A 
ATOM     18  C   UNL A   1      31.361  27.447  25.678  1.00  0.00     0.075 A 
BRANCH  14  19
ATOM     19  O   UNL A   1      29.844  28.624  21.961  1.00  0.00    -0.497 OA
ATOM     20  C   UNL A   1      29.593  30.020  21.845  1.00  0.00     0.278 C 
ENDBRANCH  14  19
BRANCH  17  21
ATOM     21  O   UNL A   1      31.705  29.852  26.055  1.00  0.00    -0.497 OA
ATOM     22  C   UNL A   1      33.108  29.968  26.269  1.00  0.00     0.278 C 
ENDBRANCH  17  21
ENDBRANCH   9  13
BRANCH  11  23
ATOM     23  C   UNL A   1      33.421  24.792  23.437  1.00  0.00     0.007 C 
ATOM     24  C   UNL A   1      33.004  24.858  21.954  1.00  0.00     0.017 C 
ATOM     25  C   UNL A   1      33.938  26.144  23.963  1.00  0.00     0.017 C 
ATOM     26  C   UNL A   1      34.663  23.873  23.399  1.00  0.00     0.017 C 
ENDBRANCH  11  23
ENDBRANCH   6   8
ENDBRANCH   5   6
ENDBRANCH   4   5
ENDBRANCH   3   4
ENDBRANCH   2   3
ENDBRANCH   1   2
BRANCH   1  27
ATOM     27  C   UNL A   1      38.561  21.386  25.478  1.00  0.00     0.261 C 
BRANCH  27  28
ATOM     28  O   UNL A   1      38.790  22.535  26.282  1.00  0.00    -0.460 OA
BRANCH  28  29
ATOM     29  C   UNL A   1      39.890  22.501  27.061  1.00  0.00     0.338 C 
ATOM     30  O   UNL A   1      40.323  21.549  27.697  1.00  0.00    -0.246 OA
BRANCH  29  31
ATOM     31  C   UNL A   1      40.407  23.869  27.151  1.00  0.00     0.060 A 
ATOM     32  C   UNL A   1      41.598  24.062  27.852  1.00  0.00     0.016 A 
ATOM     33  C   UNL A   1      39.571  24.942  26.803  1.00  0.00     0.016 A 
ATOM     34  C   UNL A   1      41.823  25.302  28.409  1.00  0.00     0.010 A 
ATOM     35  C   UNL A   1      39.800  26.175  27.345  1.00  0.00     0.010 A 
ATOM     36  C   UNL A   1      40.860  26.302  28.229  1.00  0.00    -0.014 A 
BRANCH  36  37
ATOM     37  C   UNL A   1      41.002  27.547  28.940  1.00  0.00     0.031 A 
ATOM     38  C   UNL A   1      42.099  28.365  28.393  1.00  0.00     0.074 A 
ATOM     39  C   UNL A   1      40.134  27.940  29.889  1.00  0.00     0.049 A 
ATOM     40  N   UNL A   1      43.291  28.482  28.873  1.00  0.00    -0.248 NA
ATOM     41  C   UNL A   1      41.940  28.898  27.029  1.00  0.00     0.031 C 
ATOM     42  C   UNL A   1      38.849  27.341  30.268  1.00  0.00     0.029 A 
ATOM     43  N   UNL A   1      40.184  29.049  30.666  1.00  0.00    -0.354 N 
ATOM     44  C   UNL A   1      43.944  29.337  27.999  1.00  0.00     0.074 A 
ATOM     45  C   UNL A   1      43.178  29.323  26.779  1.00  0.00     0.031 C 
ATOM     46  C   UNL A   1      38.151  28.224  31.023  1.00  0.00     0.029 A 
ATOM     47  C   UNL A   1      38.991  29.379  31.296  1.00  0.00     0.049 A 
ATOM     48  H   UNL A   1      41.005  29.581  30.776  1.00  0.00     0.167 HD
ATOM     49  C   UNL A   1      44.852  30.242  28.455  1.00  0.00     0.031 A 
ATOM     50  C   UNL A   1      38.720  30.550  31.931  1.00  0.00     0.031 A 
ATOM     51  C   UNL A   1      45.257  29.942  29.808  1.00  0.00     0.049 A 
ATOM     52  C   UNL A   1      40.030  31.187  32.234  1.00  0.00     0.074 A 
ATOM     53  C   UNL A   1      45.858  28.864  30.425  1.00  0.00     0.029 A 
ATOM     54  N   UNL A   1      44.650  30.669  30.807  1.00  0.00    -0.354 N 
ATOM     55  N   UNL A   1      40.895  30.680  33.068  1.00  0.00    -0.248 NA
ATOM     56  C   UNL A   1      40.583  32.107  31.249  1.00  0.00     0.031 C 
ATOM     57  C   UNL A   1      45.206  28.749  31.687  1.00  0.00     0.029 A 
ATOM     58  C   UNL A   1      44.301  29.806  31.814  1.00  0.00     0.049 A 
ATOM     59  H   UNL A   1      44.494  31.641  30.801  1.00  0.00     0.167 HD
ATOM     60  C   UNL A   1      42.130  30.860  32.458  1.00  0.00     0.074 A 
ATOM     61  C   UNL A   1      41.882  31.820  31.382  1.00  0.00     0.031 C 
ATOM     62  C   UNL A   1      43.165  30.000  32.694  1.00  0.00     0.031 A 
BRANCH  49  63
ATOM     63  C   UNL A   1      45.002  31.620  27.859  1.00  0.00    -0.014 A 
ATOM     64  C   UNL A   1      46.284  32.197  27.817  1.00  0.00     0.010 A 
ATOM     65  C   UNL A   1      43.910  32.473  27.588  1.00  0.00     0.010 A 
ATOM     66  C   UNL A   1      46.456  33.567  27.583  1.00  0.00     0.020 A 
ATOM     67  C   UNL A   1      44.071  33.828  27.308  1.00  0.00     0.020 A 
ATOM     68  C   UNL A   1      45.344  34.374  27.340  1.00  0.00     0.054 A 
BRANCH  68  69
ATOM     69  S   UNL A   1      45.566  36.154  27.123  1.00  0.00     0.124 S 
ATOM     70  O   UNL A   1      44.189  36.608  26.955  1.00  0.00    -0.237 OA
ATOM     71  O   UNL A   1      46.215  36.535  28.374  1.00  0.00    -0.237 OA
ATOM     72  O   UNL A   1      46.409  36.250  25.934  1.00  0.00    -0.744 OA
ENDBRANCH  68  69
ENDBRANCH  49  63
BRANCH  50  73
ATOM     73  C   UNL A   1      37.444  31.315  31.942  1.00  0.00    -0.014 A 
ATOM     74  C   UNL A   1      36.850  31.727  33.152  1.00  0.00     0.010 A 
ATOM     75  C   UNL A   1      36.965  31.900  30.753  1.00  0.00     0.010 A 
ATOM     76  C   UNL A   1      35.863  32.731  33.176  1.00  0.00     0.020 A 
ATOM     77  C   UNL A   1      35.980  32.898  30.766  1.00  0.00     0.020 A 
ATOM     78  C   UNL A   1      35.450  33.326  31.981  1.00  0.00     0.054 A 
BRANCH  78  79
ATOM     79  S   UNL A   1      34.316  34.749  32.028  1.00  0.00     0.124 S 
ATOM     80  O   UNL A   1      34.103  35.024  30.610  1.00  0.00    -0.237 OA
ATOM     81  O   UNL A   1      33.164  34.215  32.749  1.00  0.00    -0.237 OA
ATOM     82  O   UNL A   1      35.076  35.770  32.749  1.00  0.00    -0.744 OA
ENDBRANCH  78  79
ENDBRANCH  50  73
BRANCH  62  83
ATOM     83  C   UNL A   1      43.046  29.031  33.851  1.00  0.00    -0.014 A 
ATOM     84  C   UNL A   1      43.374  29.340  35.187  1.00  0.00     0.010 A 
ATOM     85  C   UNL A   1      42.430  27.797  33.583  1.00  0.00     0.010 A 
ATOM     86  C   UNL A   1      43.112  28.423  36.219  1.00  0.00     0.020 A 
ATOM     87  C   UNL A   1      42.150  26.889  34.606  1.00  0.00     0.020 A 
ATOM     88  C   UNL A   1      42.502  27.200  35.919  1.00  0.00     0.054 A 
BRANCH  88  89
ATOM     89  S   UNL A   1      42.130  26.026  37.254  1.00  0.00     0.124 S 
ATOM     90  O   UNL A   1      42.307  24.734  36.598  1.00  0.00    -0.237 OA
ATOM     91  O   UNL A   1      43.128  26.359  38.268  1.00  0.00    -0.237 OA
ATOM     92  O   UNL A   1      40.753  26.348  37.626  1.00  0.00    -0.744 OA
ENDBRANCH  88  89
ENDBRANCH  62  83
ENDBRANCH  36  37
ENDBRANCH  29  31
ENDBRANCH  28  29
ENDBRANCH  27  28
ENDBRANCH   1  27
TORSDOF 21
ENDMDL
MODEL 2
REMARK VINA RESULT:     -11.0      2.640      9.500
REMARK SMILES COc1cc(OC)cc(-n2nnc(C(=O)OCCOCCOC(=O)c3ccc(-c4c5nc(c(-c6ccc(S(=O)(=O)[O-])cc6)c6ccc([nH]6)c(-c6ccc(S(=O)(=O)[O-])cc6)c6nc(c(-c7ccc(S(=O)(=O)[O-])cc7)c7ccc4[nH]7)C=C6)C=C5)cc3)c2C(C)(C)C)c1
REMARK SMILES IDX 20 1 19 2 18 3 17 4 16 5 14 6 15 7 13 8 10 9 11 10 85 11
REMARK SMILES IDX 12 12 9 13 3 14 4 15 90 16 5 17 8 18 2 19 1 20 6 21 7 22
REMARK SMILES IDX 86 23 87 24 88 25 89 26 21 27 22 28 23 29 24 30 25 31 26 32
REMARK SMILES IDX 84 33 27 34 83 35 28 36 29 37 30 38 77 39 31 40 82 41 76 42
REMARK SMILES IDX 78 43 32 44 81 45 75 46 74 47 33 49 63 50 44 51 62 52 45 53
REMARK SMILES IDX 48 54 61 55 79 56 46 57 47 58 60 60 80 61 49 62 34 63 35 64
REMARK SMILES IDX 43 65 36 66 42 67 37 68 38 69 39 70 40 71 41 72 64 73 65 74
REMARK SMILES IDX 73 75 66 76 72 77 67 78 68 79 69 80 70 81 71 82 50 83 51 84
REMARK SMILES IDX 59 85 52 86 58 87 53 88 54 89 55 90 56 91 57 92
REMARK H PARENT 78 48 48 59
REMARK Flexibility Score: inf
ROOT
ATOM      1  C   UNL A   1      32.406  30.204  26.147  1.00  0.00     0.202 C 
ENDROOT
BRANCH   1   2
ATOM      2  O   UNL A   1      32.776  28.827  26.112  1.00  0.00    -0.374 OA
BRANCH   2   3
ATOM      3  C   UNL A   1      33.555  28.374  25.003  1.00  0.00     0.202 C 
BRANCH   3   4
ATOM      4  C   UNL A   1      32.890  28.577  23.643  1.00  0.00     0.261 C 
BRANCH   4   5
ATOM      5  O   UNL A   1      31.711  27.759  23.551  1.00  0.00    -0.458 OA
BRANCH   5   6
ATOM      6  C   UNL A   1      31.667  26.777  22.615  1.00  0.00     0.360 C 
ATOM      7  O   UNL A   1      31.067  26.880  21.549  1.00  0.00    -0.244 OA
BRANCH   6   8
ATOM      8  C   UNL A   1      32.498  25.620  22.958  1.00  0.00     0.194 A 
ATOM      9  N   UNL A   1      33.500  23.844  23.722  1.00  0.00    -0.216 N 
ATOM     10  N   UNL A   1      34.243  24.322  22.706  1.00  0.00    -0.061 NA
ATOM     11  C   UNL A   1      32.474  24.734  24.052  1.00  0.00     0.085 A 
ATOM     12  N   UNL A   1      33.581  25.324  22.163  1.00  0.00    -0.122 NA
BRANCH   9  13
ATOM     13  C   UNL A   1      33.740  22.542  24.189  1.00  0.00     0.074 A 
ATOM     14  C   UNL A   1      35.369  20.926  24.909  1.00  0.00     0.124 A 
ATOM     15  C   UNL A   1      34.434  19.921  24.640  1.00  0.00     0.093 A 
ATOM     16  C   UNL A   1      35.001  22.251  24.722  1.00  0.00     0.075 A 
ATOM     17  C   UNL A   1      33.138  20.223  24.198  1.00  0.00     0.124 A 
ATOM     18  C   UNL A   1      32.771  21.552  23.997  1.00  0.00     0.075 A 
BRANCH  14  19
ATOM     19  O   UNL A   1      36.615  20.492  25.267  1.00  0.00    -0.497 OA
ATOM     20  C   UNL A   1      37.671  21.446  25.251  1.00  0.00     0.278 C 
ENDBRANCH  14  19
BRANCH  17  21
ATOM     21  O   UNL A   1      32.352  19.129  23.958  1.00  0.00    -0.497 OA
ATOM     22  C   UNL A   1      33.007  17.871  23.839  1.00  0.00     0.278 C 
ENDBRANCH  17  21
ENDBRANCH   9  13
BRANCH  11  23
ATOM     23  C   UNL A   1      31.664  24.755  25.364  1.00  0.00     0.007 C 
ATOM     24  C   UNL A   1      30.665  23.581  25.335  1.00  0.00     0.017 C 
ATOM     25  C   UNL A   1      32.607  24.695  26.580  1.00  0.00     0.017 C 
ATOM     26  C   UNL A   1      30.748  25.973  25.625  1.00  0.00     0.017 C 
ENDBRANCH  11  23
ENDBRANCH   6   8
ENDBRANCH   5   6
ENDBRANCH   4   5
ENDBRANCH   3   4
ENDBRANCH   2   3
ENDBRANCH   1   2
BRANCH   1  27
ATOM     27  C   UNL A   1      33.074  31.037  27.227  1.00  0.00     0.261 C 
BRANCH  27  28
ATOM     28  O   UNL A   1      34.480  30.829  27.230  1.00  0.00    -0.460 OA
BRANCH  28  29
ATOM     29  C   UNL A   1      35.220  31.805  27.793  1.00  0.00     0.338 C 
ATOM     30  O   UNL A   1      35.155  33.008  27.576  1.00  0.00    -0.246 OA
BRANCH  29  31
ATOM     31  C   UNL A   1      36.249  31.160  28.612  1.00  0.00     0.060 A 
ATOM     32  C   UNL A   1      37.252  31.971  29.144  1.00  0.00     0.016 A 
ATOM     33  C   UNL A   1      36.364  29.760  28.590  1.00  0.00     0.016 A 
ATOM     34  C   UNL A   1      38.467  31.388  29.431  1.00  0.00     0.010 A 
ATOM     35  C   UNL A   1      37.565  29.180  28.888  1.00  0.00     0.010 A 
ATOM     36  C   UNL A   1      38.625  30.017  29.193  1.00  0.00    -0.014 A 
BRANCH  36  37
ATOM     37  C   UNL A   1      39.933  29.429  29.333  1.00  0.00     0.031 A 
ATOM     38  C   UNL A   1      40.333  29.319  30.747  1.00  0.00     0.074 A 
ATOM     39  C   UNL A   1      40.615  28.926  28.288  1.00  0.00     0.049 A 
ATOM     40  N   UNL A   1      41.123  30.111  31.392  1.00  0.00    -0.248 NA
ATOM     41  C   UNL A   1      39.573  28.392  31.604  1.00  0.00     0.031 C 
ATOM     42  C   UNL A   1      40.160  28.709  26.910  1.00  0.00     0.029 A 
ATOM     43  N   UNL A   1      41.864  28.403  28.274  1.00  0.00    -0.354 N 
ATOM     44  C   UNL A   1      41.164  29.599  32.680  1.00  0.00     0.074 A 
ATOM     45  C   UNL A   1      40.009  28.751  32.810  1.00  0.00     0.031 C 
ATOM     46  C   UNL A   1      41.034  27.890  26.276  1.00  0.00     0.029 A 
ATOM     47  C   UNL A   1      42.171  27.647  27.150  1.00  0.00     0.049 A 
ATOM     48  H   UNL A   1      42.507  28.548  29.006  1.00  0.00     0.167 HD
ATOM     49  C   UNL A   1      42.312  29.639  33.409  1.00  0.00     0.031 A 
ATOM     50  C   UNL A   1      43.253  26.838  27.003  1.00  0.00     0.031 A 
ATOM     51  C   UNL A   1      43.275  30.541  32.824  1.00  0.00     0.049 A 
ATOM     52  C   UNL A   1      44.250  27.264  28.021  1.00  0.00     0.074 A 
ATOM     53  C   UNL A   1      43.287  31.889  32.529  1.00  0.00     0.029 A 
ATOM     54  N   UNL A   1      44.269  29.971  32.062  1.00  0.00    -0.354 N 
ATOM     55  N   UNL A   1      44.841  28.428  27.999  1.00  0.00    -0.248 NA
ATOM     56  C   UNL A   1      44.217  26.610  29.321  1.00  0.00     0.031 C 
ATOM     57  C   UNL A   1      43.972  31.989  31.283  1.00  0.00     0.029 A 
ATOM     58  C   UNL A   1      44.414  30.714  30.919  1.00  0.00     0.049 A 
ATOM     59  H   UNL A   1      44.788  29.167  32.297  1.00  0.00     0.167 HD
ATOM     60  C   UNL A   1      44.861  28.844  29.324  1.00  0.00     0.074 A 
ATOM     61  C   UNL A   1      44.541  27.647  30.101  1.00  0.00     0.031 C 
ATOM     62  C   UNL A   1      44.847  30.173  29.646  1.00  0.00     0.031 A 
BRANCH  49  63
ATOM     63  C   UNL A   1      42.719  28.533  34.353  1.00  0.00    -0.014 A 
ATOM     64  C   UNL A   1      43.113  28.877  35.659  1.00  0.00     0.010 A 
ATOM     65  C   UNL A   1      42.984  27.211  33.933  1.00  0.00     0.010 A 
ATOM     66  C   UNL A   1      43.797  27.966  36.473  1.00  0.00     0.020 A 
ATOM     67  C   UNL A   1      43.623  26.281  34.751  1.00  0.00     0.020 A 
ATOM     68  C   UNL A   1      44.055  26.677  36.007  1.00  0.00     0.054 A 
BRANCH  68  69
ATOM     69  S   UNL A   1      45.011  25.535  37.030  1.00  0.00     0.124 S 
ATOM     70  O   UNL A   1      44.387  24.254  36.712  1.00  0.00    -0.237 OA
ATOM     71  O   UNL A   1      46.365  25.727  36.518  1.00  0.00    -0.237 OA
ATOM     72  O   UNL A   1      44.787  26.024  38.387  1.00  0.00    -0.744 OA
ENDBRANCH  68  69
ENDBRANCH  49  63
BRANCH  50  73
ATOM     73  C   UNL A   1      43.325  25.513  26.328  1.00  0.00    -0.014 A 
ATOM     74  C   UNL A   1      44.145  25.313  25.198  1.00  0.00     0.010 A 
ATOM     75  C   UNL A   1      42.820  24.367  26.974  1.00  0.00     0.010 A 
ATOM     76  C   UNL A   1      44.496  24.018  24.773  1.00  0.00     0.020 A 
ATOM     77  C   UNL A   1      43.161  23.073  26.554  1.00  0.00     0.020 A 
ATOM     78  C   UNL A   1      44.018  22.905  25.470  1.00  0.00     0.054 A 
BRANCH  78  79
ATOM     79  S   UNL A   1      44.621  21.243  25.036  1.00  0.00     0.124 S 
ATOM     80  O   UNL A   1      44.639  21.289  23.577  1.00  0.00    -0.237 OA
ATOM     81  O   UNL A   1      45.928  21.198  25.685  1.00  0.00    -0.237 OA
ATOM     82  O   UNL A   1      43.616  20.352  25.615  1.00  0.00    -0.744 OA
ENDBRANCH  78  79
ENDBRANCH  50  73
BRANCH  62  83
ATOM     83  C   UNL A   1      45.111  31.181  28.548  1.00  0.00    -0.014 A 
ATOM     84  C   UNL A   1      44.142  31.626  27.624  1.00  0.00     0.010 A 
ATOM     85  C   UNL A   1      46.366  31.813  28.555  1.00  0.00     0.010 A 
ATOM     86  C   UNL A   1      44.439  32.659  26.718  1.00  0.00     0.020 A 
ATOM     87  C   UNL A   1      46.660  32.851  27.670  1.00  0.00     0.020 A 
ATOM     88  C   UNL A   1      45.700  33.264  26.748  1.00  0.00     0.054 A 
BRANCH  88  89
ATOM     89  S   UNL A   1      46.075  34.622  25.603  1.00  0.00     0.124 S 
ATOM     90  O   UNL A   1      47.518  34.493  25.419  1.00  0.00    -0.237 OA
ATOM     91  O   UNL A   1      45.260  34.297  24.434  1.00  0.00    -0.237 OA
ATOM     92  O   UNL A   1      45.649  35.818  26.329  1.00  0.00    -0.744 OA
ENDBRANCH  88  89
ENDBRANCH  62  83
ENDBRANCH  36  37
ENDBRANCH  29  31
ENDBRANCH  28  29
ENDBRANCH  27  28
ENDBRANCH   1  27
TORSDOF 21
ENDMDL
MODEL 3
REMARK VINA RESULT:     -11.0      1.215      2.036
REMARK SMILES COc1cc(OC)cc(-n2nnc(C(=O)OCCOCCOC(=O)c3ccc(-c4c5nc(c(-c6ccc(S(=O)(=O)[O-])cc6)c6ccc([nH]6)c(-c6ccc(S(=O)(=O)[O-])cc6)c6nc(c(-c7ccc(S(=O)(=O)[O-])cc7)c7ccc4[nH]7)C=C6)C=C5)cc3)c2C(C)(C)C)c1
REMARK SMILES IDX 20 1 19 2 18 3 17 4 16 5 14 6 15 7 13 8 10 9 11 10 85 11
REMARK SMILES IDX 12 12 9 13 3 14 4 15 90 16 5 17 8 18 2 19 1 20 6 21 7 22
REMARK SMILES IDX 86 23 87 24 88 25 89 26 21 27 22 28 23 29 24 30 25 31 26 32
REMARK SMILES IDX 84 33 27 34 83 35 28 36 29 37 30 38 77 39 31 40 82 41 76 42
REMARK SMILES IDX 78 43 32 44 81 45 75 46 74 47 33 49 63 50 44 51 62 52 45 53
REMARK SMILES IDX 48 54 61 55 79 56 46 57 47 58 60 60 80 61 49 62 34 63 35 64
REMARK SMILES IDX 43 65 36 66 42 67 37 68 38 69 39 70 40 71 41 72 64 73 65 74
REMARK SMILES IDX 73 75 66 76 72 77 67 78 68 79 69 80 70 81 71 82 50 83 51 84
REMARK SMILES IDX 59 85 52 86 58 87 53 88 54 89 55 90 56 91 57 92
REMARK H PARENT 78 48 48 59
REMARK Flexibility Score: inf
ROOT
ATOM      1  C   UNL A   1      37.102  21.253  24.714  1.00  0.00     0.202 C 
ENDROOT
BRANCH   1   2
ATOM      2  O   UNL A   1      35.978  21.551  25.539  1.00  0.00    -0.374 OA
BRANCH   2   3
ATOM      3  C   UNL A   1      34.829  20.709  25.430  1.00  0.00     0.202 C 
BRANCH   3   4
ATOM      4  C   UNL A   1      33.579  21.262  26.112  1.00  0.00     0.261 C 
BRANCH   4   5
ATOM      5  O   UNL A   1      32.410  20.893  25.359  1.00  0.00    -0.458 OA
BRANCH   5   6
ATOM      6  C   UNL A   1      32.129  21.566  24.215  1.00  0.00     0.360 C 
ATOM      7  O   UNL A   1      32.080  21.035  23.108  1.00  0.00    -0.244 OA
BRANCH   6   8
ATOM      8  C   UNL A   1      31.785  22.971  24.445  1.00  0.00     0.194 A 
ATOM      9  N   UNL A   1      31.554  25.131  24.592  1.00  0.00    -0.216 N 
ATOM     10  N   UNL A   1      30.579  24.569  25.330  1.00  0.00    -0.061 NA
ATOM     11  C   UNL A   1      32.468  24.168  24.156  1.00  0.00     0.085 A 
ATOM     12  N   UNL A   1      30.640  23.265  25.148  1.00  0.00    -0.122 NA
BRANCH   9  13
ATOM     13  C   UNL A   1      31.457  26.491  24.255  1.00  0.00     0.074 A 
ATOM     14  C   UNL A   1      31.748  28.770  24.965  1.00  0.00     0.124 A 
ATOM     15  C   UNL A   1      30.879  29.159  23.941  1.00  0.00     0.093 A 
ATOM     16  C   UNL A   1      32.072  27.427  25.094  1.00  0.00     0.075 A 
ATOM     17  C   UNL A   1      30.340  28.228  23.041  1.00  0.00     0.124 A 
ATOM     18  C   UNL A   1      30.654  26.878  23.177  1.00  0.00     0.075 A 
BRANCH  14  19
ATOM     19  O   UNL A   1      32.145  29.766  25.812  1.00  0.00    -0.497 OA
ATOM     20  C   UNL A   1      31.291  30.899  25.939  1.00  0.00     0.278 C 
ENDBRANCH  14  19
BRANCH  17  21
ATOM     21  O   UNL A   1      29.491  28.764  22.112  1.00  0.00    -0.497 OA
ATOM     22  C   UNL A   1      29.502  30.179  21.961  1.00  0.00     0.278 C 
ENDBRANCH  17  21
ENDBRANCH   9  13
BRANCH  11  23
ATOM     23  C   UNL A   1      33.895  24.427  23.631  1.00  0.00     0.007 C 
ATOM     24  C   UNL A   1      33.818  25.500  22.527  1.00  0.00     0.017 C 
ATOM     25  C   UNL A   1      34.826  24.839  24.788  1.00  0.00     0.017 C 
ATOM     26  C   UNL A   1      34.624  23.263  22.923  1.00  0.00     0.017 C 
ENDBRANCH  11  23
ENDBRANCH   6   8
ENDBRANCH   5   6
ENDBRANCH   4   5
ENDBRANCH   3   4
ENDBRANCH   2   3
ENDBRANCH   1   2
BRANCH   1  27
ATOM     27  C   UNL A   1      38.413  21.024  25.445  1.00  0.00     0.261 C 
BRANCH  27  28
ATOM     28  O   UNL A   1      38.727  22.130  26.280  1.00  0.00    -0.460 OA
BRANCH  28  29
ATOM     29  C   UNL A   1      39.899  22.056  26.942  1.00  0.00     0.338 C 
ATOM     30  O   UNL A   1      40.335  21.106  27.581  1.00  0.00    -0.246 OA
BRANCH  29  31
ATOM     31  C   UNL A   1      40.511  23.386  26.905  1.00  0.00     0.060 A 
ATOM     32  C   UNL A   1      41.718  23.560  27.581  1.00  0.00     0.016 A 
ATOM     33  C   UNL A   1      39.747  24.479  26.463  1.00  0.00     0.016 A 
ATOM     34  C   UNL A   1      42.034  24.827  28.021  1.00  0.00     0.010 A 
ATOM     35  C   UNL A   1      40.066  25.738  26.888  1.00  0.00     0.010 A 
ATOM     36  C   UNL A   1      41.140  25.871  27.753  1.00  0.00    -0.014 A 
BRANCH  36  37
ATOM     37  C   UNL A   1      41.375  27.163  28.346  1.00  0.00     0.031 A 
ATOM     38  C   UNL A   1      42.643  27.753  27.882  1.00  0.00     0.074 A 
ATOM     39  C   UNL A   1      40.461  27.782  29.115  1.00  0.00     0.049 A 
ATOM     40  N   UNL A   1      43.767  27.768  28.515  1.00  0.00    -0.248 NA
ATOM     41  C   UNL A   1      42.742  28.133  26.462  1.00  0.00     0.031 C 
ATOM     42  C   UNL A   1      39.063  27.410  29.364  1.00  0.00     0.029 A 
ATOM     43  N   UNL A   1      40.577  28.960  29.774  1.00  0.00    -0.354 N 
ATOM     44  C   UNL A   1      44.647  28.414  27.661  1.00  0.00     0.074 A 
ATOM     45  C   UNL A   1      44.051  28.354  26.352  1.00  0.00     0.031 C 
ATOM     46  C   UNL A   1      38.414  28.464  29.916  1.00  0.00     0.029 A 
ATOM     47  C   UNL A   1      39.376  29.521  30.188  1.00  0.00     0.049 A 
ATOM     48  H   UNL A   1      41.447  29.386  29.946  1.00  0.00     0.167 HD
ATOM     49  C   UNL A   1      45.614  29.238  28.149  1.00  0.00     0.031 A 
ATOM     50  C   UNL A   1      39.204  30.786  30.654  1.00  0.00     0.031 A 
ATOM     51  C   UNL A   1      45.794  29.053  29.569  1.00  0.00     0.049 A 
ATOM     52  C   UNL A   1      40.544  31.274  31.076  1.00  0.00     0.074 A 
ATOM     53  C   UNL A   1      46.142  27.987  30.373  1.00  0.00     0.029 A 
ATOM     54  N   UNL A   1      45.180  29.971  30.391  1.00  0.00    -0.354 N 
ATOM     55  N   UNL A   1      41.210  30.761  32.074  1.00  0.00    -0.248 NA
ATOM     56  C   UNL A   1      41.350  31.984  30.093  1.00  0.00     0.031 C 
ATOM     57  C   UNL A   1      45.325  28.116  31.534  1.00  0.00     0.029 A 
ATOM     58  C   UNL A   1      44.579  29.292  31.420  1.00  0.00     0.049 A 
ATOM     59  H   UNL A   1      45.173  30.947  30.263  1.00  0.00     0.167 HD
ATOM     60  C   UNL A   1      42.525  30.698  31.633  1.00  0.00     0.074 A 
ATOM     61  C   UNL A   1      42.564  31.544  30.440  1.00  0.00     0.031 C 
ATOM     62  C   UNL A   1      43.382  29.742  32.103  1.00  0.00     0.031 A 
BRANCH  49  63
ATOM     63  C   UNL A   1      46.044  30.501  27.443  1.00  0.00    -0.014 A 
ATOM     64  C   UNL A   1      47.417  30.802  27.385  1.00  0.00     0.010 A 
ATOM     65  C   UNL A   1      45.149  31.528  27.074  1.00  0.00     0.010 A 
ATOM     66  C   UNL A   1      47.863  32.085  27.041  1.00  0.00     0.020 A 
ATOM     67  C   UNL A   1      45.582  32.794  26.685  1.00  0.00     0.020 A 
ATOM     68  C   UNL A   1      46.939  33.074  26.703  1.00  0.00     0.054 A 
BRANCH  68  69
ATOM     69  S   UNL A   1      47.517  34.747  26.342  1.00  0.00     0.124 S 
ATOM     70  O   UNL A   1      48.219  34.554  25.078  1.00  0.00    -0.237 OA
ATOM     71  O   UNL A   1      46.264  35.493  26.268  1.00  0.00    -0.237 OA
ATOM     72  O   UNL A   1      48.362  35.070  27.489  1.00  0.00    -0.744 OA
ENDBRANCH  68  69
ENDBRANCH  49  63
BRANCH  50  73
ATOM     73  C   UNL A   1      38.065  31.711  30.403  1.00  0.00    -0.014 A 
ATOM     74  C   UNL A   1      38.150  32.725  29.427  1.00  0.00     0.010 A 
ATOM     75  C   UNL A   1      36.787  31.407  30.912  1.00  0.00     0.010 A 
ATOM     76  C   UNL A   1      36.995  33.361  28.935  1.00  0.00     0.020 A 
ATOM     77  C   UNL A   1      35.631  32.039  30.431  1.00  0.00     0.020 A 
ATOM     78  C   UNL A   1      35.738  32.997  29.426  1.00  0.00     0.054 A 
BRANCH  78  79
ATOM     79  S   UNL A   1      34.237  33.683  28.660  1.00  0.00     0.124 S 
ATOM     80  O   UNL A   1      34.781  34.693  27.757  1.00  0.00    -0.237 OA
ATOM     81  O   UNL A   1      33.643  32.514  28.019  1.00  0.00    -0.237 OA
ATOM     82  O   UNL A   1      33.483  34.212  29.797  1.00  0.00    -0.744 OA
ENDBRANCH  78  79
ENDBRANCH  50  73
BRANCH  62  83
ATOM     83  C   UNL A   1      42.971  28.946  33.323  1.00  0.00    -0.014 A 
ATOM     84  C   UNL A   1      42.038  27.889  33.308  1.00  0.00     0.010 A 
ATOM     85  C   UNL A   1      43.682  29.192  34.510  1.00  0.00     0.010 A 
ATOM     86  C   UNL A   1      41.810  27.120  34.462  1.00  0.00     0.020 A 
ATOM     87  C   UNL A   1      43.473  28.419  35.653  1.00  0.00     0.020 A 
ATOM     88  C   UNL A   1      42.530  27.393  35.629  1.00  0.00     0.054 A 
BRANCH  88  89
ATOM     89  S   UNL A   1      42.264  26.378  37.111  1.00  0.00     0.124 S 
ATOM     90  O   UNL A   1      40.893  26.714  37.483  1.00  0.00    -0.237 OA
ATOM     91  O   UNL A   1      42.467  25.019  36.616  1.00  0.00    -0.237 OA
ATOM     92  O   UNL A   1      43.289  26.847  38.043  1.00  0.00    -0.744 OA
ENDBRANCH  88  89
ENDBRANCH  62  83
ENDBRANCH  36  37
ENDBRANCH  29  31
ENDBRANCH  28  29
ENDBRANCH  27  28
ENDBRANCH   1  27
TORSDOF 21
ENDMDL
