MODEL 1
REMARK VINA RESULT:     -10.6      0.000      0.000
REMARK SMILES CCOc1ccccc1NC(=O)[C@H]1[C@@H]2C=C[C@@H]([C@@H]3C[C@H]23)[C@@H]1C(=O)OCCOCCOC(=O)c1ccc(-c2c3nc(c(-c4ccc(S(=O)(=O)[O-])cc4)c4ccc([nH]4)c(-c4ccc(S(=O)(=O)[O-])cc4)c4nc(c(-c5ccc(S(=O)(=O)[O-])cc5)c5ccc2[nH]5)C=C4)C=C3)cc1
REMARK SMILES IDX 26 1 25 2 24 3 22 4 23 5 21 6 13 7 14 8 15 9 20 10 17 11
REMARK SMILES IDX 16 12 18 13 19 14 11 15 10 16 12 18 9 19 4 20 5 21 6 22 8 23
REMARK SMILES IDX 7 24 3 25 2 26 1 27 27 28 28 29 29 30 30 31 31 32 32 33
REMARK SMILES IDX 33 34 34 35 92 36 35 37 91 38 36 39 37 40 38 41 85 42 39 43
REMARK SMILES IDX 90 44 84 45 86 46 40 47 89 48 83 49 82 50 41 52 71 53 52 54
REMARK SMILES IDX 70 55 53 56 56 57 69 58 87 59 54 60 55 61 68 63 88 64 57 65
REMARK SMILES IDX 42 66 43 67 51 68 44 69 50 70 45 71 46 72 47 73 48 74 49 75
REMARK SMILES IDX 72 76 73 77 81 78 74 79 80 80 75 81 76 82 77 83 78 84 79 85
REMARK SMILES IDX 58 86 59 87 67 88 60 89 66 90 61 91 62 92 63 93 64 94 65 95
REMARK H PARENT 10 17 86 51 56 62
REMARK Flexibility Score: inf
ROOT
ATOM      1  C   UNL A   1      34.744  30.541  27.665  1.00  0.00     0.202 C 
ENDROOT
BRANCH   1   2
ATOM      2  C   UNL A   1      33.947  29.308  27.241  1.00  0.00     0.261 C 
BRANCH   2   3
ATOM      3  O   UNL A   1      33.510  29.345  25.865  1.00  0.00    -0.463 OA
BRANCH   3   4
ATOM      4  C   UNL A   1      32.213  29.702  25.651  1.00  0.00     0.310 C 
ATOM      5  O   UNL A   1      31.764  30.818  25.899  1.00  0.00    -0.252 OA
BRANCH   4   6
ATOM      6  C   UNL A   1      31.328  28.584  25.101  1.00  0.00     0.119 C 
ATOM      7  C   UNL A   1      31.939  27.135  25.083  1.00  0.00     0.101 C 
ATOM      8  C   UNL A   1      31.834  26.612  23.595  1.00  0.00     0.028 C 
ATOM      9  C   UNL A   1      32.606  27.601  22.726  1.00  0.00    -0.026 C 
ATOM     10  C   UNL A   1      30.368  26.632  23.096  1.00  0.00     0.001 C 
ATOM     11  C   UNL A   1      30.892  29.011  23.657  1.00  0.00     0.030 C 
ATOM     12  C   UNL A   1      32.115  28.852  22.754  1.00  0.00    -0.026 C 
ATOM     13  C   UNL A   1      29.822  28.052  23.117  1.00  0.00     0.001 C 
ATOM     14  C   UNL A   1      29.120  26.968  23.887  1.00  0.00     0.009 C 
BRANCH   7  15
ATOM     15  C   UNL A   1      31.278  26.062  25.960  1.00  0.00     0.229 C 
ATOM     16  N   UNL A   1      31.518  24.733  25.880  1.00  0.00    -0.323 N 
ATOM     17  H   UNL A   1      31.238  24.260  26.696  1.00  0.00     0.170 HD
ATOM     18  O   UNL A   1      30.494  26.396  26.862  1.00  0.00    -0.274 OA
BRANCH  16  19
ATOM     19  C   UNL A   1      32.064  23.863  24.934  1.00  0.00     0.083 A 
ATOM     20  C   UNL A   1      33.444  23.630  24.986  1.00  0.00     0.142 A 
ATOM     21  C   UNL A   1      34.101  22.950  23.961  1.00  0.00     0.048 A 
ATOM     22  C   UNL A   1      33.353  22.388  22.931  1.00  0.00     0.004 A 
ATOM     23  C   UNL A   1      31.321  23.175  23.994  1.00  0.00     0.030 A 
ATOM     24  C   UNL A   1      31.961  22.458  22.977  1.00  0.00     0.002 A 
BRANCH  20  25
ATOM     25  O   UNL A   1      34.170  24.094  26.055  1.00  0.00    -0.492 OA
BRANCH  25  26
ATOM     26  C   UNL A   1      34.907  23.007  26.651  1.00  0.00     0.226 C 
ATOM     27  C   UNL A   1      34.014  22.249  27.621  1.00  0.00     0.049 C 
ENDBRANCH  25  26
ENDBRANCH  20  25
ENDBRANCH  16  19
ENDBRANCH   7  15
ENDBRANCH   4   6
ENDBRANCH   3   4
ENDBRANCH   2   3
ENDBRANCH   1   2
BRANCH   1  28
ATOM     28  O   UNL A   1      34.008  31.649  28.172  1.00  0.00    -0.374 OA
BRANCH  28  29
ATOM     29  C   UNL A   1      34.754  32.761  28.649  1.00  0.00     0.202 C 
BRANCH  29  30
ATOM     30  C   UNL A   1      35.204  32.746  30.118  1.00  0.00     0.261 C 
BRANCH  30  31
ATOM     31  O   UNL A   1      36.570  32.369  30.340  1.00  0.00    -0.460 OA
BRANCH  31  32
ATOM     32  C   UNL A   1      36.705  31.163  30.950  1.00  0.00     0.338 C 
ATOM     33  O   UNL A   1      35.972  30.680  31.796  1.00  0.00    -0.246 OA
BRANCH  32  34
ATOM     34  C   UNL A   1      37.829  30.406  30.375  1.00  0.00     0.060 A 
ATOM     35  C   UNL A   1      38.786  29.897  31.260  1.00  0.00     0.016 A 
ATOM     36  C   UNL A   1      38.024  30.333  28.994  1.00  0.00     0.016 A 
ATOM     37  C   UNL A   1      39.972  29.357  30.766  1.00  0.00     0.010 A 
ATOM     38  C   UNL A   1      39.220  29.796  28.501  1.00  0.00     0.010 A 
ATOM     39  C   UNL A   1      40.214  29.342  29.386  1.00  0.00    -0.014 A 
BRANCH  39  40
ATOM     40  C   UNL A   1      41.558  28.965  28.887  1.00  0.00     0.031 A 
ATOM     41  C   UNL A   1      42.626  30.021  28.777  1.00  0.00     0.074 A 
ATOM     42  C   UNL A   1      41.829  27.687  28.568  1.00  0.00     0.049 A 
ATOM     43  N   UNL A   1      43.862  29.906  28.364  1.00  0.00    -0.248 NA
ATOM     44  C   UNL A   1      42.253  31.387  29.184  1.00  0.00     0.031 C 
ATOM     45  C   UNL A   1      40.880  26.576  28.660  1.00  0.00     0.029 A 
ATOM     46  N   UNL A   1      42.978  27.109  28.092  1.00  0.00    -0.354 N 
ATOM     47  C   UNL A   1      44.410  31.181  28.447  1.00  0.00     0.074 A 
ATOM     48  C   UNL A   1      43.369  32.059  28.934  1.00  0.00     0.031 C 
ATOM     49  C   UNL A   1      41.484  25.451  28.240  1.00  0.00     0.029 A 
ATOM     50  C   UNL A   1      42.848  25.767  27.822  1.00  0.00     0.049 A 
ATOM     51  H   UNL A   1      43.817  27.607  27.958  1.00  0.00     0.167 HD
ATOM     52  C   UNL A   1      45.668  31.582  28.145  1.00  0.00     0.031 A 
ATOM     53  C   UNL A   1      43.721  24.898  27.274  1.00  0.00     0.031 A 
ATOM     54  C   UNL A   1      46.698  30.700  27.661  1.00  0.00     0.049 A 
ATOM     55  C   UNL A   1      45.099  25.380  26.903  1.00  0.00     0.074 A 
ATOM     56  C   UNL A   1      48.019  30.999  27.372  1.00  0.00     0.029 A 
ATOM     57  N   UNL A   1      46.522  29.354  27.382  1.00  0.00    -0.354 N 
ATOM     58  N   UNL A   1      45.619  26.576  27.045  1.00  0.00    -0.248 NA
ATOM     59  C   UNL A   1      46.010  24.394  26.305  1.00  0.00     0.031 C 
ATOM     60  C   UNL A   1      48.622  29.849  26.856  1.00  0.00     0.029 A 
ATOM     61  C   UNL A   1      47.697  28.817  26.884  1.00  0.00     0.049 A 
ATOM     62  H   UNL A   1      45.685  28.853  27.518  1.00  0.00     0.167 HD
ATOM     63  C   UNL A   1      46.922  26.482  26.568  1.00  0.00     0.074 A 
ATOM     64  C   UNL A   1      47.118  25.107  26.158  1.00  0.00     0.031 C 
ATOM     65  C   UNL A   1      47.871  27.447  26.475  1.00  0.00     0.031 A 
BRANCH  52  66
ATOM     66  C   UNL A   1      46.001  33.043  28.293  1.00  0.00    -0.014 A 
ATOM     67  C   UNL A   1      46.546  33.554  29.484  1.00  0.00     0.010 A 
ATOM     68  C   UNL A   1      45.834  33.904  27.192  1.00  0.00     0.010 A 
ATOM     69  C   UNL A   1      46.901  34.904  29.576  1.00  0.00     0.020 A 
ATOM     70  C   UNL A   1      46.208  35.248  27.273  1.00  0.00     0.020 A 
ATOM     71  C   UNL A   1      46.731  35.742  28.469  1.00  0.00     0.054 A 
BRANCH  71  72
ATOM     72  S   UNL A   1      47.248  37.476  28.601  1.00  0.00     0.124 S 
ATOM     73  O   UNL A   1      48.618  37.347  29.092  1.00  0.00    -0.237 OA
ATOM     74  O   UNL A   1      47.118  37.953  27.226  1.00  0.00    -0.237 OA
ATOM     75  O   UNL A   1      46.298  38.052  29.549  1.00  0.00    -0.744 OA
ENDBRANCH  71  72
ENDBRANCH  52  66
BRANCH  53  76
ATOM     76  C   UNL A   1      43.301  23.496  26.999  1.00  0.00    -0.014 A 
ATOM     77  C   UNL A   1      43.110  22.576  28.043  1.00  0.00     0.010 A 
ATOM     78  C   UNL A   1      43.098  23.073  25.672  1.00  0.00     0.010 A 
ATOM     79  C   UNL A   1      42.745  21.254  27.765  1.00  0.00     0.020 A 
ATOM     80  C   UNL A   1      42.705  21.763  25.391  1.00  0.00     0.020 A 
ATOM     81  C   UNL A   1      42.544  20.857  26.439  1.00  0.00     0.054 A 
BRANCH  81  82
ATOM     82  S   UNL A   1      42.027  19.151  26.100  1.00  0.00     0.124 S 
ATOM     83  O   UNL A   1      40.620  19.323  25.754  1.00  0.00    -0.237 OA
ATOM     84  O   UNL A   1      42.908  18.766  25.001  1.00  0.00    -0.237 OA
ATOM     85  O   UNL A   1      42.284  18.461  27.362  1.00  0.00    -0.744 OA
ENDBRANCH  81  82
ENDBRANCH  53  76
BRANCH  65  86
ATOM     86  C   UNL A   1      49.213  27.047  25.922  1.00  0.00    -0.014 A 
ATOM     87  C   UNL A   1      49.609  27.435  24.630  1.00  0.00     0.010 A 
ATOM     88  C   UNL A   1      50.110  26.322  26.727  1.00  0.00     0.010 A 
ATOM     89  C   UNL A   1      50.869  27.077  24.141  1.00  0.00     0.020 A 
ATOM     90  C   UNL A   1      51.381  25.988  26.253  1.00  0.00     0.020 A 
ATOM     91  C   UNL A   1      51.747  26.355  24.957  1.00  0.00     0.054 A 
BRANCH  91  92
ATOM     92  S   UNL A   1      53.391  25.940  24.315  1.00  0.00     0.124 S 
ATOM     93  O   UNL A   1      54.209  27.024  24.851  1.00  0.00    -0.237 OA
ATOM     94  O   UNL A   1      53.638  24.621  24.894  1.00  0.00    -0.237 OA
ATOM     95  O   UNL A   1      53.211  25.953  22.865  1.00  0.00    -0.744 OA
ENDBRANCH  91  92
ENDBRANCH  65  86
ENDBRANCH  39  40
ENDBRANCH  32  34
ENDBRANCH  31  32
ENDBRANCH  30  31
ENDBRANCH  29  30
ENDBRANCH  28  29
ENDBRANCH   1  28
TORSDOF 21
ENDMDL
MODEL 2
REMARK VINA RESULT:     -10.6      6.340     11.102
REMARK SMILES CCOc1ccccc1NC(=O)[C@H]1[C@@H]2C=C[C@@H]([C@@H]3C[C@H]23)[C@@H]1C(=O)OCCOCCOC(=O)c1ccc(-c2c3nc(c(-c4ccc(S(=O)(=O)[O-])cc4)c4ccc([nH]4)c(-c4ccc(S(=O)(=O)[O-])cc4)c4nc(c(-c5ccc(S(=O)(=O)[O-])cc5)c5ccc2[nH]5)C=C4)C=C3)cc1
REMARK SMILES IDX 26 1 25 2 24 3 22 4 23 5 21 6 13 7 14 8 15 9 20 10 17 11
REMARK SMILES IDX 16 12 18 13 19 14 11 15 10 16 12 18 9 19 4 20 5 21 6 22 8 23
REMARK SMILES IDX 7 24 3 25 2 26 1 27 27 28 28 29 29 30 30 31 31 32 32 33
REMARK SMILES IDX 33 34 34 35 92 36 35 37 91 38 36 39 37 40 38 41 85 42 39 43
REMARK SMILES IDX 90 44 84 45 86 46 40 47 89 48 83 49 82 50 41 52 71 53 52 54
REMARK SMILES IDX 70 55 53 56 56 57 69 58 87 59 54 60 55 61 68 63 88 64 57 65
REMARK SMILES IDX 42 66 43 67 51 68 44 69 50 70 45 71 46 72 47 73 48 74 49 75
REMARK SMILES IDX 72 76 73 77 81 78 74 79 80 80 75 81 76 82 77 83 78 84 79 85
REMARK SMILES IDX 58 86 59 87 67 88 60 89 66 90 61 91 62 92 63 93 64 94 65 95
REMARK H PARENT 10 17 86 51 56 62
REMARK Flexibility Score: inf
ROOT
ATOM      1  C   UNL A   1      35.670  23.703  25.535  1.00  0.00     0.202 C 
ENDROOT
BRANCH   1   2
ATOM      2  C   UNL A   1      34.242  23.796  26.069  1.00  0.00     0.261 C 
BRANCH   2   3
ATOM      3  O   UNL A   1      33.880  25.115  26.534  1.00  0.00    -0.463 OA
BRANCH   3   4
ATOM      4  C   UNL A   1      32.586  25.492  26.336  1.00  0.00     0.310 C 
ATOM      5  O   UNL A   1      31.619  24.857  26.749  1.00  0.00    -0.252 OA
BRANCH   4   6
ATOM      6  C   UNL A   1      32.415  26.772  25.517  1.00  0.00     0.119 C 
ATOM      7  C   UNL A   1      33.693  27.326  24.787  1.00  0.00     0.101 C 
ATOM      8  C   UNL A   1      33.878  28.823  25.259  1.00  0.00     0.028 C 
ATOM      9  C   UNL A   1      34.021  28.789  26.778  1.00  0.00    -0.026 C 
ATOM     10  C   UNL A   1      32.617  29.668  24.949  1.00  0.00     0.001 C 
ATOM     11  C   UNL A   1      31.822  27.857  26.478  1.00  0.00     0.030 C 
ATOM     12  C   UNL A   1      32.949  28.289  27.417  1.00  0.00    -0.026 C 
ATOM     13  C   UNL A   1      31.410  29.105  25.686  1.00  0.00     0.001 C 
ATOM     14  C   UNL A   1      31.377  29.245  24.189  1.00  0.00     0.009 C 
BRANCH   7  15
ATOM     15  C   UNL A   1      33.689  27.361  23.251  1.00  0.00     0.229 C 
ATOM     16  N   UNL A   1      33.136  26.420  22.452  1.00  0.00    -0.323 N 
ATOM     17  H   UNL A   1      32.976  26.760  21.542  1.00  0.00     0.170 HD
ATOM     18  O   UNL A   1      34.174  28.333  22.653  1.00  0.00    -0.274 OA
BRANCH  16  19
ATOM     19  C   UNL A   1      32.733  25.090  22.590  1.00  0.00     0.083 A 
ATOM     20  C   UNL A   1      31.381  24.846  22.862  1.00  0.00     0.142 A 
ATOM     21  C   UNL A   1      30.934  23.575  23.222  1.00  0.00     0.048 A 
ATOM     22  C   UNL A   1      31.827  22.508  23.191  1.00  0.00     0.004 A 
ATOM     23  C   UNL A   1      33.570  24.004  22.417  1.00  0.00     0.030 A 
ATOM     24  C   UNL A   1      33.130  22.716  22.740  1.00  0.00     0.002 A 
BRANCH  20  25
ATOM     25  O   UNL A   1      30.479  25.879  22.790  1.00  0.00    -0.492 OA
BRANCH  25  26
ATOM     26  C   UNL A   1      29.507  25.750  23.848  1.00  0.00     0.226 C 
ATOM     27  C   UNL A   1      28.556  26.937  23.823  1.00  0.00     0.049 C 
ENDBRANCH  25  26
ENDBRANCH  20  25
ENDBRANCH  16  19
ENDBRANCH   7  15
ENDBRANCH   4   6
ENDBRANCH   3   4
ENDBRANCH   2   3
ENDBRANCH   1   2
BRANCH   1  28
ATOM     28  O   UNL A   1      36.509  22.694  26.090  1.00  0.00    -0.374 OA
BRANCH  28  29
ATOM     29  C   UNL A   1      37.843  22.620  25.605  1.00  0.00     0.202 C 
BRANCH  29  30
ATOM     30  C   UNL A   1      38.939  23.337  26.409  1.00  0.00     0.261 C 
BRANCH  30  31
ATOM     31  O   UNL A   1      38.819  24.765  26.477  1.00  0.00    -0.460 OA
BRANCH  31  32
ATOM     32  C   UNL A   1      40.012  25.411  26.432  1.00  0.00     0.338 C 
ATOM     33  O   UNL A   1      40.755  25.519  25.471  1.00  0.00    -0.246 OA
BRANCH  32  34
ATOM     34  C   UNL A   1      40.285  26.100  27.704  1.00  0.00     0.060 A 
ATOM     35  C   UNL A   1      39.369  25.920  28.747  1.00  0.00     0.016 A 
ATOM     36  C   UNL A   1      41.325  27.025  27.819  1.00  0.00     0.016 A 
ATOM     37  C   UNL A   1      39.460  26.704  29.894  1.00  0.00     0.010 A 
ATOM     38  C   UNL A   1      41.409  27.817  28.971  1.00  0.00     0.010 A 
ATOM     39  C   UNL A   1      40.455  27.687  29.995  1.00  0.00    -0.014 A 
BRANCH  39  40
ATOM     40  C   UNL A   1      40.411  28.654  31.119  1.00  0.00     0.031 A 
ATOM     41  C   UNL A   1      39.393  29.763  31.096  1.00  0.00     0.074 A 
ATOM     42  C   UNL A   1      41.251  28.520  32.161  1.00  0.00     0.049 A 
ATOM     43  N   UNL A   1      39.187  30.712  31.973  1.00  0.00    -0.248 NA
ATOM     44  C   UNL A   1      38.488  29.810  29.935  1.00  0.00     0.031 C 
ATOM     45  C   UNL A   1      42.259  27.469  32.301  1.00  0.00     0.029 A 
ATOM     46  N   UNL A   1      41.395  29.279  33.294  1.00  0.00    -0.354 N 
ATOM     47  C   UNL A   1      38.143  31.477  31.465  1.00  0.00     0.074 A 
ATOM     48  C   UNL A   1      37.767  30.893  30.197  1.00  0.00     0.031 C 
ATOM     49  C   UNL A   1      42.929  27.659  33.451  1.00  0.00     0.029 A 
ATOM     50  C   UNL A   1      42.419  28.858  34.110  1.00  0.00     0.049 A 
ATOM     51  H   UNL A   1      40.821  30.051  33.504  1.00  0.00     0.167 HD
ATOM     52  C   UNL A   1      37.551  32.567  32.008  1.00  0.00     0.031 A 
ATOM     53  C   UNL A   1      42.906  29.396  35.247  1.00  0.00     0.031 A 
ATOM     54  C   UNL A   1      37.932  33.142  33.272  1.00  0.00     0.049 A 
ATOM     55  C   UNL A   1      42.260  30.636  35.807  1.00  0.00     0.074 A 
ATOM     56  C   UNL A   1      37.363  34.218  33.933  1.00  0.00     0.029 A 
ATOM     57  N   UNL A   1      38.984  32.700  34.059  1.00  0.00    -0.354 N 
ATOM     58  N   UNL A   1      41.235  31.311  35.343  1.00  0.00    -0.248 NA
ATOM     59  C   UNL A   1      42.832  31.183  37.045  1.00  0.00     0.031 C 
ATOM     60  C   UNL A   1      38.112  34.465  35.086  1.00  0.00     0.029 A 
ATOM     61  C   UNL A   1      39.109  33.506  35.178  1.00  0.00     0.049 A 
ATOM     62  H   UNL A   1      39.559  31.927  33.852  1.00  0.00     0.167 HD
ATOM     63  C   UNL A   1      41.030  32.352  36.242  1.00  0.00     0.074 A 
ATOM     64  C   UNL A   1      42.021  32.204  37.287  1.00  0.00     0.031 C 
ATOM     65  C   UNL A   1      40.106  33.345  36.205  1.00  0.00     0.031 A 
BRANCH  52  66
ATOM     66  C   UNL A   1      36.451  33.240  31.230  1.00  0.00    -0.014 A 
ATOM     67  C   UNL A   1      35.136  33.304  31.725  1.00  0.00     0.010 A 
ATOM     68  C   UNL A   1      36.757  33.882  30.016  1.00  0.00     0.010 A 
ATOM     69  C   UNL A   1      34.145  33.984  31.011  1.00  0.00     0.020 A 
ATOM     70  C   UNL A   1      35.774  34.581  29.311  1.00  0.00     0.020 A 
ATOM     71  C   UNL A   1      34.471  34.620  29.808  1.00  0.00     0.054 A 
BRANCH  71  72
ATOM     72  S   UNL A   1      33.177  35.538  28.929  1.00  0.00     0.124 S 
ATOM     73  O   UNL A   1      32.526  34.480  28.159  1.00  0.00    -0.237 OA
ATOM     74  O   UNL A   1      32.383  36.097  30.021  1.00  0.00    -0.237 OA
ATOM     75  O   UNL A   1      33.919  36.517  28.139  1.00  0.00    -0.744 OA
ENDBRANCH  71  72
ENDBRANCH  52  66
BRANCH  53  76
ATOM     76  C   UNL A   1      44.097  28.790  35.905  1.00  0.00    -0.014 A 
ATOM     77  C   UNL A   1      43.958  27.790  36.881  1.00  0.00     0.010 A 
ATOM     78  C   UNL A   1      45.388  29.228  35.555  1.00  0.00     0.010 A 
ATOM     79  C   UNL A   1      45.087  27.253  37.511  1.00  0.00     0.020 A 
ATOM     80  C   UNL A   1      46.519  28.675  36.160  1.00  0.00     0.020 A 
ATOM     81  C   UNL A   1      46.360  27.699  37.144  1.00  0.00     0.054 A 
BRANCH  81  82
ATOM     82  S   UNL A   1      47.814  26.960  37.940  1.00  0.00     0.124 S 
ATOM     83  O   UNL A   1      47.769  27.559  39.271  1.00  0.00    -0.237 OA
ATOM     84  O   UNL A   1      47.517  25.531  37.877  1.00  0.00    -0.237 OA
ATOM     85  O   UNL A   1      48.923  27.394  37.093  1.00  0.00    -0.744 OA
ENDBRANCH  81  82
ENDBRANCH  53  76
BRANCH  65  86
ATOM     86  C   UNL A   1      40.114  34.341  37.334  1.00  0.00    -0.014 A 
ATOM     87  C   UNL A   1      40.906  35.501  37.272  1.00  0.00     0.010 A 
ATOM     88  C   UNL A   1      39.276  34.139  38.445  1.00  0.00     0.010 A 
ATOM     89  C   UNL A   1      40.881  36.428  38.319  1.00  0.00     0.020 A 
ATOM     90  C   UNL A   1      39.226  35.078  39.479  1.00  0.00     0.020 A 
ATOM     91  C   UNL A   1      40.041  36.210  39.416  1.00  0.00     0.054 A 
BRANCH  91  92
ATOM     92  S   UNL A   1      39.997  37.447  40.740  1.00  0.00     0.124 S 
ATOM     93  O   UNL A   1      41.155  38.277  40.420  1.00  0.00    -0.237 OA
ATOM     94  O   UNL A   1      38.696  38.082  40.543  1.00  0.00    -0.237 OA
ATOM     95  O   UNL A   1      40.117  36.654  41.960  1.00  0.00    -0.744 OA
ENDBRANCH  91  92
ENDBRANCH  65  86
ENDBRANCH  39  40
ENDBRANCH  32  34
ENDBRANCH  31  32
ENDBRANCH  30  31
ENDBRANCH  29  30
ENDBRANCH  28  29
ENDBRANCH   1  28
TORSDOF 21
ENDMDL
MODEL 3
REMARK VINA RESULT:     -10.3      6.141     11.575
REMARK SMILES CCOc1ccccc1NC(=O)[C@H]1[C@@H]2C=C[C@@H]([C@@H]3C[C@H]23)[C@@H]1C(=O)OCCOCCOC(=O)c1ccc(-c2c3nc(c(-c4ccc(S(=O)(=O)[O-])cc4)c4ccc([nH]4)c(-c4ccc(S(=O)(=O)[O-])cc4)c4nc(c(-c5ccc(S(=O)(=O)[O-])cc5)c5ccc2[nH]5)C=C4)C=C3)cc1
REMARK SMILES IDX 26 1 25 2 24 3 22 4 23 5 21 6 13 7 14 8 15 9 20 10 17 11
REMARK SMILES IDX 16 12 18 13 19 14 11 15 10 16 12 18 9 19 4 20 5 21 6 22 8 23
REMARK SMILES IDX 7 24 3 25 2 26 1 27 27 28 28 29 29 30 30 31 31 32 32 33
REMARK SMILES IDX 33 34 34 35 92 36 35 37 91 38 36 39 37 40 38 41 85 42 39 43
REMARK SMILES IDX 90 44 84 45 86 46 40 47 89 48 83 49 82 50 41 52 71 53 52 54
REMARK SMILES IDX 70 55 53 56 56 57 69 58 87 59 54 60 55 61 68 63 88 64 57 65
REMARK SMILES IDX 42 66 43 67 51 68 44 69 50 70 45 71 46 72 47 73 48 74 49 75
REMARK SMILES IDX 72 76 73 77 81 78 74 79 80 80 75 81 76 82 77 83 78 84 79 85
REMARK SMILES IDX 58 86 59 87 67 88 60 89 66 90 61 91 62 92 63 93 64 94 65 95
REMARK H PARENT 10 17 86 51 56 62
REMARK Flexibility Score: inf
ROOT
ATOM      1  C   UNL A   1      37.018  23.392  24.977  1.00  0.00     0.202 C 
ENDROOT
BRANCH   1   2
ATOM      2  C   UNL A   1      35.781  24.263  25.183  1.00  0.00     0.261 C 
BRANCH   2   3
ATOM      3  O   UNL A   1      34.684  23.934  24.303  1.00  0.00    -0.463 OA
BRANCH   3   4
ATOM      4  C   UNL A   1      34.028  24.983  23.733  1.00  0.00     0.310 C 
ATOM      5  O   UNL A   1      34.145  25.301  22.552  1.00  0.00    -0.252 OA
BRANCH   4   6
ATOM      6  C   UNL A   1      33.144  25.778  24.694  1.00  0.00     0.119 C 
ATOM      7  C   UNL A   1      31.613  25.865  24.346  1.00  0.00     0.101 C 
ATOM      8  C   UNL A   1      31.241  27.400  24.293  1.00  0.00     0.028 C 
ATOM      9  C   UNL A   1      32.136  28.032  23.230  1.00  0.00    -0.026 C 
ATOM     10  C   UNL A   1      31.576  28.104  25.631  1.00  0.00     0.001 C 
ATOM     11  C   UNL A   1      33.761  27.214  24.807  1.00  0.00     0.030 C 
ATOM     12  C   UNL A   1      33.451  27.939  23.497  1.00  0.00    -0.026 C 
ATOM     13  C   UNL A   1      33.066  28.008  25.921  1.00  0.00     0.001 C 
ATOM     14  C   UNL A   1      32.073  27.474  26.916  1.00  0.00     0.009 C 
BRANCH   7  15
ATOM     15  C   UNL A   1      30.614  25.218  25.316  1.00  0.00     0.229 C 
ATOM     16  N   UNL A   1      30.900  24.209  26.171  1.00  0.00    -0.323 N 
ATOM     17  H   UNL A   1      30.235  24.141  26.894  1.00  0.00     0.170 HD
ATOM     18  O   UNL A   1      29.456  25.655  25.395  1.00  0.00    -0.274 OA
BRANCH  16  19
ATOM     19  C   UNL A   1      31.898  23.241  26.289  1.00  0.00     0.083 A 
ATOM     20  C   UNL A   1      31.975  22.261  25.291  1.00  0.00     0.142 A 
ATOM     21  C   UNL A   1      32.796  21.143  25.436  1.00  0.00     0.048 A 
ATOM     22  C   UNL A   1      33.644  21.063  26.536  1.00  0.00     0.004 A 
ATOM     23  C   UNL A   1      32.848  23.225  27.293  1.00  0.00     0.030 A 
ATOM     24  C   UNL A   1      33.705  22.127  27.435  1.00  0.00     0.002 A 
BRANCH  20  25
ATOM     25  O   UNL A   1      31.215  22.392  24.154  1.00  0.00    -0.492 OA
BRANCH  25  26
ATOM     26  C   UNL A   1      32.066  22.331  22.991  1.00  0.00     0.226 C 
ATOM     27  C   UNL A   1      31.790  21.051  22.216  1.00  0.00     0.049 C 
ENDBRANCH  25  26
ENDBRANCH  20  25
ENDBRANCH  16  19
ENDBRANCH   7  15
ENDBRANCH   4   6
ENDBRANCH   3   4
ENDBRANCH   2   3
ENDBRANCH   1   2
BRANCH   1  28
ATOM     28  O   UNL A   1      37.928  23.285  26.067  1.00  0.00    -0.374 OA
BRANCH  28  29
ATOM     29  C   UNL A   1      38.761  22.133  26.107  1.00  0.00     0.202 C 
BRANCH  29  30
ATOM     30  C   UNL A   1      40.238  22.330  26.484  1.00  0.00     0.261 C 
BRANCH  30  31
ATOM     31  O   UNL A   1      40.492  23.328  27.482  1.00  0.00    -0.460 OA
BRANCH  31  32
ATOM     32  C   UNL A   1      41.125  24.427  26.999  1.00  0.00     0.338 C 
ATOM     33  O   UNL A   1      41.826  24.495  26.003  1.00  0.00    -0.246 OA
BRANCH  32  34
ATOM     34  C   UNL A   1      40.771  25.624  27.780  1.00  0.00     0.060 A 
ATOM     35  C   UNL A   1      41.703  26.667  27.823  1.00  0.00     0.016 A 
ATOM     36  C   UNL A   1      39.625  25.658  28.577  1.00  0.00     0.016 A 
ATOM     37  C   UNL A   1      41.518  27.728  28.707  1.00  0.00     0.010 A 
ATOM     38  C   UNL A   1      39.446  26.722  29.469  1.00  0.00     0.010 A 
ATOM     39  C   UNL A   1      40.411  27.740  29.565  1.00  0.00    -0.014 A 
BRANCH  39  40
ATOM     40  C   UNL A   1      40.337  28.756  30.643  1.00  0.00     0.031 A 
ATOM     41  C   UNL A   1      41.245  28.631  31.837  1.00  0.00     0.074 A 
ATOM     42  C   UNL A   1      39.489  29.795  30.538  1.00  0.00     0.049 A 
ATOM     43  N   UNL A   1      41.340  29.405  32.887  1.00  0.00    -0.248 NA
ATOM     44  C   UNL A   1      42.168  27.483  31.851  1.00  0.00     0.031 C 
ATOM     45  C   UNL A   1      38.581  30.032  29.414  1.00  0.00     0.029 A 
ATOM     46  N   UNL A   1      39.246  30.840  31.392  1.00  0.00    -0.354 N 
ATOM     47  C   UNL A   1      42.319  28.834  33.693  1.00  0.00     0.074 A 
ATOM     48  C   UNL A   1      42.778  27.639  33.019  1.00  0.00     0.031 C 
ATOM     49  C   UNL A   1      37.870  31.146  29.657  1.00  0.00     0.029 A 
ATOM     50  C   UNL A   1      38.249  31.683  30.961  1.00  0.00     0.049 A 
ATOM     51  H   UNL A   1      39.740  30.975  32.233  1.00  0.00     0.167 HD
ATOM     52  C   UNL A   1      42.792  29.267  34.885  1.00  0.00     0.031 A 
ATOM     53  C   UNL A   1      37.687  32.750  31.564  1.00  0.00     0.031 A 
ATOM     54  C   UNL A   1      42.329  30.459  35.548  1.00  0.00     0.049 A 
ATOM     55  C   UNL A   1      38.199  33.184  32.912  1.00  0.00     0.074 A 
ATOM     56  C   UNL A   1      42.778  31.010  36.736  1.00  0.00     0.029 A 
ATOM     57  N   UNL A   1      41.305  31.274  35.090  1.00  0.00    -0.354 N 
ATOM     58  N   UNL A   1      39.167  32.666  33.631  1.00  0.00    -0.248 NA
ATOM     59  C   UNL A   1      37.549  34.350  33.527  1.00  0.00     0.031 C 
ATOM     60  C   UNL A   1      41.982  32.121  37.028  1.00  0.00     0.029 A 
ATOM     61  C   UNL A   1      41.079  32.299  35.992  1.00  0.00     0.049 A 
ATOM     62  H   UNL A   1      40.811  31.142  34.248  1.00  0.00     0.167 HD
ATOM     63  C   UNL A   1      39.251  33.453  34.775  1.00  0.00     0.074 A 
ATOM     64  C   UNL A   1      38.254  34.494  34.640  1.00  0.00     0.031 C 
ATOM     65  C   UNL A   1      40.077  33.324  35.843  1.00  0.00     0.031 A 
BRANCH  52  66
ATOM     66  C   UNL A   1      43.842  28.437  35.576  1.00  0.00    -0.014 A 
ATOM     67  C   UNL A   1      45.213  28.651  35.348  1.00  0.00     0.010 A 
ATOM     68  C   UNL A   1      43.447  27.477  36.527  1.00  0.00     0.010 A 
ATOM     69  C   UNL A   1      46.169  27.906  36.045  1.00  0.00     0.020 A 
ATOM     70  C   UNL A   1      44.401  26.747  37.242  1.00  0.00     0.020 A 
ATOM     71  C   UNL A   1      45.757  26.960  36.989  1.00  0.00     0.054 A 
BRANCH  71  72
ATOM     72  S   UNL A   1      47.020  26.044  37.916  1.00  0.00     0.124 S 
ATOM     73  O   UNL A   1      46.378  25.878  39.218  1.00  0.00    -0.237 OA
ATOM     74  O   UNL A   1      47.169  24.822  37.130  1.00  0.00    -0.237 OA
ATOM     75  O   UNL A   1      48.177  26.935  37.902  1.00  0.00    -0.744 OA
ENDBRANCH  71  72
ENDBRANCH  52  66
BRANCH  53  76
ATOM     76  C   UNL A   1      36.543  33.452  30.918  1.00  0.00    -0.014 A 
ATOM     77  C   UNL A   1      36.544  33.729  29.541  1.00  0.00     0.010 A 
ATOM     78  C   UNL A   1      35.441  33.856  31.694  1.00  0.00     0.010 A 
ATOM     79  C   UNL A   1      35.475  34.417  28.955  1.00  0.00     0.020 A 
ATOM     80  C   UNL A   1      34.358  34.516  31.109  1.00  0.00     0.020 A 
ATOM     81  C   UNL A   1      34.388  34.804  29.744  1.00  0.00     0.054 A 
BRANCH  81  82
ATOM     82  S   UNL A   1      32.990  35.655  28.960  1.00  0.00     0.124 S 
ATOM     83  O   UNL A   1      32.122  35.929  30.101  1.00  0.00    -0.237 OA
ATOM     84  O   UNL A   1      33.629  36.821  28.355  1.00  0.00    -0.237 OA
ATOM     85  O   UNL A   1      32.483  34.670  28.007  1.00  0.00    -0.744 OA
ENDBRANCH  81  82
ENDBRANCH  53  76
BRANCH  65  86
ATOM     86  C   UNL A   1      39.949  34.342  36.945  1.00  0.00    -0.014 A 
ATOM     87  C   UNL A   1      40.569  35.600  36.845  1.00  0.00     0.010 A 
ATOM     88  C   UNL A   1      39.152  34.056  38.067  1.00  0.00     0.010 A 
ATOM     89  C   UNL A   1      40.418  36.544  37.865  1.00  0.00     0.020 A 
ATOM     90  C   UNL A   1      38.975  35.008  39.075  1.00  0.00     0.020 A 
ATOM     91  C   UNL A   1      39.622  36.240  38.974  1.00  0.00     0.054 A 
BRANCH  91  92
ATOM     92  S   UNL A   1      39.408  37.497  40.264  1.00  0.00     0.124 S 
ATOM     93  O   UNL A   1      38.829  36.717  41.355  1.00  0.00    -0.237 OA
ATOM     94  O   UNL A   1      40.774  37.967  40.484  1.00  0.00    -0.237 OA
ATOM     95  O   UNL A   1      38.511  38.474  39.652  1.00  0.00    -0.744 OA
ENDBRANCH  91  92
ENDBRANCH  65  86
ENDBRANCH  39  40
ENDBRANCH  32  34
ENDBRANCH  31  32
ENDBRANCH  30  31
ENDBRANCH  29  30
ENDBRANCH  28  29
ENDBRANCH   1  28
TORSDOF 21
ENDMDL
