MODEL 1
REMARK VINA RESULT:     -10.4      0.000      0.000
REMARK SMILES COc1cc(Cl)c2c(c1)C=C(C(=O)OCCOCCOC(=O)c1ccc(-c3c4nc(c(-c5ccc(S(=O)(=O)[O-])cc5)c5ccc([nH]5)c(-c5ccc(S(=O)(=O)[O-])cc5)c5nc(c(-c6ccc(S(=O)(=O)[O-])cc6)c6ccc3[nH]6)C=C5)C=C4)cc1)[C@@H](C(F)(F)F)O2
REMARK SMILES IDX 18 1 17 2 16 3 15 4 14 5 12 6 13 7 11 8 3 9 4 10 9 11 5 12
REMARK SMILES IDX 8 13 6 14 7 15 10 16 88 17 83 18 2 19 1 20 84 21 85 22 86 23
REMARK SMILES IDX 87 24 19 25 20 26 21 27 22 28 23 29 24 30 82 31 25 32 81 33
REMARK SMILES IDX 26 34 27 35 28 36 75 37 29 38 80 39 74 40 76 41 30 42 79 43
REMARK SMILES IDX 73 44 72 45 31 47 61 48 42 49 60 50 43 51 46 52 59 53 77 54
REMARK SMILES IDX 44 55 45 56 58 58 78 59 47 60 32 61 33 62 41 63 34 64 40 65
REMARK SMILES IDX 35 66 36 67 37 68 38 69 39 70 62 71 63 72 71 73 64 74 70 75
REMARK SMILES IDX 65 76 66 77 67 78 68 79 69 80 48 81 49 82 57 83 50 84 56 85
REMARK SMILES IDX 51 86 52 87 53 88 54 89 55 90
REMARK H PARENT 76 46 46 57
REMARK Flexibility Score: inf
ROOT
ATOM      1  C   UNL A   1      35.798  21.596  24.569  1.00  0.00     0.202 C 
ENDROOT
BRANCH   1   2
ATOM      2  O   UNL A   1      35.068  20.632  25.330  1.00  0.00    -0.374 OA
BRANCH   2   3
ATOM      3  C   UNL A   1      33.760  20.987  25.770  1.00  0.00     0.202 C 
BRANCH   3   4
ATOM      4  C   UNL A   1      32.661  21.033  24.703  1.00  0.00     0.261 C 
BRANCH   4   5
ATOM      5  O   UNL A   1      31.985  22.300  24.684  1.00  0.00    -0.460 OA
BRANCH   5   6
ATOM      6  C   UNL A   1      32.452  23.170  23.760  1.00  0.00     0.338 C 
ATOM      7  O   UNL A   1      33.009  22.897  22.708  1.00  0.00    -0.246 OA
BRANCH   6   8
ATOM      8  C   UNL A   1      32.069  24.547  24.128  1.00  0.00     0.087 C 
ATOM      9  C   UNL A   1      30.138  28.692  22.648  1.00  0.00     0.121 A 
ATOM     10  C   UNL A   1      30.596  29.330  23.798  1.00  0.00     0.070 A 
ATOM     11  C   UNL A   1      30.330  27.321  22.493  1.00  0.00     0.058 A 
ATOM     12  C   UNL A   1      31.251  28.588  24.787  1.00  0.00     0.087 A 
ATOM     13  C   UNL A   1      31.022  26.588  23.463  1.00  0.00     0.022 A 
ATOM     14  Cl  UNL A   1      31.798  29.423  26.198  1.00  0.00    -0.080 Cl
ATOM     15  C   UNL A   1      31.469  27.212  24.628  1.00  0.00     0.146 A 
ATOM     16  C   UNL A   1      31.326  25.193  23.221  1.00  0.00     0.027 C 
ATOM     17  O   UNL A   1      32.097  26.531  25.635  1.00  0.00    -0.474 OA
ATOM     18  C   UNL A   1      32.526  25.155  25.424  1.00  0.00     0.316 C 
BRANCH   9  19
ATOM     19  O   UNL A   1      29.445  29.314  21.645  1.00  0.00    -0.497 OA
ATOM     20  C   UNL A   1      28.169  29.809  22.040  1.00  0.00     0.278 C 
ENDBRANCH   9  19
BRANCH  18  21
ATOM     21  C   UNL A   1      34.051  25.092  25.605  1.00  0.00     0.430 C 
ATOM     22  F   UNL A   1      34.524  26.224  26.173  1.00  0.00    -0.167 F 
ATOM     23  F   UNL A   1      34.416  24.065  26.407  1.00  0.00    -0.167 F 
ATOM     24  F   UNL A   1      34.684  24.929  24.421  1.00  0.00    -0.167 F 
ENDBRANCH  18  21
ENDBRANCH   6   8
ENDBRANCH   5   6
ENDBRANCH   4   5
ENDBRANCH   3   4
ENDBRANCH   2   3
ENDBRANCH   1   2
BRANCH   1  25
ATOM     25  C   UNL A   1      37.306  21.708  24.825  1.00  0.00     0.261 C 
BRANCH  25  26
ATOM     26  O   UNL A   1      37.631  22.795  25.711  1.00  0.00    -0.460 OA
BRANCH  26  27
ATOM     27  C   UNL A   1      38.903  22.795  26.180  1.00  0.00     0.338 C 
ATOM     28  O   UNL A   1      39.752  21.930  26.020  1.00  0.00    -0.246 OA
BRANCH  27  29
ATOM     29  C   UNL A   1      39.200  24.099  26.792  1.00  0.00     0.060 A 
ATOM     30  C   UNL A   1      40.016  24.994  26.090  1.00  0.00     0.016 A 
ATOM     31  C   UNL A   1      38.751  24.400  28.079  1.00  0.00     0.016 A 
ATOM     32  C   UNL A   1      40.397  26.196  26.681  1.00  0.00     0.010 A 
ATOM     33  C   UNL A   1      39.149  25.599  28.676  1.00  0.00     0.010 A 
ATOM     34  C   UNL A   1      39.990  26.491  27.990  1.00  0.00    -0.014 A 
BRANCH  34  35
ATOM     35  C   UNL A   1      40.535  27.689  28.669  1.00  0.00     0.031 A 
ATOM     36  C   UNL A   1      39.655  28.893  28.853  1.00  0.00     0.074 A 
ATOM     37  C   UNL A   1      41.794  27.686  29.144  1.00  0.00     0.049 A 
ATOM     38  N   UNL A   1      39.937  30.037  29.417  1.00  0.00    -0.248 NA
ATOM     39  C   UNL A   1      38.276  28.797  28.342  1.00  0.00     0.031 C 
ATOM     40  C   UNL A   1      42.728  26.562  29.054  1.00  0.00     0.029 A 
ATOM     41  N   UNL A   1      42.504  28.661  29.800  1.00  0.00    -0.354 N 
ATOM     42  C   UNL A   1      38.775  30.793  29.338  1.00  0.00     0.074 A 
ATOM     43  C   UNL A   1      37.789  29.993  28.648  1.00  0.00     0.031 C 
ATOM     44  C   UNL A   1      43.891  26.915  29.627  1.00  0.00     0.029 A 
ATOM     45  C   UNL A   1      43.793  28.293  30.104  1.00  0.00     0.049 A 
ATOM     46  H   UNL A   1      42.126  29.540  30.030  1.00  0.00     0.167 HD
ATOM     47  C   UNL A   1      38.550  32.040  29.811  1.00  0.00     0.031 A 
ATOM     48  C   UNL A   1      44.787  28.992  30.689  1.00  0.00     0.031 A 
ATOM     49  C   UNL A   1      39.533  32.835  30.494  1.00  0.00     0.049 A 
ATOM     50  C   UNL A   1      44.530  30.402  31.150  1.00  0.00     0.074 A 
ATOM     51  C   UNL A   1      39.388  34.108  31.017  1.00  0.00     0.029 A 
ATOM     52  N   UNL A   1      40.834  32.437  30.753  1.00  0.00    -0.354 N 
ATOM     53  N   UNL A   1      43.420  31.095  31.077  1.00  0.00    -0.248 NA
ATOM     54  C   UNL A   1      45.649  31.121  31.775  1.00  0.00     0.031 C 
ATOM     55  C   UNL A   1      40.616  34.498  31.555  1.00  0.00     0.029 A 
ATOM     56  C   UNL A   1      41.508  33.448  31.412  1.00  0.00     0.049 A 
ATOM     57  H   UNL A   1      41.220  31.567  30.504  1.00  0.00     0.167 HD
ATOM     58  C   UNL A   1      43.701  32.322  31.669  1.00  0.00     0.074 A 
ATOM     59  C   UNL A   1      45.083  32.279  32.095  1.00  0.00     0.031 C 
ATOM     60  C   UNL A   1      42.879  33.384  31.846  1.00  0.00     0.031 A 
BRANCH  47  61
ATOM     61  C   UNL A   1      37.186  32.640  29.621  1.00  0.00    -0.014 A 
ATOM     62  C   UNL A   1      36.283  32.711  30.695  1.00  0.00     0.010 A 
ATOM     63  C   UNL A   1      36.860  33.260  28.401  1.00  0.00     0.010 A 
ATOM     64  C   UNL A   1      35.077  33.402  30.556  1.00  0.00     0.020 A 
ATOM     65  C   UNL A   1      35.662  33.966  28.263  1.00  0.00     0.020 A 
ATOM     66  C   UNL A   1      34.781  34.037  29.345  1.00  0.00     0.054 A 
BRANCH  66  67
ATOM     67  S   UNL A   1      33.241  34.988  29.224  1.00  0.00     0.124 S 
ATOM     68  O   UNL A   1      33.724  36.300  28.795  1.00  0.00    -0.237 OA
ATOM     69  O   UNL A   1      32.488  34.238  28.223  1.00  0.00    -0.237 OA
ATOM     70  O   UNL A   1      32.696  34.944  30.579  1.00  0.00    -0.744 OA
ENDBRANCH  66  67
ENDBRANCH  47  61
BRANCH  48  71
ATOM     71  C   UNL A   1      46.124  28.363  30.859  1.00  0.00    -0.014 A 
ATOM     72  C   UNL A   1      47.111  28.491  29.866  1.00  0.00     0.010 A 
ATOM     73  C   UNL A   1      46.426  27.656  32.038  1.00  0.00     0.010 A 
ATOM     74  C   UNL A   1      48.373  27.920  30.048  1.00  0.00     0.020 A 
ATOM     75  C   UNL A   1      47.693  27.101  32.232  1.00  0.00     0.020 A 
ATOM     76  C   UNL A   1      48.659  27.236  31.234  1.00  0.00     0.054 A 
BRANCH  76  77
ATOM     77  S   UNL A   1      50.321  26.542  31.458  1.00  0.00     0.124 S 
ATOM     78  O   UNL A   1      50.042  25.118  31.608  1.00  0.00    -0.237 OA
ATOM     79  O   UNL A   1      50.985  26.930  30.216  1.00  0.00    -0.237 OA
ATOM     80  O   UNL A   1      50.815  27.211  32.660  1.00  0.00    -0.744 OA
ENDBRANCH  76  77
ENDBRANCH  48  71
BRANCH  60  81
ATOM     81  C   UNL A   1      43.413  34.595  32.558  1.00  0.00    -0.014 A 
ATOM     82  C   UNL A   1      43.916  35.690  31.835  1.00  0.00     0.010 A 
ATOM     83  C   UNL A   1      43.241  34.707  33.951  1.00  0.00     0.010 A 
ATOM     84  C   UNL A   1      44.218  36.886  32.493  1.00  0.00     0.020 A 
ATOM     85  C   UNL A   1      43.525  35.906  34.608  1.00  0.00     0.020 A 
ATOM     86  C   UNL A   1      44.003  36.991  33.871  1.00  0.00     0.054 A 
BRANCH  86  87
ATOM     87  S   UNL A   1      44.303  38.590  34.675  1.00  0.00     0.124 S 
ATOM     88  O   UNL A   1      43.971  38.303  36.069  1.00  0.00    -0.237 OA
ATOM     89  O   UNL A   1      45.720  38.817  34.402  1.00  0.00    -0.237 OA
ATOM     90  O   UNL A   1      43.386  39.502  33.996  1.00  0.00    -0.744 OA
ENDBRANCH  86  87
ENDBRANCH  60  81
ENDBRANCH  34  35
ENDBRANCH  27  29
ENDBRANCH  26  27
ENDBRANCH  25  26
ENDBRANCH   1  25
TORSDOF 19
ENDMDL
MODEL 2
REMARK VINA RESULT:     -10.3      2.664      9.245
REMARK SMILES COc1cc(Cl)c2c(c1)C=C(C(=O)OCCOCCOC(=O)c1ccc(-c3c4nc(c(-c5ccc(S(=O)(=O)[O-])cc5)c5ccc([nH]5)c(-c5ccc(S(=O)(=O)[O-])cc5)c5nc(c(-c6ccc(S(=O)(=O)[O-])cc6)c6ccc3[nH]6)C=C5)C=C4)cc1)[C@@H](C(F)(F)F)O2
REMARK SMILES IDX 18 1 17 2 16 3 15 4 14 5 12 6 13 7 11 8 3 9 4 10 9 11 5 12
REMARK SMILES IDX 8 13 6 14 7 15 10 16 88 17 83 18 2 19 1 20 84 21 85 22 86 23
REMARK SMILES IDX 87 24 19 25 20 26 21 27 22 28 23 29 24 30 82 31 25 32 81 33
REMARK SMILES IDX 26 34 27 35 28 36 75 37 29 38 80 39 74 40 76 41 30 42 79 43
REMARK SMILES IDX 73 44 72 45 31 47 61 48 42 49 60 50 43 51 46 52 59 53 77 54
REMARK SMILES IDX 44 55 45 56 58 58 78 59 47 60 32 61 33 62 41 63 34 64 40 65
REMARK SMILES IDX 35 66 36 67 37 68 38 69 39 70 62 71 63 72 71 73 64 74 70 75
REMARK SMILES IDX 65 76 66 77 67 78 68 79 69 80 48 81 49 82 57 83 50 84 56 85
REMARK SMILES IDX 51 86 52 87 53 88 54 89 55 90
REMARK H PARENT 76 46 46 57
REMARK Flexibility Score: inf
ROOT
ATOM      1  C   UNL A   1      31.435  29.202  25.838  1.00  0.00     0.202 C 
ENDROOT
BRANCH   1   2
ATOM      2  O   UNL A   1      31.246  28.207  24.830  1.00  0.00    -0.374 OA
BRANCH   2   3
ATOM      3  C   UNL A   1      31.781  28.466  23.535  1.00  0.00     0.202 C 
BRANCH   3   4
ATOM      4  C   UNL A   1      31.273  27.585  22.389  1.00  0.00     0.261 C 
BRANCH   4   5
ATOM      5  O   UNL A   1      31.590  26.199  22.598  1.00  0.00    -0.460 OA
BRANCH   5   6
ATOM      6  C   UNL A   1      32.769  25.808  22.062  1.00  0.00     0.338 C 
ATOM      7  O   UNL A   1      33.415  26.389  21.203  1.00  0.00    -0.246 OA
BRANCH   6   8
ATOM      8  C   UNL A   1      33.270  24.613  22.768  1.00  0.00     0.087 C 
ATOM      9  C   UNL A   1      32.577  19.957  23.737  1.00  0.00     0.121 A 
ATOM     10  C   UNL A   1      33.532  20.013  24.749  1.00  0.00     0.070 A 
ATOM     11  C   UNL A   1      32.339  21.078  22.945  1.00  0.00     0.058 A 
ATOM     12  C   UNL A   1      34.243  21.199  24.965  1.00  0.00     0.087 A 
ATOM     13  C   UNL A   1      33.019  22.276  23.190  1.00  0.00     0.022 A 
ATOM     14  Cl  UNL A   1      35.421  21.219  26.230  1.00  0.00    -0.080 Cl
ATOM     15  C   UNL A   1      33.993  22.339  24.188  1.00  0.00     0.146 A 
ATOM     16  C   UNL A   1      32.664  23.465  22.444  1.00  0.00     0.027 C 
ATOM     17  O   UNL A   1      34.729  23.466  24.430  1.00  0.00    -0.474 OA
ATOM     18  C   UNL A   1      34.363  24.724  23.793  1.00  0.00     0.316 C 
BRANCH   9  19
ATOM     19  O   UNL A   1      31.863  18.836  23.411  1.00  0.00    -0.497 OA
ATOM     20  C   UNL A   1      32.447  18.056  22.371  1.00  0.00     0.278 C 
ENDBRANCH   9  19
BRANCH  18  21
ATOM     21  C   UNL A   1      34.042  25.747  24.894  1.00  0.00     0.430 C 
ATOM     22  F   UNL A   1      32.755  25.645  25.298  1.00  0.00    -0.167 F 
ATOM     23  F   UNL A   1      34.815  25.561  25.989  1.00  0.00    -0.167 F 
ATOM     24  F   UNL A   1      34.241  27.015  24.466  1.00  0.00    -0.167 F 
ENDBRANCH  18  21
ENDBRANCH   6   8
ENDBRANCH   5   6
ENDBRANCH   4   5
ENDBRANCH   3   4
ENDBRANCH   2   3
ENDBRANCH   1   2
BRANCH   1  25
ATOM     25  C   UNL A   1      32.819  29.855  25.940  1.00  0.00     0.261 C 
BRANCH  25  26
ATOM     26  O   UNL A   1      33.510  29.487  27.148  1.00  0.00    -0.460 OA
BRANCH  26  27
ATOM     27  C   UNL A   1      34.262  30.469  27.704  1.00  0.00     0.338 C 
ATOM     28  O   UNL A   1      33.888  31.577  28.059  1.00  0.00    -0.246 OA
BRANCH  27  29
ATOM     29  C   UNL A   1      35.608  29.952  27.991  1.00  0.00     0.060 A 
ATOM     30  C   UNL A   1      35.914  29.584  29.307  1.00  0.00     0.016 A 
ATOM     31  C   UNL A   1      36.584  29.911  26.993  1.00  0.00     0.016 A 
ATOM     32  C   UNL A   1      37.208  29.185  29.634  1.00  0.00     0.010 A 
ATOM     33  C   UNL A   1      37.885  29.526  27.328  1.00  0.00     0.010 A 
ATOM     34  C   UNL A   1      38.207  29.182  28.651  1.00  0.00    -0.014 A 
BRANCH  34  35
ATOM     35  C   UNL A   1      39.611  28.917  29.041  1.00  0.00     0.031 A 
ATOM     36  C   UNL A   1      40.223  27.582  28.722  1.00  0.00     0.074 A 
ATOM     37  C   UNL A   1      40.339  29.874  29.646  1.00  0.00     0.049 A 
ATOM     38  N   UNL A   1      41.429  27.150  28.977  1.00  0.00    -0.248 NA
ATOM     39  C   UNL A   1      39.369  26.607  28.019  1.00  0.00     0.031 C 
ATOM     40  C   UNL A   1      39.861  31.218  29.974  1.00  0.00     0.029 A 
ATOM     41  N   UNL A   1      41.638  29.861  30.091  1.00  0.00    -0.354 N 
ATOM     42  C   UNL A   1      41.485  25.862  28.461  1.00  0.00     0.074 A 
ATOM     43  C   UNL A   1      40.185  25.567  27.903  1.00  0.00     0.031 C 
ATOM     44  C   UNL A   1      40.852  31.897  30.575  1.00  0.00     0.029 A 
ATOM     45  C   UNL A   1      42.025  31.034  30.694  1.00  0.00     0.049 A 
ATOM     46  H   UNL A   1      42.235  29.085  29.987  1.00  0.00     0.167 HD
ATOM     47  C   UNL A   1      42.533  25.007  28.447  1.00  0.00     0.031 A 
ATOM     48  C   UNL A   1      43.188  31.369  31.288  1.00  0.00     0.031 A 
ATOM     49  C   UNL A   1      43.824  25.302  29.006  1.00  0.00     0.049 A 
ATOM     50  C   UNL A   1      44.320  30.376  31.315  1.00  0.00     0.074 A 
ATOM     51  C   UNL A   1      44.948  24.497  29.028  1.00  0.00     0.029 A 
ATOM     52  N   UNL A   1      44.163  26.488  29.636  1.00  0.00    -0.354 N 
ATOM     53  N   UNL A   1      44.358  29.167  30.811  1.00  0.00    -0.248 NA
ATOM     54  C   UNL A   1      45.564  30.790  31.980  1.00  0.00     0.031 C 
ATOM     55  C   UNL A   1      45.958  25.180  29.709  1.00  0.00     0.029 A 
ATOM     56  C   UNL A   1      45.476  26.429  30.065  1.00  0.00     0.049 A 
ATOM     57  H   UNL A   1      43.560  27.256  29.759  1.00  0.00     0.167 HD
ATOM     58  C   UNL A   1      45.635  28.686  31.077  1.00  0.00     0.074 A 
ATOM     59  C   UNL A   1      46.341  29.731  31.785  1.00  0.00     0.031 C 
ATOM     60  C   UNL A   1      46.171  27.484  30.754  1.00  0.00     0.031 A 
BRANCH  47  61
ATOM     61  C   UNL A   1      42.350  23.664  27.802  1.00  0.00    -0.014 A 
ATOM     62  C   UNL A   1      42.676  23.473  26.448  1.00  0.00     0.010 A 
ATOM     63  C   UNL A   1      41.982  22.556  28.587  1.00  0.00     0.010 A 
ATOM     64  C   UNL A   1      42.648  22.192  25.892  1.00  0.00     0.020 A 
ATOM     65  C   UNL A   1      41.967  21.272  28.037  1.00  0.00     0.020 A 
ATOM     66  C   UNL A   1      42.307  21.098  26.693  1.00  0.00     0.054 A 
BRANCH  66  67
ATOM     67  S   UNL A   1      42.353  19.441  25.957  1.00  0.00     0.124 S 
ATOM     68  O   UNL A   1      43.236  19.641  24.809  1.00  0.00    -0.237 OA
ATOM     69  O   UNL A   1      42.904  18.633  27.040  1.00  0.00    -0.237 OA
ATOM     70  O   UNL A   1      40.957  19.169  25.622  1.00  0.00    -0.744 OA
ENDBRANCH  66  67
ENDBRANCH  47  61
BRANCH  48  71
ATOM     71  C   UNL A   1      43.331  32.709  31.917  1.00  0.00    -0.014 A 
ATOM     72  C   UNL A   1      42.996  32.910  33.267  1.00  0.00     0.010 A 
ATOM     73  C   UNL A   1      43.837  33.788  31.168  1.00  0.00     0.010 A 
ATOM     74  C   UNL A   1      43.161  34.167  33.856  1.00  0.00     0.020 A 
ATOM     75  C   UNL A   1      44.022  35.041  31.759  1.00  0.00     0.020 A 
ATOM     76  C   UNL A   1      43.681  35.222  33.100  1.00  0.00     0.054 A 
BRANCH  76  77
ATOM     77  S   UNL A   1      43.922  36.831  33.905  1.00  0.00     0.124 S 
ATOM     78  O   UNL A   1      45.065  36.572  34.774  1.00  0.00    -0.237 OA
ATOM     79  O   UNL A   1      44.178  37.708  32.766  1.00  0.00    -0.237 OA
ATOM     80  O   UNL A   1      42.655  37.064  34.594  1.00  0.00    -0.744 OA
ENDBRANCH  76  77
ENDBRANCH  48  71
BRANCH  60  81
ATOM     81  C   UNL A   1      47.604  27.214  31.121  1.00  0.00    -0.014 A 
ATOM     82  C   UNL A   1      47.924  26.507  32.292  1.00  0.00     0.010 A 
ATOM     83  C   UNL A   1      48.620  27.513  30.194  1.00  0.00     0.010 A 
ATOM     84  C   UNL A   1      49.237  26.085  32.519  1.00  0.00     0.020 A 
ATOM     85  C   UNL A   1      49.929  27.078  30.410  1.00  0.00     0.020 A 
ATOM     86  C   UNL A   1      50.226  26.357  31.569  1.00  0.00     0.054 A 
BRANCH  86  87
ATOM     87  S   UNL A   1      51.896  25.701  31.844  1.00  0.00     0.124 S 
ATOM     88  O   UNL A   1      51.633  24.288  32.106  1.00  0.00    -0.237 OA
ATOM     89  O   UNL A   1      52.558  25.991  30.574  1.00  0.00    -0.237 OA
ATOM     90  O   UNL A   1      52.387  26.463  32.989  1.00  0.00    -0.744 OA
ENDBRANCH  86  87
ENDBRANCH  60  81
ENDBRANCH  34  35
ENDBRANCH  27  29
ENDBRANCH  26  27
ENDBRANCH  25  26
ENDBRANCH   1  25
TORSDOF 19
ENDMDL
MODEL 3
REMARK VINA RESULT:     -10.3      3.188      9.415
REMARK SMILES COc1cc(Cl)c2c(c1)C=C(C(=O)OCCOCCOC(=O)c1ccc(-c3c4nc(c(-c5ccc(S(=O)(=O)[O-])cc5)c5ccc([nH]5)c(-c5ccc(S(=O)(=O)[O-])cc5)c5nc(c(-c6ccc(S(=O)(=O)[O-])cc6)c6ccc3[nH]6)C=C5)C=C4)cc1)[C@@H](C(F)(F)F)O2
REMARK SMILES IDX 18 1 17 2 16 3 15 4 14 5 12 6 13 7 11 8 3 9 4 10 9 11 5 12
REMARK SMILES IDX 8 13 6 14 7 15 10 16 88 17 83 18 2 19 1 20 84 21 85 22 86 23
REMARK SMILES IDX 87 24 19 25 20 26 21 27 22 28 23 29 24 30 82 31 25 32 81 33
REMARK SMILES IDX 26 34 27 35 28 36 75 37 29 38 80 39 74 40 76 41 30 42 79 43
REMARK SMILES IDX 73 44 72 45 31 47 61 48 42 49 60 50 43 51 46 52 59 53 77 54
REMARK SMILES IDX 44 55 45 56 58 58 78 59 47 60 32 61 33 62 41 63 34 64 40 65
REMARK SMILES IDX 35 66 36 67 37 68 38 69 39 70 62 71 63 72 71 73 64 74 70 75
REMARK SMILES IDX 65 76 66 77 67 78 68 79 69 80 48 81 49 82 57 83 50 84 56 85
REMARK SMILES IDX 51 86 52 87 53 88 54 89 55 90
REMARK H PARENT 76 46 46 57
REMARK Flexibility Score: inf
ROOT
ATOM      1  C   UNL A   1      31.775  28.410  26.930  1.00  0.00     0.202 C 
ENDROOT
BRANCH   1   2
ATOM      2  O   UNL A   1      31.160  27.122  26.981  1.00  0.00    -0.374 OA
BRANCH   2   3
ATOM      3  C   UNL A   1      30.659  26.577  25.762  1.00  0.00     0.202 C 
BRANCH   3   4
ATOM      4  C   UNL A   1      31.575  25.605  25.012  1.00  0.00     0.261 C 
BRANCH   4   5
ATOM      5  O   UNL A   1      31.623  24.317  25.645  1.00  0.00    -0.460 OA
BRANCH   5   6
ATOM      6  C   UNL A   1      32.801  23.668  25.505  1.00  0.00     0.338 C 
ATOM      7  O   UNL A   1      33.883  24.000  25.965  1.00  0.00    -0.246 OA
BRANCH   6   8
ATOM      8  C   UNL A   1      32.587  22.382  24.813  1.00  0.00     0.087 C 
ATOM      9  C   UNL A   1      32.922  17.595  25.076  1.00  0.00     0.121 A 
ATOM     10  C   UNL A   1      32.714  17.492  23.703  1.00  0.00     0.070 A 
ATOM     11  C   UNL A   1      32.863  18.840  25.696  1.00  0.00     0.058 A 
ATOM     12  C   UNL A   1      32.448  18.645  22.955  1.00  0.00     0.087 A 
ATOM     13  C   UNL A   1      32.641  19.997  24.941  1.00  0.00     0.022 A 
ATOM     14  Cl  UNL A   1      32.192  18.467  21.255  1.00  0.00    -0.080 Cl
ATOM     15  C   UNL A   1      32.410  19.906  23.567  1.00  0.00     0.146 A 
ATOM     16  C   UNL A   1      32.713  21.294  25.582  1.00  0.00     0.027 C 
ATOM     17  O   UNL A   1      32.128  20.998  22.793  1.00  0.00    -0.474 OA
ATOM     18  C   UNL A   1      32.282  22.338  23.342  1.00  0.00     0.316 C 
BRANCH   9  19
ATOM     19  O   UNL A   1      33.140  16.528  25.905  1.00  0.00    -0.497 OA
ATOM     20  C   UNL A   1      32.733  15.275  25.360  1.00  0.00     0.278 C 
ENDBRANCH   9  19
BRANCH  18  21
ATOM     21  C   UNL A   1      33.321  23.091  22.497  1.00  0.00     0.430 C 
ATOM     22  F   UNL A   1      33.170  24.430  22.614  1.00  0.00    -0.167 F 
ATOM     23  F   UNL A   1      34.585  22.802  22.886  1.00  0.00    -0.167 F 
ATOM     24  F   UNL A   1      33.217  22.777  21.186  1.00  0.00    -0.167 F 
ENDBRANCH  18  21
ENDBRANCH   6   8
ENDBRANCH   5   6
ENDBRANCH   4   5
ENDBRANCH   3   4
ENDBRANCH   2   3
ENDBRANCH   1   2
BRANCH   1  25
ATOM     25  C   UNL A   1      33.249  28.476  26.513  1.00  0.00     0.261 C 
BRANCH  25  26
ATOM     26  O   UNL A   1      34.135  28.577  27.643  1.00  0.00    -0.460 OA
BRANCH  26  27
ATOM     27  C   UNL A   1      34.600  29.824  27.901  1.00  0.00     0.338 C 
ATOM     28  O   UNL A   1      33.952  30.858  27.969  1.00  0.00    -0.246 OA
BRANCH  27  29
ATOM     29  C   UNL A   1      36.022  29.750  28.268  1.00  0.00     0.060 A 
ATOM     30  C   UNL A   1      36.980  29.961  27.268  1.00  0.00     0.016 A 
ATOM     31  C   UNL A   1      36.407  29.392  29.561  1.00  0.00     0.016 A 
ATOM     32  C   UNL A   1      38.333  29.802  27.558  1.00  0.00     0.010 A 
ATOM     33  C   UNL A   1      37.764  29.216  29.844  1.00  0.00     0.010 A 
ATOM     34  C   UNL A   1      38.730  29.398  28.840  1.00  0.00    -0.014 A 
BRANCH  34  35
ATOM     35  C   UNL A   1      40.152  29.071  29.093  1.00  0.00     0.031 A 
ATOM     36  C   UNL A   1      40.662  27.699  28.748  1.00  0.00     0.074 A 
ATOM     37  C   UNL A   1      40.983  30.001  29.597  1.00  0.00     0.049 A 
ATOM     38  N   UNL A   1      41.866  27.212  28.890  1.00  0.00    -0.248 NA
ATOM     39  C   UNL A   1      39.695  26.755  28.160  1.00  0.00     0.031 C 
ATOM     40  C   UNL A   1      40.608  31.374  29.937  1.00  0.00     0.029 A 
ATOM     41  N   UNL A   1      42.319  29.931  29.907  1.00  0.00    -0.354 N 
ATOM     42  C   UNL A   1      41.807  25.913  28.405  1.00  0.00     0.074 A 
ATOM     43  C   UNL A   1      40.443  25.673  27.989  1.00  0.00     0.031 C 
ATOM     44  C   UNL A   1      41.687  32.015  30.416  1.00  0.00     0.029 A 
ATOM     45  C   UNL A   1      42.822  31.095  30.438  1.00  0.00     0.049 A 
ATOM     46  H   UNL A   1      42.864  29.124  29.764  1.00  0.00     0.167 HD
ATOM     47  C   UNL A   1      42.805  25.006  28.307  1.00  0.00     0.031 A 
ATOM     48  C   UNL A   1      44.055  31.383  30.903  1.00  0.00     0.031 A 
ATOM     49  C   UNL A   1      44.159  25.246  28.725  1.00  0.00     0.049 A 
ATOM     50  C   UNL A   1      45.134  30.335  30.840  1.00  0.00     0.074 A 
ATOM     51  C   UNL A   1      45.239  24.385  28.653  1.00  0.00     0.029 A 
ATOM     52  N   UNL A   1      44.618  26.426  29.286  1.00  0.00    -0.354 N 
ATOM     53  N   UNL A   1      45.061  29.115  30.367  1.00  0.00    -0.248 NA
ATOM     54  C   UNL A   1      46.458  30.698  31.365  1.00  0.00     0.031 C 
ATOM     55  C   UNL A   1      46.345  25.030  29.211  1.00  0.00     0.029 A 
ATOM     56  C   UNL A   1      45.963  26.309  29.582  1.00  0.00     0.049 A 
ATOM     57  H   UNL A   1      44.069  27.226  29.450  1.00  0.00     0.167 HD
ATOM     58  C   UNL A   1      46.334  28.575  30.514  1.00  0.00     0.074 A 
ATOM     59  C   UNL A   1      47.159  29.597  31.120  1.00  0.00     0.031 C 
ATOM     60  C   UNL A   1      46.776  27.342  30.169  1.00  0.00     0.031 A 
BRANCH  47  61
ATOM     61  C   UNL A   1      42.492  23.660  27.718  1.00  0.00    -0.014 A 
ATOM     62  C   UNL A   1      42.705  23.413  26.351  1.00  0.00     0.010 A 
ATOM     63  C   UNL A   1      42.114  22.600  28.562  1.00  0.00     0.010 A 
ATOM     64  C   UNL A   1      42.556  22.123  25.838  1.00  0.00     0.020 A 
ATOM     65  C   UNL A   1      41.979  21.305  28.054  1.00  0.00     0.020 A 
ATOM     66  C   UNL A   1      42.208  21.075  26.695  1.00  0.00     0.054 A 
BRANCH  66  67
ATOM     67  S   UNL A   1      42.097  19.399  26.009  1.00  0.00     0.124 S 
ATOM     68  O   UNL A   1      42.600  18.582  27.112  1.00  0.00    -0.237 OA
ATOM     69  O   UNL A   1      40.669  19.269  25.732  1.00  0.00    -0.237 OA
ATOM     70  O   UNL A   1      42.961  19.446  24.832  1.00  0.00    -0.744 OA
ENDBRANCH  66  67
ENDBRANCH  47  61
BRANCH  48  71
ATOM     71  C   UNL A   1      44.326  32.727  31.479  1.00  0.00    -0.014 A 
ATOM     72  C   UNL A   1      44.761  33.785  30.663  1.00  0.00     0.010 A 
ATOM     73  C   UNL A   1      44.117  32.960  32.851  1.00  0.00     0.010 A 
ATOM     74  C   UNL A   1      44.986  35.052  31.210  1.00  0.00     0.020 A 
ATOM     75  C   UNL A   1      44.320  34.230  33.398  1.00  0.00     0.020 A 
ATOM     76  C   UNL A   1      44.755  35.268  32.573  1.00  0.00     0.054 A 
BRANCH  76  77
ATOM     77  S   UNL A   1      45.016  36.934  33.244  1.00  0.00     0.124 S 
ATOM     78  O   UNL A   1      43.650  37.391  33.474  1.00  0.00    -0.237 OA
ATOM     79  O   UNL A   1      45.803  36.661  34.444  1.00  0.00    -0.237 OA
ATOM     80  O   UNL A   1      45.734  37.627  32.177  1.00  0.00    -0.744 OA
ENDBRANCH  76  77
ENDBRANCH  48  71
BRANCH  60  81
ATOM     81  C   UNL A   1      48.223  27.007  30.397  1.00  0.00    -0.014 A 
ATOM     82  C   UNL A   1      49.206  27.402  29.474  1.00  0.00     0.010 A 
ATOM     83  C   UNL A   1      48.617  26.453  31.630  1.00  0.00     0.010 A 
ATOM     84  C   UNL A   1      50.560  27.268  29.791  1.00  0.00     0.020 A 
ATOM     85  C   UNL A   1      49.968  26.334  31.956  1.00  0.00     0.020 A 
ATOM     86  C   UNL A   1      50.932  26.752  31.037  1.00  0.00     0.054 A 
BRANCH  86  87
ATOM     87  S   UNL A   1      52.696  26.693  31.459  1.00  0.00     0.124 S 
ATOM     88  O   UNL A   1      53.271  26.031  30.290  1.00  0.00    -0.237 OA
ATOM     89  O   UNL A   1      53.030  28.107  31.606  1.00  0.00    -0.237 OA
ATOM     90  O   UNL A   1      52.735  25.913  32.693  1.00  0.00    -0.744 OA
ENDBRANCH  86  87
ENDBRANCH  60  81
ENDBRANCH  34  35
ENDBRANCH  27  29
ENDBRANCH  26  27
ENDBRANCH  25  26
ENDBRANCH   1  25
TORSDOF 19
ENDMDL
