MODEL 1
REMARK VINA RESULT:     -11.0      0.000      0.000
REMARK SMILES CC(C)c1ccc([C@]2(C(=O)OCCOCCOC(=O)c3ccc(-c4c5nc(c(-c6ccc(S(=O)(=O)[O-])cc6)c6ccc([nH]6)c(-c6ccc(S(=O)(=O)[O-])cc6)c6nc(c(-c7ccc(S(=O)(=O)[O-])cc7)c7ccc4[nH]7)C=C6)C=C5)cc3)CCC[C@@H]2C)cc1
REMARK SMILES IDX 15 1 14 2 13 3 12 4 11 5 9 6 10 7 8 8 80 9 83 10 81 11 82 12
REMARK SMILES IDX 84 13 7 14 4 15 5 16 86 17 6 18 85 19 2 20 1 21 3 22 16 23
REMARK SMILES IDX 17 24 18 25 19 26 20 27 21 28 79 29 22 30 78 31 23 32 24 33
REMARK SMILES IDX 25 34 72 35 26 36 77 37 71 38 73 39 27 40 76 41 70 42 69 43
REMARK SMILES IDX 28 45 58 46 39 47 57 48 40 49 43 50 56 51 74 52 41 53 42 54
REMARK SMILES IDX 55 56 75 57 44 58 29 59 30 60 38 61 31 62 37 63 32 64 33 65
REMARK SMILES IDX 34 66 35 67 36 68 59 69 60 70 68 71 61 72 67 73 62 74 63 75
REMARK SMILES IDX 64 76 65 77 66 78 45 79 46 80 54 81 47 82 53 83 48 84 49 85
REMARK SMILES IDX 50 86 51 87 52 88
REMARK H PARENT 73 44 43 55
REMARK Flexibility Score: inf
ROOT
ATOM      1  C   UNL A   1      39.181  21.873  26.171  1.00  0.00     0.202 C 
ENDROOT
BRANCH   1   2
ATOM      2  O   UNL A   1      37.821  22.248  25.963  1.00  0.00    -0.374 OA
BRANCH   2   3
ATOM      3  C   UNL A   1      37.349  22.293  24.615  1.00  0.00     0.202 C 
BRANCH   3   4
ATOM      4  C   UNL A   1      36.509  23.512  24.234  1.00  0.00     0.261 C 
BRANCH   4   5
ATOM      5  O   UNL A   1      35.546  23.157  23.226  1.00  0.00    -0.463 OA
BRANCH   5   6
ATOM      6  C   UNL A   1      34.426  23.926  23.182  1.00  0.00     0.316 C 
ATOM      7  O   UNL A   1      34.216  24.781  22.326  1.00  0.00    -0.251 OA
BRANCH   6   8
ATOM      8  C   UNL A   1      33.438  23.624  24.350  1.00  0.00     0.095 C 
ATOM      9  C   UNL A   1      33.921  24.118  25.739  1.00  0.00     0.024 C 
ATOM     10  C   UNL A   1      32.210  24.561  24.118  1.00  0.00     0.008 C 
ATOM     11  C   UNL A   1      33.614  25.614  25.814  1.00  0.00     0.002 C 
ATOM     12  C   UNL A   1      32.720  25.924  24.619  1.00  0.00     0.005 C 
ATOM     13  C   UNL A   1      30.928  24.192  24.875  1.00  0.00     0.009 C 
BRANCH   8  14
ATOM     14  C   UNL A   1      33.173  22.106  24.325  1.00  0.00    -0.030 A 
ATOM     15  C   UNL A   1      32.825  19.269  24.171  1.00  0.00    -0.045 A 
ATOM     16  C   UNL A   1      32.355  20.119  23.160  1.00  0.00     0.004 A 
ATOM     17  C   UNL A   1      33.489  19.859  25.251  1.00  0.00     0.004 A 
ATOM     18  C   UNL A   1      32.531  21.507  23.231  1.00  0.00     0.005 A 
ATOM     19  C   UNL A   1      33.662  21.249  25.325  1.00  0.00     0.005 A 
BRANCH  15  20
ATOM     20  C   UNL A   1      32.608  17.768  24.036  1.00  0.00     0.013 C 
ATOM     21  C   UNL A   1      33.670  17.020  23.218  1.00  0.00     0.012 C 
ATOM     22  C   UNL A   1      32.486  17.111  25.417  1.00  0.00     0.012 C 
ENDBRANCH  15  20
ENDBRANCH   8  14
ENDBRANCH   6   8
ENDBRANCH   5   6
ENDBRANCH   4   5
ENDBRANCH   3   4
ENDBRANCH   2   3
ENDBRANCH   1   2
BRANCH   1  23
ATOM     23  C   UNL A   1      40.150  22.991  26.582  1.00  0.00     0.261 C 
BRANCH  23  24
ATOM     24  O   UNL A   1      39.564  24.301  26.502  1.00  0.00    -0.460 OA
BRANCH  24  25
ATOM     25  C   UNL A   1      40.459  25.306  26.347  1.00  0.00     0.338 C 
ATOM     26  O   UNL A   1      40.995  25.661  25.303  1.00  0.00    -0.246 OA
BRANCH  25  27
ATOM     27  C   UNL A   1      40.597  26.077  27.596  1.00  0.00     0.060 A 
ATOM     28  C   UNL A   1      39.543  25.999  28.517  1.00  0.00     0.016 A 
ATOM     29  C   UNL A   1      41.680  26.927  27.828  1.00  0.00     0.016 A 
ATOM     30  C   UNL A   1      39.544  26.809  29.649  1.00  0.00     0.010 A 
ATOM     31  C   UNL A   1      41.673  27.749  28.962  1.00  0.00     0.010 A 
ATOM     32  C   UNL A   1      40.587  27.720  29.857  1.00  0.00    -0.014 A 
BRANCH  32  33
ATOM     33  C   UNL A   1      40.448  28.744  30.921  1.00  0.00     0.031 A 
ATOM     34  C   UNL A   1      41.363  28.682  32.116  1.00  0.00     0.074 A 
ATOM     35  C   UNL A   1      39.560  29.748  30.802  1.00  0.00     0.049 A 
ATOM     36  N   UNL A   1      41.426  29.478  33.152  1.00  0.00    -0.248 NA
ATOM     37  C   UNL A   1      42.339  27.580  32.142  1.00  0.00     0.031 C 
ATOM     38  C   UNL A   1      38.655  29.946  29.670  1.00  0.00     0.029 A 
ATOM     39  N   UNL A   1      39.279  30.793  31.646  1.00  0.00    -0.354 N 
ATOM     40  C   UNL A   1      42.441  28.972  33.956  1.00  0.00     0.074 A 
ATOM     41  C   UNL A   1      42.947  27.786  33.301  1.00  0.00     0.031 C 
ATOM     42  C   UNL A   1      37.915  31.046  29.892  1.00  0.00     0.029 A 
ATOM     43  C   UNL A   1      38.273  31.613  31.192  1.00  0.00     0.049 A 
ATOM     44  H   UNL A   1      39.753  30.942  32.495  1.00  0.00     0.167 HD
ATOM     45  C   UNL A   1      42.913  29.454  35.131  1.00  0.00     0.031 A 
ATOM     46  C   UNL A   1      37.696  32.687  31.766  1.00  0.00     0.031 A 
ATOM     47  C   UNL A   1      42.400  30.626  35.788  1.00  0.00     0.049 A 
ATOM     48  C   UNL A   1      38.188  33.161  33.108  1.00  0.00     0.074 A 
ATOM     49  C   UNL A   1      42.819  31.200  36.976  1.00  0.00     0.029 A 
ATOM     50  N   UNL A   1      41.350  31.400  35.318  1.00  0.00    -0.354 N 
ATOM     51  N   UNL A   1      39.162  32.683  33.845  1.00  0.00    -0.248 NA
ATOM     52  C   UNL A   1      37.507  34.325  33.692  1.00  0.00     0.031 C 
ATOM     53  C   UNL A   1      41.987  32.289  37.251  1.00  0.00     0.029 A 
ATOM     54  C   UNL A   1      41.088  32.429  36.205  1.00  0.00     0.049 A 
ATOM     55  H   UNL A   1      40.862  31.241  34.477  1.00  0.00     0.167 HD
ATOM     56  C   UNL A   1      39.227  33.503  34.967  1.00  0.00     0.074 A 
ATOM     57  C   UNL A   1      38.203  34.514  34.805  1.00  0.00     0.031 C 
ATOM     58  C   UNL A   1      40.063  33.428  36.033  1.00  0.00     0.031 A 
BRANCH  45  59
ATOM     59  C   UNL A   1      44.022  28.685  35.800  1.00  0.00    -0.014 A 
ATOM     60  C   UNL A   1      45.373  28.982  35.544  1.00  0.00     0.010 A 
ATOM     61  C   UNL A   1      43.706  27.671  36.723  1.00  0.00     0.010 A 
ATOM     62  C   UNL A   1      46.387  28.253  36.171  1.00  0.00     0.020 A 
ATOM     63  C   UNL A   1      44.717  26.958  37.370  1.00  0.00     0.020 A 
ATOM     64  C   UNL A   1      46.052  27.242  37.078  1.00  0.00     0.054 A 
BRANCH  64  65
ATOM     65  S   UNL A   1      47.389  26.321  37.890  1.00  0.00     0.124 S 
ATOM     66  O   UNL A   1      47.472  26.993  39.185  1.00  0.00    -0.237 OA
ATOM     67  O   UNL A   1      46.866  24.957  37.922  1.00  0.00    -0.237 OA
ATOM     68  O   UNL A   1      48.535  26.524  37.008  1.00  0.00    -0.744 OA
ENDBRANCH  64  65
ENDBRANCH  45  59
BRANCH  46  69
ATOM     69  C   UNL A   1      36.571  33.379  31.080  1.00  0.00    -0.014 A 
ATOM     70  C   UNL A   1      35.288  33.412  31.654  1.00  0.00     0.010 A 
ATOM     71  C   UNL A   1      36.782  34.012  29.841  1.00  0.00     0.010 A 
ATOM     72  C   UNL A   1      34.235  34.056  30.996  1.00  0.00     0.020 A 
ATOM     73  C   UNL A   1      35.739  34.679  29.193  1.00  0.00     0.020 A 
ATOM     74  C   UNL A   1      34.468  34.687  29.770  1.00  0.00     0.054 A 
BRANCH  74  75
ATOM     75  S   UNL A   1      33.102  35.565  28.960  1.00  0.00     0.124 S 
ATOM     76  O   UNL A   1      32.447  34.490  28.221  1.00  0.00    -0.237 OA
ATOM     77  O   UNL A   1      32.354  36.100  30.095  1.00  0.00    -0.237 OA
ATOM     78  O   UNL A   1      33.779  36.568  28.142  1.00  0.00    -0.744 OA
ENDBRANCH  74  75
ENDBRANCH  46  69
BRANCH  58  79
ATOM     79  C   UNL A   1      39.930  34.485  37.098  1.00  0.00    -0.014 A 
ATOM     80  C   UNL A   1      39.105  34.291  38.219  1.00  0.00     0.010 A 
ATOM     81  C   UNL A   1      40.688  35.666  37.001  1.00  0.00     0.010 A 
ATOM     82  C   UNL A   1      39.018  35.273  39.210  1.00  0.00     0.020 A 
ATOM     83  C   UNL A   1      40.624  36.638  38.001  1.00  0.00     0.020 A 
ATOM     84  C   UNL A   1      39.777  36.441  39.094  1.00  0.00     0.054 A 
BRANCH  84  85
ATOM     85  S   UNL A   1      39.682  37.682  40.414  1.00  0.00     0.124 S 
ATOM     86  O   UNL A   1      38.316  38.177  40.267  1.00  0.00    -0.237 OA
ATOM     87  O   UNL A   1      39.937  36.892  41.617  1.00  0.00    -0.237 OA
ATOM     88  O   UNL A   1      40.732  38.637  40.069  1.00  0.00    -0.744 OA
ENDBRANCH  84  85
ENDBRANCH  58  79
ENDBRANCH  32  33
ENDBRANCH  25  27
ENDBRANCH  24  25
ENDBRANCH  23  24
ENDBRANCH   1  23
TORSDOF 19
ENDMDL
MODEL 2
REMARK VINA RESULT:     -10.7      6.371     10.919
REMARK SMILES CC(C)c1ccc([C@]2(C(=O)OCCOCCOC(=O)c3ccc(-c4c5nc(c(-c6ccc(S(=O)(=O)[O-])cc6)c6ccc([nH]6)c(-c6ccc(S(=O)(=O)[O-])cc6)c6nc(c(-c7ccc(S(=O)(=O)[O-])cc7)c7ccc4[nH]7)C=C6)C=C5)cc3)CCC[C@@H]2C)cc1
REMARK SMILES IDX 15 1 14 2 13 3 12 4 11 5 9 6 10 7 8 8 80 9 83 10 81 11 82 12
REMARK SMILES IDX 84 13 7 14 4 15 5 16 86 17 6 18 85 19 2 20 1 21 3 22 16 23
REMARK SMILES IDX 17 24 18 25 19 26 20 27 21 28 79 29 22 30 78 31 23 32 24 33
REMARK SMILES IDX 25 34 72 35 26 36 77 37 71 38 73 39 27 40 76 41 70 42 69 43
REMARK SMILES IDX 28 45 58 46 39 47 57 48 40 49 43 50 56 51 74 52 41 53 42 54
REMARK SMILES IDX 55 56 75 57 44 58 29 59 30 60 38 61 31 62 37 63 32 64 33 65
REMARK SMILES IDX 34 66 35 67 36 68 59 69 60 70 68 71 61 72 67 73 62 74 63 75
REMARK SMILES IDX 64 76 65 77 66 78 45 79 46 80 54 81 47 82 53 83 48 84 49 85
REMARK SMILES IDX 50 86 51 87 52 88
REMARK H PARENT 73 44 43 55
REMARK Flexibility Score: inf
ROOT
ATOM      1  C   UNL A   1      38.894  22.449  26.145  1.00  0.00     0.202 C 
ENDROOT
BRANCH   1   2
ATOM      2  O   UNL A   1      37.652  22.981  25.691  1.00  0.00    -0.374 OA
BRANCH   2   3
ATOM      3  C   UNL A   1      37.061  22.379  24.537  1.00  0.00     0.202 C 
BRANCH   3   4
ATOM      4  C   UNL A   1      36.573  23.338  23.451  1.00  0.00     0.261 C 
BRANCH   4   5
ATOM      5  O   UNL A   1      35.311  22.892  22.923  1.00  0.00    -0.463 OA
BRANCH   5   6
ATOM      6  C   UNL A   1      34.263  23.739  23.102  1.00  0.00     0.316 C 
ATOM      7  O   UNL A   1      34.030  24.701  22.376  1.00  0.00    -0.251 OA
BRANCH   6   8
ATOM      8  C   UNL A   1      33.394  23.372  24.343  1.00  0.00     0.095 C 
ATOM      9  C   UNL A   1      33.965  23.876  25.695  1.00  0.00     0.024 C 
ATOM     10  C   UNL A   1      32.103  24.245  24.228  1.00  0.00     0.008 C 
ATOM     11  C   UNL A   1      33.589  25.352  25.818  1.00  0.00     0.002 C 
ATOM     12  C   UNL A   1      32.583  25.628  24.706  1.00  0.00     0.005 C 
ATOM     13  C   UNL A   1      30.911  23.801  25.084  1.00  0.00     0.009 C 
BRANCH   8  14
ATOM     14  C   UNL A   1      33.207  21.842  24.316  1.00  0.00    -0.030 A 
ATOM     15  C   UNL A   1      32.992  18.993  24.148  1.00  0.00    -0.045 A 
ATOM     16  C   UNL A   1      32.388  19.830  23.198  1.00  0.00     0.004 A 
ATOM     17  C   UNL A   1      33.723  19.604  25.171  1.00  0.00     0.004 A 
ATOM     18  C   UNL A   1      32.497  21.223  23.276  1.00  0.00     0.005 A 
ATOM     19  C   UNL A   1      33.829  21.001  25.252  1.00  0.00     0.005 A 
BRANCH  15  20
ATOM     20  C   UNL A   1      32.842  17.484  24.007  1.00  0.00     0.013 C 
ATOM     21  C   UNL A   1      34.018  16.765  23.334  1.00  0.00     0.012 C 
ATOM     22  C   UNL A   1      32.574  16.837  25.372  1.00  0.00     0.012 C 
ENDBRANCH  15  20
ENDBRANCH   8  14
ENDBRANCH   6   8
ENDBRANCH   5   6
ENDBRANCH   4   5
ENDBRANCH   3   4
ENDBRANCH   2   3
ENDBRANCH   1   2
BRANCH   1  23
ATOM     23  C   UNL A   1      39.146  20.959  25.876  1.00  0.00     0.261 C 
BRANCH  23  24
ATOM     24  O   UNL A   1      40.010  20.349  26.850  1.00  0.00    -0.460 OA
BRANCH  24  25
ATOM     25  C   UNL A   1      41.241  20.027  26.383  1.00  0.00     0.338 C 
ATOM     26  O   UNL A   1      41.564  18.995  25.808  1.00  0.00    -0.246 OA
BRANCH  25  27
ATOM     27  C   UNL A   1      42.154  21.180  26.491  1.00  0.00     0.060 A 
ATOM     28  C   UNL A   1      42.412  21.675  27.776  1.00  0.00     0.016 A 
ATOM     29  C   UNL A   1      42.676  21.821  25.367  1.00  0.00     0.016 A 
ATOM     30  C   UNL A   1      43.150  22.844  27.939  1.00  0.00     0.010 A 
ATOM     31  C   UNL A   1      43.410  23.003  25.532  1.00  0.00     0.010 A 
ATOM     32  C   UNL A   1      43.616  23.539  26.817  1.00  0.00    -0.014 A 
BRANCH  32  33
ATOM     33  C   UNL A   1      44.176  24.902  26.993  1.00  0.00     0.031 A 
ATOM     34  C   UNL A   1      43.259  26.016  27.423  1.00  0.00     0.074 A 
ATOM     35  C   UNL A   1      45.490  25.135  26.826  1.00  0.00     0.049 A 
ATOM     36  N   UNL A   1      43.534  27.275  27.649  1.00  0.00    -0.248 NA
ATOM     37  C   UNL A   1      41.845  25.662  27.631  1.00  0.00     0.031 C 
ATOM     38  C   UNL A   1      46.487  24.130  26.459  1.00  0.00     0.029 A 
ATOM     39  N   UNL A   1      46.211  26.297  26.948  1.00  0.00    -0.354 N 
ATOM     40  C   UNL A   1      42.332  27.865  28.020  1.00  0.00     0.074 A 
ATOM     41  C   UNL A   1      41.319  26.833  27.962  1.00  0.00     0.031 C 
ATOM     42  C   UNL A   1      47.693  24.721  26.384  1.00  0.00     0.029 A 
ATOM     43  C   UNL A   1      47.548  26.148  26.668  1.00  0.00     0.049 A 
ATOM     44  H   UNL A   1      45.808  27.155  27.213  1.00  0.00     0.167 HD
ATOM     45  C   UNL A   1      42.092  29.148  28.381  1.00  0.00     0.031 A 
ATOM     46  C   UNL A   1      48.539  27.061  26.629  1.00  0.00     0.031 A 
ATOM     47  C   UNL A   1      43.097  30.176  28.426  1.00  0.00     0.049 A 
ATOM     48  C   UNL A   1      48.234  28.497  26.962  1.00  0.00     0.074 A 
ATOM     49  C   UNL A   1      42.954  31.504  28.790  1.00  0.00     0.029 A 
ATOM     50  N   UNL A   1      44.429  29.994  28.090  1.00  0.00    -0.354 N 
ATOM     51  N   UNL A   1      47.095  29.034  27.330  1.00  0.00    -0.248 NA
ATOM     52  C   UNL A   1      49.351  29.450  26.883  1.00  0.00     0.031 C 
ATOM     53  C   UNL A   1      44.190  32.137  28.621  1.00  0.00     0.029 A 
ATOM     54  C   UNL A   1      45.115  31.191  28.209  1.00  0.00     0.049 A 
ATOM     55  H   UNL A   1      44.829  29.140  27.807  1.00  0.00     0.167 HD
ATOM     56  C   UNL A   1      47.364  30.382  27.551  1.00  0.00     0.074 A 
ATOM     57  C   UNL A   1      48.775  30.574  27.288  1.00  0.00     0.031 C 
ATOM     58  C   UNL A   1      46.520  31.369  27.941  1.00  0.00     0.031 A 
BRANCH  45  59
ATOM     59  C   UNL A   1      40.673  29.519  28.722  1.00  0.00    -0.014 A 
ATOM     60  C   UNL A   1      39.625  29.317  27.805  1.00  0.00     0.010 A 
ATOM     61  C   UNL A   1      40.379  30.048  29.992  1.00  0.00     0.010 A 
ATOM     62  C   UNL A   1      38.316  29.673  28.139  1.00  0.00     0.020 A 
ATOM     63  C   UNL A   1      39.067  30.382  30.338  1.00  0.00     0.020 A 
ATOM     64  C   UNL A   1      38.045  30.208  29.403  1.00  0.00     0.054 A 
BRANCH  64  65
ATOM     65  S   UNL A   1      36.334  30.647  29.816  1.00  0.00     0.124 S 
ATOM     66  O   UNL A   1      36.506  31.943  30.469  1.00  0.00    -0.237 OA
ATOM     67  O   UNL A   1      35.687  30.684  28.507  1.00  0.00    -0.237 OA
ATOM     68  O   UNL A   1      35.899  29.562  30.692  1.00  0.00    -0.744 OA
ENDBRANCH  64  65
ENDBRANCH  45  59
BRANCH  46  69
ATOM     69  C   UNL A   1      49.914  26.645  26.238  1.00  0.00    -0.014 A 
ATOM     70  C   UNL A   1      50.327  26.691  24.895  1.00  0.00     0.010 A 
ATOM     71  C   UNL A   1      50.822  26.201  27.217  1.00  0.00     0.010 A 
ATOM     72  C   UNL A   1      51.618  26.289  24.537  1.00  0.00     0.020 A 
ATOM     73  C   UNL A   1      52.121  25.823  26.868  1.00  0.00     0.020 A 
ATOM     74  C   UNL A   1      52.507  25.859  25.527  1.00  0.00     0.054 A 
BRANCH  74  75
ATOM     75  S   UNL A   1      54.195  25.395  25.049  1.00  0.00     0.124 S 
ATOM     76  O   UNL A   1      54.983  25.948  26.146  1.00  0.00    -0.237 OA
ATOM     77  O   UNL A   1      54.118  23.937  24.997  1.00  0.00    -0.237 OA
ATOM     78  O   UNL A   1      54.375  26.048  23.755  1.00  0.00    -0.744 OA
ENDBRANCH  74  75
ENDBRANCH  46  69
BRANCH  58  79
ATOM     79  C   UNL A   1      47.101  32.744  28.138  1.00  0.00    -0.014 A 
ATOM     80  C   UNL A   1      47.657  33.131  29.371  1.00  0.00     0.010 A 
ATOM     81  C   UNL A   1      47.144  33.641  27.056  1.00  0.00     0.010 A 
ATOM     82  C   UNL A   1      48.217  34.402  29.524  1.00  0.00     0.020 A 
ATOM     83  C   UNL A   1      47.727  34.902  27.197  1.00  0.00     0.020 A 
ATOM     84  C   UNL A   1      48.248  35.280  28.436  1.00  0.00     0.054 A 
BRANCH  84  85
ATOM     85  S   UNL A   1      49.021  36.908  28.647  1.00  0.00     0.124 S 
ATOM     86  O   UNL A   1      48.323  37.425  29.820  1.00  0.00    -0.237 OA
ATOM     87  O   UNL A   1      50.428  36.572  28.851  1.00  0.00    -0.237 OA
ATOM     88  O   UNL A   1      48.726  37.597  27.392  1.00  0.00    -0.744 OA
ENDBRANCH  84  85
ENDBRANCH  58  79
ENDBRANCH  32  33
ENDBRANCH  25  27
ENDBRANCH  24  25
ENDBRANCH  23  24
ENDBRANCH   1  23
TORSDOF 19
ENDMDL
MODEL 3
REMARK VINA RESULT:     -10.7      1.646      3.565
REMARK SMILES CC(C)c1ccc([C@]2(C(=O)OCCOCCOC(=O)c3ccc(-c4c5nc(c(-c6ccc(S(=O)(=O)[O-])cc6)c6ccc([nH]6)c(-c6ccc(S(=O)(=O)[O-])cc6)c6nc(c(-c7ccc(S(=O)(=O)[O-])cc7)c7ccc4[nH]7)C=C6)C=C5)cc3)CCC[C@@H]2C)cc1
REMARK SMILES IDX 15 1 14 2 13 3 12 4 11 5 9 6 10 7 8 8 80 9 83 10 81 11 82 12
REMARK SMILES IDX 84 13 7 14 4 15 5 16 86 17 6 18 85 19 2 20 1 21 3 22 16 23
REMARK SMILES IDX 17 24 18 25 19 26 20 27 21 28 79 29 22 30 78 31 23 32 24 33
REMARK SMILES IDX 25 34 72 35 26 36 77 37 71 38 73 39 27 40 76 41 70 42 69 43
REMARK SMILES IDX 28 45 58 46 39 47 57 48 40 49 43 50 56 51 74 52 41 53 42 54
REMARK SMILES IDX 55 56 75 57 44 58 29 59 30 60 38 61 31 62 37 63 32 64 33 65
REMARK SMILES IDX 34 66 35 67 36 68 59 69 60 70 68 71 61 72 67 73 62 74 63 75
REMARK SMILES IDX 64 76 65 77 66 78 45 79 46 80 54 81 47 82 53 83 48 84 49 85
REMARK SMILES IDX 50 86 51 87 52 88
REMARK H PARENT 73 44 43 55
REMARK Flexibility Score: inf
ROOT
ATOM      1  C   UNL A   1      39.541  22.028  26.131  1.00  0.00     0.202 C 
ENDROOT
BRANCH   1   2
ATOM      2  O   UNL A   1      38.116  22.009  26.165  1.00  0.00    -0.374 OA
BRANCH   2   3
ATOM      3  C   UNL A   1      37.424  22.397  24.976  1.00  0.00     0.202 C 
BRANCH   3   4
ATOM      4  C   UNL A   1      36.577  23.665  25.071  1.00  0.00     0.261 C 
BRANCH   4   5
ATOM      5  O   UNL A   1      35.179  23.329  25.112  1.00  0.00    -0.463 OA
BRANCH   5   6
ATOM      6  C   UNL A   1      34.452  23.685  24.020  1.00  0.00     0.316 C 
ATOM      7  O   UNL A   1      34.945  23.962  22.931  1.00  0.00    -0.251 OA
BRANCH   6   8
ATOM      8  C   UNL A   1      32.919  23.725  24.301  1.00  0.00     0.095 C 
ATOM      9  C   UNL A   1      32.035  23.422  23.061  1.00  0.00     0.024 C 
ATOM     10  C   UNL A   1      32.618  22.473  25.186  1.00  0.00     0.008 C 
ATOM     11  C   UNL A   1      32.005  21.904  22.892  1.00  0.00     0.002 C 
ATOM     12  C   UNL A   1      32.617  21.323  24.162  1.00  0.00     0.005 C 
ATOM     13  C   UNL A   1      31.280  22.484  25.935  1.00  0.00     0.009 C 
BRANCH   8  14
ATOM     14  C   UNL A   1      32.617  25.105  24.916  1.00  0.00    -0.030 A 
ATOM     15  C   UNL A   1      32.134  27.742  25.917  1.00  0.00    -0.045 A 
ATOM     16  C   UNL A   1      33.376  27.113  26.085  1.00  0.00     0.004 A 
ATOM     17  C   UNL A   1      31.144  27.040  25.223  1.00  0.00     0.004 A 
ATOM     18  C   UNL A   1      33.615  25.825  25.590  1.00  0.00     0.005 A 
ATOM     19  C   UNL A   1      31.382  25.748  24.731  1.00  0.00     0.005 A 
BRANCH  15  20
ATOM     20  C   UNL A   1      31.935  29.146  26.474  1.00  0.00     0.013 C 
ATOM     21  C   UNL A   1      33.170  29.776  27.130  1.00  0.00     0.012 C 
ATOM     22  C   UNL A   1      31.410  30.091  25.385  1.00  0.00     0.012 C 
ENDBRANCH  15  20
ENDBRANCH   8  14
ENDBRANCH   6   8
ENDBRANCH   5   6
ENDBRANCH   4   5
ENDBRANCH   3   4
ENDBRANCH   2   3
ENDBRANCH   1   2
BRANCH   1  23
ATOM     23  C   UNL A   1      40.238  23.089  26.994  1.00  0.00     0.261 C 
BRANCH  23  24
ATOM     24  O   UNL A   1      39.415  24.240  27.245  1.00  0.00    -0.460 OA
BRANCH  24  25
ATOM     25  C   UNL A   1      40.014  25.426  26.979  1.00  0.00     0.338 C 
ATOM     26  O   UNL A   1      40.576  25.750  25.939  1.00  0.00    -0.246 OA
BRANCH  25  27
ATOM     27  C   UNL A   1      39.755  26.393  28.061  1.00  0.00     0.060 A 
ATOM     28  C   UNL A   1      40.425  27.622  27.996  1.00  0.00     0.016 A 
ATOM     29  C   UNL A   1      38.953  26.080  29.160  1.00  0.00     0.016 A 
ATOM     30  C   UNL A   1      40.337  28.522  29.054  1.00  0.00     0.010 A 
ATOM     31  C   UNL A   1      38.874  26.983  30.228  1.00  0.00     0.010 A 
ATOM     32  C   UNL A   1      39.596  28.190  30.195  1.00  0.00    -0.014 A 
BRANCH  32  33
ATOM     33  C   UNL A   1      39.717  29.039  31.406  1.00  0.00     0.031 A 
ATOM     34  C   UNL A   1      40.861  28.798  32.354  1.00  0.00     0.074 A 
ATOM     35  C   UNL A   1      38.853  30.046  31.632  1.00  0.00     0.049 A 
ATOM     36  N   UNL A   1      41.166  29.425  33.461  1.00  0.00    -0.248 NA
ATOM     37  C   UNL A   1      41.788  27.708  32.005  1.00  0.00     0.031 C 
ATOM     38  C   UNL A   1      37.735  30.411  30.764  1.00  0.00     0.029 A 
ATOM     39  N   UNL A   1      38.788  30.948  32.664  1.00  0.00    -0.354 N 
ATOM     40  C   UNL A   1      42.313  28.806  33.943  1.00  0.00     0.074 A 
ATOM     41  C   UNL A   1      42.634  27.736  33.024  1.00  0.00     0.031 C 
ATOM     42  C   UNL A   1      37.091  31.462  31.301  1.00  0.00     0.029 A 
ATOM     43  C   UNL A   1      37.733  31.824  32.564  1.00  0.00     0.049 A 
ATOM     44  H   UNL A   1      39.435  30.967  33.404  1.00  0.00     0.167 HD
ATOM     45  C   UNL A   1      43.038  29.104  35.048  1.00  0.00     0.031 A 
ATOM     46  C   UNL A   1      37.323  32.796  33.403  1.00  0.00     0.031 A 
ATOM     47  C   UNL A   1      42.711  30.160  35.968  1.00  0.00     0.049 A 
ATOM     48  C   UNL A   1      38.102  33.061  34.665  1.00  0.00     0.074 A 
ATOM     49  C   UNL A   1      43.389  30.546  37.112  1.00  0.00     0.029 A 
ATOM     50  N   UNL A   1      41.609  30.993  35.856  1.00  0.00    -0.354 N 
ATOM     51  N   UNL A   1      39.196  32.478  35.096  1.00  0.00    -0.248 NA
ATOM     52  C   UNL A   1      37.596  34.119  35.549  1.00  0.00     0.031 C 
ATOM     53  C   UNL A   1      42.666  31.578  37.719  1.00  0.00     0.029 A 
ATOM     54  C   UNL A   1      41.571  31.874  36.923  1.00  0.00     0.049 A 
ATOM     55  H   UNL A   1      40.949  30.963  35.125  1.00  0.00     0.167 HD
ATOM     56  C   UNL A   1      39.522  33.118  36.288  1.00  0.00     0.074 A 
ATOM     57  C   UNL A   1      38.517  34.138  36.503  1.00  0.00     0.031 C 
ATOM     58  C   UNL A   1      40.562  32.883  37.126  1.00  0.00     0.031 A 
BRANCH  45  59
ATOM     59  C   UNL A   1      44.240  28.246  35.341  1.00  0.00    -0.014 A 
ATOM     60  C   UNL A   1      45.534  28.648  34.961  1.00  0.00     0.010 A 
ATOM     61  C   UNL A   1      44.076  27.033  36.035  1.00  0.00     0.010 A 
ATOM     62  C   UNL A   1      46.636  27.834  35.238  1.00  0.00     0.020 A 
ATOM     63  C   UNL A   1      45.179  26.230  36.335  1.00  0.00     0.020 A 
ATOM     64  C   UNL A   1      46.451  26.627  35.920  1.00  0.00     0.054 A 
BRANCH  64  65
ATOM     65  S   UNL A   1      47.901  25.597  36.280  1.00  0.00     0.124 S 
ATOM     66  O   UNL A   1      48.799  25.949  35.182  1.00  0.00    -0.237 OA
ATOM     67  O   UNL A   1      48.309  26.067  37.601  1.00  0.00    -0.237 OA
ATOM     68  O   UNL A   1      47.376  24.235  36.242  1.00  0.00    -0.744 OA
ENDBRANCH  64  65
ENDBRANCH  45  59
BRANCH  46  69
ATOM     69  C   UNL A   1      36.099  33.581  33.086  1.00  0.00    -0.014 A 
ATOM     70  C   UNL A   1      34.832  33.143  33.511  1.00  0.00     0.010 A 
ATOM     71  C   UNL A   1      36.198  34.778  32.353  1.00  0.00     0.010 A 
ATOM     72  C   UNL A   1      33.687  33.883  33.199  1.00  0.00     0.020 A 
ATOM     73  C   UNL A   1      35.059  35.534  32.062  1.00  0.00     0.020 A 
ATOM     74  C   UNL A   1      33.808  35.075  32.477  1.00  0.00     0.054 A 
BRANCH  74  75
ATOM     75  S   UNL A   1      32.317  36.048  32.131  1.00  0.00     0.124 S 
ATOM     76  O   UNL A   1      32.498  37.202  33.006  1.00  0.00    -0.237 OA
ATOM     77  O   UNL A   1      32.439  36.313  30.699  1.00  0.00    -0.237 OA
ATOM     78  O   UNL A   1      31.228  35.146  32.499  1.00  0.00    -0.744 OA
ENDBRANCH  74  75
ENDBRANCH  46  69
BRANCH  58  79
ATOM     79  C   UNL A   1      40.689  33.765  38.341  1.00  0.00    -0.014 A 
ATOM     80  C   UNL A   1      40.275  33.321  39.610  1.00  0.00     0.010 A 
ATOM     81  C   UNL A   1      41.285  35.033  38.219  1.00  0.00     0.010 A 
ATOM     82  C   UNL A   1      40.428  34.145  40.729  1.00  0.00     0.020 A 
ATOM     83  C   UNL A   1      41.464  35.847  39.339  1.00  0.00     0.020 A 
ATOM     84  C   UNL A   1      41.021  35.403  40.587  1.00  0.00     0.054 A 
BRANCH  84  85
ATOM     85  S   UNL A   1      41.249  36.435  42.061  1.00  0.00     0.124 S 
ATOM     86  O   UNL A   1      41.908  35.511  42.979  1.00  0.00    -0.237 OA
ATOM     87  O   UNL A   1      42.083  37.527  41.563  1.00  0.00    -0.237 OA
ATOM     88  O   UNL A   1      39.889  36.817  42.431  1.00  0.00    -0.744 OA
ENDBRANCH  84  85
ENDBRANCH  58  79
ENDBRANCH  32  33
ENDBRANCH  25  27
ENDBRANCH  24  25
ENDBRANCH  23  24
ENDBRANCH   1  23
TORSDOF 19
ENDMDL
