MODEL 1
REMARK VINA RESULT:      -6.3      0.000      0.000
REMARK SMILES CC/C=C/C/C=C/C/C=C/C/C=C/CCSCCCC(=O)OCCOCCOC(=O)c1ccc(-c2c3nc(c(-c4ccc(S(=O)(=O)[O-])cc4)c4ccc([nH]4)c(-c4ccc(S(=O)(=O)[O-])cc4)c4nc(c(-c5ccc(S(=O)(=O)[O-])cc5)c5ccc2[nH]5)C=C4)C=C3)cc1
REMARK SMILES IDX 19 1 18 2 17 3 16 4 15 5 14 6 13 7 12 8 11 9 10 10 9 11 8 12
REMARK SMILES IDX 7 13 6 14 5 15 4 16 3 17 2 18 1 19 20 20 21 21 22 22 23 23
REMARK SMILES IDX 24 24 25 25 26 26 27 27 28 28 29 29 30 30 31 31 32 32 90 33
REMARK SMILES IDX 33 34 89 35 34 36 35 37 36 38 83 39 37 40 88 41 82 42 84 43
REMARK SMILES IDX 38 44 87 45 81 46 80 47 39 49 69 50 50 51 68 52 51 53 54 54
REMARK SMILES IDX 67 55 85 56 52 57 53 58 66 60 86 61 55 62 40 63 41 64 49 65
REMARK SMILES IDX 42 66 48 67 43 68 44 69 45 70 46 71 47 72 70 73 71 74 79 75
REMARK SMILES IDX 72 76 78 77 73 78 74 79 75 80 76 81 77 82 56 83 57 84 65 85
REMARK SMILES IDX 58 86 64 87 59 88 60 89 61 90 62 91 63 92
REMARK H PARENT 84 48 54 59
REMARK Flexibility Score: inf
ROOT
ATOM      1  C   UNL A   1      39.657  32.445  33.373  1.00  0.00     0.123 C 
ENDROOT
BRANCH   1   2
ATOM      2  C   UNL A   1      40.503  31.513  34.228  1.00  0.00     0.023 C 
BRANCH   2   3
ATOM      3  C   UNL A   1      41.439  30.516  33.528  1.00  0.00     0.070 C 
BRANCH   3   4
ATOM      4  S   UNL A   1      40.846  28.857  33.046  1.00  0.00    -0.162 SA
BRANCH   4   5
ATOM      5  C   UNL A   1      42.302  27.744  33.072  1.00  0.00     0.073 C 
BRANCH   5   6
ATOM      6  C   UNL A   1      42.725  27.099  34.405  1.00  0.00     0.038 C 
BRANCH   6   7
ATOM      7  C   UNL A   1      44.197  27.132  34.749  1.00  0.00    -0.030 C 
ATOM      8  C   UNL A   1      45.162  26.381  34.174  1.00  0.00    -0.027 C 
BRANCH   8   9
ATOM      9  C   UNL A   1      46.658  26.405  34.470  1.00  0.00     0.054 C 
BRANCH   9  10
ATOM     10  C   UNL A   1      47.199  25.053  34.884  1.00  0.00    -0.027 C 
ATOM     11  C   UNL A   1      48.048  24.277  34.178  1.00  0.00    -0.027 C 
BRANCH  11  12
ATOM     12  C   UNL A   1      48.624  22.966  34.658  1.00  0.00     0.054 C 
BRANCH  12  13
ATOM     13  C   UNL A   1      47.686  22.324  35.635  1.00  0.00    -0.027 C 
ATOM     14  C   UNL A   1      47.339  21.029  35.628  1.00  0.00    -0.027 C 
BRANCH  14  15
ATOM     15  C   UNL A   1      46.189  20.499  36.434  1.00  0.00     0.054 C 
BRANCH  15  16
ATOM     16  C   UNL A   1      45.905  21.435  37.576  1.00  0.00    -0.027 C 
ATOM     17  C   UNL A   1      46.798  22.297  38.084  1.00  0.00    -0.031 C 
BRANCH  17  18
ATOM     18  C   UNL A   1      46.530  23.163  39.279  1.00  0.00     0.023 C 
ATOM     19  C   UNL A   1      45.480  22.523  40.175  1.00  0.00     0.008 C 
ENDBRANCH  17  18
ENDBRANCH  15  16
ENDBRANCH  14  15
ENDBRANCH  12  13
ENDBRANCH  11  12
ENDBRANCH   9  10
ENDBRANCH   8   9
ENDBRANCH   6   7
ENDBRANCH   5   6
ENDBRANCH   4   5
ENDBRANCH   3   4
ENDBRANCH   2   3
ENDBRANCH   1   2
BRANCH   1  20
ATOM     20  C   UNL A   1      38.431  33.000  34.036  1.00  0.00     0.305 C 
ATOM     21  O   UNL A   1      38.338  33.060  35.255  1.00  0.00    -0.252 OA
BRANCH  20  22
ATOM     22  O   UNL A   1      37.457  33.317  33.154  1.00  0.00    -0.463 OA
BRANCH  22  23
ATOM     23  C   UNL A   1      36.305  34.026  33.614  1.00  0.00     0.261 C 
BRANCH  23  24
ATOM     24  C   UNL A   1      34.904  33.428  33.440  1.00  0.00     0.202 C 
BRANCH  24  25
ATOM     25  O   UNL A   1      34.472  32.819  32.242  1.00  0.00    -0.374 OA
BRANCH  25  26
ATOM     26  C   UNL A   1      34.492  33.561  31.039  1.00  0.00     0.202 C 
BRANCH  26  27
ATOM     27  C   UNL A   1      34.869  32.857  29.722  1.00  0.00     0.261 C 
BRANCH  27  28
ATOM     28  O   UNL A   1      34.718  31.425  29.681  1.00  0.00    -0.460 OA
BRANCH  28  29
ATOM     29  C   UNL A   1      35.011  30.843  28.493  1.00  0.00     0.338 C 
ATOM     30  O   UNL A   1      34.370  30.951  27.454  1.00  0.00    -0.246 OA
BRANCH  29  31
ATOM     31  C   UNL A   1      36.320  30.157  28.552  1.00  0.00     0.060 A 
ATOM     32  C   UNL A   1      36.794  29.722  29.798  1.00  0.00     0.016 A 
ATOM     33  C   UNL A   1      37.123  30.032  27.415  1.00  0.00     0.016 A 
ATOM     34  C   UNL A   1      38.086  29.211  29.925  1.00  0.00     0.010 A 
ATOM     35  C   UNL A   1      38.430  29.544  27.549  1.00  0.00     0.010 A 
ATOM     36  C   UNL A   1      38.932  29.175  28.812  1.00  0.00    -0.014 A 
BRANCH  36  37
ATOM     37  C   UNL A   1      40.393  28.983  29.004  1.00  0.00     0.031 A 
ATOM     38  C   UNL A   1      40.989  27.649  28.630  1.00  0.00     0.074 A 
ATOM     39  C   UNL A   1      41.181  29.966  29.474  1.00  0.00     0.049 A 
ATOM     40  N   UNL A   1      42.213  27.213  28.780  1.00  0.00    -0.248 NA
ATOM     41  C   UNL A   1      40.078  26.677  28.003  1.00  0.00     0.031 C 
ATOM     42  C   UNL A   1      40.741  31.320  29.805  1.00  0.00     0.029 A 
ATOM     43  N   UNL A   1      42.524  29.969  29.764  1.00  0.00    -0.354 N 
ATOM     44  C   UNL A   1      42.214  25.912  28.287  1.00  0.00     0.074 A 
ATOM     45  C   UNL A   1      40.865  25.623  27.852  1.00  0.00     0.031 C 
ATOM     46  C   UNL A   1      41.793  32.019  30.269  1.00  0.00     0.029 A 
ATOM     47  C   UNL A   1      42.970  31.151  30.307  1.00  0.00     0.049 A 
ATOM     48  H   UNL A   1      43.113  29.198  29.598  1.00  0.00     0.167 HD
ATOM     49  C   UNL A   1      43.243  25.036  28.203  1.00  0.00     0.031 A 
ATOM     50  C   UNL A   1      44.179  31.484  30.805  1.00  0.00     0.031 A 
ATOM     51  C   UNL A   1      44.580  25.326  28.648  1.00  0.00     0.049 A 
ATOM     52  C   UNL A   1      45.290  30.463  30.782  1.00  0.00     0.074 A 
ATOM     53  C   UNL A   1      45.698  24.512  28.604  1.00  0.00     0.029 A 
ATOM     54  N   UNL A   1      44.980  26.521  29.227  1.00  0.00    -0.354 N 
ATOM     55  N   UNL A   1      45.278  29.238  30.307  1.00  0.00    -0.248 NA
ATOM     56  C   UNL A   1      46.580  30.871  31.358  1.00  0.00     0.031 C 
ATOM     57  C   UNL A   1      46.757  25.191  29.214  1.00  0.00     0.029 A 
ATOM     58  C   UNL A   1      46.319  26.457  29.571  1.00  0.00     0.049 A 
ATOM     59  H   UNL A   1      44.397  27.303  29.372  1.00  0.00     0.167 HD
ATOM     60  C   UNL A   1      46.565  28.744  30.498  1.00  0.00     0.074 A 
ATOM     61  C   UNL A   1      47.332  29.805  31.118  1.00  0.00     0.031 C 
ATOM     62  C   UNL A   1      47.068  27.524  30.185  1.00  0.00     0.031 A 
BRANCH  49  63
ATOM     63  C   UNL A   1      42.952  23.664  27.652  1.00  0.00    -0.014 A 
ATOM     64  C   UNL A   1      43.219  23.339  26.309  1.00  0.00     0.010 A 
ATOM     65  C   UNL A   1      42.439  22.669  28.505  1.00  0.00     0.010 A 
ATOM     66  C   UNL A   1      42.944  22.058  25.823  1.00  0.00     0.020 A 
ATOM     67  C   UNL A   1      42.190  21.379  28.030  1.00  0.00     0.020 A 
ATOM     68  C   UNL A   1      42.431  21.086  26.687  1.00  0.00     0.054 A 
BRANCH  68  69
ATOM     69  S   UNL A   1      42.110  19.423  26.035  1.00  0.00     0.124 S 
ATOM     70  O   UNL A   1      42.869  19.437  24.787  1.00  0.00    -0.237 OA
ATOM     71  O   UNL A   1      42.644  18.561  27.085  1.00  0.00    -0.237 OA
ATOM     72  O   UNL A   1      40.658  19.385  25.879  1.00  0.00    -0.744 OA
ENDBRANCH  68  69
ENDBRANCH  49  63
BRANCH  50  73
ATOM     73  C   UNL A   1      44.399  32.834  31.399  1.00  0.00    -0.014 A 
ATOM     74  C   UNL A   1      44.911  33.888  30.623  1.00  0.00     0.010 A 
ATOM     75  C   UNL A   1      44.105  33.069  32.756  1.00  0.00     0.010 A 
ATOM     76  C   UNL A   1      45.141  35.145  31.196  1.00  0.00     0.020 A 
ATOM     77  C   UNL A   1      44.304  34.331  33.323  1.00  0.00     0.020 A 
ATOM     78  C   UNL A   1      44.832  35.359  32.541  1.00  0.00     0.054 A 
BRANCH  78  79
ATOM     79  S   UNL A   1      45.091  37.011  33.247  1.00  0.00     0.124 S 
ATOM     80  O   UNL A   1      45.759  36.702  34.508  1.00  0.00    -0.237 OA
ATOM     81  O   UNL A   1      45.919  37.658  32.233  1.00  0.00    -0.237 OA
ATOM     82  O   UNL A   1      43.738  37.547  33.369  1.00  0.00    -0.744 OA
ENDBRANCH  78  79
ENDBRANCH  50  73
BRANCH  62  83
ATOM     83  C   UNL A   1      48.530  27.278  30.463  1.00  0.00    -0.014 A 
ATOM     84  C   UNL A   1      48.954  26.570  31.600  1.00  0.00     0.010 A 
ATOM     85  C   UNL A   1      49.491  27.712  29.529  1.00  0.00     0.010 A 
ATOM     86  C   UNL A   1      50.314  26.330  31.818  1.00  0.00     0.020 A 
ATOM     87  C   UNL A   1      50.848  27.446  29.727  1.00  0.00     0.020 A 
ATOM     88  C   UNL A   1      51.252  26.769  30.878  1.00  0.00     0.054 A 
BRANCH  88  89
ATOM     89  S   UNL A   1      53.007  26.406  31.161  1.00  0.00     0.124 S 
ATOM     90  O   UNL A   1      53.480  26.121  29.809  1.00  0.00    -0.237 OA
ATOM     91  O   UNL A   1      53.500  27.648  31.751  1.00  0.00    -0.237 OA
ATOM     92  O   UNL A   1      52.983  25.259  32.066  1.00  0.00    -0.744 OA
ENDBRANCH  88  89
ENDBRANCH  62  83
ENDBRANCH  36  37
ENDBRANCH  29  31
ENDBRANCH  28  29
ENDBRANCH  27  28
ENDBRANCH  26  27
ENDBRANCH  25  26
ENDBRANCH  24  25
ENDBRANCH  23  24
ENDBRANCH  22  23
ENDBRANCH  20  22
ENDBRANCH   1  20
TORSDOF 30
ENDMDL
MODEL 2
REMARK VINA RESULT:      -6.2      4.371     12.236
REMARK SMILES CC/C=C/C/C=C/C/C=C/C/C=C/CCSCCCC(=O)OCCOCCOC(=O)c1ccc(-c2c3nc(c(-c4ccc(S(=O)(=O)[O-])cc4)c4ccc([nH]4)c(-c4ccc(S(=O)(=O)[O-])cc4)c4nc(c(-c5ccc(S(=O)(=O)[O-])cc5)c5ccc2[nH]5)C=C4)C=C3)cc1
REMARK SMILES IDX 19 1 18 2 17 3 16 4 15 5 14 6 13 7 12 8 11 9 10 10 9 11 8 12
REMARK SMILES IDX 7 13 6 14 5 15 4 16 3 17 2 18 1 19 20 20 21 21 22 22 23 23
REMARK SMILES IDX 24 24 25 25 26 26 27 27 28 28 29 29 30 30 31 31 32 32 90 33
REMARK SMILES IDX 33 34 89 35 34 36 35 37 36 38 83 39 37 40 88 41 82 42 84 43
REMARK SMILES IDX 38 44 87 45 81 46 80 47 39 49 69 50 50 51 68 52 51 53 54 54
REMARK SMILES IDX 67 55 85 56 52 57 53 58 66 60 86 61 55 62 40 63 41 64 49 65
REMARK SMILES IDX 42 66 48 67 43 68 44 69 45 70 46 71 47 72 70 73 71 74 79 75
REMARK SMILES IDX 72 76 78 77 73 78 74 79 75 80 76 81 77 82 56 83 57 84 65 85
REMARK SMILES IDX 58 86 64 87 59 88 60 89 61 90 62 91 63 92
REMARK H PARENT 84 48 54 59
REMARK Flexibility Score: inf
ROOT
ATOM      1  C   UNL A   1      45.375  21.821  25.096  1.00  0.00     0.123 C 
ENDROOT
BRANCH   1   2
ATOM      2  C   UNL A   1      46.327  22.935  25.504  1.00  0.00     0.023 C 
BRANCH   2   3
ATOM      3  C   UNL A   1      46.480  24.152  24.580  1.00  0.00     0.070 C 
BRANCH   3   4
ATOM      4  S   UNL A   1      47.547  25.557  25.052  1.00  0.00    -0.162 SA
BRANCH   4   5
ATOM      5  C   UNL A   1      48.647  25.892  23.625  1.00  0.00     0.073 C 
BRANCH   5   6
ATOM      6  C   UNL A   1      49.125  27.335  23.371  1.00  0.00     0.038 C 
BRANCH   6   7
ATOM      7  C   UNL A   1      49.841  27.604  22.067  1.00  0.00    -0.030 C 
ATOM      8  C   UNL A   1      49.462  27.155  20.850  1.00  0.00    -0.027 C 
BRANCH   8   9
ATOM      9  C   UNL A   1      50.138  27.427  19.509  1.00  0.00     0.054 C 
BRANCH   9  10
ATOM     10  C   UNL A   1      51.642  27.554  19.621  1.00  0.00    -0.027 C 
ATOM     11  C   UNL A   1      52.525  26.543  19.755  1.00  0.00    -0.027 C 
BRANCH  11  12
ATOM     12  C   UNL A   1      54.027  26.705  19.790  1.00  0.00     0.054 C 
BRANCH  12  13
ATOM     13  C   UNL A   1      54.388  27.951  20.540  1.00  0.00    -0.027 C 
ATOM     14  C   UNL A   1      54.327  28.090  21.872  1.00  0.00    -0.027 C 
BRANCH  14  15
ATOM     15  C   UNL A   1      54.418  29.428  22.547  1.00  0.00     0.054 C 
BRANCH  15  16
ATOM     16  C   UNL A   1      53.643  30.442  21.753  1.00  0.00    -0.027 C 
ATOM     17  C   UNL A   1      52.309  30.575  21.798  1.00  0.00    -0.031 C 
BRANCH  17  18
ATOM     18  C   UNL A   1      51.540  31.532  20.936  1.00  0.00     0.023 C 
ATOM     19  C   UNL A   1      52.216  31.690  19.583  1.00  0.00     0.008 C 
ENDBRANCH  17  18
ENDBRANCH  15  16
ENDBRANCH  14  15
ENDBRANCH  12  13
ENDBRANCH  11  12
ENDBRANCH   9  10
ENDBRANCH   8   9
ENDBRANCH   6   7
ENDBRANCH   5   6
ENDBRANCH   4   5
ENDBRANCH   3   4
ENDBRANCH   2   3
ENDBRANCH   1   2
BRANCH   1  20
ATOM     20  C   UNL A   1      45.983  20.453  24.989  1.00  0.00     0.305 C 
ATOM     21  O   UNL A   1      46.996  20.256  24.330  1.00  0.00    -0.252 OA
BRANCH  20  22
ATOM     22  O   UNL A   1      45.246  19.504  25.607  1.00  0.00    -0.463 OA
BRANCH  22  23
ATOM     23  C   UNL A   1      44.080  18.996  24.955  1.00  0.00     0.261 C 
BRANCH  23  24
ATOM     24  C   UNL A   1      42.799  18.727  25.753  1.00  0.00     0.202 C 
BRANCH  24  25
ATOM     25  O   UNL A   1      42.633  19.126  27.097  1.00  0.00    -0.374 OA
BRANCH  25  26
ATOM     26  C   UNL A   1      41.398  19.676  27.512  1.00  0.00     0.202 C 
BRANCH  26  27
ATOM     27  C   UNL A   1      40.520  20.419  26.488  1.00  0.00     0.261 C 
BRANCH  27  28
ATOM     28  O   UNL A   1      40.429  21.850  26.621  1.00  0.00    -0.460 OA
BRANCH  28  29
ATOM     29  C   UNL A   1      41.501  22.546  26.172  1.00  0.00     0.338 C 
ATOM     30  O   UNL A   1      42.249  22.219  25.259  1.00  0.00    -0.246 OA
BRANCH  29  31
ATOM     31  C   UNL A   1      41.585  23.866  26.833  1.00  0.00     0.060 A 
ATOM     32  C   UNL A   1      41.552  25.020  26.035  1.00  0.00     0.016 A 
ATOM     33  C   UNL A   1      41.797  23.975  28.210  1.00  0.00     0.016 A 
ATOM     34  C   UNL A   1      41.783  26.276  26.597  1.00  0.00     0.010 A 
ATOM     35  C   UNL A   1      42.055  25.234  28.768  1.00  0.00     0.010 A 
ATOM     36  C   UNL A   1      42.095  26.384  27.956  1.00  0.00    -0.014 A 
BRANCH  36  37
ATOM     37  C   UNL A   1      42.690  27.641  28.477  1.00  0.00     0.031 A 
ATOM     38  C   UNL A   1      41.757  28.721  28.963  1.00  0.00     0.074 A 
ATOM     39  C   UNL A   1      44.022  27.821  28.544  1.00  0.00     0.049 A 
ATOM     40  N   UNL A   1      42.028  29.930  29.382  1.00  0.00    -0.248 NA
ATOM     41  C   UNL A   1      40.322  28.390  28.974  1.00  0.00     0.031 C 
ATOM     42  C   UNL A   1      45.031  26.829  28.173  1.00  0.00     0.029 A 
ATOM     43  N   UNL A   1      44.754  28.913  28.941  1.00  0.00    -0.354 N 
ATOM     44  C   UNL A   1      40.800  30.509  29.686  1.00  0.00     0.074 A 
ATOM     45  C   UNL A   1      39.782  29.528  29.384  1.00  0.00     0.031 C 
ATOM     46  C   UNL A   1      46.252  27.365  28.346  1.00  0.00     0.029 A 
ATOM     47  C   UNL A   1      46.112  28.749  28.798  1.00  0.00     0.049 A 
ATOM     48  H   UNL A   1      44.346  29.735  29.296  1.00  0.00     0.167 HD
ATOM     49  C   UNL A   1      40.542  31.746  30.171  1.00  0.00     0.031 A 
ATOM     50  C   UNL A   1      47.122  29.625  28.981  1.00  0.00     0.031 A 
ATOM     51  C   UNL A   1      41.560  32.723  30.459  1.00  0.00     0.049 A 
ATOM     52  C   UNL A   1      46.806  31.027  29.440  1.00  0.00     0.074 A 
ATOM     53  C   UNL A   1      41.406  34.003  30.960  1.00  0.00     0.029 A 
ATOM     54  N   UNL A   1      42.919  32.530  30.263  1.00  0.00    -0.354 N 
ATOM     55  N   UNL A   1      45.641  31.559  29.730  1.00  0.00    -0.248 NA
ATOM     56  C   UNL A   1      47.943  31.946  29.602  1.00  0.00     0.031 C 
ATOM     57  C   UNL A   1      42.667  34.607  31.006  1.00  0.00     0.029 A 
ATOM     58  C   UNL A   1      43.613  33.677  30.606  1.00  0.00     0.049 A 
ATOM     59  H   UNL A   1      43.330  31.699  29.931  1.00  0.00     0.167 HD
ATOM     60  C   UNL A   1      45.909  32.862  30.138  1.00  0.00     0.074 A 
ATOM     61  C   UNL A   1      47.346  33.033  30.072  1.00  0.00     0.031 C 
ATOM     62  C   UNL A   1      45.045  33.830  30.537  1.00  0.00     0.031 A 
BRANCH  49  63
ATOM     63  C   UNL A   1      39.100  32.131  30.378  1.00  0.00    -0.014 A 
ATOM     64  C   UNL A   1      38.389  32.866  29.412  1.00  0.00     0.010 A 
ATOM     65  C   UNL A   1      38.432  31.715  31.546  1.00  0.00     0.010 A 
ATOM     66  C   UNL A   1      37.050  33.208  29.626  1.00  0.00     0.020 A 
ATOM     67  C   UNL A   1      37.086  32.029  31.750  1.00  0.00     0.020 A 
ATOM     68  C   UNL A   1      36.408  32.787  30.794  1.00  0.00     0.054 A 
BRANCH  68  69
ATOM     69  S   UNL A   1      34.662  33.221  31.031  1.00  0.00     0.124 S 
ATOM     70  O   UNL A   1      34.319  32.449  32.223  1.00  0.00    -0.237 OA
ATOM     71  O   UNL A   1      34.716  34.668  31.215  1.00  0.00    -0.237 OA
ATOM     72  O   UNL A   1      34.021  32.775  29.796  1.00  0.00    -0.744 OA
ENDBRANCH  68  69
ENDBRANCH  49  63
BRANCH  50  73
ATOM     73  C   UNL A   1      48.529  29.216  28.700  1.00  0.00    -0.014 A 
ATOM     74  C   UNL A   1      49.332  28.657  29.710  1.00  0.00     0.010 A 
ATOM     75  C   UNL A   1      49.077  29.395  27.416  1.00  0.00     0.010 A 
ATOM     76  C   UNL A   1      50.660  28.302  29.446  1.00  0.00     0.020 A 
ATOM     77  C   UNL A   1      50.393  29.012  27.140  1.00  0.00     0.020 A 
ATOM     78  C   UNL A   1      51.180  28.478  28.161  1.00  0.00     0.054 A 
BRANCH  78  79
ATOM     79  S   UNL A   1      52.889  27.961  27.830  1.00  0.00     0.124 S 
ATOM     80  O   UNL A   1      52.704  26.607  27.319  1.00  0.00    -0.237 OA
ATOM     81  O   UNL A   1      53.333  28.953  26.854  1.00  0.00    -0.237 OA
ATOM     82  O   UNL A   1      53.533  28.055  29.138  1.00  0.00    -0.744 OA
ENDBRANCH  78  79
ENDBRANCH  50  73
BRANCH  62  83
ATOM     83  C   UNL A   1      45.627  35.149  30.978  1.00  0.00    -0.014 A 
ATOM     84  C   UNL A   1      45.502  36.308  30.193  1.00  0.00     0.010 A 
ATOM     85  C   UNL A   1      46.256  35.238  32.235  1.00  0.00     0.010 A 
ATOM     86  C   UNL A   1      46.024  37.525  30.641  1.00  0.00     0.020 A 
ATOM     87  C   UNL A   1      46.752  36.459  32.699  1.00  0.00     0.020 A 
ATOM     88  C   UNL A   1      46.645  37.592  31.893  1.00  0.00     0.054 A 
BRANCH  88  89
ATOM     89  S   UNL A   1      47.275  39.192  32.469  1.00  0.00     0.124 S 
ATOM     90  O   UNL A   1      46.072  39.812  33.018  1.00  0.00    -0.237 OA
ATOM     91  O   UNL A   1      48.286  38.804  33.450  1.00  0.00    -0.237 OA
ATOM     92  O   UNL A   1      47.799  39.817  31.257  1.00  0.00    -0.744 OA
ENDBRANCH  88  89
ENDBRANCH  62  83
ENDBRANCH  36  37
ENDBRANCH  29  31
ENDBRANCH  28  29
ENDBRANCH  27  28
ENDBRANCH  26  27
ENDBRANCH  25  26
ENDBRANCH  24  25
ENDBRANCH  23  24
ENDBRANCH  22  23
ENDBRANCH  20  22
ENDBRANCH   1  20
TORSDOF 30
ENDMDL
MODEL 3
REMARK VINA RESULT:      -6.1      5.378     11.824
REMARK SMILES CC/C=C/C/C=C/C/C=C/C/C=C/CCSCCCC(=O)OCCOCCOC(=O)c1ccc(-c2c3nc(c(-c4ccc(S(=O)(=O)[O-])cc4)c4ccc([nH]4)c(-c4ccc(S(=O)(=O)[O-])cc4)c4nc(c(-c5ccc(S(=O)(=O)[O-])cc5)c5ccc2[nH]5)C=C4)C=C3)cc1
REMARK SMILES IDX 19 1 18 2 17 3 16 4 15 5 14 6 13 7 12 8 11 9 10 10 9 11 8 12
REMARK SMILES IDX 7 13 6 14 5 15 4 16 3 17 2 18 1 19 20 20 21 21 22 22 23 23
REMARK SMILES IDX 24 24 25 25 26 26 27 27 28 28 29 29 30 30 31 31 32 32 90 33
REMARK SMILES IDX 33 34 89 35 34 36 35 37 36 38 83 39 37 40 88 41 82 42 84 43
REMARK SMILES IDX 38 44 87 45 81 46 80 47 39 49 69 50 50 51 68 52 51 53 54 54
REMARK SMILES IDX 67 55 85 56 52 57 53 58 66 60 86 61 55 62 40 63 41 64 49 65
REMARK SMILES IDX 42 66 48 67 43 68 44 69 45 70 46 71 47 72 70 73 71 74 79 75
REMARK SMILES IDX 72 76 78 77 73 78 74 79 75 80 76 81 77 82 56 83 57 84 65 85
REMARK SMILES IDX 58 86 64 87 59 88 60 89 61 90 62 91 63 92
REMARK H PARENT 84 48 54 59
REMARK Flexibility Score: inf
ROOT
ATOM      1  C   UNL A   1      45.422  20.510  25.336  1.00  0.00     0.123 C 
ENDROOT
BRANCH   1   2
ATOM      2  C   UNL A   1      44.884  21.583  24.402  1.00  0.00     0.023 C 
BRANCH   2   3
ATOM      3  C   UNL A   1      45.653  22.908  24.278  1.00  0.00     0.070 C 
BRANCH   3   4
ATOM      4  S   UNL A   1      44.971  24.453  24.973  1.00  0.00    -0.162 SA
BRANCH   4   5
ATOM      5  C   UNL A   1      46.311  25.231  25.951  1.00  0.00     0.073 C 
BRANCH   5   6
ATOM      6  C   UNL A   1      47.693  25.433  25.299  1.00  0.00     0.038 C 
BRANCH   6   7
ATOM      7  C   UNL A   1      48.664  26.345  26.012  1.00  0.00    -0.030 C 
ATOM      8  C   UNL A   1      49.209  27.473  25.504  1.00  0.00    -0.027 C 
BRANCH   8   9
ATOM      9  C   UNL A   1      50.168  28.436  26.199  1.00  0.00     0.054 C 
BRANCH   9  10
ATOM     10  C   UNL A   1      51.317  28.866  25.312  1.00  0.00    -0.027 C 
ATOM     11  C   UNL A   1      51.820  30.112  25.197  1.00  0.00    -0.027 C 
BRANCH  11  12
ATOM     12  C   UNL A   1      53.017  30.489  24.356  1.00  0.00     0.054 C 
BRANCH  12  13
ATOM     13  C   UNL A   1      52.894  29.877  22.993  1.00  0.00    -0.027 C 
ATOM     14  C   UNL A   1      52.024  30.269  22.052  1.00  0.00    -0.027 C 
BRANCH  14  15
ATOM     15  C   UNL A   1      51.742  29.450  20.826  1.00  0.00     0.054 C 
BRANCH  15  16
ATOM     16  C   UNL A   1      50.284  29.090  20.788  1.00  0.00    -0.027 C 
ATOM     17  C   UNL A   1      49.736  28.092  21.497  1.00  0.00    -0.031 C 
BRANCH  17  18
ATOM     18  C   UNL A   1      48.296  27.686  21.384  1.00  0.00     0.023 C 
ATOM     19  C   UNL A   1      47.473  28.328  22.490  1.00  0.00     0.008 C 
ENDBRANCH  17  18
ENDBRANCH  15  16
ENDBRANCH  14  15
ENDBRANCH  12  13
ENDBRANCH  11  12
ENDBRANCH   9  10
ENDBRANCH   8   9
ENDBRANCH   6   7
ENDBRANCH   5   6
ENDBRANCH   4   5
ENDBRANCH   3   4
ENDBRANCH   2   3
ENDBRANCH   1   2
BRANCH   1  20
ATOM     20  C   UNL A   1      45.635  19.159  24.718  1.00  0.00     0.305 C 
ATOM     21  O   UNL A   1      46.154  19.038  23.616  1.00  0.00    -0.252 OA
BRANCH  20  22
ATOM     22  O   UNL A   1      45.118  18.156  25.462  1.00  0.00    -0.463 OA
BRANCH  22  23
ATOM     23  C   UNL A   1      43.979  18.418  26.285  1.00  0.00     0.261 C 
BRANCH  23  24
ATOM     24  C   UNL A   1      42.597  17.886  25.891  1.00  0.00     0.202 C 
BRANCH  24  25
ATOM     25  O   UNL A   1      41.440  18.695  25.872  1.00  0.00    -0.374 OA
BRANCH  25  26
ATOM     26  C   UNL A   1      41.215  19.612  26.924  1.00  0.00     0.202 C 
BRANCH  26  27
ATOM     27  C   UNL A   1      40.581  20.980  26.612  1.00  0.00     0.261 C 
BRANCH  27  28
ATOM     28  O   UNL A   1      40.368  21.871  27.723  1.00  0.00    -0.460 OA
BRANCH  28  29
ATOM     29  C   UNL A   1      40.165  23.170  27.397  1.00  0.00     0.338 C 
ATOM     30  O   UNL A   1      39.164  23.640  26.869  1.00  0.00    -0.246 OA
BRANCH  29  31
ATOM     31  C   UNL A   1      41.268  24.017  27.902  1.00  0.00     0.060 A 
ATOM     32  C   UNL A   1      42.577  23.513  27.854  1.00  0.00     0.016 A 
ATOM     33  C   UNL A   1      41.015  25.248  28.512  1.00  0.00     0.016 A 
ATOM     34  C   UNL A   1      43.625  24.208  28.459  1.00  0.00     0.010 A 
ATOM     35  C   UNL A   1      42.064  25.931  29.142  1.00  0.00     0.010 A 
ATOM     36  C   UNL A   1      43.364  25.391  29.157  1.00  0.00    -0.014 A 
BRANCH  36  37
ATOM     37  C   UNL A   1      44.383  25.933  30.093  1.00  0.00     0.031 A 
ATOM     38  C   UNL A   1      45.029  27.253  29.754  1.00  0.00     0.074 A 
ATOM     39  C   UNL A   1      44.716  25.292  31.227  1.00  0.00     0.049 A 
ATOM     40  N   UNL A   1      45.996  27.889  30.364  1.00  0.00    -0.248 NA
ATOM     41  C   UNL A   1      44.512  27.948  28.562  1.00  0.00     0.031 C 
ATOM     42  C   UNL A   1      44.116  24.047  31.704  1.00  0.00     0.029 A 
ATOM     43  N   UNL A   1      45.654  25.600  32.182  1.00  0.00    -0.354 N 
ATOM     44  C   UNL A   1      46.217  29.044  29.620  1.00  0.00     0.074 A 
ATOM     45  C   UNL A   1      45.298  29.012  28.504  1.00  0.00     0.031 C 
ATOM     46  C   UNL A   1      44.713  23.688  32.855  1.00  0.00     0.029 A 
ATOM     47  C   UNL A   1      45.765  24.654  33.174  1.00  0.00     0.049 A 
ATOM     48  H   UNL A   1      46.197  26.421  32.159  1.00  0.00     0.167 HD
ATOM     49  C   UNL A   1      47.105  30.041  29.845  1.00  0.00     0.031 A 
ATOM     50  C   UNL A   1      46.634  24.562  34.202  1.00  0.00     0.031 A 
ATOM     51  C   UNL A   1      48.025  30.061  30.952  1.00  0.00     0.049 A 
ATOM     52  C   UNL A   1      47.673  25.641  34.385  1.00  0.00     0.074 A 
ATOM     53  C   UNL A   1      48.961  31.026  31.275  1.00  0.00     0.029 A 
ATOM     54  N   UNL A   1      48.129  29.065  31.911  1.00  0.00    -0.354 N 
ATOM     55  N   UNL A   1      47.867  26.731  33.678  1.00  0.00    -0.248 NA
ATOM     56  C   UNL A   1      48.609  25.479  35.508  1.00  0.00     0.031 C 
ATOM     57  C   UNL A   1      49.676  30.583  32.393  1.00  0.00     0.029 A 
ATOM     58  C   UNL A   1      49.134  29.378  32.810  1.00  0.00     0.049 A 
ATOM     59  H   UNL A   1      47.570  28.254  31.948  1.00  0.00     0.167 HD
ATOM     60  C   UNL A   1      48.923  27.398  34.291  1.00  0.00     0.074 A 
ATOM     61  C   UNL A   1      49.317  26.599  35.432  1.00  0.00     0.031 C 
ATOM     62  C   UNL A   1      49.512  28.571  33.944  1.00  0.00     0.031 A 
BRANCH  49  63
ATOM     63  C   UNL A   1      47.157  31.170  28.849  1.00  0.00    -0.014 A 
ATOM     64  C   UNL A   1      46.612  32.435  29.142  1.00  0.00     0.010 A 
ATOM     65  C   UNL A   1      47.798  30.974  27.612  1.00  0.00     0.010 A 
ATOM     66  C   UNL A   1      46.676  33.468  28.202  1.00  0.00     0.020 A 
ATOM     67  C   UNL A   1      47.891  32.013  26.682  1.00  0.00     0.020 A 
ATOM     68  C   UNL A   1      47.315  33.250  26.978  1.00  0.00     0.054 A 
BRANCH  68  69
ATOM     69  S   UNL A   1      47.408  34.618  25.789  1.00  0.00     0.124 S 
ATOM     70  O   UNL A   1      48.749  34.446  25.237  1.00  0.00    -0.237 OA
ATOM     71  O   UNL A   1      46.309  34.320  24.875  1.00  0.00    -0.237 OA
ATOM     72  O   UNL A   1      47.223  35.809  26.615  1.00  0.00    -0.744 OA
ENDBRANCH  68  69
ENDBRANCH  49  63
BRANCH  50  73
ATOM     73  C   UNL A   1      46.584  23.391  35.124  1.00  0.00    -0.014 A 
ATOM     74  C   UNL A   1      47.276  22.205  34.819  1.00  0.00     0.010 A 
ATOM     75  C   UNL A   1      45.832  23.453  36.311  1.00  0.00     0.010 A 
ATOM     76  C   UNL A   1      47.202  21.100  35.675  1.00  0.00     0.020 A 
ATOM     77  C   UNL A   1      45.781  22.363  37.185  1.00  0.00     0.020 A 
ATOM     78  C   UNL A   1      46.458  21.188  36.855  1.00  0.00     0.054 A 
BRANCH  78  79
ATOM     79  S   UNL A   1      46.419  19.759  37.974  1.00  0.00     0.124 S 
ATOM     80  O   UNL A   1      47.816  19.335  37.974  1.00  0.00    -0.237 OA
ATOM     81  O   UNL A   1      45.935  20.349  39.219  1.00  0.00    -0.237 OA
ATOM     82  O   UNL A   1      45.486  18.841  37.325  1.00  0.00    -0.744 OA
ENDBRANCH  78  79
ENDBRANCH  50  73
BRANCH  62  83
ATOM     83  C   UNL A   1      50.616  29.089  34.830  1.00  0.00    -0.014 A 
ATOM     84  C   UNL A   1      51.969  28.960  34.472  1.00  0.00     0.010 A 
ATOM     85  C   UNL A   1      50.284  29.775  36.015  1.00  0.00     0.010 A 
ATOM     86  C   UNL A   1      52.971  29.476  35.299  1.00  0.00     0.020 A 
ATOM     87  C   UNL A   1      51.281  30.320  36.827  1.00  0.00     0.020 A 
ATOM     88  C   UNL A   1      52.620  30.155  36.471  1.00  0.00     0.054 A 
BRANCH  88  89
ATOM     89  S   UNL A   1      53.937  30.854  37.502  1.00  0.00     0.124 S 
ATOM     90  O   UNL A   1      53.380  30.711  38.845  1.00  0.00    -0.237 OA
ATOM     91  O   UNL A   1      55.076  29.990  37.198  1.00  0.00    -0.237 OA
ATOM     92  O   UNL A   1      54.060  32.229  37.024  1.00  0.00    -0.744 OA
ENDBRANCH  88  89
ENDBRANCH  62  83
ENDBRANCH  36  37
ENDBRANCH  29  31
ENDBRANCH  28  29
ENDBRANCH  27  28
ENDBRANCH  26  27
ENDBRANCH  25  26
ENDBRANCH  24  25
ENDBRANCH  23  24
ENDBRANCH  22  23
ENDBRANCH  20  22
ENDBRANCH   1  20
TORSDOF 30
ENDMDL
