MODEL 1
REMARK VINA RESULT:     -10.3      0.000      0.000
REMARK SMILES [NH3+][C@H]1C=C[C@H](C(=O)N2CC[NH+](CC(=O)OCCOCCOC(=O)c3ccc(-c4c5nc(c(-c6ccc(S(=O)(=O)[O-])cc6)c6ccc([nH]6)c(-c6ccc(S(=O)(=O)[O-])cc6)c6nc(c(-c7ccc(S(=O)(=O)[O-])cc7)c7ccc4[nH]7)C=C6)C=C5)cc3)CC2)C1
REMARK SMILES IDX 18 1 17 2 16 3 15 4 13 5 14 6 12 7 11 8 6 9 7 10 8 11 9 12
REMARK SMILES IDX 85 13 10 14 84 15 5 17 2 18 3 19 86 20 4 21 1 22 19 26 20 27
REMARK SMILES IDX 21 28 22 29 23 30 24 31 25 32 83 33 26 34 82 35 27 36 28 37
REMARK SMILES IDX 29 38 76 39 30 40 81 41 75 42 77 43 31 44 80 45 74 46 73 47
REMARK SMILES IDX 32 49 62 50 43 51 61 52 44 53 47 54 60 55 78 56 45 57 46 58
REMARK SMILES IDX 59 60 79 61 48 62 33 63 34 64 42 65 35 66 41 67 36 68 37 69
REMARK SMILES IDX 38 70 39 71 40 72 63 73 64 74 72 75 65 76 71 77 66 78 67 79
REMARK SMILES IDX 68 80 69 81 70 82 49 83 50 84 58 85 51 86 57 87 52 88 53 89
REMARK SMILES IDX 54 90 55 91 56 92
REMARK H PARENT 11 16 1 23 1 24 1 25 77 48 47 59
REMARK Flexibility Score: inf
ROOT
ATOM      1  O   UNL A   1      43.875  21.797  24.698  1.00  0.00    -0.374 OA
ENDROOT
BRANCH   1   2
ATOM      2  C   UNL A   1      43.539  20.828  25.685  1.00  0.00     0.202 C 
BRANCH   2   3
ATOM      3  C   UNL A   1      42.069  20.741  26.114  1.00  0.00     0.261 C 
BRANCH   3   4
ATOM      4  O   UNL A   1      41.196  21.773  25.602  1.00  0.00    -0.459 OA
BRANCH   4   5
ATOM      5  C   UNL A   1      40.146  22.085  26.413  1.00  0.00     0.361 C 
ATOM      6  O   UNL A   1      40.265  22.625  27.512  1.00  0.00    -0.245 OA
BRANCH   5   7
ATOM      7  C   UNL A   1      38.797  21.566  25.931  1.00  0.00     0.386 C 
BRANCH   7   8
ATOM      8  N   UNL A   1      37.905  22.464  25.209  1.00  0.00    -0.323 N 
ATOM      9  C   UNL A   1      33.668  23.226  24.874  1.00  0.00     0.230 C 
ATOM     10  O   UNL A   1      32.983  22.244  24.566  1.00  0.00    -0.274 OA
ATOM     11  N   UNL A   1      35.064  23.122  24.948  1.00  0.00    -0.331 N 
ATOM     12  C   UNL A   1      35.624  21.903  24.369  1.00  0.00     0.181 C 
ATOM     13  C   UNL A   1      35.866  23.703  26.038  1.00  0.00     0.181 C 
ATOM     14  C   UNL A   1      37.126  21.966  24.090  1.00  0.00     0.284 C 
ATOM     15  C   UNL A   1      37.396  23.675  25.830  1.00  0.00     0.284 C 
ATOM     16  H   UNL A   1      38.732  22.844  24.747  1.00  0.00     0.348 HD
BRANCH   9  17
ATOM     17  C   UNL A   1      33.006  24.605  25.060  1.00  0.00     0.107 C 
ATOM     18  C   UNL A   1      30.667  24.306  25.792  1.00  0.00     0.205 C 
ATOM     19  C   UNL A   1      30.747  24.648  24.347  1.00  0.00     0.033 C 
ATOM     20  C   UNL A   1      32.067  24.684  26.278  1.00  0.00     0.087 C 
ATOM     21  C   UNL A   1      32.014  24.810  23.940  1.00  0.00    -0.012 C 
BRANCH  18  22
ATOM     22  N   UNL A   1      29.621  25.031  26.483  1.00  0.00    -0.352 N 
ATOM     23  H   UNL A   1      30.040  25.719  27.110  1.00  0.00     0.345 HD
ATOM     24  H   UNL A   1      29.056  24.378  27.026  1.00  0.00     0.345 HD
ATOM     25  H   UNL A   1      29.029  25.508  25.802  1.00  0.00     0.345 HD
ENDBRANCH  18  22
ENDBRANCH   9  17
ENDBRANCH   7   8
ENDBRANCH   5   7
ENDBRANCH   4   5
ENDBRANCH   3   4
ENDBRANCH   2   3
ENDBRANCH   1   2
BRANCH   1  26
ATOM     26  C   UNL A   1      44.535  22.979  25.146  1.00  0.00     0.202 C 
BRANCH  26  27
ATOM     27  C   UNL A   1      43.852  24.304  24.788  1.00  0.00     0.261 C 
BRANCH  27  28
ATOM     28  O   UNL A   1      42.850  24.661  25.761  1.00  0.00    -0.460 OA
BRANCH  28  29
ATOM     29  C   UNL A   1      42.544  25.983  25.778  1.00  0.00     0.338 C 
ATOM     30  O   UNL A   1      42.265  26.671  24.811  1.00  0.00    -0.246 OA
BRANCH  29  31
ATOM     31  C   UNL A   1      42.484  26.530  27.158  1.00  0.00     0.060 A 
ATOM     32  C   UNL A   1      41.504  26.014  28.006  1.00  0.00     0.016 A 
ATOM     33  C   UNL A   1      43.267  27.599  27.595  1.00  0.00     0.016 A 
ATOM     34  C   UNL A   1      41.218  26.652  29.209  1.00  0.00     0.010 A 
ATOM     35  C   UNL A   1      42.967  28.266  28.784  1.00  0.00     0.010 A 
ATOM     36  C   UNL A   1      41.900  27.821  29.567  1.00  0.00    -0.014 A 
BRANCH  36  37
ATOM     37  C   UNL A   1      41.485  28.545  30.781  1.00  0.00     0.031 A 
ATOM     38  C   UNL A   1      42.253  28.397  32.061  1.00  0.00     0.074 A 
ATOM     39  C   UNL A   1      40.438  29.380  30.691  1.00  0.00     0.049 A 
ATOM     40  N   UNL A   1      42.199  29.134  33.139  1.00  0.00    -0.248 NA
ATOM     41  C   UNL A   1      43.200  27.273  32.146  1.00  0.00     0.031 C 
ATOM     42  C   UNL A   1      39.601  29.547  29.503  1.00  0.00     0.029 A 
ATOM     43  N   UNL A   1      39.918  30.253  31.605  1.00  0.00    -0.354 N 
ATOM     44  C   UNL A   1      43.125  28.590  34.022  1.00  0.00     0.074 A 
ATOM     45  C   UNL A   1      43.691  27.426  33.372  1.00  0.00     0.031 C 
ATOM     46  C   UNL A   1      38.675  30.484  29.755  1.00  0.00     0.029 A 
ATOM     47  C   UNL A   1      38.868  30.987  31.112  1.00  0.00     0.049 A 
ATOM     48  H   UNL A   1      40.261  30.346  32.523  1.00  0.00     0.167 HD
ATOM     49  C   UNL A   1      43.473  29.039  35.253  1.00  0.00     0.031 A 
ATOM     50  C   UNL A   1      38.162  31.978  31.683  1.00  0.00     0.031 A 
ATOM     51  C   UNL A   1      42.859  30.185  35.885  1.00  0.00     0.049 A 
ATOM     52  C   UNL A   1      38.577  32.471  33.039  1.00  0.00     0.074 A 
ATOM     53  C   UNL A   1      43.179  30.779  37.093  1.00  0.00     0.029 A 
ATOM     54  N   UNL A   1      41.786  30.897  35.365  1.00  0.00    -0.354 N 
ATOM     55  N   UNL A   1      39.548  32.040  33.809  1.00  0.00    -0.248 NA
ATOM     56  C   UNL A   1      37.826  33.608  33.582  1.00  0.00     0.031 C 
ATOM     57  C   UNL A   1      42.256  31.803  37.336  1.00  0.00     0.029 A 
ATOM     58  C   UNL A   1      41.405  31.896  36.247  1.00  0.00     0.049 A 
ATOM     59  H   UNL A   1      41.357  30.717  34.498  1.00  0.00     0.167 HD
ATOM     60  C   UNL A   1      39.539  32.868  34.925  1.00  0.00     0.074 A 
ATOM     61  C   UNL A   1      38.485  33.841  34.709  1.00  0.00     0.031 C 
ATOM     62  C   UNL A   1      40.329  32.832  36.028  1.00  0.00     0.031 A 
BRANCH  49  63
ATOM     63  C   UNL A   1      44.555  28.308  36.010  1.00  0.00    -0.014 A 
ATOM     64  C   UNL A   1      45.904  28.695  35.906  1.00  0.00     0.010 A 
ATOM     65  C   UNL A   1      44.212  27.289  36.918  1.00  0.00     0.010 A 
ATOM     66  C   UNL A   1      46.887  28.067  36.679  1.00  0.00     0.020 A 
ATOM     67  C   UNL A   1      45.188  26.675  37.713  1.00  0.00     0.020 A 
ATOM     68  C   UNL A   1      46.523  27.063  37.582  1.00  0.00     0.054 A 
BRANCH  68  69
ATOM     69  S   UNL A   1      47.811  26.310  38.615  1.00  0.00     0.124 S 
ATOM     70  O   UNL A   1      48.824  27.363  38.651  1.00  0.00    -0.237 OA
ATOM     71  O   UNL A   1      47.111  26.069  39.873  1.00  0.00    -0.237 OA
ATOM     72  O   UNL A   1      48.191  25.107  37.876  1.00  0.00    -0.744 OA
ENDBRANCH  68  69
ENDBRANCH  49  63
BRANCH  50  73
ATOM     73  C   UNL A   1      37.034  32.585  30.935  1.00  0.00    -0.014 A 
ATOM     74  C   UNL A   1      35.705  32.210  31.197  1.00  0.00     0.010 A 
ATOM     75  C   UNL A   1      37.289  33.592  29.985  1.00  0.00     0.010 A 
ATOM     76  C   UNL A   1      34.653  32.818  30.510  1.00  0.00     0.020 A 
ATOM     77  C   UNL A   1      36.238  34.224  29.318  1.00  0.00     0.020 A 
ATOM     78  C   UNL A   1      34.926  33.823  29.577  1.00  0.00     0.054 A 
BRANCH  78  79
ATOM     79  S   UNL A   1      33.541  34.638  28.737  1.00  0.00     0.124 S 
ATOM     80  O   UNL A   1      34.189  35.806  28.151  1.00  0.00    -0.237 OA
ATOM     81  O   UNL A   1      33.100  33.615  27.794  1.00  0.00    -0.237 OA
ATOM     82  O   UNL A   1      32.603  34.919  29.822  1.00  0.00    -0.744 OA
ENDBRANCH  78  79
ENDBRANCH  50  73
BRANCH  62  83
ATOM     83  C   UNL A   1      40.070  33.877  37.080  1.00  0.00    -0.014 A 
ATOM     84  C   UNL A   1      39.249  33.603  38.190  1.00  0.00     0.010 A 
ATOM     85  C   UNL A   1      40.657  35.150  36.961  1.00  0.00     0.010 A 
ATOM     86  C   UNL A   1      38.971  34.601  39.126  1.00  0.00     0.020 A 
ATOM     87  C   UNL A   1      40.409  36.140  37.915  1.00  0.00     0.020 A 
ATOM     88  C   UNL A   1      39.547  35.867  38.978  1.00  0.00     0.054 A 
BRANCH  88  89
ATOM     89  S   UNL A   1      39.170  37.144  40.208  1.00  0.00     0.124 S 
ATOM     90  O   UNL A   1      40.504  37.529  40.662  1.00  0.00    -0.237 OA
ATOM     91  O   UNL A   1      38.460  38.148  39.420  1.00  0.00    -0.237 OA
ATOM     92  O   UNL A   1      38.354  36.443  41.197  1.00  0.00    -0.744 OA
ENDBRANCH  88  89
ENDBRANCH  62  83
ENDBRANCH  36  37
ENDBRANCH  29  31
ENDBRANCH  28  29
ENDBRANCH  27  28
ENDBRANCH  26  27
ENDBRANCH   1  26
TORSDOF 20
ENDMDL
MODEL 2
REMARK VINA RESULT:     -10.2      2.663      9.302
REMARK SMILES [NH3+][C@H]1C=C[C@H](C(=O)N2CC[NH+](CC(=O)OCCOCCOC(=O)c3ccc(-c4c5nc(c(-c6ccc(S(=O)(=O)[O-])cc6)c6ccc([nH]6)c(-c6ccc(S(=O)(=O)[O-])cc6)c6nc(c(-c7ccc(S(=O)(=O)[O-])cc7)c7ccc4[nH]7)C=C6)C=C5)cc3)CC2)C1
REMARK SMILES IDX 18 1 17 2 16 3 15 4 13 5 14 6 12 7 11 8 6 9 7 10 8 11 9 12
REMARK SMILES IDX 85 13 10 14 84 15 5 17 2 18 3 19 86 20 4 21 1 22 19 26 20 27
REMARK SMILES IDX 21 28 22 29 23 30 24 31 25 32 83 33 26 34 82 35 27 36 28 37
REMARK SMILES IDX 29 38 76 39 30 40 81 41 75 42 77 43 31 44 80 45 74 46 73 47
REMARK SMILES IDX 32 49 62 50 43 51 61 52 44 53 47 54 60 55 78 56 45 57 46 58
REMARK SMILES IDX 59 60 79 61 48 62 33 63 34 64 42 65 35 66 41 67 36 68 37 69
REMARK SMILES IDX 38 70 39 71 40 72 63 73 64 74 72 75 65 76 71 77 66 78 67 79
REMARK SMILES IDX 68 80 69 81 70 82 49 83 50 84 58 85 51 86 57 87 52 88 53 89
REMARK SMILES IDX 54 90 55 91 56 92
REMARK H PARENT 11 16 1 23 1 24 1 25 77 48 47 59
REMARK Flexibility Score: inf
ROOT
ATOM      1  O   UNL A   1      31.607  29.289  26.444  1.00  0.00    -0.374 OA
ENDROOT
BRANCH   1   2
ATOM      2  C   UNL A   1      31.531  27.982  27.002  1.00  0.00     0.202 C 
BRANCH   2   3
ATOM      3  C   UNL A   1      31.225  26.824  26.044  1.00  0.00     0.261 C 
BRANCH   3   4
ATOM      4  O   UNL A   1      30.763  25.599  26.655  1.00  0.00    -0.459 OA
BRANCH   4   5
ATOM      5  C   UNL A   1      31.675  24.586  26.660  1.00  0.00     0.361 C 
ATOM      6  O   UNL A   1      31.755  23.739  27.548  1.00  0.00    -0.245 OA
BRANCH   5   7
ATOM      7  C   UNL A   1      32.715  24.664  25.549  1.00  0.00     0.386 C 
BRANCH   7   8
ATOM      8  N   UNL A   1      32.771  23.605  24.550  1.00  0.00    -0.323 N 
ATOM      9  C   UNL A   1      33.808  19.418  24.338  1.00  0.00     0.230 C 
ATOM     10  O   UNL A   1      34.940  19.138  24.747  1.00  0.00    -0.274 OA
ATOM     11  N   UNL A   1      33.379  20.753  24.293  1.00  0.00    -0.331 N 
ATOM     12  C   UNL A   1      34.434  21.746  24.475  1.00  0.00     0.181 C 
ATOM     13  C   UNL A   1      32.044  21.192  24.732  1.00  0.00     0.181 C 
ATOM     14  C   UNL A   1      34.054  23.161  24.036  1.00  0.00     0.284 C 
ATOM     15  C   UNL A   1      31.681  22.656  24.400  1.00  0.00     0.284 C 
ATOM     16  H   UNL A   1      32.488  24.301  23.859  1.00  0.00     0.348 HD
BRANCH   9  17
ATOM     17  C   UNL A   1      32.899  18.317  23.759  1.00  0.00     0.107 C 
ATOM     18  C   UNL A   1      33.040  16.300  25.177  1.00  0.00     0.205 C 
ATOM     19  C   UNL A   1      33.846  16.152  23.937  1.00  0.00     0.033 C 
ATOM     20  C   UNL A   1      32.155  17.498  24.831  1.00  0.00     0.087 C 
ATOM     21  C   UNL A   1      33.777  17.243  23.161  1.00  0.00    -0.012 C 
BRANCH  18  22
ATOM     22  N   UNL A   1      32.274  15.113  25.494  1.00  0.00    -0.352 N 
ATOM     23  H   UNL A   1      31.386  15.383  25.916  1.00  0.00     0.345 HD
ATOM     24  H   UNL A   1      32.799  14.534  26.149  1.00  0.00     0.345 HD
ATOM     25  H   UNL A   1      32.097  14.583  24.640  1.00  0.00     0.345 HD
ENDBRANCH  18  22
ENDBRANCH   9  17
ENDBRANCH   7   8
ENDBRANCH   5   7
ENDBRANCH   4   5
ENDBRANCH   3   4
ENDBRANCH   2   3
ENDBRANCH   1   2
BRANCH   1  26
ATOM     26  C   UNL A   1      32.745  30.077  26.785  1.00  0.00     0.202 C 
BRANCH  26  27
ATOM     27  C   UNL A   1      32.453  31.504  27.263  1.00  0.00     0.261 C 
BRANCH  27  28
ATOM     28  O   UNL A   1      33.641  32.320  27.246  1.00  0.00    -0.460 OA
BRANCH  28  29
ATOM     29  C   UNL A   1      33.631  33.329  28.153  1.00  0.00     0.338 C 
ATOM     30  O   UNL A   1      32.791  34.209  28.243  1.00  0.00    -0.246 OA
BRANCH  29  31
ATOM     31  C   UNL A   1      34.736  33.212  29.139  1.00  0.00     0.060 A 
ATOM     32  C   UNL A   1      35.930  33.868  28.840  1.00  0.00     0.016 A 
ATOM     33  C   UNL A   1      34.675  32.392  30.267  1.00  0.00     0.016 A 
ATOM     34  C   UNL A   1      37.080  33.592  29.573  1.00  0.00     0.010 A 
ATOM     35  C   UNL A   1      35.829  32.083  30.990  1.00  0.00     0.010 A 
ATOM     36  C   UNL A   1      37.048  32.645  30.604  1.00  0.00    -0.014 A 
BRANCH  36  37
ATOM     37  C   UNL A   1      38.307  32.279  31.275  1.00  0.00     0.031 A 
ATOM     38  C   UNL A   1      38.672  32.881  32.600  1.00  0.00     0.074 A 
ATOM     39  C   UNL A   1      39.086  31.354  30.693  1.00  0.00     0.049 A 
ATOM     40  N   UNL A   1      39.590  32.498  33.448  1.00  0.00    -0.248 NA
ATOM     41  C   UNL A   1      37.915  34.069  33.026  1.00  0.00     0.031 C 
ATOM     42  C   UNL A   1      38.837  30.755  29.382  1.00  0.00     0.029 A 
ATOM     43  N   UNL A   1      40.226  30.746  31.139  1.00  0.00    -0.354 N 
ATOM     44  C   UNL A   1      39.503  33.373  34.525  1.00  0.00     0.074 A 
ATOM     45  C   UNL A   1      38.476  34.340  34.199  1.00  0.00     0.031 C 
ATOM     46  C   UNL A   1      39.792  29.846  29.133  1.00  0.00     0.029 A 
ATOM     47  C   UNL A   1      40.704  29.795  30.272  1.00  0.00     0.049 A 
ATOM     48  H   UNL A   1      40.660  30.966  31.994  1.00  0.00     0.167 HD
ATOM     49  C   UNL A   1      40.212  33.350  35.682  1.00  0.00     0.031 A 
ATOM     50  C   UNL A   1      41.745  28.954  30.400  1.00  0.00     0.031 A 
ATOM     51  C   UNL A   1      41.255  32.390  35.957  1.00  0.00     0.049 A 
ATOM     52  C   UNL A   1      42.502  28.934  31.695  1.00  0.00     0.074 A 
ATOM     53  C   UNL A   1      41.988  32.220  37.119  1.00  0.00     0.029 A 
ATOM     54  N   UNL A   1      41.728  31.449  35.050  1.00  0.00    -0.354 N 
ATOM     55  N   UNL A   1      42.322  29.672  32.765  1.00  0.00    -0.248 NA
ATOM     56  C   UNL A   1      43.576  27.941  31.813  1.00  0.00     0.031 C 
ATOM     57  C   UNL A   1      42.948  31.227  36.890  1.00  0.00     0.029 A 
ATOM     58  C   UNL A   1      42.768  30.727  35.611  1.00  0.00     0.049 A 
ATOM     59  H   UNL A   1      41.375  31.317  34.141  1.00  0.00     0.167 HD
ATOM     60  C   UNL A   1      43.249  29.218  33.695  1.00  0.00     0.074 A 
ATOM     61  C   UNL A   1      43.964  28.124  33.067  1.00  0.00     0.031 C 
ATOM     62  C   UNL A   1      43.489  29.664  34.955  1.00  0.00     0.031 A 
BRANCH  49  63
ATOM     63  C   UNL A   1      39.900  34.381  36.740  1.00  0.00    -0.014 A 
ATOM     64  C   UNL A   1      39.025  34.090  37.804  1.00  0.00     0.010 A 
ATOM     65  C   UNL A   1      40.568  35.619  36.734  1.00  0.00     0.010 A 
ATOM     66  C   UNL A   1      38.813  35.021  38.826  1.00  0.00     0.020 A 
ATOM     67  C   UNL A   1      40.378  36.544  37.767  1.00  0.00     0.020 A 
ATOM     68  C   UNL A   1      39.494  36.242  38.805  1.00  0.00     0.054 A 
BRANCH  68  69
ATOM     69  S   UNL A   1      39.244  37.404  40.176  1.00  0.00     0.124 S 
ATOM     70  O   UNL A   1      40.611  37.837  40.458  1.00  0.00    -0.237 OA
ATOM     71  O   UNL A   1      38.375  38.416  39.582  1.00  0.00    -0.237 OA
ATOM     72  O   UNL A   1      38.624  36.587  41.217  1.00  0.00    -0.744 OA
ENDBRANCH  68  69
ENDBRANCH  49  63
BRANCH  50  73
ATOM     73  C   UNL A   1      42.075  28.039  29.279  1.00  0.00    -0.014 A 
ATOM     74  C   UNL A   1      43.080  28.363  28.351  1.00  0.00     0.010 A 
ATOM     75  C   UNL A   1      41.412  26.801  29.170  1.00  0.00     0.010 A 
ATOM     76  C   UNL A   1      43.403  27.474  27.325  1.00  0.00     0.020 A 
ATOM     77  C   UNL A   1      41.754  25.898  28.163  1.00  0.00     0.020 A 
ATOM     78  C   UNL A   1      42.740  26.246  27.239  1.00  0.00     0.054 A 
BRANCH  78  79
ATOM     79  S   UNL A   1      43.216  25.083  25.931  1.00  0.00     0.124 S 
ATOM     80  O   UNL A   1      42.497  25.615  24.778  1.00  0.00    -0.237 OA
ATOM     81  O   UNL A   1      44.669  25.227  25.897  1.00  0.00    -0.237 OA
ATOM     82  O   UNL A   1      42.738  23.795  26.430  1.00  0.00    -0.744 OA
ENDBRANCH  78  79
ENDBRANCH  50  73
BRANCH  62  83
ATOM     83  C   UNL A   1      44.576  28.960  35.724  1.00  0.00    -0.014 A 
ATOM     84  C   UNL A   1      45.900  29.438  35.715  1.00  0.00     0.010 A 
ATOM     85  C   UNL A   1      44.270  27.807  36.470  1.00  0.00     0.010 A 
ATOM     86  C   UNL A   1      46.907  28.742  36.386  1.00  0.00     0.020 A 
ATOM     87  C   UNL A   1      45.269  27.127  37.171  1.00  0.00     0.020 A 
ATOM     88  C   UNL A   1      46.586  27.586  37.104  1.00  0.00     0.054 A 
BRANCH  88  89
ATOM     89  S   UNL A   1      47.913  26.700  37.967  1.00  0.00     0.124 S 
ATOM     90  O   UNL A   1      47.917  25.414  37.274  1.00  0.00    -0.237 OA
ATOM     91  O   UNL A   1      49.076  27.550  37.723  1.00  0.00    -0.237 OA
ATOM     92  O   UNL A   1      47.457  26.659  39.354  1.00  0.00    -0.744 OA
ENDBRANCH  88  89
ENDBRANCH  62  83
ENDBRANCH  36  37
ENDBRANCH  29  31
ENDBRANCH  28  29
ENDBRANCH  27  28
ENDBRANCH  26  27
ENDBRANCH   1  26
TORSDOF 20
ENDMDL
MODEL 3
REMARK VINA RESULT:     -10.0      1.692      2.402
REMARK SMILES [NH3+][C@H]1C=C[C@H](C(=O)N2CC[NH+](CC(=O)OCCOCCOC(=O)c3ccc(-c4c5nc(c(-c6ccc(S(=O)(=O)[O-])cc6)c6ccc([nH]6)c(-c6ccc(S(=O)(=O)[O-])cc6)c6nc(c(-c7ccc(S(=O)(=O)[O-])cc7)c7ccc4[nH]7)C=C6)C=C5)cc3)CC2)C1
REMARK SMILES IDX 18 1 17 2 16 3 15 4 13 5 14 6 12 7 11 8 6 9 7 10 8 11 9 12
REMARK SMILES IDX 85 13 10 14 84 15 5 17 2 18 3 19 86 20 4 21 1 22 19 26 20 27
REMARK SMILES IDX 21 28 22 29 23 30 24 31 25 32 83 33 26 34 82 35 27 36 28 37
REMARK SMILES IDX 29 38 76 39 30 40 81 41 75 42 77 43 31 44 80 45 74 46 73 47
REMARK SMILES IDX 32 49 62 50 43 51 61 52 44 53 47 54 60 55 78 56 45 57 46 58
REMARK SMILES IDX 59 60 79 61 48 62 33 63 34 64 42 65 35 66 41 67 36 68 37 69
REMARK SMILES IDX 38 70 39 71 40 72 63 73 64 74 72 75 65 76 71 77 66 78 67 79
REMARK SMILES IDX 68 80 69 81 70 82 49 83 50 84 58 85 51 86 57 87 52 88 53 89
REMARK SMILES IDX 54 90 55 91 56 92
REMARK H PARENT 11 16 1 23 1 24 1 25 77 48 47 59
REMARK Flexibility Score: inf
ROOT
ATOM      1  O   UNL A   1      41.630  21.265  25.746  1.00  0.00    -0.374 OA
ENDROOT
BRANCH   1   2
ATOM      2  C   UNL A   1      40.450  21.029  26.506  1.00  0.00     0.202 C 
BRANCH   2   3
ATOM      3  C   UNL A   1      39.219  21.882  26.177  1.00  0.00     0.261 C 
BRANCH   3   4
ATOM      4  O   UNL A   1      38.331  21.354  25.167  1.00  0.00    -0.459 OA
BRANCH   4   5
ATOM      5  C   UNL A   1      37.217  22.105  24.938  1.00  0.00     0.361 C 
ATOM      6  O   UNL A   1      37.233  23.204  24.386  1.00  0.00    -0.245 OA
BRANCH   5   7
ATOM      7  C   UNL A   1      35.942  21.557  25.566  1.00  0.00     0.386 C 
BRANCH   7   8
ATOM      8  N   UNL A   1      34.692  22.285  25.393  1.00  0.00    -0.323 N 
ATOM      9  C   UNL A   1      33.376  26.156  24.001  1.00  0.00     0.230 C 
ATOM     10  O   UNL A   1      33.899  27.121  24.570  1.00  0.00    -0.274 OA
ATOM     11  N   UNL A   1      33.671  24.847  24.410  1.00  0.00    -0.331 N 
ATOM     12  C   UNL A   1      34.373  24.742  25.687  1.00  0.00     0.181 C 
ATOM     13  C   UNL A   1      33.943  23.745  23.472  1.00  0.00     0.181 C 
ATOM     14  C   UNL A   1      34.339  23.348  26.315  1.00  0.00     0.284 C 
ATOM     15  C   UNL A   1      34.027  22.338  24.102  1.00  0.00     0.284 C 
ATOM     16  H   UNL A   1      34.215  21.478  25.797  1.00  0.00     0.348 HD
BRANCH   9  17
ATOM     17  C   UNL A   1      32.303  26.381  22.919  1.00  0.00     0.107 C 
ATOM     18  C   UNL A   1      31.747  28.784  22.796  1.00  0.00     0.205 C 
ATOM     19  C   UNL A   1      30.705  28.020  23.533  1.00  0.00     0.033 C 
ATOM     20  C   UNL A   1      32.514  27.664  22.093  1.00  0.00     0.087 C 
ATOM     21  C   UNL A   1      31.000  26.714  23.606  1.00  0.00    -0.012 C 
BRANCH  18  22
ATOM     22  N   UNL A   1      31.188  29.746  21.870  1.00  0.00    -0.352 N 
ATOM     23  H   UNL A   1      30.703  29.255  21.119  1.00  0.00     0.345 HD
ATOM     24  H   UNL A   1      31.937  30.314  21.475  1.00  0.00     0.345 HD
ATOM     25  H   UNL A   1      30.528  30.350  22.362  1.00  0.00     0.345 HD
ENDBRANCH  18  22
ENDBRANCH   9  17
ENDBRANCH   7   8
ENDBRANCH   5   7
ENDBRANCH   4   5
ENDBRANCH   3   4
ENDBRANCH   2   3
ENDBRANCH   1   2
BRANCH   1  26
ATOM     26  C   UNL A   1      42.610  22.128  26.318  1.00  0.00     0.202 C 
BRANCH  26  27
ATOM     27  C   UNL A   1      42.656  23.554  25.757  1.00  0.00     0.261 C 
BRANCH  27  28
ATOM     28  O   UNL A   1      42.207  24.518  26.730  1.00  0.00    -0.460 OA
BRANCH  28  29
ATOM     29  C   UNL A   1      41.842  25.712  26.197  1.00  0.00     0.338 C 
ATOM     30  O   UNL A   1      41.904  26.024  25.020  1.00  0.00    -0.246 OA
BRANCH  29  31
ATOM     31  C   UNL A   1      41.243  26.622  27.208  1.00  0.00     0.060 A 
ATOM     32  C   UNL A   1      41.927  27.806  27.484  1.00  0.00     0.016 A 
ATOM     33  C   UNL A   1      40.118  26.294  27.964  1.00  0.00     0.016 A 
ATOM     34  C   UNL A   1      41.574  28.571  28.592  1.00  0.00     0.010 A 
ATOM     35  C   UNL A   1      39.775  27.036  29.095  1.00  0.00     0.010 A 
ATOM     36  C   UNL A   1      40.543  28.149  29.441  1.00  0.00    -0.014 A 
BRANCH  36  37
ATOM     37  C   UNL A   1      40.280  28.910  30.674  1.00  0.00     0.031 A 
ATOM     38  C   UNL A   1      41.108  28.684  31.905  1.00  0.00     0.074 A 
ATOM     39  C   UNL A   1      39.320  29.847  30.644  1.00  0.00     0.049 A 
ATOM     40  N   UNL A   1      41.195  29.423  32.980  1.00  0.00    -0.248 NA
ATOM     41  C   UNL A   1      41.939  27.471  31.938  1.00  0.00     0.031 C 
ATOM     42  C   UNL A   1      38.431  30.099  29.510  1.00  0.00     0.029 A 
ATOM     43  N   UNL A   1      38.948  30.768  31.583  1.00  0.00    -0.354 N 
ATOM     44  C   UNL A   1      42.114  28.787  33.807  1.00  0.00     0.074 A 
ATOM     45  C   UNL A   1      42.518  27.572  33.130  1.00  0.00     0.031 C 
ATOM     46  C   UNL A   1      37.623  31.125  29.812  1.00  0.00     0.029 A 
ATOM     47  C   UNL A   1      37.950  31.605  31.152  1.00  0.00     0.049 A 
ATOM     48  H   UNL A   1      39.355  30.826  32.477  1.00  0.00     0.167 HD
ATOM     49  C   UNL A   1      42.582  29.199  35.012  1.00  0.00     0.031 A 
ATOM     50  C   UNL A   1      37.385  32.662  31.760  1.00  0.00     0.031 A 
ATOM     51  C   UNL A   1      42.128  30.400  35.673  1.00  0.00     0.049 A 
ATOM     52  C   UNL A   1      37.930  33.110  33.084  1.00  0.00     0.074 A 
ATOM     53  C   UNL A   1      42.581  30.958  36.856  1.00  0.00     0.029 A 
ATOM     54  N   UNL A   1      41.102  31.218  35.217  1.00  0.00    -0.354 N 
ATOM     55  N   UNL A   1      38.899  32.583  33.795  1.00  0.00    -0.248 NA
ATOM     56  C   UNL A   1      37.334  34.317  33.667  1.00  0.00     0.031 C 
ATOM     57  C   UNL A   1      41.783  32.070  37.150  1.00  0.00     0.029 A 
ATOM     58  C   UNL A   1      40.880  32.250  36.115  1.00  0.00     0.049 A 
ATOM     59  H   UNL A   1      40.604  31.083  34.379  1.00  0.00     0.167 HD
ATOM     60  C   UNL A   1      39.043  33.407  34.904  1.00  0.00     0.074 A 
ATOM     61  C   UNL A   1      38.081  34.482  34.749  1.00  0.00     0.031 C 
ATOM     62  C   UNL A   1      39.893  33.290  35.957  1.00  0.00     0.031 A 
BRANCH  49  63
ATOM     63  C   UNL A   1      43.629  28.361  35.704  1.00  0.00    -0.014 A 
ATOM     64  C   UNL A   1      43.268  27.349  36.613  1.00  0.00     0.010 A 
ATOM     65  C   UNL A   1      44.987  28.512  35.366  1.00  0.00     0.010 A 
ATOM     66  C   UNL A   1      44.242  26.519  37.180  1.00  0.00     0.020 A 
ATOM     67  C   UNL A   1      45.963  27.669  35.910  1.00  0.00     0.020 A 
ATOM     68  C   UNL A   1      45.584  26.682  36.823  1.00  0.00     0.054 A 
BRANCH  68  69
ATOM     69  S   UNL A   1      46.817  25.552  37.528  1.00  0.00     0.124 S 
ATOM     70  O   UNL A   1      47.785  26.483  38.104  1.00  0.00    -0.237 OA
ATOM     71  O   UNL A   1      46.033  24.786  38.493  1.00  0.00    -0.237 OA
ATOM     72  O   UNL A   1      47.295  24.793  36.375  1.00  0.00    -0.744 OA
ENDBRANCH  68  69
ENDBRANCH  49  63
BRANCH  50  73
ATOM     73  C   UNL A   1      36.279  33.381  31.079  1.00  0.00    -0.014 A 
ATOM     74  C   UNL A   1      35.111  33.739  31.774  1.00  0.00     0.010 A 
ATOM     75  C   UNL A   1      36.421  33.761  29.731  1.00  0.00     0.010 A 
ATOM     76  C   UNL A   1      34.097  34.447  31.128  1.00  0.00     0.020 A 
ATOM     77  C   UNL A   1      35.422  34.496  29.091  1.00  0.00     0.020 A 
ATOM     78  C   UNL A   1      34.260  34.824  29.791  1.00  0.00     0.054 A 
BRANCH  78  79
ATOM     79  S   UNL A   1      32.954  35.792  28.989  1.00  0.00     0.124 S 
ATOM     80  O   UNL A   1      32.128  36.186  30.126  1.00  0.00    -0.237 OA
ATOM     81  O   UNL A   1      33.708  36.866  28.349  1.00  0.00    -0.237 OA
ATOM     82  O   UNL A   1      32.340  34.839  28.067  1.00  0.00    -0.744 OA
ENDBRANCH  78  79
ENDBRANCH  50  73
BRANCH  62  83
ATOM     83  C   UNL A   1      39.807  34.356  37.017  1.00  0.00    -0.014 A 
ATOM     84  C   UNL A   1      40.539  35.553  36.907  1.00  0.00     0.010 A 
ATOM     85  C   UNL A   1      38.980  34.161  38.139  1.00  0.00     0.010 A 
ATOM     86  C   UNL A   1      40.494  36.505  37.927  1.00  0.00     0.020 A 
ATOM     87  C   UNL A   1      38.905  35.128  39.144  1.00  0.00     0.020 A 
ATOM     88  C   UNL A   1      39.682  36.283  39.043  1.00  0.00     0.054 A 
BRANCH  88  89
ATOM     89  S   UNL A   1      39.641  37.536  40.353  1.00  0.00     0.124 S 
ATOM     90  O   UNL A   1      38.929  36.836  41.419  1.00  0.00    -0.237 OA
ATOM     91  O   UNL A   1      41.059  37.785  40.603  1.00  0.00    -0.237 OA
ATOM     92  O   UNL A   1      38.916  38.649  39.745  1.00  0.00    -0.744 OA
ENDBRANCH  88  89
ENDBRANCH  62  83
ENDBRANCH  36  37
ENDBRANCH  29  31
ENDBRANCH  28  29
ENDBRANCH  27  28
ENDBRANCH  26  27
ENDBRANCH   1  26
TORSDOF 20
ENDMDL
