MODEL 1
REMARK VINA RESULT:      -9.0      0.000      0.000
REMARK SMILES O=C(OCCOCCOC(=O)[C@@H](CCOC(F)(F)F)Cc1ccccc1Cl)c1ccc(-c2c3nc(c(-c4ccc(S(=O)(=O)[O-])cc4)c4ccc([nH]4)c(-c4ccc(S(=O)(=O)[O-])cc4)c4nc(c(-c5ccc(S(=O)(=O)[O-])cc5)c5ccc2[nH]5)C=C4)C=C3)cc1
REMARK SMILES IDX 7 1 6 2 5 3 4 4 3 5 2 6 1 7 28 8 29 9 87 10 30 11 86 12
REMARK SMILES IDX 31 13 32 14 33 15 80 16 34 17 85 18 79 19 81 20 35 21 84 22
REMARK SMILES IDX 78 23 77 24 36 26 66 27 47 28 65 29 48 30 51 31 64 32 82 33
REMARK SMILES IDX 49 34 50 35 63 37 83 38 52 39 37 40 38 41 46 42 39 43 45 44
REMARK SMILES IDX 40 45 41 46 42 47 43 48 44 49 67 50 68 51 76 52 69 53 75 54
REMARK SMILES IDX 70 55 71 56 72 57 73 58 74 59 53 60 54 61 62 62 55 63 61 64
REMARK SMILES IDX 56 65 57 66 58 67 59 68 60 69 8 70 9 71 10 72 11 73 12 74
REMARK SMILES IDX 13 75 14 76 15 77 16 78 17 79 18 80 19 81 20 82 21 83 22 84
REMARK SMILES IDX 26 85 23 86 25 87 27 88 24 89
REMARK H PARENT 81 25 51 36
REMARK Flexibility Score: inf
ROOT
ATOM      1  C   UNL A   1      32.517  27.894  26.598  1.00  0.00     0.202 C 
ENDROOT
BRANCH   1   2
ATOM      2  O   UNL A   1      33.744  28.479  27.029  1.00  0.00    -0.374 OA
BRANCH   2   3
ATOM      3  C   UNL A   1      33.812  29.887  27.236  1.00  0.00     0.202 C 
BRANCH   3   4
ATOM      4  C   UNL A   1      35.187  30.435  27.626  1.00  0.00     0.261 C 
BRANCH   4   5
ATOM      5  O   UNL A   1      36.111  29.354  27.819  1.00  0.00    -0.460 OA
BRANCH   5   6
ATOM      6  C   UNL A   1      37.042  29.256  28.800  1.00  0.00     0.338 C 
ATOM      7  O   UNL A   1      36.670  29.273  29.972  1.00  0.00    -0.246 OA
BRANCH   6   8
ATOM      8  C   UNL A   1      38.501  29.113  28.523  1.00  0.00     0.060 A 
ATOM      9  C   UNL A   1      39.086  29.289  27.270  1.00  0.00     0.016 A 
ATOM     10  C   UNL A   1      39.349  28.863  29.611  1.00  0.00     0.016 A 
ATOM     11  C   UNL A   1      40.439  29.216  27.067  1.00  0.00     0.010 A 
ATOM     12  C   UNL A   1      40.733  28.790  29.425  1.00  0.00     0.010 A 
ATOM     13  C   UNL A   1      41.267  28.971  28.146  1.00  0.00    -0.014 A 
BRANCH  13  14
ATOM     14  C   UNL A   1      42.669  28.752  27.800  1.00  0.00     0.031 A 
ATOM     15  C   UNL A   1      43.636  29.827  28.168  1.00  0.00     0.074 A 
ATOM     16  C   UNL A   1      43.052  27.521  27.416  1.00  0.00     0.049 A 
ATOM     17  N   UNL A   1      44.917  29.884  27.956  1.00  0.00    -0.248 NA
ATOM     18  C   UNL A   1      43.088  30.988  28.899  1.00  0.00     0.031 C 
ATOM     19  C   UNL A   1      42.158  26.364  27.271  1.00  0.00     0.029 A 
ATOM     20  N   UNL A   1      44.290  27.020  27.136  1.00  0.00    -0.354 N 
ATOM     21  C   UNL A   1      45.321  31.106  28.476  1.00  0.00     0.074 A 
ATOM     22  C   UNL A   1      44.159  31.753  29.033  1.00  0.00     0.031 C 
ATOM     23  C   UNL A   1      42.886  25.285  26.945  1.00  0.00     0.029 A 
ATOM     24  C   UNL A   1      44.272  25.697  26.769  1.00  0.00     0.049 A 
ATOM     25  H   UNL A   1      45.115  27.556  27.192  1.00  0.00     0.167 HD
ATOM     26  C   UNL A   1      46.564  31.634  28.452  1.00  0.00     0.031 A 
ATOM     27  C   UNL A   1      45.269  24.933  26.289  1.00  0.00     0.031 A 
ATOM     28  C   UNL A   1      47.677  30.942  27.868  1.00  0.00     0.049 A 
ATOM     29  C   UNL A   1      46.612  25.593  26.140  1.00  0.00     0.074 A 
ATOM     30  C   UNL A   1      48.969  31.383  27.672  1.00  0.00     0.029 A 
ATOM     31  N   UNL A   1      47.612  29.639  27.382  1.00  0.00    -0.354 N 
ATOM     32  N   UNL A   1      46.976  26.803  26.509  1.00  0.00    -0.248 NA
ATOM     33  C   UNL A   1      47.669  24.810  25.498  1.00  0.00     0.031 C 
ATOM     34  C   UNL A   1      49.672  30.366  27.016  1.00  0.00     0.029 A 
ATOM     35  C   UNL A   1      48.836  29.265  26.867  1.00  0.00     0.049 A 
ATOM     36  H   UNL A   1      46.811  29.068  27.403  1.00  0.00     0.167 HD
ATOM     37  C   UNL A   1      48.311  26.921  26.155  1.00  0.00     0.074 A 
ATOM     38  C   UNL A   1      48.694  25.649  25.565  1.00  0.00     0.031 C 
ATOM     39  C   UNL A   1      49.152  27.978  26.296  1.00  0.00     0.031 A 
BRANCH  26  40
ATOM     40  C   UNL A   1      46.717  33.042  28.954  1.00  0.00    -0.014 A 
ATOM     41  C   UNL A   1      47.038  33.326  30.293  1.00  0.00     0.010 A 
ATOM     42  C   UNL A   1      46.478  34.109  28.067  1.00  0.00     0.010 A 
ATOM     43  C   UNL A   1      47.078  34.649  30.745  1.00  0.00     0.020 A 
ATOM     44  C   UNL A   1      46.545  35.433  28.507  1.00  0.00     0.020 A 
ATOM     45  C   UNL A   1      46.827  35.694  29.848  1.00  0.00     0.054 A 
BRANCH  45  46
ATOM     46  S   UNL A   1      46.890  37.401  30.459  1.00  0.00     0.124 S 
ATOM     47  O   UNL A   1      47.839  38.017  29.535  1.00  0.00    -0.237 OA
ATOM     48  O   UNL A   1      45.504  37.841  30.320  1.00  0.00    -0.237 OA
ATOM     49  O   UNL A   1      47.361  37.261  31.834  1.00  0.00    -0.744 OA
ENDBRANCH  45  46
ENDBRANCH  26  40
BRANCH  27  50
ATOM     50  C   UNL A   1      45.007  23.539  25.833  1.00  0.00    -0.014 A 
ATOM     51  C   UNL A   1      45.201  23.160  24.494  1.00  0.00     0.010 A 
ATOM     52  C   UNL A   1      44.557  22.570  26.752  1.00  0.00     0.010 A 
ATOM     53  C   UNL A   1      44.930  21.850  24.081  1.00  0.00     0.020 A 
ATOM     54  C   UNL A   1      44.315  21.253  26.352  1.00  0.00     0.020 A 
ATOM     55  C   UNL A   1      44.488  20.904  25.013  1.00  0.00     0.054 A 
BRANCH  55  56
ATOM     56  S   UNL A   1      44.166  19.207  24.459  1.00  0.00     0.124 S 
ATOM     57  O   UNL A   1      44.351  19.319  23.016  1.00  0.00    -0.237 OA
ATOM     58  O   UNL A   1      45.187  18.444  25.173  1.00  0.00    -0.237 OA
ATOM     59  O   UNL A   1      42.794  18.958  24.896  1.00  0.00    -0.744 OA
ENDBRANCH  55  56
ENDBRANCH  27  50
BRANCH  39  60
ATOM     60  C   UNL A   1      50.567  27.774  25.843  1.00  0.00    -0.014 A 
ATOM     61  C   UNL A   1      50.974  28.135  24.547  1.00  0.00     0.010 A 
ATOM     62  C   UNL A   1      51.511  27.280  26.759  1.00  0.00     0.010 A 
ATOM     63  C   UNL A   1      52.308  27.978  24.167  1.00  0.00     0.020 A 
ATOM     64  C   UNL A   1      52.850  27.154  26.392  1.00  0.00     0.020 A 
ATOM     65  C   UNL A   1      53.236  27.493  25.094  1.00  0.00     0.054 A 
BRANCH  65  66
ATOM     66  S   UNL A   1      54.972  27.357  24.595  1.00  0.00     0.124 S 
ATOM     67  O   UNL A   1      54.853  27.030  23.178  1.00  0.00    -0.237 OA
ATOM     68  O   UNL A   1      55.495  28.689  24.893  1.00  0.00    -0.237 OA
ATOM     69  O   UNL A   1      55.492  26.286  25.442  1.00  0.00    -0.744 OA
ENDBRANCH  65  66
ENDBRANCH  39  60
ENDBRANCH  13  14
ENDBRANCH   6   8
ENDBRANCH   5   6
ENDBRANCH   4   5
ENDBRANCH   3   4
ENDBRANCH   2   3
ENDBRANCH   1   2
BRANCH   1  70
ATOM     70  C   UNL A   1      32.792  26.863  25.496  1.00  0.00     0.261 C 
BRANCH  70  71
ATOM     71  O   UNL A   1      34.045  26.204  25.752  1.00  0.00    -0.463 OA
BRANCH  71  72
ATOM     72  C   UNL A   1      34.244  25.066  25.047  1.00  0.00     0.309 C 
ATOM     73  O   UNL A   1      33.787  24.824  23.943  1.00  0.00    -0.252 OA
BRANCH  72  74
ATOM     74  C   UNL A   1      35.126  24.079  25.792  1.00  0.00     0.106 C 
BRANCH  74  75
ATOM     75  C   UNL A   1      34.440  22.840  26.445  1.00  0.00     0.044 C 
BRANCH  75  76
ATOM     76  C   UNL A   1      32.975  22.455  26.152  1.00  0.00     0.171 C 
BRANCH  76  77
ATOM     77  O   UNL A   1      32.762  21.077  25.908  1.00  0.00    -0.292 OA
BRANCH  77  78
ATOM     78  C   UNL A   1      33.002  20.686  24.575  1.00  0.00     0.522 C 
ATOM     79  F   UNL A   1      32.159  19.722  24.168  1.00  0.00    -0.144 F 
ATOM     80  F   UNL A   1      32.878  21.765  23.781  1.00  0.00    -0.144 F 
ATOM     81  F   UNL A   1      34.263  20.221  24.479  1.00  0.00    -0.144 F 
ENDBRANCH  77  78
ENDBRANCH  76  77
ENDBRANCH  75  76
ENDBRANCH  74  75
BRANCH  74  82
ATOM     82  C   UNL A   1      36.377  23.714  24.977  1.00  0.00     0.052 C 
BRANCH  82  83
ATOM     83  C   UNL A   1      37.609  23.287  25.755  1.00  0.00    -0.028 A 
ATOM     84  C   UNL A   1      38.258  24.182  26.625  1.00  0.00     0.005 A 
ATOM     85  C   UNL A   1      38.170  22.008  25.596  1.00  0.00     0.044 A 
ATOM     86  C   UNL A   1      39.503  23.874  27.180  1.00  0.00     0.000 A 
ATOM     87  C   UNL A   1      39.401  21.691  26.177  1.00  0.00     0.021 A 
ATOM     88  Cl  UNL A   1      37.389  20.764  24.680  1.00  0.00    -0.084 Cl
ATOM     89  C   UNL A   1      40.084  22.636  26.939  1.00  0.00     0.002 A 
ENDBRANCH  82  83
ENDBRANCH  74  82
ENDBRANCH  72  74
ENDBRANCH  71  72
ENDBRANCH  70  71
ENDBRANCH   1  70
TORSDOF 23
ENDMDL
MODEL 2
REMARK VINA RESULT:      -8.7      2.533      8.030
REMARK SMILES O=C(OCCOCCOC(=O)[C@@H](CCOC(F)(F)F)Cc1ccccc1Cl)c1ccc(-c2c3nc(c(-c4ccc(S(=O)(=O)[O-])cc4)c4ccc([nH]4)c(-c4ccc(S(=O)(=O)[O-])cc4)c4nc(c(-c5ccc(S(=O)(=O)[O-])cc5)c5ccc2[nH]5)C=C4)C=C3)cc1
REMARK SMILES IDX 7 1 6 2 5 3 4 4 3 5 2 6 1 7 28 8 29 9 87 10 30 11 86 12
REMARK SMILES IDX 31 13 32 14 33 15 80 16 34 17 85 18 79 19 81 20 35 21 84 22
REMARK SMILES IDX 78 23 77 24 36 26 66 27 47 28 65 29 48 30 51 31 64 32 82 33
REMARK SMILES IDX 49 34 50 35 63 37 83 38 52 39 37 40 38 41 46 42 39 43 45 44
REMARK SMILES IDX 40 45 41 46 42 47 43 48 44 49 67 50 68 51 76 52 69 53 75 54
REMARK SMILES IDX 70 55 71 56 72 57 73 58 74 59 53 60 54 61 62 62 55 63 61 64
REMARK SMILES IDX 56 65 57 66 58 67 59 68 60 69 8 70 9 71 10 72 11 73 12 74
REMARK SMILES IDX 13 75 14 76 15 77 16 78 17 79 18 80 19 81 20 82 21 83 22 84
REMARK SMILES IDX 26 85 23 86 25 87 27 88 24 89
REMARK H PARENT 81 25 51 36
REMARK Flexibility Score: inf
ROOT
ATOM      1  C   UNL A   1      38.660  22.901  26.181  1.00  0.00     0.202 C 
ENDROOT
BRANCH   1   2
ATOM      2  O   UNL A   1      38.218  21.578  25.886  1.00  0.00    -0.374 OA
BRANCH   2   3
ATOM      3  C   UNL A   1      39.166  20.604  25.456  1.00  0.00     0.202 C 
BRANCH   3   4
ATOM      4  C   UNL A   1      40.231  20.217  26.484  1.00  0.00     0.261 C 
BRANCH   4   5
ATOM      5  O   UNL A   1      41.275  19.461  25.853  1.00  0.00    -0.460 OA
BRANCH   5   6
ATOM      6  C   UNL A   1      42.516  19.909  25.539  1.00  0.00     0.338 C 
ATOM      7  O   UNL A   1      43.283  19.157  24.941  1.00  0.00    -0.246 OA
BRANCH   6   8
ATOM      8  C   UNL A   1      42.990  21.284  25.872  1.00  0.00     0.060 A 
ATOM      9  C   UNL A   1      43.038  22.342  24.966  1.00  0.00     0.016 A 
ATOM     10  C   UNL A   1      43.335  21.549  27.205  1.00  0.00     0.016 A 
ATOM     11  C   UNL A   1      43.415  23.609  25.327  1.00  0.00     0.010 A 
ATOM     12  C   UNL A   1      43.718  22.836  27.593  1.00  0.00     0.010 A 
ATOM     13  C   UNL A   1      43.752  23.860  26.643  1.00  0.00    -0.014 A 
BRANCH  13  14
ATOM     14  C   UNL A   1      44.292  25.195  26.889  1.00  0.00     0.031 A 
ATOM     15  C   UNL A   1      43.381  26.191  27.526  1.00  0.00     0.074 A 
ATOM     16  C   UNL A   1      45.620  25.382  26.776  1.00  0.00     0.049 A 
ATOM     17  N   UNL A   1      43.610  27.434  27.828  1.00  0.00    -0.248 NA
ATOM     18  C   UNL A   1      42.035  25.712  27.897  1.00  0.00     0.031 C 
ATOM     19  C   UNL A   1      46.588  24.350  26.379  1.00  0.00     0.029 A 
ATOM     20  N   UNL A   1      46.390  26.476  27.040  1.00  0.00    -0.354 N 
ATOM     21  C   UNL A   1      42.423  27.904  28.373  1.00  0.00     0.074 A 
ATOM     22  C   UNL A   1      41.481  26.811  28.383  1.00  0.00     0.031 C 
ATOM     23  C   UNL A   1      47.827  24.864  26.444  1.00  0.00     0.029 A 
ATOM     24  C   UNL A   1      47.726  26.274  26.793  1.00  0.00     0.049 A 
ATOM     25  H   UNL A   1      46.024  27.328  27.374  1.00  0.00     0.167 HD
ATOM     26  C   UNL A   1      42.158  29.158  28.798  1.00  0.00     0.031 A 
ATOM     27  C   UNL A   1      48.736  27.161  26.798  1.00  0.00     0.031 A 
ATOM     28  C   UNL A   1      43.139  30.205  28.747  1.00  0.00     0.049 A 
ATOM     29  C   UNL A   1      48.384  28.583  27.137  1.00  0.00     0.074 A 
ATOM     30  C   UNL A   1      42.995  31.545  29.040  1.00  0.00     0.029 A 
ATOM     31  N   UNL A   1      44.465  30.008  28.371  1.00  0.00    -0.354 N 
ATOM     32  N   UNL A   1      47.225  29.069  27.529  1.00  0.00    -0.248 NA
ATOM     33  C   UNL A   1      49.451  29.578  27.018  1.00  0.00     0.031 C 
ATOM     34  C   UNL A   1      44.221  32.170  28.787  1.00  0.00     0.029 A 
ATOM     35  C   UNL A   1      45.147  31.207  28.405  1.00  0.00     0.049 A 
ATOM     36  H   UNL A   1      44.857  29.142  28.120  1.00  0.00     0.167 HD
ATOM     37  C   UNL A   1      47.427  30.427  27.718  1.00  0.00     0.074 A 
ATOM     38  C   UNL A   1      48.827  30.679  27.419  1.00  0.00     0.031 C 
ATOM     39  C   UNL A   1      46.547  31.387  28.098  1.00  0.00     0.031 A 
BRANCH  26  40
ATOM     40  C   UNL A   1      40.745  29.453  29.215  1.00  0.00    -0.014 A 
ATOM     41  C   UNL A   1      39.716  29.649  28.277  1.00  0.00     0.010 A 
ATOM     42  C   UNL A   1      40.456  29.591  30.586  1.00  0.00     0.010 A 
ATOM     43  C   UNL A   1      38.435  30.016  28.701  1.00  0.00     0.020 A 
ATOM     44  C   UNL A   1      39.171  29.930  31.014  1.00  0.00     0.020 A 
ATOM     45  C   UNL A   1      38.172  30.158  30.068  1.00  0.00     0.054 A 
BRANCH  45  46
ATOM     46  S   UNL A   1      36.501  30.631  30.591  1.00  0.00     0.124 S 
ATOM     47  O   UNL A   1      36.226  29.654  31.642  1.00  0.00    -0.237 OA
ATOM     48  O   UNL A   1      36.685  32.006  31.045  1.00  0.00    -0.237 OA
ATOM     49  O   UNL A   1      35.702  30.480  29.378  1.00  0.00    -0.744 OA
ENDBRANCH  45  46
ENDBRANCH  26  40
BRANCH  27  50
ATOM     50  C   UNL A   1      50.107  26.755  26.379  1.00  0.00    -0.014 A 
ATOM     51  C   UNL A   1      50.515  26.837  25.037  1.00  0.00     0.010 A 
ATOM     52  C   UNL A   1      51.025  26.279  27.337  1.00  0.00     0.010 A 
ATOM     53  C   UNL A   1      51.801  26.431  24.661  1.00  0.00     0.020 A 
ATOM     54  C   UNL A   1      52.320  25.902  26.972  1.00  0.00     0.020 A 
ATOM     55  C   UNL A   1      52.696  25.966  25.631  1.00  0.00     0.054 A 
BRANCH  55  56
ATOM     56  S   UNL A   1      54.365  25.467  25.123  1.00  0.00     0.124 S 
ATOM     57  O   UNL A   1      55.194  26.105  26.141  1.00  0.00    -0.237 OA
ATOM     58  O   UNL A   1      54.291  24.009  25.189  1.00  0.00    -0.237 OA
ATOM     59  O   UNL A   1      54.493  26.018  23.776  1.00  0.00    -0.744 OA
ENDBRANCH  55  56
ENDBRANCH  27  50
BRANCH  39  60
ATOM     60  C   UNL A   1      47.092  32.776  28.250  1.00  0.00    -0.014 A 
ATOM     61  C   UNL A   1      47.667  33.203  29.459  1.00  0.00     0.010 A 
ATOM     62  C   UNL A   1      47.089  33.634  27.136  1.00  0.00     0.010 A 
ATOM     63  C   UNL A   1      48.210  34.485  29.557  1.00  0.00     0.020 A 
ATOM     64  C   UNL A   1      47.662  34.902  27.223  1.00  0.00     0.020 A 
ATOM     65  C   UNL A   1      48.207  35.323  28.437  1.00  0.00     0.054 A 
BRANCH  65  66
ATOM     66  S   UNL A   1      48.973  36.958  28.574  1.00  0.00     0.124 S 
ATOM     67  O   UNL A   1      48.008  37.803  27.877  1.00  0.00    -0.237 OA
ATOM     68  O   UNL A   1      49.053  37.153  30.020  1.00  0.00    -0.237 OA
ATOM     69  O   UNL A   1      50.260  36.794  27.902  1.00  0.00    -0.744 OA
ENDBRANCH  65  66
ENDBRANCH  39  60
ENDBRANCH  13  14
ENDBRANCH   6   8
ENDBRANCH   5   6
ENDBRANCH   4   5
ENDBRANCH   3   4
ENDBRANCH   2   3
ENDBRANCH   1   2
BRANCH   1  70
ATOM     70  C   UNL A   1      37.554  23.906  25.837  1.00  0.00     0.261 C 
BRANCH  70  71
ATOM     71  O   UNL A   1      36.427  23.212  25.274  1.00  0.00    -0.463 OA
BRANCH  71  72
ATOM     72  C   UNL A   1      35.253  23.415  25.918  1.00  0.00     0.309 C 
ATOM     73  O   UNL A   1      34.957  22.973  27.015  1.00  0.00    -0.252 OA
BRANCH  72  74
ATOM     74  C   UNL A   1      34.301  24.280  25.111  1.00  0.00     0.106 C 
BRANCH  74  75
ATOM     75  C   UNL A   1      33.959  23.826  23.659  1.00  0.00     0.044 C 
BRANCH  75  76
ATOM     76  C   UNL A   1      32.593  24.112  23.003  1.00  0.00     0.171 C 
BRANCH  76  77
ATOM     77  O   UNL A   1      32.663  24.796  21.765  1.00  0.00    -0.292 OA
BRANCH  77  78
ATOM     78  C   UNL A   1      32.461  26.188  21.866  1.00  0.00     0.522 C 
ATOM     79  F   UNL A   1      32.274  26.584  23.137  1.00  0.00    -0.144 F 
ATOM     80  F   UNL A   1      33.529  26.818  21.345  1.00  0.00    -0.144 F 
ATOM     81  F   UNL A   1      31.370  26.521  21.149  1.00  0.00    -0.144 F 
ENDBRANCH  77  78
ENDBRANCH  76  77
ENDBRANCH  75  76
ENDBRANCH  74  75
BRANCH  74  82
ATOM     82  C   UNL A   1      33.058  24.666  25.930  1.00  0.00     0.052 C 
BRANCH  82  83
ATOM     83  C   UNL A   1      32.818  26.146  26.165  1.00  0.00    -0.028 A 
ATOM     84  C   UNL A   1      33.896  27.045  26.268  1.00  0.00     0.005 A 
ATOM     85  C   UNL A   1      31.521  26.660  26.340  1.00  0.00     0.044 A 
ATOM     86  C   UNL A   1      33.701  28.361  26.692  1.00  0.00     0.000 A 
ATOM     87  C   UNL A   1      31.326  27.987  26.735  1.00  0.00     0.021 A 
ATOM     88  Cl  UNL A   1      30.105  25.698  26.088  1.00  0.00    -0.084 Cl
ATOM     89  C   UNL A   1      32.417  28.826  26.945  1.00  0.00     0.002 A 
ENDBRANCH  82  83
ENDBRANCH  74  82
ENDBRANCH  72  74
ENDBRANCH  71  72
ENDBRANCH  70  71
ENDBRANCH   1  70
TORSDOF 23
ENDMDL
MODEL 3
REMARK VINA RESULT:      -8.7      2.378      8.898
REMARK SMILES O=C(OCCOCCOC(=O)[C@@H](CCOC(F)(F)F)Cc1ccccc1Cl)c1ccc(-c2c3nc(c(-c4ccc(S(=O)(=O)[O-])cc4)c4ccc([nH]4)c(-c4ccc(S(=O)(=O)[O-])cc4)c4nc(c(-c5ccc(S(=O)(=O)[O-])cc5)c5ccc2[nH]5)C=C4)C=C3)cc1
REMARK SMILES IDX 7 1 6 2 5 3 4 4 3 5 2 6 1 7 28 8 29 9 87 10 30 11 86 12
REMARK SMILES IDX 31 13 32 14 33 15 80 16 34 17 85 18 79 19 81 20 35 21 84 22
REMARK SMILES IDX 78 23 77 24 36 26 66 27 47 28 65 29 48 30 51 31 64 32 82 33
REMARK SMILES IDX 49 34 50 35 63 37 83 38 52 39 37 40 38 41 46 42 39 43 45 44
REMARK SMILES IDX 40 45 41 46 42 47 43 48 44 49 67 50 68 51 76 52 69 53 75 54
REMARK SMILES IDX 70 55 71 56 72 57 73 58 74 59 53 60 54 61 62 62 55 63 61 64
REMARK SMILES IDX 56 65 57 66 58 67 59 68 60 69 8 70 9 71 10 72 11 73 12 74
REMARK SMILES IDX 13 75 14 76 15 77 16 78 17 79 18 80 19 81 20 82 21 83 22 84
REMARK SMILES IDX 26 85 23 86 25 87 27 88 24 89
REMARK H PARENT 81 25 51 36
REMARK Flexibility Score: inf
ROOT
ATOM      1  C   UNL A   1      37.670  21.657  25.331  1.00  0.00     0.202 C 
ENDROOT
BRANCH   1   2
ATOM      2  O   UNL A   1      37.719  20.259  25.057  1.00  0.00    -0.374 OA
BRANCH   2   3
ATOM      3  C   UNL A   1      38.899  19.526  25.374  1.00  0.00     0.202 C 
BRANCH   3   4
ATOM      4  C   UNL A   1      39.923  20.262  26.243  1.00  0.00     0.261 C 
BRANCH   4   5
ATOM      5  O   UNL A   1      41.193  19.598  26.177  1.00  0.00    -0.460 OA
BRANCH   5   6
ATOM      6  C   UNL A   1      42.374  20.153  25.808  1.00  0.00     0.338 C 
ATOM      7  O   UNL A   1      43.142  19.498  25.105  1.00  0.00    -0.246 OA
BRANCH   6   8
ATOM      8  C   UNL A   1      42.780  21.533  26.204  1.00  0.00     0.060 A 
ATOM      9  C   UNL A   1      42.811  22.624  25.337  1.00  0.00     0.016 A 
ATOM     10  C   UNL A   1      43.072  21.763  27.556  1.00  0.00     0.016 A 
ATOM     11  C   UNL A   1      43.124  23.892  25.753  1.00  0.00     0.010 A 
ATOM     12  C   UNL A   1      43.388  23.051  28.001  1.00  0.00     0.010 A 
ATOM     13  C   UNL A   1      43.409  24.109  27.088  1.00  0.00    -0.014 A 
BRANCH  13  14
ATOM     14  C   UNL A   1      43.885  25.455  27.397  1.00  0.00     0.031 A 
ATOM     15  C   UNL A   1      45.264  25.808  26.947  1.00  0.00     0.074 A 
ATOM     16  C   UNL A   1      42.997  26.369  27.826  1.00  0.00     0.049 A 
ATOM     17  N   UNL A   1      45.920  26.918  27.113  1.00  0.00    -0.248 NA
ATOM     18  C   UNL A   1      45.993  24.778  26.181  1.00  0.00     0.031 C 
ATOM     19  C   UNL A   1      41.567  26.115  28.055  1.00  0.00     0.029 A 
ATOM     20  N   UNL A   1      43.143  27.699  28.088  1.00  0.00    -0.354 N 
ATOM     21  C   UNL A   1      47.158  26.704  26.524  1.00  0.00     0.074 A 
ATOM     22  C   UNL A   1      47.159  25.370  25.975  1.00  0.00     0.031 C 
ATOM     23  C   UNL A   1      40.969  27.264  28.407  1.00  0.00     0.029 A 
ATOM     24  C   UNL A   1      41.986  28.301  28.518  1.00  0.00     0.049 A 
ATOM     25  H   UNL A   1      43.996  28.181  27.980  1.00  0.00     0.167 HD
ATOM     26  C   UNL A   1      48.202  27.559  26.481  1.00  0.00     0.031 A 
ATOM     27  C   UNL A   1      41.800  29.542  29.000  1.00  0.00     0.031 A 
ATOM     28  C   UNL A   1      48.139  28.871  27.060  1.00  0.00     0.049 A 
ATOM     29  C   UNL A   1      43.014  30.426  29.073  1.00  0.00     0.074 A 
ATOM     30  C   UNL A   1      49.139  29.812  27.191  1.00  0.00     0.029 A 
ATOM     31  N   UNL A   1      46.985  29.422  27.609  1.00  0.00    -0.354 N 
ATOM     32  N   UNL A   1      44.232  30.184  28.636  1.00  0.00    -0.248 NA
ATOM     33  C   UNL A   1      42.848  31.731  29.716  1.00  0.00     0.031 C 
ATOM     34  C   UNL A   1      48.603  30.911  27.871  1.00  0.00     0.029 A 
ATOM     35  C   UNL A   1      47.251  30.684  28.099  1.00  0.00     0.049 A 
ATOM     36  H   UNL A   1      46.108  28.978  27.641  1.00  0.00     0.167 HD
ATOM     37  C   UNL A   1      44.976  31.314  28.938  1.00  0.00     0.074 A 
ATOM     38  C   UNL A   1      44.062  32.248  29.575  1.00  0.00     0.031 C 
ATOM     39  C   UNL A   1      46.291  31.566  28.720  1.00  0.00     0.031 A 
BRANCH  26  40
ATOM     40  C   UNL A   1      49.489  27.037  25.909  1.00  0.00    -0.014 A 
ATOM     41  C   UNL A   1      50.378  26.251  26.665  1.00  0.00     0.010 A 
ATOM     42  C   UNL A   1      49.841  27.392  24.592  1.00  0.00     0.010 A 
ATOM     43  C   UNL A   1      51.610  25.864  26.128  1.00  0.00     0.020 A 
ATOM     44  C   UNL A   1      51.058  26.983  24.043  1.00  0.00     0.020 A 
ATOM     45  C   UNL A   1      51.943  26.236  24.821  1.00  0.00     0.054 A 
BRANCH  45  46
ATOM     46  S   UNL A   1      53.545  25.717  24.148  1.00  0.00     0.124 S 
ATOM     47  O   UNL A   1      54.472  26.587  24.869  1.00  0.00    -0.237 OA
ATOM     48  O   UNL A   1      53.601  24.303  24.510  1.00  0.00    -0.237 OA
ATOM     49  O   UNL A   1      53.425  25.986  22.718  1.00  0.00    -0.744 OA
ENDBRANCH  45  46
ENDBRANCH  26  40
BRANCH  27  50
ATOM     50  C   UNL A   1      40.472  29.962  29.529  1.00  0.00    -0.014 A 
ATOM     51  C   UNL A   1      39.473  30.464  28.680  1.00  0.00     0.010 A 
ATOM     52  C   UNL A   1      40.198  29.856  30.908  1.00  0.00     0.010 A 
ATOM     53  C   UNL A   1      38.238  30.872  29.199  1.00  0.00     0.020 A 
ATOM     54  C   UNL A   1      38.956  30.232  31.427  1.00  0.00     0.020 A 
ATOM     55  C   UNL A   1      37.988  30.753  30.571  1.00  0.00     0.054 A 
BRANCH  55  56
ATOM     56  S   UNL A   1      36.373  31.267  31.219  1.00  0.00     0.124 S 
ATOM     57  O   UNL A   1      36.010  30.131  32.061  1.00  0.00    -0.237 OA
ATOM     58  O   UNL A   1      36.696  32.503  31.927  1.00  0.00    -0.237 OA
ATOM     59  O   UNL A   1      35.560  31.439  30.017  1.00  0.00    -0.744 OA
ENDBRANCH  55  56
ENDBRANCH  27  50
BRANCH  39  60
ATOM     60  C   UNL A   1      46.793  32.917  29.135  1.00  0.00    -0.014 A 
ATOM     61  C   UNL A   1      46.724  34.017  28.264  1.00  0.00     0.010 A 
ATOM     62  C   UNL A   1      47.272  33.093  30.445  1.00  0.00     0.010 A 
ATOM     63  C   UNL A   1      47.154  35.274  28.693  1.00  0.00     0.020 A 
ATOM     64  C   UNL A   1      47.670  34.354  30.886  1.00  0.00     0.020 A 
ATOM     65  C   UNL A   1      47.620  35.433  30.003  1.00  0.00     0.054 A 
BRANCH  65  66
ATOM     66  S   UNL A   1      48.114  37.086  30.553  1.00  0.00     0.124 S 
ATOM     67  O   UNL A   1      49.329  37.313  29.776  1.00  0.00    -0.237 OA
ATOM     68  O   UNL A   1      46.964  37.904  30.178  1.00  0.00    -0.237 OA
ATOM     69  O   UNL A   1      48.315  36.925  31.992  1.00  0.00    -0.744 OA
ENDBRANCH  65  66
ENDBRANCH  39  60
ENDBRANCH  13  14
ENDBRANCH   6   8
ENDBRANCH   5   6
ENDBRANCH   4   5
ENDBRANCH   3   4
ENDBRANCH   2   3
ENDBRANCH   1   2
BRANCH   1  70
ATOM     70  C   UNL A   1      36.745  22.352  24.324  1.00  0.00     0.261 C 
BRANCH  70  71
ATOM     71  O   UNL A   1      35.388  22.305  24.801  1.00  0.00    -0.463 OA
BRANCH  71  72
ATOM     72  C   UNL A   1      34.448  22.595  23.871  1.00  0.00     0.309 C 
ATOM     73  O   UNL A   1      34.663  23.032  22.753  1.00  0.00    -0.252 OA
BRANCH  72  74
ATOM     74  C   UNL A   1      33.043  22.313  24.372  1.00  0.00     0.106 C 
BRANCH  74  75
ATOM     75  C   UNL A   1      32.674  20.835  24.710  1.00  0.00     0.044 C 
BRANCH  75  76
ATOM     76  C   UNL A   1      32.648  19.724  23.641  1.00  0.00     0.171 C 
BRANCH  76  77
ATOM     77  O   UNL A   1      33.590  18.686  23.843  1.00  0.00    -0.292 OA
BRANCH  77  78
ATOM     78  C   UNL A   1      33.239  17.466  23.229  1.00  0.00     0.522 C 
ATOM     79  F   UNL A   1      34.291  16.873  22.639  1.00  0.00    -0.144 F 
ATOM     80  F   UNL A   1      32.719  16.649  24.162  1.00  0.00    -0.144 F 
ATOM     81  F   UNL A   1      32.301  17.705  22.292  1.00  0.00    -0.144 F 
ENDBRANCH  77  78
ENDBRANCH  76  77
ENDBRANCH  75  76
ENDBRANCH  74  75
BRANCH  74  82
ATOM     82  C   UNL A   1      32.627  23.303  25.473  1.00  0.00     0.052 C 
BRANCH  82  83
ATOM     83  C   UNL A   1      32.677  24.781  25.127  1.00  0.00    -0.028 A 
ATOM     84  C   UNL A   1      33.680  25.613  25.659  1.00  0.00     0.005 A 
ATOM     85  C   UNL A   1      31.700  25.376  24.310  1.00  0.00     0.044 A 
ATOM     86  C   UNL A   1      33.614  27.001  25.521  1.00  0.00     0.000 A 
ATOM     87  C   UNL A   1      31.654  26.764  24.148  1.00  0.00     0.021 A 
ATOM     88  Cl  UNL A   1      30.506  24.446  23.470  1.00  0.00    -0.084 Cl
ATOM     89  C   UNL A   1      32.589  27.578  24.782  1.00  0.00     0.002 A 
ENDBRANCH  82  83
ENDBRANCH  74  82
ENDBRANCH  72  74
ENDBRANCH  71  72
ENDBRANCH  70  71
ENDBRANCH   1  70
TORSDOF 23
ENDMDL
