MODEL 1
REMARK VINA RESULT:     -10.4      0.000      0.000
REMARK SMILES COC(=O)c1ccc(Cl)c(-c2ccc(C(=O)OCCOCCOC(=O)c3ccc(-c4c5nc(c(-c6ccc(S(=O)(=O)[O-])cc6)c6ccc([nH]6)c(-c6ccc(S(=O)(=O)[O-])cc6)c6nc(c(-c7ccc(S(=O)(=O)[O-])cc7)c7ccc4[nH]7)C=C6)C=C5)cc3)c(F)c2)c1
REMARK SMILES IDX 20 1 19 2 18 3 17 4 15 5 16 6 14 7 11 8 12 9 88 10 13 11
REMARK SMILES IDX 86 12 87 13 10 14 5 15 6 16 89 17 7 18 8 19 9 20 3 21 4 22
REMARK SMILES IDX 2 23 1 24 21 25 22 26 23 27 24 28 25 29 26 30 27 31 85 32
REMARK SMILES IDX 28 33 84 34 29 35 30 36 31 37 78 38 32 39 83 40 77 41 79 42
REMARK SMILES IDX 33 43 82 44 76 45 75 46 34 48 64 49 45 50 63 51 46 52 49 53
REMARK SMILES IDX 62 54 80 55 47 56 48 57 61 59 81 60 50 61 35 62 36 63 44 64
REMARK SMILES IDX 37 65 43 66 38 67 39 68 40 69 41 70 42 71 65 72 66 73 74 74
REMARK SMILES IDX 67 75 73 76 68 77 69 78 70 79 71 80 72 81 51 82 52 83 60 84
REMARK SMILES IDX 53 85 59 86 54 87 55 88 56 89 57 90 58 91
REMARK H PARENT 79 47 49 58
REMARK Flexibility Score: inf
ROOT
ATOM      1  O   UNL A   1      33.558  30.281  27.608  1.00  0.00    -0.374 OA
ENDROOT
BRANCH   1   2
ATOM      2  C   UNL A   1      33.435  29.788  26.272  1.00  0.00     0.202 C 
BRANCH   2   3
ATOM      3  C   UNL A   1      32.034  29.357  25.828  1.00  0.00     0.261 C 
BRANCH   3   4
ATOM      4  O   UNL A   1      32.051  28.835  24.492  1.00  0.00    -0.460 OA
BRANCH   4   5
ATOM      5  C   UNL A   1      31.290  27.735  24.293  1.00  0.00     0.341 C 
ATOM      6  O   UNL A   1      30.186  27.692  23.771  1.00  0.00    -0.246 OA
BRANCH   5   7
ATOM      7  C   UNL A   1      32.048  26.511  24.603  1.00  0.00     0.095 A 
ATOM      8  C   UNL A   1      33.534  24.150  24.991  1.00  0.00    -0.014 A 
ATOM      9  C   UNL A   1      33.957  25.117  24.066  1.00  0.00     0.010 A 
ATOM     10  C   UNL A   1      32.381  24.409  25.752  1.00  0.00     0.049 A 
ATOM     11  C   UNL A   1      33.220  26.285  23.870  1.00  0.00     0.019 A 
ATOM     12  C   UNL A   1      31.648  25.583  25.558  1.00  0.00     0.138 A 
ATOM     13  F   UNL A   1      30.535  25.764  26.281  1.00  0.00    -0.206 F 
BRANCH   8  14
ATOM     14  C   UNL A   1      34.222  22.853  25.057  1.00  0.00     0.001 A 
ATOM     15  C   UNL A   1      34.088  20.433  24.684  1.00  0.00     0.060 A 
ATOM     16  C   UNL A   1      35.446  20.304  24.988  1.00  0.00     0.017 A 
ATOM     17  C   UNL A   1      33.489  21.699  24.718  1.00  0.00     0.026 A 
ATOM     18  C   UNL A   1      36.190  21.435  25.331  1.00  0.00     0.022 A 
ATOM     19  C   UNL A   1      35.587  22.700  25.369  1.00  0.00     0.048 A 
ATOM     20  Cl  UNL A   1      36.584  24.045  25.802  1.00  0.00    -0.084 Cl
BRANCH  15  21
ATOM     21  C   UNL A   1      33.251  19.278  24.284  1.00  0.00     0.337 C 
ATOM     22  O   UNL A   1      32.276  19.376  23.551  1.00  0.00    -0.246 OA
BRANCH  21  23
ATOM     23  O   UNL A   1      33.698  18.146  24.875  1.00  0.00    -0.465 OA
ATOM     24  C   UNL A   1      33.736  17.017  24.001  1.00  0.00     0.282 C 
ENDBRANCH  21  23
ENDBRANCH  15  21
ENDBRANCH   8  14
ENDBRANCH   5   7
ENDBRANCH   4   5
ENDBRANCH   3   4
ENDBRANCH   2   3
ENDBRANCH   1   2
BRANCH   1  25
ATOM     25  C   UNL A   1      34.381  31.432  27.805  1.00  0.00     0.202 C 
BRANCH  25  26
ATOM     26  C   UNL A   1      35.849  31.187  28.177  1.00  0.00     0.261 C 
BRANCH  26  27
ATOM     27  O   UNL A   1      36.171  29.787  28.265  1.00  0.00    -0.460 OA
BRANCH  27  28
ATOM     28  C   UNL A   1      36.916  29.441  29.342  1.00  0.00     0.338 C 
ATOM     29  O   UNL A   1      36.526  29.294  30.492  1.00  0.00    -0.246 OA
BRANCH  28  30
ATOM     30  C   UNL A   1      38.277  29.073  28.912  1.00  0.00     0.060 A 
ATOM     31  C   UNL A   1      39.156  28.581  29.888  1.00  0.00     0.016 A 
ATOM     32  C   UNL A   1      38.708  29.257  27.598  1.00  0.00     0.016 A 
ATOM     33  C   UNL A   1      40.481  28.304  29.558  1.00  0.00     0.010 A 
ATOM     34  C   UNL A   1      40.042  28.987  27.271  1.00  0.00     0.010 A 
ATOM     35  C   UNL A   1      40.941  28.534  28.254  1.00  0.00    -0.014 A 
BRANCH  35  36
ATOM     36  C   UNL A   1      42.386  28.402  27.946  1.00  0.00     0.031 A 
ATOM     37  C   UNL A   1      43.298  29.575  28.178  1.00  0.00     0.074 A 
ATOM     38  C   UNL A   1      42.881  27.242  27.477  1.00  0.00     0.049 A 
ATOM     39  N   UNL A   1      44.580  29.686  27.938  1.00  0.00    -0.248 NA
ATOM     40  C   UNL A   1      42.686  30.784  28.756  1.00  0.00     0.031 C 
ATOM     41  C   UNL A   1      42.107  26.023  27.250  1.00  0.00     0.029 A 
ATOM     42  N   UNL A   1      44.157  26.905  27.102  1.00  0.00    -0.354 N 
ATOM     43  C   UNL A   1      44.926  30.976  28.325  1.00  0.00     0.074 A 
ATOM     44  C   UNL A   1      43.715  31.618  28.790  1.00  0.00     0.031 C 
ATOM     45  C   UNL A   1      42.923  25.072  26.767  1.00  0.00     0.029 A 
ATOM     46  C   UNL A   1      44.268  25.625  26.615  1.00  0.00     0.049 A 
ATOM     47  H   UNL A   1      44.923  27.522  27.175  1.00  0.00     0.167 HD
ATOM     48  C   UNL A   1      46.144  31.571  28.299  1.00  0.00     0.031 A 
ATOM     49  C   UNL A   1      45.326  24.980  26.083  1.00  0.00     0.031 A 
ATOM     50  C   UNL A   1      47.343  30.933  27.821  1.00  0.00     0.049 A 
ATOM     51  C   UNL A   1      46.651  25.689  25.990  1.00  0.00     0.074 A 
ATOM     52  C   UNL A   1      48.628  31.446  27.774  1.00  0.00     0.029 A 
ATOM     53  N   UNL A   1      47.405  29.650  27.301  1.00  0.00    -0.354 N 
ATOM     54  N   UNL A   1      46.970  26.898  26.388  1.00  0.00    -0.248 NA
ATOM     55  C   UNL A   1      47.762  24.943  25.381  1.00  0.00     0.031 C 
ATOM     56  C   UNL A   1      49.455  30.496  27.166  1.00  0.00     0.029 A 
ATOM     57  C   UNL A   1      48.699  29.365  26.896  1.00  0.00     0.049 A 
ATOM     58  H   UNL A   1      46.643  29.032  27.228  1.00  0.00     0.167 HD
ATOM     59  C   UNL A   1      48.323  27.049  26.099  1.00  0.00     0.074 A 
ATOM     60  C   UNL A   1      48.765  25.802  25.509  1.00  0.00     0.031 C 
ATOM     61  C   UNL A   1      49.126  28.122  26.305  1.00  0.00     0.031 A 
BRANCH  48  62
ATOM     62  C   UNL A   1      46.233  32.999  28.768  1.00  0.00    -0.014 A 
ATOM     63  C   UNL A   1      46.821  33.328  30.002  1.00  0.00     0.010 A 
ATOM     64  C   UNL A   1      45.760  34.034  27.938  1.00  0.00     0.010 A 
ATOM     65  C   UNL A   1      46.902  34.661  30.414  1.00  0.00     0.020 A 
ATOM     66  C   UNL A   1      45.864  35.369  28.334  1.00  0.00     0.020 A 
ATOM     67  C   UNL A   1      46.420  35.674  29.578  1.00  0.00     0.054 A 
BRANCH  67  68
ATOM     68  S   UNL A   1      46.561  37.398  30.127  1.00  0.00     0.124 S 
ATOM     69  O   UNL A   1      46.269  38.129  28.897  1.00  0.00    -0.237 OA
ATOM     70  O   UNL A   1      45.541  37.487  31.168  1.00  0.00    -0.237 OA
ATOM     71  O   UNL A   1      47.939  37.501  30.598  1.00  0.00    -0.744 OA
ENDBRANCH  67  68
ENDBRANCH  48  62
BRANCH  49  72
ATOM     72  C   UNL A   1      45.168  23.591  25.571  1.00  0.00    -0.014 A 
ATOM     73  C   UNL A   1      45.423  22.485  26.400  1.00  0.00     0.010 A 
ATOM     74  C   UNL A   1      44.759  23.368  24.242  1.00  0.00     0.010 A 
ATOM     75  C   UNL A   1      45.289  21.183  25.907  1.00  0.00     0.020 A 
ATOM     76  C   UNL A   1      44.596  22.069  23.754  1.00  0.00     0.020 A 
ATOM     77  C   UNL A   1      44.872  20.984  24.587  1.00  0.00     0.054 A 
BRANCH  77  78
ATOM     78  S   UNL A   1      44.657  19.287  23.984  1.00  0.00     0.124 S 
ATOM     79  O   UNL A   1      45.893  18.648  24.426  1.00  0.00    -0.237 OA
ATOM     80  O   UNL A   1      43.442  18.859  24.672  1.00  0.00    -0.237 OA
ATOM     81  O   UNL A   1      44.520  19.452  22.538  1.00  0.00    -0.744 OA
ENDBRANCH  77  78
ENDBRANCH  49  72
BRANCH  61  82
ATOM     82  C   UNL A   1      50.576  27.991  25.917  1.00  0.00    -0.014 A 
ATOM     83  C   UNL A   1      51.522  27.441  26.801  1.00  0.00     0.010 A 
ATOM     84  C   UNL A   1      50.986  28.368  24.626  1.00  0.00     0.010 A 
ATOM     85  C   UNL A   1      52.856  27.299  26.410  1.00  0.00     0.020 A 
ATOM     86  C   UNL A   1      52.314  28.202  24.221  1.00  0.00     0.020 A 
ATOM     87  C   UNL A   1      53.244  27.680  25.122  1.00  0.00     0.054 A 
BRANCH  87  88
ATOM     88  S   UNL A   1      54.972  27.442  24.623  1.00  0.00     0.124 S 
ATOM     89  O   UNL A   1      55.680  28.316  25.554  1.00  0.00    -0.237 OA
ATOM     90  O   UNL A   1      55.171  26.009  24.832  1.00  0.00    -0.237 OA
ATOM     91  O   UNL A   1      54.993  27.871  23.227  1.00  0.00    -0.744 OA
ENDBRANCH  87  88
ENDBRANCH  61  82
ENDBRANCH  35  36
ENDBRANCH  28  30
ENDBRANCH  27  28
ENDBRANCH  26  27
ENDBRANCH  25  26
ENDBRANCH   1  25
TORSDOF 20
ENDMDL
MODEL 2
REMARK VINA RESULT:     -10.3      1.460      2.026
REMARK SMILES COC(=O)c1ccc(Cl)c(-c2ccc(C(=O)OCCOCCOC(=O)c3ccc(-c4c5nc(c(-c6ccc(S(=O)(=O)[O-])cc6)c6ccc([nH]6)c(-c6ccc(S(=O)(=O)[O-])cc6)c6nc(c(-c7ccc(S(=O)(=O)[O-])cc7)c7ccc4[nH]7)C=C6)C=C5)cc3)c(F)c2)c1
REMARK SMILES IDX 20 1 19 2 18 3 17 4 15 5 16 6 14 7 11 8 12 9 88 10 13 11
REMARK SMILES IDX 86 12 87 13 10 14 5 15 6 16 89 17 7 18 8 19 9 20 3 21 4 22
REMARK SMILES IDX 2 23 1 24 21 25 22 26 23 27 24 28 25 29 26 30 27 31 85 32
REMARK SMILES IDX 28 33 84 34 29 35 30 36 31 37 78 38 32 39 83 40 77 41 79 42
REMARK SMILES IDX 33 43 82 44 76 45 75 46 34 48 64 49 45 50 63 51 46 52 49 53
REMARK SMILES IDX 62 54 80 55 47 56 48 57 61 59 81 60 50 61 35 62 36 63 44 64
REMARK SMILES IDX 37 65 43 66 38 67 39 68 40 69 41 70 42 71 65 72 66 73 74 74
REMARK SMILES IDX 67 75 73 76 68 77 69 78 70 79 71 80 72 81 51 82 52 83 60 84
REMARK SMILES IDX 53 85 59 86 54 87 55 88 56 89 57 90 58 91
REMARK H PARENT 79 47 49 58
REMARK Flexibility Score: inf
ROOT
ATOM      1  O   UNL A   1      33.608  30.509  27.772  1.00  0.00    -0.374 OA
ENDROOT
BRANCH   1   2
ATOM      2  C   UNL A   1      33.394  30.166  26.401  1.00  0.00     0.202 C 
BRANCH   2   3
ATOM      3  C   UNL A   1      31.944  29.908  25.979  1.00  0.00     0.261 C 
BRANCH   3   4
ATOM      4  O   UNL A   1      31.859  29.603  24.579  1.00  0.00    -0.460 OA
BRANCH   4   5
ATOM      5  C   UNL A   1      31.006  28.605  24.259  1.00  0.00     0.341 C 
ATOM      6  O   UNL A   1      29.916  28.716  23.717  1.00  0.00    -0.246 OA
BRANCH   5   7
ATOM      7  C   UNL A   1      31.641  27.290  24.457  1.00  0.00     0.095 A 
ATOM      8  C   UNL A   1      32.914  24.842  25.023  1.00  0.00    -0.014 A 
ATOM      9  C   UNL A   1      32.178  25.512  26.013  1.00  0.00     0.010 A 
ATOM     10  C   UNL A   1      32.961  25.398  23.732  1.00  0.00     0.049 A 
ATOM     11  C   UNL A   1      31.550  26.725  25.735  1.00  0.00     0.019 A 
ATOM     12  C   UNL A   1      32.324  26.611  23.455  1.00  0.00     0.138 A 
ATOM     13  F   UNL A   1      32.432  27.117  22.219  1.00  0.00    -0.206 F 
BRANCH   8  14
ATOM     14  C   UNL A   1      33.712  23.660  25.379  1.00  0.00     0.001 A 
ATOM     15  C   UNL A   1      35.947  22.728  25.763  1.00  0.00     0.060 A 
ATOM     16  C   UNL A   1      35.379  21.524  26.187  1.00  0.00     0.017 A 
ATOM     17  C   UNL A   1      35.115  23.784  25.366  1.00  0.00     0.026 A 
ATOM     18  C   UNL A   1      33.990  21.379  26.203  1.00  0.00     0.022 A 
ATOM     19  C   UNL A   1      33.161  22.436  25.801  1.00  0.00     0.048 A 
ATOM     20  Cl  UNL A   1      31.452  22.171  25.853  1.00  0.00    -0.084 Cl
BRANCH  15  21
ATOM     21  C   UNL A   1      37.411  22.954  25.751  1.00  0.00     0.337 C 
ATOM     22  O   UNL A   1      38.213  22.139  25.316  1.00  0.00    -0.246 OA
BRANCH  21  23
ATOM     23  O   UNL A   1      37.708  24.146  26.318  1.00  0.00    -0.465 OA
ATOM     24  C   UNL A   1      38.962  24.161  27.002  1.00  0.00     0.282 C 
ENDBRANCH  21  23
ENDBRANCH  15  21
ENDBRANCH   8  14
ENDBRANCH   5   7
ENDBRANCH   4   5
ENDBRANCH   3   4
ENDBRANCH   2   3
ENDBRANCH   1   2
BRANCH   1  25
ATOM     25  C   UNL A   1      34.448  31.633  28.039  1.00  0.00     0.202 C 
BRANCH  25  26
ATOM     26  C   UNL A   1      35.946  31.357  28.230  1.00  0.00     0.261 C 
BRANCH  26  27
ATOM     27  O   UNL A   1      36.253  29.952  28.231  1.00  0.00    -0.460 OA
BRANCH  27  28
ATOM     28  C   UNL A   1      36.970  29.526  29.299  1.00  0.00     0.338 C 
ATOM     29  O   UNL A   1      36.556  29.324  30.432  1.00  0.00    -0.246 OA
BRANCH  28  30
ATOM     30  C   UNL A   1      38.330  29.150  28.872  1.00  0.00     0.060 A 
ATOM     31  C   UNL A   1      39.202  28.648  29.849  1.00  0.00     0.016 A 
ATOM     32  C   UNL A   1      38.766  29.335  27.559  1.00  0.00     0.016 A 
ATOM     33  C   UNL A   1      40.526  28.362  29.522  1.00  0.00     0.010 A 
ATOM     34  C   UNL A   1      40.099  29.056  27.236  1.00  0.00     0.010 A 
ATOM     35  C   UNL A   1      40.992  28.593  28.220  1.00  0.00    -0.014 A 
BRANCH  35  36
ATOM     36  C   UNL A   1      42.436  28.451  27.916  1.00  0.00     0.031 A 
ATOM     37  C   UNL A   1      43.355  29.621  28.143  1.00  0.00     0.074 A 
ATOM     38  C   UNL A   1      42.927  27.286  27.455  1.00  0.00     0.049 A 
ATOM     39  N   UNL A   1      44.637  29.723  27.905  1.00  0.00    -0.248 NA
ATOM     40  C   UNL A   1      42.747  30.836  28.711  1.00  0.00     0.031 C 
ATOM     41  C   UNL A   1      42.146  26.069  27.235  1.00  0.00     0.029 A 
ATOM     42  N   UNL A   1      44.202  26.939  27.086  1.00  0.00    -0.354 N 
ATOM     43  C   UNL A   1      44.990  31.014  28.284  1.00  0.00     0.074 A 
ATOM     44  C   UNL A   1      43.781  31.665  28.742  1.00  0.00     0.031 C 
ATOM     45  C   UNL A   1      42.958  25.110  26.759  1.00  0.00     0.029 A 
ATOM     46  C   UNL A   1      44.306  25.655  26.607  1.00  0.00     0.049 A 
ATOM     47  H   UNL A   1      44.970  27.552  27.156  1.00  0.00     0.167 HD
ATOM     48  C   UNL A   1      46.211  31.602  28.256  1.00  0.00     0.031 A 
ATOM     49  C   UNL A   1      45.361  25.001  26.081  1.00  0.00     0.031 A 
ATOM     50  C   UNL A   1      47.407  30.955  27.785  1.00  0.00     0.049 A 
ATOM     51  C   UNL A   1      46.691  25.702  25.986  1.00  0.00     0.074 A 
ATOM     52  C   UNL A   1      48.695  31.460  27.737  1.00  0.00     0.029 A 
ATOM     53  N   UNL A   1      47.463  29.668  27.273  1.00  0.00    -0.354 N 
ATOM     54  N   UNL A   1      47.016  26.913  26.377  1.00  0.00    -0.248 NA
ATOM     55  C   UNL A   1      47.799  24.947  25.384  1.00  0.00     0.031 C 
ATOM     56  C   UNL A   1      49.518  30.501  27.137  1.00  0.00     0.029 A 
ATOM     57  C   UNL A   1      48.757  29.373  26.873  1.00  0.00     0.049 A 
ATOM     58  H   UNL A   1      46.698  29.053  27.203  1.00  0.00     0.167 HD
ATOM     59  C   UNL A   1      48.370  27.054  26.090  1.00  0.00     0.074 A 
ATOM     60  C   UNL A   1      48.807  25.801  25.509  1.00  0.00     0.031 C 
ATOM     61  C   UNL A   1      49.178  28.124  26.291  1.00  0.00     0.031 A 
BRANCH  48  62
ATOM     62  C   UNL A   1      46.307  33.033  28.716  1.00  0.00    -0.014 A 
ATOM     63  C   UNL A   1      46.594  33.352  30.055  1.00  0.00     0.010 A 
ATOM     64  C   UNL A   1      46.150  34.075  27.782  1.00  0.00     0.010 A 
ATOM     65  C   UNL A   1      46.688  34.687  30.459  1.00  0.00     0.020 A 
ATOM     66  C   UNL A   1      46.271  35.409  28.177  1.00  0.00     0.020 A 
ATOM     67  C   UNL A   1      46.523  35.708  29.517  1.00  0.00     0.054 A 
BRANCH  67  68
ATOM     68  S   UNL A   1      46.676  37.431  30.064  1.00  0.00     0.124 S 
ATOM     69  O   UNL A   1      47.983  37.425  30.716  1.00  0.00    -0.237 OA
ATOM     70  O   UNL A   1      46.605  38.173  28.808  1.00  0.00    -0.237 OA
ATOM     71  O   UNL A   1      45.536  37.615  30.958  1.00  0.00    -0.744 OA
ENDBRANCH  67  68
ENDBRANCH  48  62
BRANCH  49  72
ATOM     72  C   UNL A   1      45.197  23.610  25.578  1.00  0.00    -0.014 A 
ATOM     73  C   UNL A   1      45.460  22.508  26.410  1.00  0.00     0.010 A 
ATOM     74  C   UNL A   1      44.774  23.381  24.254  1.00  0.00     0.010 A 
ATOM     75  C   UNL A   1      45.320  21.204  25.924  1.00  0.00     0.020 A 
ATOM     76  C   UNL A   1      44.605  22.079  23.774  1.00  0.00     0.020 A 
ATOM     77  C   UNL A   1      44.889  20.998  24.610  1.00  0.00     0.054 A 
BRANCH  77  78
ATOM     78  S   UNL A   1      44.667  19.298  24.018  1.00  0.00     0.124 S 
ATOM     79  O   UNL A   1      45.884  18.649  24.491  1.00  0.00    -0.237 OA
ATOM     80  O   UNL A   1      43.431  18.892  24.684  1.00  0.00    -0.237 OA
ATOM     81  O   UNL A   1      44.562  19.452  22.568  1.00  0.00    -0.744 OA
ENDBRANCH  77  78
ENDBRANCH  49  72
BRANCH  61  82
ATOM     82  C   UNL A   1      50.629  27.982  25.907  1.00  0.00    -0.014 A 
ATOM     83  C   UNL A   1      51.599  27.596  26.848  1.00  0.00     0.010 A 
ATOM     84  C   UNL A   1      51.015  28.181  24.569  1.00  0.00     0.010 A 
ATOM     85  C   UNL A   1      52.934  27.441  26.464  1.00  0.00     0.020 A 
ATOM     86  C   UNL A   1      52.344  27.998  24.175  1.00  0.00     0.020 A 
ATOM     87  C   UNL A   1      53.298  27.642  25.129  1.00  0.00     0.054 A 
BRANCH  87  88
ATOM     88  S   UNL A   1      55.028  27.387  24.648  1.00  0.00     0.124 S 
ATOM     89  O   UNL A   1      55.512  26.505  25.707  1.00  0.00    -0.237 OA
ATOM     90  O   UNL A   1      54.906  26.773  23.327  1.00  0.00    -0.237 OA
ATOM     91  O   UNL A   1      55.592  28.734  24.652  1.00  0.00    -0.744 OA
ENDBRANCH  87  88
ENDBRANCH  61  82
ENDBRANCH  35  36
ENDBRANCH  28  30
ENDBRANCH  27  28
ENDBRANCH  26  27
ENDBRANCH  25  26
ENDBRANCH   1  25
TORSDOF 20
ENDMDL
MODEL 3
REMARK VINA RESULT:     -10.3      7.031     12.927
REMARK SMILES COC(=O)c1ccc(Cl)c(-c2ccc(C(=O)OCCOCCOC(=O)c3ccc(-c4c5nc(c(-c6ccc(S(=O)(=O)[O-])cc6)c6ccc([nH]6)c(-c6ccc(S(=O)(=O)[O-])cc6)c6nc(c(-c7ccc(S(=O)(=O)[O-])cc7)c7ccc4[nH]7)C=C6)C=C5)cc3)c(F)c2)c1
REMARK SMILES IDX 20 1 19 2 18 3 17 4 15 5 16 6 14 7 11 8 12 9 88 10 13 11
REMARK SMILES IDX 86 12 87 13 10 14 5 15 6 16 89 17 7 18 8 19 9 20 3 21 4 22
REMARK SMILES IDX 2 23 1 24 21 25 22 26 23 27 24 28 25 29 26 30 27 31 85 32
REMARK SMILES IDX 28 33 84 34 29 35 30 36 31 37 78 38 32 39 83 40 77 41 79 42
REMARK SMILES IDX 33 43 82 44 76 45 75 46 34 48 64 49 45 50 63 51 46 52 49 53
REMARK SMILES IDX 62 54 80 55 47 56 48 57 61 59 81 60 50 61 35 62 36 63 44 64
REMARK SMILES IDX 37 65 43 66 38 67 39 68 40 69 41 70 42 71 65 72 66 73 74 74
REMARK SMILES IDX 67 75 73 76 68 77 69 78 70 79 71 80 72 81 51 82 52 83 60 84
REMARK SMILES IDX 53 85 59 86 54 87 55 88 56 89 57 90 58 91
REMARK H PARENT 79 47 49 58
REMARK Flexibility Score: inf
ROOT
ATOM      1  O   UNL A   1      40.631  21.476  26.112  1.00  0.00    -0.374 OA
ENDROOT
BRANCH   1   2
ATOM      2  C   UNL A   1      39.232  21.767  26.145  1.00  0.00     0.202 C 
BRANCH   2   3
ATOM      3  C   UNL A   1      38.308  20.766  25.445  1.00  0.00     0.261 C 
BRANCH   3   4
ATOM      4  O   UNL A   1      37.412  21.431  24.543  1.00  0.00    -0.460 OA
BRANCH   4   5
ATOM      5  C   UNL A   1      36.099  21.177  24.743  1.00  0.00     0.341 C 
ATOM      6  O   UNL A   1      35.603  20.115  25.089  1.00  0.00    -0.246 OA
BRANCH   5   7
ATOM      7  C   UNL A   1      35.311  22.420  24.695  1.00  0.00     0.095 A 
ATOM      8  C   UNL A   1      33.659  24.701  24.718  1.00  0.00    -0.014 A 
ATOM      9  C   UNL A   1      33.823  23.924  25.876  1.00  0.00     0.010 A 
ATOM     10  C   UNL A   1      34.375  24.341  23.563  1.00  0.00     0.049 A 
ATOM     11  C   UNL A   1      34.637  22.793  25.865  1.00  0.00     0.019 A 
ATOM     12  C   UNL A   1      35.196  23.210  23.557  1.00  0.00     0.138 A 
ATOM     13  F   UNL A   1      35.826  22.888  22.419  1.00  0.00    -0.206 F 
BRANCH   8  14
ATOM     14  C   UNL A   1      32.665  25.783  24.699  1.00  0.00     0.001 A 
ATOM     15  C   UNL A   1      32.202  28.158  25.097  1.00  0.00     0.060 A 
ATOM     16  C   UNL A   1      30.914  28.001  24.580  1.00  0.00     0.017 A 
ATOM     17  C   UNL A   1      33.066  27.056  25.151  1.00  0.00     0.026 A 
ATOM     18  C   UNL A   1      30.495  26.747  24.130  1.00  0.00     0.022 A 
ATOM     19  C   UNL A   1      31.360  25.645  24.189  1.00  0.00     0.048 A 
ATOM     20  Cl  UNL A   1      30.759  24.130  23.609  1.00  0.00    -0.084 Cl
BRANCH  15  21
ATOM     21  C   UNL A   1      32.716  29.467  25.563  1.00  0.00     0.337 C 
ATOM     22  O   UNL A   1      33.864  29.639  25.951  1.00  0.00    -0.246 OA
BRANCH  21  23
ATOM     23  O   UNL A   1      31.734  30.397  25.531  1.00  0.00    -0.465 OA
ATOM     24  C   UNL A   1      31.672  31.208  26.706  1.00  0.00     0.282 C 
ENDBRANCH  21  23
ENDBRANCH  15  21
ENDBRANCH   8  14
ENDBRANCH   5   7
ENDBRANCH   4   5
ENDBRANCH   3   4
ENDBRANCH   2   3
ENDBRANCH   1   2
BRANCH   1  25
ATOM     25  C   UNL A   1      41.526  22.528  26.475  1.00  0.00     0.202 C 
BRANCH  25  26
ATOM     26  C   UNL A   1      41.094  23.449  27.624  1.00  0.00     0.261 C 
BRANCH  26  27
ATOM     27  O   UNL A   1      41.109  24.839  27.252  1.00  0.00    -0.460 OA
BRANCH  27  28
ATOM     28  C   UNL A   1      39.892  25.433  27.221  1.00  0.00     0.338 C 
ATOM     29  O   UNL A   1      38.939  25.128  26.516  1.00  0.00    -0.246 OA
BRANCH  28  30
ATOM     30  C   UNL A   1      39.787  26.420  28.311  1.00  0.00     0.060 A 
ATOM     31  C   UNL A   1      40.590  27.566  28.229  1.00  0.00     0.016 A 
ATOM     32  C   UNL A   1      38.967  26.207  29.420  1.00  0.00     0.016 A 
ATOM     33  C   UNL A   1      40.600  28.488  29.274  1.00  0.00     0.010 A 
ATOM     34  C   UNL A   1      38.986  27.130  30.472  1.00  0.00     0.010 A 
ATOM     35  C   UNL A   1      39.821  28.260  30.417  1.00  0.00    -0.014 A 
BRANCH  35  36
ATOM     36  C   UNL A   1      39.961  29.149  31.596  1.00  0.00     0.031 A 
ATOM     37  C   UNL A   1      41.100  28.929  32.553  1.00  0.00     0.074 A 
ATOM     38  C   UNL A   1      39.088  30.152  31.803  1.00  0.00     0.049 A 
ATOM     39  N   UNL A   1      41.382  29.561  33.663  1.00  0.00    -0.248 NA
ATOM     40  C   UNL A   1      42.047  27.852  32.215  1.00  0.00     0.031 C 
ATOM     41  C   UNL A   1      37.969  30.492  30.926  1.00  0.00     0.029 A 
ATOM     42  N   UNL A   1      39.006  31.066  32.823  1.00  0.00    -0.354 N 
ATOM     43  C   UNL A   1      42.530  28.956  34.162  1.00  0.00     0.074 A 
ATOM     44  C   UNL A   1      42.877  27.889  33.248  1.00  0.00     0.031 C 
ATOM     45  C   UNL A   1      37.306  31.536  31.451  1.00  0.00     0.029 A 
ATOM     46  C   UNL A   1      37.930  31.914  32.717  1.00  0.00     0.049 A 
ATOM     47  H   UNL A   1      39.656  31.110  33.562  1.00  0.00     0.167 HD
ATOM     48  C   UNL A   1      43.233  29.264  35.279  1.00  0.00     0.031 A 
ATOM     49  C   UNL A   1      37.483  32.868  33.558  1.00  0.00     0.031 A 
ATOM     50  C   UNL A   1      42.875  30.317  36.193  1.00  0.00     0.049 A 
ATOM     51  C   UNL A   1      38.236  33.139  34.834  1.00  0.00     0.074 A 
ATOM     52  C   UNL A   1      43.536  30.719  37.341  1.00  0.00     0.029 A 
ATOM     53  N   UNL A   1      41.757  31.127  36.071  1.00  0.00    -0.354 N 
ATOM     54  N   UNL A   1      39.337  32.579  35.277  1.00  0.00    -0.248 NA
ATOM     55  C   UNL A   1      37.689  34.176  35.721  1.00  0.00     0.031 C 
ATOM     56  C   UNL A   1      42.783  31.731  37.947  1.00  0.00     0.029 A 
ATOM     57  C   UNL A   1      41.689  32.005  37.141  1.00  0.00     0.049 A 
ATOM     58  H   UNL A   1      41.107  31.086  35.333  1.00  0.00     0.167 HD
ATOM     59  C   UNL A   1      39.627  33.211  36.482  1.00  0.00     0.074 A 
ATOM     60  C   UNL A   1      38.596  34.208  36.689  1.00  0.00     0.031 C 
ATOM     61  C   UNL A   1      40.655  32.988  37.339  1.00  0.00     0.031 A 
BRANCH  48  62
ATOM     62  C   UNL A   1      44.443  28.425  35.595  1.00  0.00    -0.014 A 
ATOM     63  C   UNL A   1      45.724  28.792  35.146  1.00  0.00     0.010 A 
ATOM     64  C   UNL A   1      44.302  27.273  36.392  1.00  0.00     0.010 A 
ATOM     65  C   UNL A   1      46.836  28.004  35.459  1.00  0.00     0.020 A 
ATOM     66  C   UNL A   1      45.414  26.498  36.729  1.00  0.00     0.020 A 
ATOM     67  C   UNL A   1      46.673  26.860  36.246  1.00  0.00     0.054 A 
BRANCH  67  68
ATOM     68  S   UNL A   1      48.137  25.870  36.658  1.00  0.00     0.124 S 
ATOM     69  O   UNL A   1      48.399  26.280  38.035  1.00  0.00    -0.237 OA
ATOM     70  O   UNL A   1      47.655  24.501  36.491  1.00  0.00    -0.237 OA
ATOM     71  O   UNL A   1      49.134  26.300  35.681  1.00  0.00    -0.744 OA
ENDBRANCH  67  68
ENDBRANCH  48  62
BRANCH  49  72
ATOM     72  C   UNL A   1      36.242  33.623  33.232  1.00  0.00    -0.014 A 
ATOM     73  C   UNL A   1      36.308  34.901  32.651  1.00  0.00     0.010 A 
ATOM     74  C   UNL A   1      34.980  33.062  33.505  1.00  0.00     0.010 A 
ATOM     75  C   UNL A   1      35.139  35.611  32.363  1.00  0.00     0.020 A 
ATOM     76  C   UNL A   1      33.808  33.756  33.192  1.00  0.00     0.020 A 
ATOM     77  C   UNL A   1      33.895  35.032  32.633  1.00  0.00     0.054 A 
BRANCH  77  78
ATOM     78  S   UNL A   1      32.390  35.950  32.205  1.00  0.00     0.124 S 
ATOM     79  O   UNL A   1      32.552  36.148  30.769  1.00  0.00    -0.237 OA
ATOM     80  O   UNL A   1      31.332  35.024  32.602  1.00  0.00    -0.237 OA
ATOM     81  O   UNL A   1      32.485  37.160  33.019  1.00  0.00    -0.744 OA
ENDBRANCH  77  78
ENDBRANCH  49  72
BRANCH  61  82
ATOM     82  C   UNL A   1      40.736  33.855  38.569  1.00  0.00    -0.014 A 
ATOM     83  C   UNL A   1      41.396  35.097  38.544  1.00  0.00     0.010 A 
ATOM     84  C   UNL A   1      40.090  33.447  39.750  1.00  0.00     0.010 A 
ATOM     85  C   UNL A   1      41.433  35.900  39.688  1.00  0.00     0.020 A 
ATOM     86  C   UNL A   1      40.101  34.260  40.887  1.00  0.00     0.020 A 
ATOM     87  C   UNL A   1      40.785  35.477  40.852  1.00  0.00     0.054 A 
BRANCH  87  88
ATOM     88  S   UNL A   1      40.808  36.559  42.307  1.00  0.00     0.124 S 
ATOM     89  O   UNL A   1      41.986  37.384  42.054  1.00  0.00    -0.237 OA
ATOM     90  O   UNL A   1      39.525  37.251  42.213  1.00  0.00    -0.237 OA
ATOM     91  O   UNL A   1      40.927  35.631  43.429  1.00  0.00    -0.744 OA
ENDBRANCH  87  88
ENDBRANCH  61  82
ENDBRANCH  35  36
ENDBRANCH  28  30
ENDBRANCH  27  28
ENDBRANCH  26  27
ENDBRANCH  25  26
ENDBRANCH   1  25
TORSDOF 20
ENDMDL
