MODEL 1
REMARK VINA RESULT:      -9.1      0.000      0.000
REMARK SMILES C[C@@H](CC(=O)OCCOCCOC(=O)c1ccc(-c2c3nc(c(-c4ccc(S(=O)(=O)[O-])cc4)c4ccc([nH]4)c(-c4ccc(S(=O)(=O)[O-])cc4)c4nc(c(-c5ccc(S(=O)(=O)[O-])cc5)c5ccc2[nH]5)C=C4)C=C3)cc1)NC(=O)CN(C)c1ncccn1
REMARK SMILES IDX 8 1 7 2 6 3 4 4 5 5 3 6 2 7 1 8 75 9 76 10 77 12 78 13 79 14
REMARK SMILES IDX 80 15 81 16 82 17 86 18 83 19 85 20 84 21 9 22 10 23 11 24
REMARK SMILES IDX 12 25 13 26 14 27 15 28 16 29 74 30 17 31 73 32 18 33 19 34
REMARK SMILES IDX 20 35 67 36 21 37 72 38 66 39 68 40 22 41 71 42 65 43 64 44
REMARK SMILES IDX 23 46 53 47 34 48 52 49 35 50 38 51 51 52 69 53 36 54 37 55
REMARK SMILES IDX 50 57 70 58 39 59 24 60 25 61 33 62 26 63 32 64 27 65 28 66
REMARK SMILES IDX 29 67 30 68 31 69 54 70 55 71 63 72 56 73 62 74 57 75 58 76
REMARK SMILES IDX 59 77 60 78 61 79 40 80 41 81 49 82 42 83 48 84 43 85 44 86
REMARK SMILES IDX 45 87 46 88 47 89
REMARK H PARENT 75 11 68 45 38 56
REMARK Flexibility Score: inf
ROOT
ATOM      1  C   UNL A   1      33.121  29.014  24.120  1.00  0.00     0.202 C 
ENDROOT
BRANCH   1   2
ATOM      2  C   UNL A   1      33.242  27.546  23.707  1.00  0.00     0.261 C 
BRANCH   2   3
ATOM      3  O   UNL A   1      32.607  27.277  22.440  1.00  0.00    -0.463 OA
BRANCH   3   4
ATOM      4  C   UNL A   1      32.662  25.992  22.014  1.00  0.00     0.307 C 
ATOM      5  O   UNL A   1      33.367  25.592  21.092  1.00  0.00    -0.252 OA
BRANCH   4   6
ATOM      6  C   UNL A   1      31.741  25.045  22.745  1.00  0.00     0.147 C 
BRANCH   6   7
ATOM      7  C   UNL A   1      32.285  23.893  23.597  1.00  0.00     0.090 C 
ATOM      8  C   UNL A   1      32.534  22.590  22.851  1.00  0.00     0.031 C 
BRANCH   7   9
ATOM      9  N   UNL A   1      31.482  23.658  24.787  1.00  0.00    -0.352 N 
ATOM     10  C   UNL A   1      31.765  23.947  26.095  1.00  0.00     0.239 C 
ATOM     11  H   UNL A   1      30.610  23.229  24.630  1.00  0.00     0.163 HD
ATOM     12  O   UNL A   1      30.831  23.931  26.904  1.00  0.00    -0.273 OA
BRANCH  10  13
ATOM     13  C   UNL A   1      33.182  24.379  26.506  1.00  0.00     0.219 C 
BRANCH  13  14
ATOM     14  N   UNL A   1      34.080  23.274  26.847  1.00  0.00    -0.335 N 
ATOM     15  C   UNL A   1      33.748  22.355  27.913  1.00  0.00     0.147 C 
BRANCH  14  16
ATOM     16  C   UNL A   1      35.048  22.890  25.943  1.00  0.00     0.225 A 
ATOM     17  N   UNL A   1      35.618  23.826  25.164  1.00  0.00    -0.221 NA
ATOM     18  N   UNL A   1      35.383  21.595  25.863  1.00  0.00    -0.221 NA
ATOM     19  C   UNL A   1      36.555  23.423  24.282  1.00  0.00     0.117 A 
ATOM     20  C   UNL A   1      36.298  21.228  24.947  1.00  0.00     0.117 A 
ATOM     21  C   UNL A   1      36.932  22.116  24.120  1.00  0.00     0.040 A 
ENDBRANCH  14  16
ENDBRANCH  13  14
ENDBRANCH  10  13
ENDBRANCH   7   9
ENDBRANCH   6   7
ENDBRANCH   4   6
ENDBRANCH   3   4
ENDBRANCH   2   3
ENDBRANCH   1   2
BRANCH   1  22
ATOM     22  O   UNL A   1      31.819  29.432  24.531  1.00  0.00    -0.374 OA
BRANCH  22  23
ATOM     23  C   UNL A   1      31.618  29.666  25.928  1.00  0.00     0.202 C 
BRANCH  23  24
ATOM     24  C   UNL A   1      32.564  30.694  26.561  1.00  0.00     0.261 C 
BRANCH  24  25
ATOM     25  O   UNL A   1      33.371  30.100  27.600  1.00  0.00    -0.460 OA
BRANCH  25  26
ATOM     26  C   UNL A   1      34.286  30.949  28.129  1.00  0.00     0.338 C 
ATOM     27  O   UNL A   1      34.079  32.072  28.570  1.00  0.00    -0.246 OA
BRANCH  26  28
ATOM     28  C   UNL A   1      35.592  30.285  28.296  1.00  0.00     0.060 A 
ATOM     29  C   UNL A   1      35.943  29.871  29.586  1.00  0.00     0.016 A 
ATOM     30  C   UNL A   1      36.521  30.226  27.255  1.00  0.00     0.016 A 
ATOM     31  C   UNL A   1      37.247  29.454  29.855  1.00  0.00     0.010 A 
ATOM     32  C   UNL A   1      37.832  29.809  27.530  1.00  0.00     0.010 A 
ATOM     33  C   UNL A   1      38.216  29.465  28.840  1.00  0.00    -0.014 A 
BRANCH  33  34
ATOM     34  C   UNL A   1      39.644  29.270  29.206  1.00  0.00     0.031 A 
ATOM     35  C   UNL A   1      40.316  27.957  28.887  1.00  0.00     0.074 A 
ATOM     36  C   UNL A   1      40.365  30.270  29.745  1.00  0.00     0.049 A 
ATOM     37  N   UNL A   1      41.566  27.604  29.060  1.00  0.00    -0.248 NA
ATOM     38  C   UNL A   1      39.473  26.911  28.290  1.00  0.00     0.031 C 
ATOM     39  C   UNL A   1      39.857  31.602  30.067  1.00  0.00     0.029 A 
ATOM     40  N   UNL A   1      41.691  30.319  30.107  1.00  0.00    -0.354 N 
ATOM     41  C   UNL A   1      41.659  26.298  28.591  1.00  0.00     0.074 A 
ATOM     42  C   UNL A   1      40.332  25.911  28.158  1.00  0.00     0.031 C 
ATOM     43  C   UNL A   1      40.860  32.342  30.571  1.00  0.00     0.029 A 
ATOM     44  C   UNL A   1      42.075  31.530  30.629  1.00  0.00     0.049 A 
ATOM     45  H   UNL A   1      42.306  29.559  30.001  1.00  0.00     0.167 HD
ATOM     46  C   UNL A   1      42.746  25.494  28.516  1.00  0.00     0.031 A 
ATOM     47  C   UNL A   1      43.268  31.941  31.107  1.00  0.00     0.031 A 
ATOM     48  C   UNL A   1      44.067  25.863  28.954  1.00  0.00     0.049 A 
ATOM     49  C   UNL A   1      44.448  31.006  31.077  1.00  0.00     0.074 A 
ATOM     50  C   UNL A   1      45.230  25.113  28.906  1.00  0.00     0.029 A 
ATOM     51  N   UNL A   1      44.400  27.080  29.527  1.00  0.00    -0.354 N 
ATOM     52  N   UNL A   1      44.521  29.783  30.607  1.00  0.00    -0.248 NA
ATOM     53  C   UNL A   1      45.713  31.514  31.632  1.00  0.00     0.031 C 
ATOM     54  C   UNL A   1      46.258  25.860  29.493  1.00  0.00     0.029 A 
ATOM     55  C   UNL A   1      45.745  27.094  29.860  1.00  0.00     0.049 A 
ATOM     56  H   UNL A   1      43.774  27.825  29.675  1.00  0.00     0.167 HD
ATOM     57  C   UNL A   1      45.843  29.387  30.789  1.00  0.00     0.074 A 
ATOM     58  C   UNL A   1      46.536  30.502  31.399  1.00  0.00     0.031 C 
ATOM     59  C   UNL A   1      46.428  28.205  30.472  1.00  0.00     0.031 A 
BRANCH  46  60
ATOM     60  C   UNL A   1      42.545  24.109  27.960  1.00  0.00    -0.014 A 
ATOM     61  C   UNL A   1      42.529  23.878  26.573  1.00  0.00     0.010 A 
ATOM     62  C   UNL A   1      42.403  23.020  28.839  1.00  0.00     0.010 A 
ATOM     63  C   UNL A   1      42.333  22.587  26.073  1.00  0.00     0.020 A 
ATOM     64  C   UNL A   1      42.230  21.724  28.343  1.00  0.00     0.020 A 
ATOM     65  C   UNL A   1      42.178  21.519  26.963  1.00  0.00     0.054 A 
BRANCH  65  66
ATOM     66  S   UNL A   1      41.934  19.852  26.292  1.00  0.00     0.124 S 
ATOM     67  O   UNL A   1      40.519  19.880  25.926  1.00  0.00    -0.237 OA
ATOM     68  O   UNL A   1      42.871  19.813  25.173  1.00  0.00    -0.237 OA
ATOM     69  O   UNL A   1      42.269  18.975  27.412  1.00  0.00    -0.744 OA
ENDBRANCH  65  66
ENDBRANCH  46  60
BRANCH  47  70
ATOM     70  C   UNL A   1      43.407  33.312  31.670  1.00  0.00    -0.014 A 
ATOM     71  C   UNL A   1      43.780  34.391  30.851  1.00  0.00     0.010 A 
ATOM     72  C   UNL A   1      43.164  33.539  33.037  1.00  0.00     0.010 A 
ATOM     73  C   UNL A   1      43.920  35.673  31.393  1.00  0.00     0.020 A 
ATOM     74  C   UNL A   1      43.280  34.823  33.576  1.00  0.00     0.020 A 
ATOM     75  C   UNL A   1      43.667  35.881  32.752  1.00  0.00     0.054 A 
BRANCH  75  76
ATOM     76  S   UNL A   1      43.795  37.561  33.425  1.00  0.00     0.124 S 
ATOM     77  O   UNL A   1      42.547  37.685  34.170  1.00  0.00    -0.237 OA
ATOM     78  O   UNL A   1      45.010  37.489  34.231  1.00  0.00    -0.237 OA
ATOM     79  O   UNL A   1      43.899  38.397  32.231  1.00  0.00    -0.744 OA
ENDBRANCH  75  76
ENDBRANCH  47  70
BRANCH  59  80
ATOM     80  C   UNL A   1      47.900  28.059  30.753  1.00  0.00    -0.014 A 
ATOM     81  C   UNL A   1      48.361  27.533  31.973  1.00  0.00     0.010 A 
ATOM     82  C   UNL A   1      48.836  28.412  29.763  1.00  0.00     0.010 A 
ATOM     83  C   UNL A   1      49.732  27.393  32.210  1.00  0.00     0.020 A 
ATOM     84  C   UNL A   1      50.206  28.251  29.988  1.00  0.00     0.020 A 
ATOM     85  C   UNL A   1      50.647  27.756  31.216  1.00  0.00     0.054 A 
BRANCH  85  86
ATOM     86  S   UNL A   1      52.419  27.532  31.532  1.00  0.00     0.124 S 
ATOM     87  O   UNL A   1      52.511  27.814  32.963  1.00  0.00    -0.237 OA
ATOM     88  O   UNL A   1      52.642  26.140  31.152  1.00  0.00    -0.237 OA
ATOM     89  O   UNL A   1      53.053  28.519  30.660  1.00  0.00    -0.744 OA
ENDBRANCH  85  86
ENDBRANCH  59  80
ENDBRANCH  33  34
ENDBRANCH  26  28
ENDBRANCH  25  26
ENDBRANCH  24  25
ENDBRANCH  23  24
ENDBRANCH  22  23
ENDBRANCH   1  22
TORSDOF 22
ENDMDL
MODEL 2
REMARK VINA RESULT:      -9.0      1.708      2.417
REMARK SMILES C[C@@H](CC(=O)OCCOCCOC(=O)c1ccc(-c2c3nc(c(-c4ccc(S(=O)(=O)[O-])cc4)c4ccc([nH]4)c(-c4ccc(S(=O)(=O)[O-])cc4)c4nc(c(-c5ccc(S(=O)(=O)[O-])cc5)c5ccc2[nH]5)C=C4)C=C3)cc1)NC(=O)CN(C)c1ncccn1
REMARK SMILES IDX 8 1 7 2 6 3 4 4 5 5 3 6 2 7 1 8 75 9 76 10 77 12 78 13 79 14
REMARK SMILES IDX 80 15 81 16 82 17 86 18 83 19 85 20 84 21 9 22 10 23 11 24
REMARK SMILES IDX 12 25 13 26 14 27 15 28 16 29 74 30 17 31 73 32 18 33 19 34
REMARK SMILES IDX 20 35 67 36 21 37 72 38 66 39 68 40 22 41 71 42 65 43 64 44
REMARK SMILES IDX 23 46 53 47 34 48 52 49 35 50 38 51 51 52 69 53 36 54 37 55
REMARK SMILES IDX 50 57 70 58 39 59 24 60 25 61 33 62 26 63 32 64 27 65 28 66
REMARK SMILES IDX 29 67 30 68 31 69 54 70 55 71 63 72 56 73 62 74 57 75 58 76
REMARK SMILES IDX 59 77 60 78 61 79 40 80 41 81 49 82 42 83 48 84 43 85 44 86
REMARK SMILES IDX 45 87 46 88 47 89
REMARK H PARENT 75 11 68 45 38 56
REMARK Flexibility Score: inf
ROOT
ATOM      1  C   UNL A   1      31.581  28.721  24.217  1.00  0.00     0.202 C 
ENDROOT
BRANCH   1   2
ATOM      2  C   UNL A   1      31.483  27.361  23.523  1.00  0.00     0.261 C 
BRANCH   2   3
ATOM      3  O   UNL A   1      32.150  27.345  22.245  1.00  0.00    -0.463 OA
BRANCH   3   4
ATOM      4  C   UNL A   1      32.484  26.123  21.768  1.00  0.00     0.307 C 
ATOM      5  O   UNL A   1      33.222  25.924  20.808  1.00  0.00    -0.252 OA
BRANCH   4   6
ATOM      6  C   UNL A   1      31.842  24.966  22.496  1.00  0.00     0.147 C 
BRANCH   6   7
ATOM      7  C   UNL A   1      32.675  23.810  23.061  1.00  0.00     0.090 C 
ATOM      8  C   UNL A   1      34.150  24.114  23.280  1.00  0.00     0.031 C 
BRANCH   7   9
ATOM      9  N   UNL A   1      32.513  22.584  22.295  1.00  0.00    -0.352 N 
ATOM     10  C   UNL A   1      32.276  21.310  22.738  1.00  0.00     0.239 C 
ATOM     11  H   UNL A   1      32.583  22.684  21.318  1.00  0.00     0.163 HD
ATOM     12  O   UNL A   1      31.884  20.477  21.913  1.00  0.00    -0.273 OA
BRANCH  10  13
ATOM     13  C   UNL A   1      32.396  20.972  24.232  1.00  0.00     0.219 C 
BRANCH  13  14
ATOM     14  N   UNL A   1      33.606  20.230  24.592  1.00  0.00    -0.335 N 
ATOM     15  C   UNL A   1      34.757  20.915  25.137  1.00  0.00     0.147 C 
BRANCH  14  16
ATOM     16  C   UNL A   1      33.535  18.862  24.753  1.00  0.00     0.225 A 
ATOM     17  N   UNL A   1      32.442  18.332  25.330  1.00  0.00    -0.221 NA
ATOM     18  N   UNL A   1      34.561  18.106  24.339  1.00  0.00    -0.221 NA
ATOM     19  C   UNL A   1      32.402  16.993  25.485  1.00  0.00     0.117 A 
ATOM     20  C   UNL A   1      34.496  16.778  24.542  1.00  0.00     0.117 A 
ATOM     21  C   UNL A   1      33.420  16.156  25.114  1.00  0.00     0.040 A 
ENDBRANCH  14  16
ENDBRANCH  13  14
ENDBRANCH  10  13
ENDBRANCH   7   9
ENDBRANCH   6   7
ENDBRANCH   4   6
ENDBRANCH   3   4
ENDBRANCH   2   3
ENDBRANCH   1   2
BRANCH   1  22
ATOM     22  O   UNL A   1      31.475  28.694  25.640  1.00  0.00    -0.374 OA
BRANCH  22  23
ATOM     23  C   UNL A   1      31.966  29.833  26.354  1.00  0.00     0.202 C 
BRANCH  23  24
ATOM     24  C   UNL A   1      33.114  29.545  27.331  1.00  0.00     0.261 C 
BRANCH  24  25
ATOM     25  O   UNL A   1      34.261  30.378  27.058  1.00  0.00    -0.460 OA
BRANCH  25  26
ATOM     26  C   UNL A   1      34.920  30.776  28.174  1.00  0.00     0.338 C 
ATOM     27  O   UNL A   1      34.494  31.510  29.057  1.00  0.00    -0.246 OA
BRANCH  26  28
ATOM     28  C   UNL A   1      36.201  30.061  28.318  1.00  0.00     0.060 A 
ATOM     29  C   UNL A   1      36.551  29.619  29.600  1.00  0.00     0.016 A 
ATOM     30  C   UNL A   1      37.114  29.978  27.265  1.00  0.00     0.016 A 
ATOM     31  C   UNL A   1      37.840  29.149  29.848  1.00  0.00     0.010 A 
ATOM     32  C   UNL A   1      38.412  29.508  27.520  1.00  0.00     0.010 A 
ATOM     33  C   UNL A   1      38.797  29.135  28.822  1.00  0.00    -0.014 A 
BRANCH  33  34
ATOM     34  C   UNL A   1      40.221  28.880  29.168  1.00  0.00     0.031 A 
ATOM     35  C   UNL A   1      40.839  27.547  28.825  1.00  0.00     0.074 A 
ATOM     36  C   UNL A   1      40.986  29.845  29.712  1.00  0.00     0.049 A 
ATOM     37  N   UNL A   1      42.076  27.145  28.978  1.00  0.00    -0.248 NA
ATOM     38  C   UNL A   1      39.949  26.541  28.223  1.00  0.00     0.031 C 
ATOM     39  C   UNL A   1      40.532  31.191  30.057  1.00  0.00     0.029 A 
ATOM     40  N   UNL A   1      42.316  29.839  30.059  1.00  0.00    -0.354 N 
ATOM     41  C   UNL A   1      42.113  25.842  28.491  1.00  0.00     0.074 A 
ATOM     42  C   UNL A   1      40.769  25.512  28.068  1.00  0.00     0.031 C 
ATOM     43  C   UNL A   1      41.568  31.885  30.559  1.00  0.00     0.029 A 
ATOM     44  C   UNL A   1      42.752  31.027  30.593  1.00  0.00     0.049 A 
ATOM     45  H   UNL A   1      42.900  29.056  29.936  1.00  0.00     0.167 HD
ATOM     46  C   UNL A   1      43.169  24.998  28.393  1.00  0.00     0.031 A 
ATOM     47  C   UNL A   1      43.965  31.385  31.061  1.00  0.00     0.031 A 
ATOM     48  C   UNL A   1      44.507  25.311  28.820  1.00  0.00     0.049 A 
ATOM     49  C   UNL A   1      45.108  30.407  31.005  1.00  0.00     0.074 A 
ATOM     50  C   UNL A   1      45.640  24.518  28.749  1.00  0.00     0.029 A 
ATOM     51  N   UNL A   1      44.893  26.506  29.405  1.00  0.00    -0.354 N 
ATOM     52  N   UNL A   1      45.129  29.189  30.519  1.00  0.00    -0.248 NA
ATOM     53  C   UNL A   1      46.397  30.859  31.553  1.00  0.00     0.031 C 
ATOM     54  C   UNL A   1      46.702  25.217  29.334  1.00  0.00     0.029 A 
ATOM     55  C   UNL A   1      46.241  26.465  29.722  1.00  0.00     0.049 A 
ATOM     56  H   UNL A   1      44.297  27.273  29.570  1.00  0.00     0.167 HD
ATOM     57  C   UNL A   1      46.437  28.739  30.680  1.00  0.00     0.074 A 
ATOM     58  C   UNL A   1      47.179  29.819  31.297  1.00  0.00     0.031 C 
ATOM     59  C   UNL A   1      46.973  27.540  30.341  1.00  0.00     0.031 A 
BRANCH  46  60
ATOM     60  C   UNL A   1      42.908  23.630  27.822  1.00  0.00    -0.014 A 
ATOM     61  C   UNL A   1      42.260  22.637  28.580  1.00  0.00     0.010 A 
ATOM     62  C   UNL A   1      43.285  23.344  26.497  1.00  0.00     0.010 A 
ATOM     63  C   UNL A   1      42.033  21.369  28.037  1.00  0.00     0.020 A 
ATOM     64  C   UNL A   1      43.038  22.085  25.943  1.00  0.00     0.020 A 
ATOM     65  C   UNL A   1      42.429  21.099  26.723  1.00  0.00     0.054 A 
BRANCH  65  66
ATOM     66  S   UNL A   1      42.115  19.451  26.037  1.00  0.00     0.124 S 
ATOM     67  O   UNL A   1      42.629  18.583  27.094  1.00  0.00    -0.237 OA
ATOM     68  O   UNL A   1      40.665  19.442  25.867  1.00  0.00    -0.237 OA
ATOM     69  O   UNL A   1      42.885  19.440  24.795  1.00  0.00    -0.744 OA
ENDBRANCH  65  66
ENDBRANCH  46  60
BRANCH  47  70
ATOM     70  C   UNL A   1      44.162  32.743  31.641  1.00  0.00    -0.014 A 
ATOM     71  C   UNL A   1      43.687  33.053  32.926  1.00  0.00     0.010 A 
ATOM     72  C   UNL A   1      44.832  33.733  30.898  1.00  0.00     0.010 A 
ATOM     73  C   UNL A   1      43.867  34.335  33.455  1.00  0.00     0.020 A 
ATOM     74  C   UNL A   1      45.034  35.008  31.435  1.00  0.00     0.020 A 
ATOM     75  C   UNL A   1      44.541  35.303  32.706  1.00  0.00     0.054 A 
BRANCH  75  76
ATOM     76  S   UNL A   1      44.818  36.942  33.434  1.00  0.00     0.124 S 
ATOM     77  O   UNL A   1      44.553  37.824  32.302  1.00  0.00    -0.237 OA
ATOM     78  O   UNL A   1      43.834  36.982  34.512  1.00  0.00    -0.237 OA
ATOM     79  O   UNL A   1      46.210  36.888  33.874  1.00  0.00    -0.744 OA
ENDBRANCH  75  76
ENDBRANCH  47  70
BRANCH  59  80
ATOM     80  C   UNL A   1      48.441  27.335  30.603  1.00  0.00    -0.014 A 
ATOM     81  C   UNL A   1      49.402  27.585  29.608  1.00  0.00     0.010 A 
ATOM     82  C   UNL A   1      48.870  26.931  31.882  1.00  0.00     0.010 A 
ATOM     83  C   UNL A   1      50.762  27.402  29.875  1.00  0.00     0.020 A 
ATOM     84  C   UNL A   1      50.230  26.771  32.159  1.00  0.00     0.020 A 
ATOM     85  C   UNL A   1      51.168  26.992  31.149  1.00  0.00     0.054 A 
BRANCH  85  86
ATOM     86  S   UNL A   1      52.940  26.796  31.484  1.00  0.00     0.124 S 
ATOM     87  O   UNL A   1      53.404  26.116  30.277  1.00  0.00    -0.237 OA
ATOM     88  O   UNL A   1      53.395  28.175  31.641  1.00  0.00    -0.237 OA
ATOM     89  O   UNL A   1      52.974  25.992  32.704  1.00  0.00    -0.744 OA
ENDBRANCH  85  86
ENDBRANCH  59  80
ENDBRANCH  33  34
ENDBRANCH  26  28
ENDBRANCH  25  26
ENDBRANCH  24  25
ENDBRANCH  23  24
ENDBRANCH  22  23
ENDBRANCH   1  22
TORSDOF 22
ENDMDL
MODEL 3
REMARK VINA RESULT:      -8.7      2.857      8.433
REMARK SMILES C[C@@H](CC(=O)OCCOCCOC(=O)c1ccc(-c2c3nc(c(-c4ccc(S(=O)(=O)[O-])cc4)c4ccc([nH]4)c(-c4ccc(S(=O)(=O)[O-])cc4)c4nc(c(-c5ccc(S(=O)(=O)[O-])cc5)c5ccc2[nH]5)C=C4)C=C3)cc1)NC(=O)CN(C)c1ncccn1
REMARK SMILES IDX 8 1 7 2 6 3 4 4 5 5 3 6 2 7 1 8 75 9 76 10 77 12 78 13 79 14
REMARK SMILES IDX 80 15 81 16 82 17 86 18 83 19 85 20 84 21 9 22 10 23 11 24
REMARK SMILES IDX 12 25 13 26 14 27 15 28 16 29 74 30 17 31 73 32 18 33 19 34
REMARK SMILES IDX 20 35 67 36 21 37 72 38 66 39 68 40 22 41 71 42 65 43 64 44
REMARK SMILES IDX 23 46 53 47 34 48 52 49 35 50 38 51 51 52 69 53 36 54 37 55
REMARK SMILES IDX 50 57 70 58 39 59 24 60 25 61 33 62 26 63 32 64 27 65 28 66
REMARK SMILES IDX 29 67 30 68 31 69 54 70 55 71 63 72 56 73 62 74 57 75 58 76
REMARK SMILES IDX 59 77 60 78 61 79 40 80 41 81 49 82 42 83 48 84 43 85 44 86
REMARK SMILES IDX 45 87 46 88 47 89
REMARK H PARENT 75 11 68 45 38 56
REMARK Flexibility Score: inf
ROOT
ATOM      1  C   UNL A   1      32.530  28.978  23.925  1.00  0.00     0.202 C 
ENDROOT
BRANCH   1   2
ATOM      2  C   UNL A   1      32.350  27.581  23.330  1.00  0.00     0.261 C 
BRANCH   2   3
ATOM      3  O   UNL A   1      31.674  26.681  24.232  1.00  0.00    -0.463 OA
BRANCH   3   4
ATOM      4  C   UNL A   1      31.890  25.361  24.021  1.00  0.00     0.307 C 
ATOM      5  O   UNL A   1      31.075  24.473  24.255  1.00  0.00    -0.252 OA
BRANCH   4   6
ATOM      6  C   UNL A   1      33.262  25.023  23.489  1.00  0.00     0.147 C 
BRANCH   6   7
ATOM      7  C   UNL A   1      33.872  23.629  23.666  1.00  0.00     0.090 C 
ATOM      8  C   UNL A   1      35.392  23.567  23.600  1.00  0.00     0.031 C 
BRANCH   7   9
ATOM      9  N   UNL A   1      33.280  22.647  22.769  1.00  0.00    -0.352 N 
ATOM     10  C   UNL A   1      32.451  21.597  23.060  1.00  0.00     0.239 C 
ATOM     11  H   UNL A   1      33.508  22.754  21.818  1.00  0.00     0.163 HD
ATOM     12  O   UNL A   1      31.837  21.072  22.124  1.00  0.00    -0.273 OA
BRANCH  10  13
ATOM     13  C   UNL A   1      32.223  21.167  24.518  1.00  0.00     0.219 C 
BRANCH  13  14
ATOM     14  N   UNL A   1      33.340  20.434  25.117  1.00  0.00    -0.335 N 
ATOM     15  C   UNL A   1      34.164  21.046  26.136  1.00  0.00     0.147 C 
BRANCH  14  16
ATOM     16  C   UNL A   1      33.394  19.062  24.984  1.00  0.00     0.225 A 
ATOM     17  N   UNL A   1      34.516  18.500  24.500  1.00  0.00    -0.221 NA
ATOM     18  N   UNL A   1      32.325  18.334  25.331  1.00  0.00    -0.221 NA
ATOM     19  C   UNL A   1      34.540  17.158  24.370  1.00  0.00     0.117 A 
ATOM     20  C   UNL A   1      32.376  17.001  25.156  1.00  0.00     0.117 A 
ATOM     21  C   UNL A   1      33.480  16.348  24.677  1.00  0.00     0.040 A 
ENDBRANCH  14  16
ENDBRANCH  13  14
ENDBRANCH  10  13
ENDBRANCH   7   9
ENDBRANCH   6   7
ENDBRANCH   4   6
ENDBRANCH   3   4
ENDBRANCH   2   3
ENDBRANCH   1   2
BRANCH   1  22
ATOM     22  O   UNL A   1      31.450  29.446  24.734  1.00  0.00    -0.374 OA
BRANCH  22  23
ATOM     23  C   UNL A   1      31.666  29.496  26.147  1.00  0.00     0.202 C 
BRANCH  23  24
ATOM     24  C   UNL A   1      32.574  30.636  26.628  1.00  0.00     0.261 C 
BRANCH  24  25
ATOM     25  O   UNL A   1      33.505  30.180  27.633  1.00  0.00    -0.460 OA
BRANCH  25  26
ATOM     26  C   UNL A   1      34.551  31.022  27.826  1.00  0.00     0.338 C 
ATOM     27  O   UNL A   1      34.509  32.245  27.882  1.00  0.00    -0.246 OA
BRANCH  26  28
ATOM     28  C   UNL A   1      35.778  30.277  28.158  1.00  0.00     0.060 A 
ATOM     29  C   UNL A   1      35.834  29.652  29.409  1.00  0.00     0.016 A 
ATOM     30  C   UNL A   1      36.911  30.333  27.343  1.00  0.00     0.016 A 
ATOM     31  C   UNL A   1      37.041  29.135  29.879  1.00  0.00     0.010 A 
ATOM     32  C   UNL A   1      38.125  29.815  27.820  1.00  0.00     0.010 A 
ATOM     33  C   UNL A   1      38.208  29.254  29.109  1.00  0.00    -0.014 A 
BRANCH  33  34
ATOM     34  C   UNL A   1      39.519  28.934  29.734  1.00  0.00     0.031 A 
ATOM     35  C   UNL A   1      39.947  29.676  30.976  1.00  0.00     0.074 A 
ATOM     36  C   UNL A   1      40.293  27.943  29.254  1.00  0.00     0.049 A 
ATOM     37  N   UNL A   1      41.015  29.506  31.714  1.00  0.00    -0.248 NA
ATOM     38  C   UNL A   1      39.050  30.740  31.453  1.00  0.00     0.031 C 
ATOM     39  C   UNL A   1      39.984  27.118  28.087  1.00  0.00     0.029 A 
ATOM     40  N   UNL A   1      41.498  27.456  29.701  1.00  0.00    -0.354 N 
ATOM     41  C   UNL A   1      40.919  30.439  32.742  1.00  0.00     0.074 A 
ATOM     42  C   UNL A   1      39.704  31.192  32.513  1.00  0.00     0.031 C 
ATOM     43  C   UNL A   1      40.971  26.220  27.915  1.00  0.00     0.029 A 
ATOM     44  C   UNL A   1      41.990  26.422  28.944  1.00  0.00     0.049 A 
ATOM     45  H   UNL A   1      41.963  27.816  30.491  1.00  0.00     0.167 HD
ATOM     46  C   UNL A   1      41.755  30.646  33.787  1.00  0.00     0.031 A 
ATOM     47  C   UNL A   1      43.135  25.717  29.059  1.00  0.00     0.031 A 
ATOM     48  C   UNL A   1      42.971  29.911  34.019  1.00  0.00     0.049 A 
ATOM     49  C   UNL A   1      44.084  26.011  30.191  1.00  0.00     0.074 A 
ATOM     50  C   UNL A   1      43.874  30.048  35.060  1.00  0.00     0.029 A 
ATOM     51  N   UNL A   1      43.459  28.908  33.197  1.00  0.00    -0.354 N 
ATOM     52  N   UNL A   1      43.963  26.880  31.166  1.00  0.00    -0.248 NA
ATOM     53  C   UNL A   1      45.322  25.218  30.243  1.00  0.00     0.031 C 
ATOM     54  C   UNL A   1      44.933  29.160  34.841  1.00  0.00     0.029 A 
ATOM     55  C   UNL A   1      44.663  28.434  33.692  1.00  0.00     0.049 A 
ATOM     56  H   UNL A   1      43.016  28.580  32.382  1.00  0.00     0.167 HD
ATOM     57  C   UNL A   1      45.095  26.721  31.958  1.00  0.00     0.074 A 
ATOM     58  C   UNL A   1      45.883  25.665  31.358  1.00  0.00     0.031 C 
ATOM     59  C   UNL A   1      45.446  27.387  33.087  1.00  0.00     0.031 A 
BRANCH  46  60
ATOM     60  C   UNL A   1      41.394  31.743  34.753  1.00  0.00    -0.014 A 
ATOM     61  C   UNL A   1      40.620  31.476  35.898  1.00  0.00     0.010 A 
ATOM     62  C   UNL A   1      41.863  33.050  34.531  1.00  0.00     0.010 A 
ATOM     63  C   UNL A   1      40.287  32.508  36.781  1.00  0.00     0.020 A 
ATOM     64  C   UNL A   1      41.551  34.079  35.425  1.00  0.00     0.020 A 
ATOM     65  C   UNL A   1      40.750  33.804  36.535  1.00  0.00     0.054 A 
BRANCH  65  66
ATOM     66  S   UNL A   1      40.313  35.124  37.699  1.00  0.00     0.124 S 
ATOM     67  O   UNL A   1      38.881  34.899  37.884  1.00  0.00    -0.237 OA
ATOM     68  O   UNL A   1      41.151  34.823  38.858  1.00  0.00    -0.237 OA
ATOM     69  O   UNL A   1      40.663  36.348  36.982  1.00  0.00    -0.744 OA
ENDBRANCH  65  66
ENDBRANCH  46  60
BRANCH  47  70
ATOM     70  C   UNL A   1      43.457  24.661  28.061  1.00  0.00    -0.014 A 
ATOM     71  C   UNL A   1      44.150  24.975  26.880  1.00  0.00     0.010 A 
ATOM     72  C   UNL A   1      43.065  23.330  28.294  1.00  0.00     0.010 A 
ATOM     73  C   UNL A   1      44.436  23.976  25.943  1.00  0.00     0.020 A 
ATOM     74  C   UNL A   1      43.370  22.326  27.370  1.00  0.00     0.020 A 
ATOM     75  C   UNL A   1      44.046  22.658  26.195  1.00  0.00     0.054 A 
BRANCH  75  76
ATOM     76  S   UNL A   1      44.479  21.367  24.996  1.00  0.00     0.124 S 
ATOM     77  O   UNL A   1      43.393  20.410  25.177  1.00  0.00    -0.237 OA
ATOM     78  O   UNL A   1      44.479  22.095  23.731  1.00  0.00    -0.237 OA
ATOM     79  O   UNL A   1      45.794  20.915  25.445  1.00  0.00    -0.744 OA
ENDBRANCH  75  76
ENDBRANCH  47  70
BRANCH  59  80
ATOM     80  C   UNL A   1      46.726  26.981  33.766  1.00  0.00    -0.014 A 
ATOM     81  C   UNL A   1      47.943  27.619  33.471  1.00  0.00     0.010 A 
ATOM     82  C   UNL A   1      46.702  25.974  34.750  1.00  0.00     0.010 A 
ATOM     83  C   UNL A   1      49.120  27.237  34.123  1.00  0.00     0.020 A 
ATOM     84  C   UNL A   1      47.872  25.606  35.420  1.00  0.00     0.020 A 
ATOM     85  C   UNL A   1      49.077  26.229  35.092  1.00  0.00     0.054 A 
BRANCH  85  86
ATOM     86  S   UNL A   1      50.609  25.773  35.951  1.00  0.00     0.124 S 
ATOM     87  O   UNL A   1      51.560  26.743  35.411  1.00  0.00    -0.237 OA
ATOM     88  O   UNL A   1      50.259  25.955  37.357  1.00  0.00    -0.237 OA
ATOM     89  O   UNL A   1      50.833  24.388  35.545  1.00  0.00    -0.744 OA
ENDBRANCH  85  86
ENDBRANCH  59  80
ENDBRANCH  33  34
ENDBRANCH  26  28
ENDBRANCH  25  26
ENDBRANCH  24  25
ENDBRANCH  23  24
ENDBRANCH  22  23
ENDBRANCH   1  22
TORSDOF 22
ENDMDL
