MODEL 1
REMARK VINA RESULT:      -9.9      0.000      0.000
REMARK SMILES Cc1ccccc1OCC(=O)Nc1ccc2c(c1)C(=O)N(CC(=O)OCCOCCOC(=O)c1ccc(-c3c4nc(c(-c5ccc(S(=O)(=O)[O-])cc5)c5ccc([nH]5)c(-c5ccc(S(=O)(=O)[O-])cc5)c5nc(c(-c6ccc(S(=O)(=O)[O-])cc6)c6ccc3[nH]6)C=C5)C=C4)cc1)C2=O
REMARK SMILES IDX 27 1 26 2 25 3 23 4 24 5 22 6 21 7 13 8 14 9 18 10 15 11
REMARK SMILES IDX 17 12 16 13 19 14 94 15 20 16 95 17 12 18 10 19 11 20 9 22
REMARK SMILES IDX 8 23 7 24 1 25 2 26 3 27 4 28 6 29 5 30 28 31 29 32 30 33
REMARK SMILES IDX 31 34 32 35 33 36 34 37 35 38 93 39 36 40 92 41 37 42 38 43
REMARK SMILES IDX 39 44 86 45 40 46 91 47 85 48 87 49 41 50 90 51 84 52 83 53
REMARK SMILES IDX 42 55 72 56 53 57 71 58 54 59 57 60 70 61 88 62 55 63 56 64
REMARK SMILES IDX 69 66 89 67 58 68 43 69 44 70 52 71 45 72 51 73 46 74 47 75
REMARK SMILES IDX 48 76 49 77 50 78 73 79 74 80 82 81 75 82 81 83 76 84 77 85
REMARK SMILES IDX 78 86 79 87 80 88 59 89 60 90 68 91 61 92 67 93 62 94 63 95
REMARK SMILES IDX 64 96 65 97 66 98
REMARK H PARENT 12 21 87 54 57 65
REMARK Flexibility Score: inf
ROOT
ATOM      1  C   UNL A   1      34.686  33.872  28.444  1.00  0.00     0.202 C 
ENDROOT
BRANCH   1   2
ATOM      2  C   UNL A   1      34.763  33.292  29.824  1.00  0.00     0.261 C 
BRANCH   2   3
ATOM      3  O   UNL A   1      33.817  33.933  30.687  1.00  0.00    -0.462 OA
BRANCH   3   4
ATOM      4  C   UNL A   1      34.108  34.060  32.013  1.00  0.00     0.326 C 
ATOM      5  O   UNL A   1      33.305  33.995  32.931  1.00  0.00    -0.250 OA
BRANCH   4   6
ATOM      6  C   UNL A   1      35.579  34.411  32.195  1.00  0.00     0.251 C 
BRANCH   6   7
ATOM      7  N   UNL A   1      36.066  33.591  33.286  1.00  0.00    -0.263 N 
ATOM      8  C   UNL A   1      38.842  31.027  35.841  1.00  0.00     0.042 A 
ATOM      9  C   UNL A   1      38.433  31.935  36.837  1.00  0.00     0.027 A 
ATOM     10  C   UNL A   1      38.374  31.133  34.535  1.00  0.00     0.040 A 
ATOM     11  C   UNL A   1      37.539  32.973  36.538  1.00  0.00     0.017 A 
ATOM     12  C   UNL A   1      37.448  32.120  34.290  1.00  0.00     0.055 A 
ATOM     13  C   UNL A   1      37.052  33.034  35.249  1.00  0.00     0.053 A 
ATOM     14  C   UNL A   1      36.764  32.440  33.046  1.00  0.00     0.262 C 
ATOM     15  C   UNL A   1      36.150  33.985  34.593  1.00  0.00     0.262 C 
ATOM     16  O   UNL A   1      36.844  31.777  32.038  1.00  0.00    -0.269 OA
ATOM     17  O   UNL A   1      35.618  34.932  35.145  1.00  0.00    -0.269 OA
BRANCH   8  18
ATOM     18  N   UNL A   1      39.739  29.993  36.112  1.00  0.00    -0.323 N 
ATOM     19  C   UNL A   1      41.090  30.069  35.901  1.00  0.00     0.262 C 
ATOM     20  O   UNL A   1      41.824  29.345  36.580  1.00  0.00    -0.271 OA
ATOM     21  H   UNL A   1      39.376  29.155  36.479  1.00  0.00     0.170 HD
BRANCH  19  22
ATOM     22  C   UNL A   1      41.672  31.128  34.949  1.00  0.00     0.329 C 
BRANCH  22  23
ATOM     23  O   UNL A   1      42.271  32.322  35.400  1.00  0.00    -0.483 OA
BRANCH  23  24
ATOM     24  C   UNL A   1      41.538  33.443  35.645  1.00  0.00     0.122 A 
ATOM     25  C   UNL A   1      41.816  33.709  38.207  1.00  0.00     0.048 C 
ATOM     26  C   UNL A   1      41.312  34.113  36.854  1.00  0.00    -0.009 A 
ATOM     27  C   UNL A   1      40.523  35.286  36.832  1.00  0.00     0.007 A 
ATOM     28  C   UNL A   1      39.920  35.746  35.664  1.00  0.00     0.001 A 
ATOM     29  C   UNL A   1      40.890  33.899  34.481  1.00  0.00     0.047 A 
ATOM     30  C   UNL A   1      40.091  35.040  34.484  1.00  0.00     0.004 A 
ENDBRANCH  23  24
ENDBRANCH  22  23
ENDBRANCH  19  22
ENDBRANCH   8  18
ENDBRANCH   6   7
ENDBRANCH   4   6
ENDBRANCH   3   4
ENDBRANCH   2   3
ENDBRANCH   1   2
BRANCH   1  31
ATOM     31  O   UNL A   1      35.036  32.793  27.577  1.00  0.00    -0.374 OA
BRANCH  31  32
ATOM     32  C   UNL A   1      34.292  31.599  27.701  1.00  0.00     0.202 C 
BRANCH  32  33
ATOM     33  C   UNL A   1      35.077  30.284  27.591  1.00  0.00     0.261 C 
BRANCH  33  34
ATOM     34  O   UNL A   1      36.402  30.368  28.162  1.00  0.00    -0.460 OA
BRANCH  34  35
ATOM     35  C   UNL A   1      36.631  29.638  29.295  1.00  0.00     0.338 C 
ATOM     36  O   UNL A   1      35.823  29.527  30.200  1.00  0.00    -0.246 OA
BRANCH  35  37
ATOM     37  C   UNL A   1      37.928  28.914  29.199  1.00  0.00     0.060 A 
ATOM     38  C   UNL A   1      38.662  28.538  30.335  1.00  0.00     0.016 A 
ATOM     39  C   UNL A   1      38.492  28.778  27.938  1.00  0.00     0.016 A 
ATOM     40  C   UNL A   1      40.010  28.162  30.210  1.00  0.00     0.010 A 
ATOM     41  C   UNL A   1      39.847  28.578  27.838  1.00  0.00     0.010 A 
ATOM     42  C   UNL A   1      40.618  28.248  28.961  1.00  0.00    -0.014 A 
BRANCH  42  43
ATOM     43  C   UNL A   1      42.013  27.958  28.627  1.00  0.00     0.031 A 
ATOM     44  C   UNL A   1      42.373  26.517  28.543  1.00  0.00     0.074 A 
ATOM     45  C   UNL A   1      42.852  28.907  28.140  1.00  0.00     0.049 A 
ATOM     46  N   UNL A   1      43.579  26.079  28.505  1.00  0.00    -0.248 NA
ATOM     47  C   UNL A   1      41.391  25.425  28.521  1.00  0.00     0.031 C 
ATOM     48  C   UNL A   1      44.053  28.726  27.323  1.00  0.00     0.029 A 
ATOM     49  N   UNL A   1      42.808  30.299  28.288  1.00  0.00    -0.354 N 
ATOM     50  C   UNL A   1      43.528  24.771  28.078  1.00  0.00     0.074 A 
ATOM     51  C   UNL A   1      42.155  24.374  28.218  1.00  0.00     0.031 C 
ATOM     52  C   UNL A   1      44.775  29.865  27.329  1.00  0.00     0.029 A 
ATOM     53  C   UNL A   1      44.121  30.785  28.248  1.00  0.00     0.049 A 
ATOM     54  H   UNL A   1      41.995  30.843  28.399  1.00  0.00     0.167 HD
ATOM     55  C   UNL A   1      44.633  24.236  27.493  1.00  0.00     0.031 A 
ATOM     56  C   UNL A   1      44.651  31.427  29.324  1.00  0.00     0.031 A 
ATOM     57  C   UNL A   1      45.737  25.203  27.515  1.00  0.00     0.049 A 
ATOM     58  C   UNL A   1      45.772  30.579  29.850  1.00  0.00     0.074 A 
ATOM     59  C   UNL A   1      46.286  26.027  26.547  1.00  0.00     0.029 A 
ATOM     60  N   UNL A   1      46.164  25.704  28.742  1.00  0.00    -0.354 N 
ATOM     61  N   UNL A   1      45.841  29.294  29.621  1.00  0.00    -0.248 NA
ATOM     62  C   UNL A   1      46.943  31.085  30.553  1.00  0.00     0.031 C 
ATOM     63  C   UNL A   1      46.985  27.075  27.215  1.00  0.00     0.029 A 
ATOM     64  C   UNL A   1      46.881  26.874  28.584  1.00  0.00     0.049 A 
ATOM     65  H   UNL A   1      45.979  25.279  29.612  1.00  0.00     0.167 HD
ATOM     66  C   UNL A   1      47.057  28.826  30.003  1.00  0.00     0.074 A 
ATOM     67  C   UNL A   1      47.696  29.970  30.635  1.00  0.00     0.031 C 
ATOM     68  C   UNL A   1      47.458  27.549  29.745  1.00  0.00     0.031 A 
BRANCH  55  69
ATOM     69  C   UNL A   1      44.633  22.965  26.673  1.00  0.00    -0.014 A 
ATOM     70  C   UNL A   1      45.861  22.441  26.221  1.00  0.00     0.010 A 
ATOM     71  C   UNL A   1      43.481  22.246  26.294  1.00  0.00     0.010 A 
ATOM     72  C   UNL A   1      45.934  21.297  25.412  1.00  0.00     0.020 A 
ATOM     73  C   UNL A   1      43.535  21.115  25.461  1.00  0.00     0.020 A 
ATOM     74  C   UNL A   1      44.766  20.642  25.030  1.00  0.00     0.054 A 
BRANCH  74  75
ATOM     75  S   UNL A   1      44.885  19.151  24.009  1.00  0.00     0.124 S 
ATOM     76  O   UNL A   1      46.321  18.882  24.006  1.00  0.00    -0.237 OA
ATOM     77  O   UNL A   1      44.068  18.198  24.755  1.00  0.00    -0.237 OA
ATOM     78  O   UNL A   1      44.333  19.565  22.721  1.00  0.00    -0.744 OA
ENDBRANCH  74  75
ENDBRANCH  55  69
BRANCH  56  79
ATOM     79  C   UNL A   1      43.627  32.234  30.075  1.00  0.00    -0.014 A 
ATOM     80  C   UNL A   1      43.371  33.545  29.598  1.00  0.00     0.010 A 
ATOM     81  C   UNL A   1      42.621  31.602  30.829  1.00  0.00     0.010 A 
ATOM     82  C   UNL A   1      42.099  34.129  29.716  1.00  0.00     0.020 A 
ATOM     83  C   UNL A   1      41.341  32.184  30.941  1.00  0.00     0.020 A 
ATOM     84  C   UNL A   1      41.073  33.417  30.335  1.00  0.00     0.054 A 
BRANCH  84  85
ATOM     85  S   UNL A   1      39.345  33.958  30.061  1.00  0.00     0.124 S 
ATOM     86  O   UNL A   1      39.002  34.578  31.335  1.00  0.00    -0.237 OA
ATOM     87  O   UNL A   1      39.460  34.876  28.925  1.00  0.00    -0.237 OA
ATOM     88  O   UNL A   1      38.648  32.715  29.750  1.00  0.00    -0.744 OA
ENDBRANCH  84  85
ENDBRANCH  56  79
BRANCH  68  89
ATOM     89  C   UNL A   1      48.506  26.831  30.545  1.00  0.00    -0.014 A 
ATOM     90  C   UNL A   1      48.201  25.890  31.537  1.00  0.00     0.010 A 
ATOM     91  C   UNL A   1      49.865  26.974  30.181  1.00  0.00     0.010 A 
ATOM     92  C   UNL A   1      49.209  25.193  32.203  1.00  0.00     0.020 A 
ATOM     93  C   UNL A   1      50.874  26.228  30.787  1.00  0.00     0.020 A 
ATOM     94  C   UNL A   1      50.538  25.372  31.826  1.00  0.00     0.054 A 
BRANCH  94  95
ATOM     95  S   UNL A   1      51.819  24.452  32.697  1.00  0.00     0.124 S 
ATOM     96  O   UNL A   1      51.755  25.050  34.028  1.00  0.00    -0.237 OA
ATOM     97  O   UNL A   1      51.343  23.073  32.604  1.00  0.00    -0.237 OA
ATOM     98  O   UNL A   1      53.032  24.739  31.937  1.00  0.00    -0.744 OA
ENDBRANCH  94  95
ENDBRANCH  68  89
ENDBRANCH  42  43
ENDBRANCH  35  37
ENDBRANCH  34  35
ENDBRANCH  33  34
ENDBRANCH  32  33
ENDBRANCH  31  32
ENDBRANCH   1  31
TORSDOF 22
ENDMDL
MODEL 2
REMARK VINA RESULT:      -9.9      4.356      8.019
REMARK SMILES Cc1ccccc1OCC(=O)Nc1ccc2c(c1)C(=O)N(CC(=O)OCCOCCOC(=O)c1ccc(-c3c4nc(c(-c5ccc(S(=O)(=O)[O-])cc5)c5ccc([nH]5)c(-c5ccc(S(=O)(=O)[O-])cc5)c5nc(c(-c6ccc(S(=O)(=O)[O-])cc6)c6ccc3[nH]6)C=C5)C=C4)cc1)C2=O
REMARK SMILES IDX 27 1 26 2 25 3 23 4 24 5 22 6 21 7 13 8 14 9 18 10 15 11
REMARK SMILES IDX 17 12 16 13 19 14 94 15 20 16 95 17 12 18 10 19 11 20 9 22
REMARK SMILES IDX 8 23 7 24 1 25 2 26 3 27 4 28 6 29 5 30 28 31 29 32 30 33
REMARK SMILES IDX 31 34 32 35 33 36 34 37 35 38 93 39 36 40 92 41 37 42 38 43
REMARK SMILES IDX 39 44 86 45 40 46 91 47 85 48 87 49 41 50 90 51 84 52 83 53
REMARK SMILES IDX 42 55 72 56 53 57 71 58 54 59 57 60 70 61 88 62 55 63 56 64
REMARK SMILES IDX 69 66 89 67 58 68 43 69 44 70 52 71 45 72 51 73 46 74 47 75
REMARK SMILES IDX 48 76 49 77 50 78 73 79 74 80 82 81 75 82 81 83 76 84 77 85
REMARK SMILES IDX 78 86 79 87 80 88 59 89 60 90 68 91 61 92 67 93 62 94 63 95
REMARK SMILES IDX 64 96 65 97 66 98
REMARK H PARENT 12 21 87 54 57 65
REMARK Flexibility Score: inf
ROOT
ATOM      1  C   UNL A   1      33.475  32.900  27.832  1.00  0.00     0.202 C 
ENDROOT
BRANCH   1   2
ATOM      2  C   UNL A   1      32.766  31.658  27.381  1.00  0.00     0.261 C 
BRANCH   2   3
ATOM      3  O   UNL A   1      33.712  30.685  26.923  1.00  0.00    -0.462 OA
BRANCH   3   4
ATOM      4  C   UNL A   1      33.320  29.765  25.995  1.00  0.00     0.326 C 
ATOM      5  O   UNL A   1      34.063  29.051  25.339  1.00  0.00    -0.250 OA
BRANCH   4   6
ATOM      6  C   UNL A   1      31.811  29.824  25.802  1.00  0.00     0.251 C 
BRANCH   6   7
ATOM      7  N   UNL A   1      31.369  28.461  25.584  1.00  0.00    -0.263 N 
ATOM      8  C   UNL A   1      31.145  24.219  23.925  1.00  0.00     0.042 A 
ATOM      9  C   UNL A   1      31.133  23.899  25.296  1.00  0.00     0.027 A 
ATOM     10  C   UNL A   1      31.219  25.540  23.494  1.00  0.00     0.040 A 
ATOM     11  C   UNL A   1      31.194  24.907  26.268  1.00  0.00     0.017 A 
ATOM     12  C   UNL A   1      31.211  26.508  24.472  1.00  0.00     0.055 A 
ATOM     13  C   UNL A   1      31.221  26.213  25.822  1.00  0.00     0.053 A 
ATOM     14  C   UNL A   1      31.240  27.955  24.321  1.00  0.00     0.262 C 
ATOM     15  C   UNL A   1      31.320  27.486  26.542  1.00  0.00     0.262 C 
ATOM     16  O   UNL A   1      31.164  28.528  23.260  1.00  0.00    -0.269 OA
ATOM     17  O   UNL A   1      31.361  27.597  27.755  1.00  0.00    -0.269 OA
BRANCH   8  18
ATOM     18  N   UNL A   1      31.096  23.232  22.939  1.00  0.00    -0.323 N 
ATOM     19  C   UNL A   1      32.178  22.500  22.526  1.00  0.00     0.262 C 
ATOM     20  O   UNL A   1      31.971  21.385  22.038  1.00  0.00    -0.271 OA
ATOM     21  H   UNL A   1      30.228  23.051  22.513  1.00  0.00     0.170 HD
BRANCH  19  22
ATOM     22  C   UNL A   1      33.607  23.001  22.799  1.00  0.00     0.329 C 
BRANCH  22  23
ATOM     23  O   UNL A   1      34.516  22.317  23.633  1.00  0.00    -0.483 OA
BRANCH  23  24
ATOM     24  C   UNL A   1      34.290  22.171  24.968  1.00  0.00     0.122 A 
ATOM     25  C   UNL A   1      33.073  19.885  25.053  1.00  0.00     0.048 C 
ATOM     26  C   UNL A   1      33.677  21.117  25.657  1.00  0.00    -0.009 A 
ATOM     27  C   UNL A   1      33.589  21.200  27.066  1.00  0.00     0.007 A 
ATOM     28  C   UNL A   1      34.035  22.318  27.767  1.00  0.00     0.001 A 
ATOM     29  C   UNL A   1      34.700  23.310  25.687  1.00  0.00     0.047 A 
ATOM     30  C   UNL A   1      34.579  23.387  27.073  1.00  0.00     0.004 A 
ENDBRANCH  23  24
ENDBRANCH  22  23
ENDBRANCH  19  22
ENDBRANCH   8  18
ENDBRANCH   6   7
ENDBRANCH   4   6
ENDBRANCH   3   4
ENDBRANCH   2   3
ENDBRANCH   1   2
BRANCH   1  31
ATOM     31  O   UNL A   1      34.862  32.607  27.661  1.00  0.00    -0.374 OA
BRANCH  31  32
ATOM     32  C   UNL A   1      35.720  32.895  28.747  1.00  0.00     0.202 C 
BRANCH  32  33
ATOM     33  C   UNL A   1      37.018  32.080  28.833  1.00  0.00     0.261 C 
BRANCH  33  34
ATOM     34  O   UNL A   1      36.900  30.919  29.686  1.00  0.00    -0.460 OA
BRANCH  34  35
ATOM     35  C   UNL A   1      36.701  29.717  29.066  1.00  0.00     0.338 C 
ATOM     36  O   UNL A   1      35.648  29.394  28.547  1.00  0.00    -0.246 OA
BRANCH  35  37
ATOM     37  C   UNL A   1      37.970  28.940  29.009  1.00  0.00     0.060 A 
ATOM     38  C   UNL A   1      38.535  28.345  30.149  1.00  0.00     0.016 A 
ATOM     39  C   UNL A   1      38.686  28.971  27.820  1.00  0.00     0.016 A 
ATOM     40  C   UNL A   1      39.872  27.913  30.127  1.00  0.00     0.010 A 
ATOM     41  C   UNL A   1      40.033  28.707  27.853  1.00  0.00     0.010 A 
ATOM     42  C   UNL A   1      40.638  28.158  28.992  1.00  0.00    -0.014 A 
BRANCH  42  43
ATOM     43  C   UNL A   1      42.052  27.840  28.786  1.00  0.00     0.031 A 
ATOM     44  C   UNL A   1      42.374  26.397  28.619  1.00  0.00     0.074 A 
ATOM     45  C   UNL A   1      42.969  28.791  28.475  1.00  0.00     0.049 A 
ATOM     46  N   UNL A   1      43.563  25.915  28.673  1.00  0.00    -0.248 NA
ATOM     47  C   UNL A   1      41.367  25.351  28.398  1.00  0.00     0.031 C 
ATOM     48  C   UNL A   1      44.247  28.629  27.778  1.00  0.00     0.029 A 
ATOM     49  N   UNL A   1      42.953  30.167  28.735  1.00  0.00    -0.354 N 
ATOM     50  C   UNL A   1      43.518  24.649  28.133  1.00  0.00     0.074 A 
ATOM     51  C   UNL A   1      42.126  24.298  28.090  1.00  0.00     0.031 C 
ATOM     52  C   UNL A   1      44.999  29.733  27.959  1.00  0.00     0.029 A 
ATOM     53  C   UNL A   1      44.277  30.601  28.878  1.00  0.00     0.049 A 
ATOM     54  H   UNL A   1      42.149  30.733  28.804  1.00  0.00     0.167 HD
ATOM     55  C   UNL A   1      44.663  24.120  27.625  1.00  0.00     0.031 A 
ATOM     56  C   UNL A   1      44.705  31.132  30.055  1.00  0.00     0.031 A 
ATOM     57  C   UNL A   1      45.788  25.037  27.848  1.00  0.00     0.049 A 
ATOM     58  C   UNL A   1      45.734  30.198  30.624  1.00  0.00     0.074 A 
ATOM     59  C   UNL A   1      46.466  25.914  27.019  1.00  0.00     0.029 A 
ATOM     60  N   UNL A   1      46.093  25.418  29.153  1.00  0.00    -0.354 N 
ATOM     61  N   UNL A   1      45.787  28.935  30.295  1.00  0.00    -0.248 NA
ATOM     62  C   UNL A   1      46.835  30.598  31.489  1.00  0.00     0.031 C 
ATOM     63  C   UNL A   1      47.120  26.875  27.845  1.00  0.00     0.029 A 
ATOM     64  C   UNL A   1      46.859  26.568  29.172  1.00  0.00     0.049 A 
ATOM     65  H   UNL A   1      45.800  24.932  29.958  1.00  0.00     0.167 HD
ATOM     66  C   UNL A   1      46.938  28.389  30.764  1.00  0.00     0.074 A 
ATOM     67  C   UNL A   1      47.539  29.450  31.556  1.00  0.00     0.031 C 
ATOM     68  C   UNL A   1      47.326  27.121  30.442  1.00  0.00     0.031 A 
BRANCH  55  69
ATOM     69  C   UNL A   1      44.714  22.921  26.705  1.00  0.00    -0.014 A 
ATOM     70  C   UNL A   1      43.571  22.106  26.577  1.00  0.00     0.010 A 
ATOM     71  C   UNL A   1      45.841  22.523  25.956  1.00  0.00     0.010 A 
ATOM     72  C   UNL A   1      43.563  20.948  25.784  1.00  0.00     0.020 A 
ATOM     73  C   UNL A   1      45.858  21.351  25.180  1.00  0.00     0.020 A 
ATOM     74  C   UNL A   1      44.712  20.573  25.093  1.00  0.00     0.054 A 
BRANCH  74  75
ATOM     75  S   UNL A   1      44.671  19.090  24.054  1.00  0.00     0.124 S 
ATOM     76  O   UNL A   1      44.397  19.640  22.728  1.00  0.00    -0.237 OA
ATOM     77  O   UNL A   1      46.011  18.541  24.243  1.00  0.00    -0.237 OA
ATOM     78  O   UNL A   1      43.588  18.293  24.626  1.00  0.00    -0.744 OA
ENDBRANCH  74  75
ENDBRANCH  55  69
BRANCH  56  79
ATOM     79  C   UNL A   1      43.630  31.915  30.758  1.00  0.00    -0.014 A 
ATOM     80  C   UNL A   1      43.181  31.409  32.005  1.00  0.00     0.010 A 
ATOM     81  C   UNL A   1      43.457  33.289  30.507  1.00  0.00     0.010 A 
ATOM     82  C   UNL A   1      42.743  32.268  33.026  1.00  0.00     0.020 A 
ATOM     83  C   UNL A   1      43.024  34.154  31.533  1.00  0.00     0.020 A 
ATOM     84  C   UNL A   1      42.725  33.645  32.803  1.00  0.00     0.054 A 
BRANCH  84  85
ATOM     85  S   UNL A   1      42.625  34.763  34.249  1.00  0.00     0.124 S 
ATOM     86  O   UNL A   1      41.318  34.442  34.808  1.00  0.00    -0.237 OA
ATOM     87  O   UNL A   1      43.774  34.359  35.063  1.00  0.00    -0.237 OA
ATOM     88  O   UNL A   1      42.756  36.091  33.658  1.00  0.00    -0.744 OA
ENDBRANCH  84  85
ENDBRANCH  56  79
BRANCH  68  89
ATOM     89  C   UNL A   1      48.256  26.300  31.285  1.00  0.00    -0.014 A 
ATOM     90  C   UNL A   1      47.927  25.847  32.570  1.00  0.00     0.010 A 
ATOM     91  C   UNL A   1      49.452  25.810  30.712  1.00  0.00     0.010 A 
ATOM     92  C   UNL A   1      48.793  25.022  33.287  1.00  0.00     0.020 A 
ATOM     93  C   UNL A   1      50.288  24.926  31.390  1.00  0.00     0.020 A 
ATOM     94  C   UNL A   1      49.970  24.573  32.693  1.00  0.00     0.054 A 
BRANCH  94  95
ATOM     95  S   UNL A   1      51.067  23.502  33.640  1.00  0.00     0.124 S 
ATOM     96  O   UNL A   1      51.392  24.352  34.782  1.00  0.00    -0.237 OA
ATOM     97  O   UNL A   1      50.215  22.352  33.935  1.00  0.00    -0.237 OA
ATOM     98  O   UNL A   1      52.170  23.234  32.721  1.00  0.00    -0.744 OA
ENDBRANCH  94  95
ENDBRANCH  68  89
ENDBRANCH  42  43
ENDBRANCH  35  37
ENDBRANCH  34  35
ENDBRANCH  33  34
ENDBRANCH  32  33
ENDBRANCH  31  32
ENDBRANCH   1  31
TORSDOF 22
ENDMDL
MODEL 3
REMARK VINA RESULT:      -8.8      5.292      9.367
REMARK SMILES Cc1ccccc1OCC(=O)Nc1ccc2c(c1)C(=O)N(CC(=O)OCCOCCOC(=O)c1ccc(-c3c4nc(c(-c5ccc(S(=O)(=O)[O-])cc5)c5ccc([nH]5)c(-c5ccc(S(=O)(=O)[O-])cc5)c5nc(c(-c6ccc(S(=O)(=O)[O-])cc6)c6ccc3[nH]6)C=C5)C=C4)cc1)C2=O
REMARK SMILES IDX 27 1 26 2 25 3 23 4 24 5 22 6 21 7 13 8 14 9 18 10 15 11
REMARK SMILES IDX 17 12 16 13 19 14 94 15 20 16 95 17 12 18 10 19 11 20 9 22
REMARK SMILES IDX 8 23 7 24 1 25 2 26 3 27 4 28 6 29 5 30 28 31 29 32 30 33
REMARK SMILES IDX 31 34 32 35 33 36 34 37 35 38 93 39 36 40 92 41 37 42 38 43
REMARK SMILES IDX 39 44 86 45 40 46 91 47 85 48 87 49 41 50 90 51 84 52 83 53
REMARK SMILES IDX 42 55 72 56 53 57 71 58 54 59 57 60 70 61 88 62 55 63 56 64
REMARK SMILES IDX 69 66 89 67 58 68 43 69 44 70 52 71 45 72 51 73 46 74 47 75
REMARK SMILES IDX 48 76 49 77 50 78 73 79 74 80 82 81 75 82 81 83 76 84 77 85
REMARK SMILES IDX 78 86 79 87 80 88 59 89 60 90 68 91 61 92 67 93 62 94 63 95
REMARK SMILES IDX 64 96 65 97 66 98
REMARK H PARENT 12 21 87 54 57 65
REMARK Flexibility Score: inf
ROOT
ATOM      1  C   UNL A   1      40.030  31.104  35.232  1.00  0.00     0.202 C 
ENDROOT
BRANCH   1   2
ATOM      2  C   UNL A   1      38.670  30.685  34.763  1.00  0.00     0.261 C 
BRANCH   2   3
ATOM      3  O   UNL A   1      38.616  30.687  33.331  1.00  0.00    -0.462 OA
BRANCH   3   4
ATOM      4  C   UNL A   1      37.453  31.041  32.712  1.00  0.00     0.326 C 
ATOM      5  O   UNL A   1      36.890  32.120  32.812  1.00  0.00    -0.250 OA
BRANCH   4   6
ATOM      6  C   UNL A   1      36.881  29.852  31.952  1.00  0.00     0.251 C 
BRANCH   6   7
ATOM      7  N   UNL A   1      37.898  29.440  31.005  1.00  0.00    -0.263 N 
ATOM      8  C   UNL A   1      40.333  26.837  28.160  1.00  0.00     0.042 A 
ATOM      9  C   UNL A   1      40.106  27.923  27.293  1.00  0.00     0.027 A 
ATOM     10  C   UNL A   1      39.828  26.832  29.456  1.00  0.00     0.040 A 
ATOM     11  C   UNL A   1      39.364  29.035  27.716  1.00  0.00     0.017 A 
ATOM     12  C   UNL A   1      39.162  27.965  29.862  1.00  0.00     0.055 A 
ATOM     13  C   UNL A   1      38.911  29.032  29.020  1.00  0.00     0.053 A 
ATOM     14  C   UNL A   1      38.567  28.257  31.157  1.00  0.00     0.262 C 
ATOM     15  C   UNL A   1      38.093  29.991  29.768  1.00  0.00     0.262 C 
ATOM     16  O   UNL A   1      38.678  27.549  32.130  1.00  0.00    -0.269 OA
ATOM     17  O   UNL A   1      37.681  31.048  29.325  1.00  0.00    -0.269 OA
BRANCH   8  18
ATOM     18  N   UNL A   1      41.059  25.715  27.758  1.00  0.00    -0.323 N 
ATOM     19  C   UNL A   1      40.517  24.637  27.108  1.00  0.00     0.262 C 
ATOM     20  O   UNL A   1      41.261  23.955  26.397  1.00  0.00    -0.271 OA
ATOM     21  H   UNL A   1      42.023  25.697  27.954  1.00  0.00     0.170 HD
BRANCH  19  22
ATOM     22  C   UNL A   1      39.001  24.380  27.157  1.00  0.00     0.329 C 
BRANCH  22  23
ATOM     23  O   UNL A   1      38.181  24.398  26.010  1.00  0.00    -0.483 OA
BRANCH  23  24
ATOM     24  C   UNL A   1      37.488  23.296  25.609  1.00  0.00     0.122 A 
ATOM     25  C   UNL A   1      35.104  24.260  25.284  1.00  0.00     0.048 C 
ATOM     26  C   UNL A   1      36.137  23.173  25.258  1.00  0.00    -0.009 A 
ATOM     27  C   UNL A   1      35.665  21.906  24.847  1.00  0.00     0.007 A 
ATOM     28  C   UNL A   1      36.485  20.779  24.845  1.00  0.00     0.001 A 
ATOM     29  C   UNL A   1      38.293  22.142  25.638  1.00  0.00     0.047 A 
ATOM     30  C   UNL A   1      37.803  20.894  25.258  1.00  0.00     0.004 A 
ENDBRANCH  23  24
ENDBRANCH  22  23
ENDBRANCH  19  22
ENDBRANCH   8  18
ENDBRANCH   6   7
ENDBRANCH   4   6
ENDBRANCH   3   4
ENDBRANCH   2   3
ENDBRANCH   1   2
BRANCH   1  31
ATOM     31  O   UNL A   1      39.824  31.571  36.566  1.00  0.00    -0.374 OA
BRANCH  31  32
ATOM     32  C   UNL A   1      40.223  32.895  36.854  1.00  0.00     0.202 C 
BRANCH  32  33
ATOM     33  C   UNL A   1      39.176  33.994  36.625  1.00  0.00     0.261 C 
BRANCH  33  34
ATOM     34  O   UNL A   1      39.579  34.960  35.628  1.00  0.00    -0.460 OA
BRANCH  34  35
ATOM     35  C   UNL A   1      39.058  34.803  34.374  1.00  0.00     0.338 C 
ATOM     36  O   UNL A   1      37.884  34.988  34.104  1.00  0.00    -0.246 OA
BRANCH  35  37
ATOM     37  C   UNL A   1      40.137  34.507  33.391  1.00  0.00     0.060 A 
ATOM     38  C   UNL A   1      41.448  34.981  33.555  1.00  0.00     0.016 A 
ATOM     39  C   UNL A   1      39.768  33.895  32.202  1.00  0.00     0.016 A 
ATOM     40  C   UNL A   1      42.341  34.968  32.470  1.00  0.00     0.010 A 
ATOM     41  C   UNL A   1      40.581  34.039  31.104  1.00  0.00     0.010 A 
ATOM     42  C   UNL A   1      41.879  34.554  31.224  1.00  0.00    -0.014 A 
BRANCH  42  43
ATOM     43  C   UNL A   1      42.624  34.515  29.965  1.00  0.00     0.031 A 
ATOM     44  C   UNL A   1      43.422  33.284  29.723  1.00  0.00     0.074 A 
ATOM     45  C   UNL A   1      42.385  35.391  28.956  1.00  0.00     0.049 A 
ATOM     46  N   UNL A   1      44.316  33.175  28.807  1.00  0.00    -0.248 NA
ATOM     47  C   UNL A   1      43.300  32.055  30.519  1.00  0.00     0.031 C 
ATOM     48  C   UNL A   1      42.643  35.222  27.525  1.00  0.00     0.029 A 
ATOM     49  N   UNL A   1      41.841  36.681  29.003  1.00  0.00    -0.354 N 
ATOM     50  C   UNL A   1      44.580  31.833  28.648  1.00  0.00     0.074 A 
ATOM     51  C   UNL A   1      44.022  31.191  29.805  1.00  0.00     0.031 C 
ATOM     52  C   UNL A   1      42.578  36.421  26.913  1.00  0.00     0.029 A 
ATOM     53  C   UNL A   1      42.389  37.425  27.951  1.00  0.00     0.049 A 
ATOM     54  H   UNL A   1      41.185  37.008  29.661  1.00  0.00     0.167 HD
ATOM     55  C   UNL A   1      45.091  31.411  27.461  1.00  0.00     0.031 A 
ATOM     56  C   UNL A   1      43.139  38.531  28.207  1.00  0.00     0.031 A 
ATOM     57  C   UNL A   1      45.342  32.557  26.578  1.00  0.00     0.049 A 
ATOM     58  C   UNL A   1      44.539  38.244  27.746  1.00  0.00     0.074 A 
ATOM     59  C   UNL A   1      44.664  33.070  25.486  1.00  0.00     0.029 A 
ATOM     60  N   UNL A   1      46.194  33.566  27.019  1.00  0.00    -0.354 N 
ATOM     61  N   UNL A   1      44.996  37.026  27.621  1.00  0.00    -0.248 NA
ATOM     62  C   UNL A   1      45.487  39.247  27.281  1.00  0.00     0.031 C 
ATOM     63  C   UNL A   1      45.065  34.429  25.325  1.00  0.00     0.029 A 
ATOM     64  C   UNL A   1      46.002  34.732  26.302  1.00  0.00     0.049 A 
ATOM     65  H   UNL A   1      46.850  33.464  27.748  1.00  0.00     0.167 HD
ATOM     66  C   UNL A   1      46.189  37.050  26.973  1.00  0.00     0.074 A 
ATOM     67  C   UNL A   1      46.487  38.466  26.828  1.00  0.00     0.031 C 
ATOM     68  C   UNL A   1      46.823  35.910  26.576  1.00  0.00     0.031 A 
BRANCH  55  69
ATOM     69  C   UNL A   1      45.108  29.968  27.005  1.00  0.00    -0.014 A 
ATOM     70  C   UNL A   1      46.347  29.340  26.763  1.00  0.00     0.010 A 
ATOM     71  C   UNL A   1      43.963  29.178  26.776  1.00  0.00     0.010 A 
ATOM     72  C   UNL A   1      46.439  28.023  26.287  1.00  0.00     0.020 A 
ATOM     73  C   UNL A   1      44.037  27.867  26.273  1.00  0.00     0.020 A 
ATOM     74  C   UNL A   1      45.279  27.294  26.038  1.00  0.00     0.054 A 
BRANCH  74  75
ATOM     75  S   UNL A   1      45.420  25.587  25.451  1.00  0.00     0.124 S 
ATOM     76  O   UNL A   1      46.418  25.698  24.391  1.00  0.00    -0.237 OA
ATOM     77  O   UNL A   1      45.854  24.880  26.654  1.00  0.00    -0.237 OA
ATOM     78  O   UNL A   1      44.070  25.262  24.996  1.00  0.00    -0.744 OA
ENDBRANCH  74  75
ENDBRANCH  55  69
BRANCH  56  79
ATOM     79  C   UNL A   1      42.666  39.279  29.423  1.00  0.00    -0.014 A 
ATOM     80  C   UNL A   1      43.524  39.271  30.552  1.00  0.00     0.010 A 
ATOM     81  C   UNL A   1      41.743  40.334  29.307  1.00  0.00     0.010 A 
ATOM     82  C   UNL A   1      43.581  40.364  31.433  1.00  0.00     0.020 A 
ATOM     83  C   UNL A   1      41.804  41.436  30.186  1.00  0.00     0.020 A 
ATOM     84  C   UNL A   1      42.760  41.469  31.208  1.00  0.00     0.054 A 
BRANCH  84  85
ATOM     85  S   UNL A   1      43.171  43.047  32.042  1.00  0.00     0.124 S 
ATOM     86  O   UNL A   1      44.571  42.859  32.404  1.00  0.00    -0.237 OA
ATOM     87  O   UNL A   1      42.918  44.048  31.003  1.00  0.00    -0.237 OA
ATOM     88  O   UNL A   1      42.228  43.095  33.154  1.00  0.00    -0.744 OA
ENDBRANCH  84  85
ENDBRANCH  56  79
BRANCH  68  89
ATOM     89  C   UNL A   1      48.303  35.824  26.340  1.00  0.00    -0.014 A 
ATOM     90  C   UNL A   1      49.254  36.244  27.279  1.00  0.00     0.010 A 
ATOM     91  C   UNL A   1      48.778  35.139  25.198  1.00  0.00     0.010 A 
ATOM     92  C   UNL A   1      50.619  36.076  27.048  1.00  0.00     0.020 A 
ATOM     93  C   UNL A   1      50.135  34.898  24.993  1.00  0.00     0.020 A 
ATOM     94  C   UNL A   1      51.048  35.409  25.903  1.00  0.00     0.054 A 
BRANCH  94  95
ATOM     95  S   UNL A   1      52.817  35.198  25.634  1.00  0.00     0.124 S 
ATOM     96  O   UNL A   1      53.235  34.592  26.895  1.00  0.00    -0.237 OA
ATOM     97  O   UNL A   1      52.862  34.317  24.468  1.00  0.00    -0.237 OA
ATOM     98  O   UNL A   1      53.298  36.557  25.399  1.00  0.00    -0.744 OA
ENDBRANCH  94  95
ENDBRANCH  68  89
ENDBRANCH  42  43
ENDBRANCH  35  37
ENDBRANCH  34  35
ENDBRANCH  33  34
ENDBRANCH  32  33
ENDBRANCH  31  32
ENDBRANCH   1  31
TORSDOF 22
ENDMDL
