MODEL 1
REMARK VINA RESULT:      -9.6      0.000      0.000
REMARK SMILES CC[C@H](C)[C@@H](NC(=O)c1csc(NC(C)=O)n1)C(=O)OCCOCCOC(=O)c1ccc(-c2c3nc(c(-c4ccc(S(=O)(=O)[O-])cc4)c4ccc([nH]4)c(-c4ccc(S(=O)(=O)[O-])cc4)c4nc(c(-c5ccc(S(=O)(=O)[O-])cc5)c5ccc2[nH]5)C=C4)C=C3)cc1
REMARK SMILES IDX 23 1 22 2 21 3 20 4 18 5 19 6 5 7 3 8 4 9 2 10 1 11 6 12
REMARK SMILES IDX 7 13 8 15 9 16 10 17 17 18 11 19 12 20 13 21 14 22 15 24
REMARK SMILES IDX 16 25 24 26 25 27 26 28 27 29 28 30 29 31 30 32 88 33 31 34
REMARK SMILES IDX 87 35 32 36 33 37 34 38 81 39 35 40 86 41 80 42 82 43 36 44
REMARK SMILES IDX 85 45 79 46 78 47 37 49 67 50 48 51 66 52 49 53 52 54 65 55
REMARK SMILES IDX 83 56 50 57 51 58 64 60 84 61 53 62 38 63 39 64 47 65 40 66
REMARK SMILES IDX 46 67 41 68 42 69 43 70 44 71 45 72 68 73 69 74 77 75 70 76
REMARK SMILES IDX 76 77 71 78 72 79 73 80 74 81 75 82 54 83 55 84 63 85 56 86
REMARK SMILES IDX 62 87 57 88 58 89 59 90 60 91 61 92
REMARK H PARENT 6 14 13 23 82 48 52 59
REMARK Flexibility Score: inf
ROOT
ATOM      1  O   UNL A   1      33.293  31.103  27.486  1.00  0.00    -0.374 OA
ENDROOT
BRANCH   1   2
ATOM      2  C   UNL A   1      33.125  30.260  26.372  1.00  0.00     0.202 C 
BRANCH   2   3
ATOM      3  C   UNL A   1      32.267  28.991  26.453  1.00  0.00     0.261 C 
BRANCH   3   4
ATOM      4  O   UNL A   1      32.288  28.021  25.405  1.00  0.00    -0.462 OA
BRANCH   4   5
ATOM      5  C   UNL A   1      31.343  27.044  25.458  1.00  0.00     0.329 C 
ATOM      6  O   UNL A   1      30.753  26.686  26.472  1.00  0.00    -0.250 OA
BRANCH   5   7
ATOM      7  C   UNL A   1      31.099  26.411  24.075  1.00  0.00     0.195 C 
BRANCH   7   8
ATOM      8  C   UNL A   1      29.813  27.050  23.424  1.00  0.00     0.019 C 
ATOM      9  C   UNL A   1      28.476  26.507  23.961  1.00  0.00     0.010 C 
BRANCH   8  10
ATOM     10  C   UNL A   1      29.746  28.597  23.467  1.00  0.00     0.002 C 
ATOM     11  C   UNL A   1      30.554  29.343  22.418  1.00  0.00     0.004 C 
ENDBRANCH   8  10
ENDBRANCH   7   8
BRANCH   7  12
ATOM     12  N   UNL A   1      32.250  26.532  23.147  1.00  0.00    -0.337 N 
ATOM     13  C   UNL A   1      33.296  25.718  22.785  1.00  0.00     0.271 C 
ATOM     14  H   UNL A   1      32.268  27.398  22.680  1.00  0.00     0.164 HD
ATOM     15  O   UNL A   1      33.806  25.948  21.687  1.00  0.00    -0.267 OA
BRANCH  13  16
ATOM     16  C   UNL A   1      33.896  24.757  23.707  1.00  0.00     0.141 A 
ATOM     17  C   UNL A   1      33.574  23.408  23.662  1.00  0.00     0.102 A 
ATOM     18  N   UNL A   1      34.823  25.074  24.688  1.00  0.00    -0.215 NA
ATOM     19  S   UNL A   1      34.529  22.531  24.779  1.00  0.00    -0.104 S 
ATOM     20  C   UNL A   1      35.329  23.973  25.200  1.00  0.00     0.190 A 
BRANCH  20  21
ATOM     21  N   UNL A   1      36.499  24.006  25.921  1.00  0.00    -0.302 N 
ATOM     22  C   UNL A   1      37.604  23.207  25.727  1.00  0.00     0.223 C 
ATOM     23  H   UNL A   1      36.553  24.668  26.647  1.00  0.00     0.172 HD
ATOM     24  C   UNL A   1      38.797  23.627  26.554  1.00  0.00     0.114 C 
ATOM     25  O   UNL A   1      37.713  22.267  24.947  1.00  0.00    -0.275 OA
ENDBRANCH  20  21
ENDBRANCH  13  16
ENDBRANCH   7  12
ENDBRANCH   5   7
ENDBRANCH   4   5
ENDBRANCH   3   4
ENDBRANCH   2   3
ENDBRANCH   1   2
BRANCH   1  26
ATOM     26  C   UNL A   1      34.575  31.592  27.845  1.00  0.00     0.202 C 
BRANCH  26  27
ATOM     27  C   UNL A   1      35.348  31.213  29.124  1.00  0.00     0.261 C 
BRANCH  27  28
ATOM     28  O   UNL A   1      35.975  29.935  29.171  1.00  0.00    -0.460 OA
BRANCH  28  29
ATOM     29  C   UNL A   1      36.758  29.741  30.262  1.00  0.00     0.338 C 
ATOM     30  O   UNL A   1      36.399  29.407  31.375  1.00  0.00    -0.246 OA
BRANCH  29  31
ATOM     31  C   UNL A   1      38.167  29.824  29.847  1.00  0.00     0.060 A 
ATOM     32  C   UNL A   1      38.458  29.803  28.477  1.00  0.00     0.016 A 
ATOM     33  C   UNL A   1      39.186  29.858  30.798  1.00  0.00     0.016 A 
ATOM     34  C   UNL A   1      39.782  29.764  28.053  1.00  0.00     0.010 A 
ATOM     35  C   UNL A   1      40.514  29.801  30.372  1.00  0.00     0.010 A 
ATOM     36  C   UNL A   1      40.811  29.707  29.000  1.00  0.00    -0.014 A 
BRANCH  36  37
ATOM     37  C   UNL A   1      42.174  29.334  28.563  1.00  0.00     0.031 A 
ATOM     38  C   UNL A   1      42.422  27.908  28.146  1.00  0.00     0.074 A 
ATOM     39  C   UNL A   1      43.156  30.250  28.502  1.00  0.00     0.049 A 
ATOM     40  N   UNL A   1      43.528  27.344  27.740  1.00  0.00    -0.248 NA
ATOM     41  C   UNL A   1      41.265  26.996  28.199  1.00  0.00     0.031 C 
ATOM     42  C   UNL A   1      43.013  31.666  28.834  1.00  0.00     0.029 A 
ATOM     43  N   UNL A   1      44.470  30.119  28.134  1.00  0.00    -0.354 N 
ATOM     44  C   UNL A   1      43.205  26.013  27.499  1.00  0.00     0.074 A 
ATOM     45  C   UNL A   1      41.809  25.845  27.835  1.00  0.00     0.031 C 
ATOM     46  C   UNL A   1      44.199  32.276  28.657  1.00  0.00     0.029 A 
ATOM     47  C   UNL A   1      45.187  31.287  28.231  1.00  0.00     0.049 A 
ATOM     48  H   UNL A   1      44.863  29.270  27.829  1.00  0.00     0.167 HD
ATOM     49  C   UNL A   1      44.000  25.023  27.032  1.00  0.00     0.031 A 
ATOM     50  C   UNL A   1      46.496  31.523  28.016  1.00  0.00     0.031 A 
ATOM     51  C   UNL A   1      45.391  25.200  26.711  1.00  0.00     0.049 A 
ATOM     52  C   UNL A   1      47.377  30.388  27.563  1.00  0.00     0.074 A 
ATOM     53  C   UNL A   1      46.285  24.268  26.216  1.00  0.00     0.029 A 
ATOM     54  N   UNL A   1      46.089  26.389  26.859  1.00  0.00    -0.354 N 
ATOM     55  N   UNL A   1      47.053  29.139  27.315  1.00  0.00    -0.248 NA
ATOM     56  C   UNL A   1      48.798  30.695  27.352  1.00  0.00     0.031 C 
ATOM     57  C   UNL A   1      47.540  24.877  26.124  1.00  0.00     0.029 A 
ATOM     58  C   UNL A   1      47.412  26.208  26.495  1.00  0.00     0.049 A 
ATOM     59  H   UNL A   1      45.702  27.236  27.177  1.00  0.00     0.167 HD
ATOM     60  C   UNL A   1      48.224  28.521  26.889  1.00  0.00     0.074 A 
ATOM     61  C   UNL A   1      49.259  29.535  26.901  1.00  0.00     0.031 C 
ATOM     62  C   UNL A   1      48.426  27.232  26.518  1.00  0.00     0.031 A 
BRANCH  49  63
ATOM     63  C   UNL A   1      43.392  23.653  26.882  1.00  0.00    -0.014 A 
ATOM     64  C   UNL A   1      42.926  23.190  25.637  1.00  0.00     0.010 A 
ATOM     65  C   UNL A   1      43.313  22.802  27.999  1.00  0.00     0.010 A 
ATOM     66  C   UNL A   1      42.358  21.917  25.523  1.00  0.00     0.020 A 
ATOM     67  C   UNL A   1      42.773  21.518  27.883  1.00  0.00     0.020 A 
ATOM     68  C   UNL A   1      42.283  21.090  26.647  1.00  0.00     0.054 A 
BRANCH  68  69
ATOM     69  S   UNL A   1      41.564  19.436  26.465  1.00  0.00     0.124 S 
ATOM     70  O   UNL A   1      41.718  18.890  27.812  1.00  0.00    -0.237 OA
ATOM     71  O   UNL A   1      40.190  19.726  26.059  1.00  0.00    -0.237 OA
ATOM     72  O   UNL A   1      42.393  18.806  25.440  1.00  0.00    -0.744 OA
ENDBRANCH  68  69
ENDBRANCH  49  63
BRANCH  50  73
ATOM     73  C   UNL A   1      47.054  32.886  28.238  1.00  0.00    -0.014 A 
ATOM     74  C   UNL A   1      47.131  33.814  27.185  1.00  0.00     0.010 A 
ATOM     75  C   UNL A   1      47.510  33.264  29.515  1.00  0.00     0.010 A 
ATOM     76  C   UNL A   1      47.671  35.087  27.400  1.00  0.00     0.020 A 
ATOM     77  C   UNL A   1      48.022  34.544  29.740  1.00  0.00     0.020 A 
ATOM     78  C   UNL A   1      48.110  35.444  28.678  1.00  0.00     0.054 A 
BRANCH  78  79
ATOM     79  S   UNL A   1      48.763  37.117  28.943  1.00  0.00     0.124 S 
ATOM     80  O   UNL A   1      49.748  37.231  27.873  1.00  0.00    -0.237 OA
ATOM     81  O   UNL A   1      47.569  37.947  28.797  1.00  0.00    -0.237 OA
ATOM     82  O   UNL A   1      49.311  37.060  30.296  1.00  0.00    -0.744 OA
ENDBRANCH  78  79
ENDBRANCH  50  73
BRANCH  62  83
ATOM     83  C   UNL A   1      49.809  26.851  26.058  1.00  0.00    -0.014 A 
ATOM     84  C   UNL A   1      50.237  27.098  24.742  1.00  0.00     0.010 A 
ATOM     85  C   UNL A   1      50.714  26.292  26.980  1.00  0.00     0.010 A 
ATOM     86  C   UNL A   1      51.535  26.762  24.348  1.00  0.00     0.020 A 
ATOM     87  C   UNL A   1      52.021  25.984  26.598  1.00  0.00     0.020 A 
ATOM     88  C   UNL A   1      52.419  26.208  25.280  1.00  0.00     0.054 A 
BRANCH  88  89
ATOM     89  S   UNL A   1      54.112  25.822  24.754  1.00  0.00     0.124 S 
ATOM     90  O   UNL A   1      54.906  26.663  25.644  1.00  0.00    -0.237 OA
ATOM     91  O   UNL A   1      54.202  24.385  24.999  1.00  0.00    -0.237 OA
ATOM     92  O   UNL A   1      54.134  26.210  23.345  1.00  0.00    -0.744 OA
ENDBRANCH  88  89
ENDBRANCH  62  83
ENDBRANCH  36  37
ENDBRANCH  29  31
ENDBRANCH  28  29
ENDBRANCH  27  28
ENDBRANCH  26  27
ENDBRANCH   1  26
TORSDOF 22
ENDMDL
MODEL 2
REMARK VINA RESULT:      -9.5      1.175      8.245
REMARK SMILES CC[C@H](C)[C@@H](NC(=O)c1csc(NC(C)=O)n1)C(=O)OCCOCCOC(=O)c1ccc(-c2c3nc(c(-c4ccc(S(=O)(=O)[O-])cc4)c4ccc([nH]4)c(-c4ccc(S(=O)(=O)[O-])cc4)c4nc(c(-c5ccc(S(=O)(=O)[O-])cc5)c5ccc2[nH]5)C=C4)C=C3)cc1
REMARK SMILES IDX 23 1 22 2 21 3 20 4 18 5 19 6 5 7 3 8 4 9 2 10 1 11 6 12
REMARK SMILES IDX 7 13 8 15 9 16 10 17 17 18 11 19 12 20 13 21 14 22 15 24
REMARK SMILES IDX 16 25 24 26 25 27 26 28 27 29 28 30 29 31 30 32 88 33 31 34
REMARK SMILES IDX 87 35 32 36 33 37 34 38 81 39 35 40 86 41 80 42 82 43 36 44
REMARK SMILES IDX 85 45 79 46 78 47 37 49 67 50 48 51 66 52 49 53 52 54 65 55
REMARK SMILES IDX 83 56 50 57 51 58 64 60 84 61 53 62 38 63 39 64 47 65 40 66
REMARK SMILES IDX 46 67 41 68 42 69 43 70 44 71 45 72 68 73 69 74 77 75 70 76
REMARK SMILES IDX 76 77 71 78 72 79 73 80 74 81 75 82 54 83 55 84 63 85 56 86
REMARK SMILES IDX 62 87 57 88 58 89 59 90 60 91 61 92
REMARK H PARENT 6 14 13 23 82 48 52 59
REMARK Flexibility Score: inf
ROOT
ATOM      1  O   UNL A   1      33.558  30.007  26.747  1.00  0.00    -0.374 OA
ENDROOT
BRANCH   1   2
ATOM      2  C   UNL A   1      33.248  28.731  27.253  1.00  0.00     0.202 C 
BRANCH   2   3
ATOM      3  C   UNL A   1      31.800  28.319  27.547  1.00  0.00     0.261 C 
BRANCH   3   4
ATOM      4  O   UNL A   1      31.226  27.162  26.937  1.00  0.00    -0.462 OA
BRANCH   4   5
ATOM      5  C   UNL A   1      31.251  27.112  25.579  1.00  0.00     0.329 C 
ATOM      6  O   UNL A   1      30.805  27.977  24.831  1.00  0.00    -0.250 OA
BRANCH   5   7
ATOM      7  C   UNL A   1      31.904  25.814  25.067  1.00  0.00     0.195 C 
BRANCH   7   8
ATOM      8  C   UNL A   1      30.783  24.755  24.740  1.00  0.00     0.019 C 
ATOM      9  C   UNL A   1      30.653  24.389  23.250  1.00  0.00     0.010 C 
BRANCH   8  10
ATOM     10  C   UNL A   1      30.861  23.434  25.544  1.00  0.00     0.002 C 
ATOM     11  C   UNL A   1      32.011  23.305  26.529  1.00  0.00     0.004 C 
ENDBRANCH   8  10
ENDBRANCH   7   8
BRANCH   7  12
ATOM     12  N   UNL A   1      32.779  26.006  23.885  1.00  0.00    -0.337 N 
ATOM     13  C   UNL A   1      33.657  25.213  23.187  1.00  0.00     0.271 C 
ATOM     14  H   UNL A   1      32.715  26.915  23.513  1.00  0.00     0.164 HD
ATOM     15  O   UNL A   1      33.875  25.544  22.019  1.00  0.00    -0.267 OA
BRANCH  13  16
ATOM     16  C   UNL A   1      34.431  24.153  23.825  1.00  0.00     0.141 A 
ATOM     17  C   UNL A   1      34.220  22.815  23.522  1.00  0.00     0.102 A 
ATOM     18  N   UNL A   1      35.430  24.356  24.764  1.00  0.00    -0.215 NA
ATOM     19  S   UNL A   1      35.360  21.832  24.336  1.00  0.00    -0.104 S 
ATOM     20  C   UNL A   1      36.079  23.233  24.983  1.00  0.00     0.190 A 
BRANCH  20  21
ATOM     21  N   UNL A   1      37.313  23.240  25.586  1.00  0.00    -0.302 N 
ATOM     22  C   UNL A   1      38.153  22.160  25.750  1.00  0.00     0.223 C 
ATOM     23  H   UNL A   1      37.630  24.104  25.936  1.00  0.00     0.172 HD
ATOM     24  C   UNL A   1      39.518  22.539  26.274  1.00  0.00     0.114 C 
ATOM     25  O   UNL A   1      37.918  20.988  25.473  1.00  0.00    -0.275 OA
ENDBRANCH  20  21
ENDBRANCH  13  16
ENDBRANCH   7  12
ENDBRANCH   5   7
ENDBRANCH   4   5
ENDBRANCH   3   4
ENDBRANCH   2   3
ENDBRANCH   1   2
BRANCH   1  26
ATOM     26  C   UNL A   1      33.596  31.141  27.598  1.00  0.00     0.202 C 
BRANCH  26  27
ATOM     27  C   UNL A   1      34.834  31.634  28.373  1.00  0.00     0.261 C 
BRANCH  27  28
ATOM     28  O   UNL A   1      35.638  30.661  29.035  1.00  0.00    -0.460 OA
BRANCH  28  29
ATOM     29  C   UNL A   1      36.719  31.176  29.672  1.00  0.00     0.338 C 
ATOM     30  O   UNL A   1      36.730  32.067  30.499  1.00  0.00    -0.246 OA
BRANCH  29  31
ATOM     31  C   UNL A   1      37.893  30.354  29.338  1.00  0.00     0.060 A 
ATOM     32  C   UNL A   1      38.797  30.040  30.360  1.00  0.00     0.016 A 
ATOM     33  C   UNL A   1      38.129  29.955  28.022  1.00  0.00     0.016 A 
ATOM     34  C   UNL A   1      39.974  29.365  30.058  1.00  0.00     0.010 A 
ATOM     35  C   UNL A   1      39.319  29.293  27.718  1.00  0.00     0.010 A 
ATOM     36  C   UNL A   1      40.263  29.039  28.728  1.00  0.00    -0.014 A 
BRANCH  36  37
ATOM     37  C   UNL A   1      41.639  28.628  28.369  1.00  0.00     0.031 A 
ATOM     38  C   UNL A   1      42.716  29.681  28.363  1.00  0.00     0.074 A 
ATOM     39  C   UNL A   1      41.928  27.345  28.092  1.00  0.00     0.049 A 
ATOM     40  N   UNL A   1      43.984  29.566  28.071  1.00  0.00    -0.248 NA
ATOM     41  C   UNL A   1      42.304  31.047  28.733  1.00  0.00     0.031 C 
ATOM     42  C   UNL A   1      40.973  26.239  28.117  1.00  0.00     0.029 A 
ATOM     43  N   UNL A   1      43.116  26.760  27.739  1.00  0.00    -0.354 N 
ATOM     44  C   UNL A   1      44.519  30.842  28.212  1.00  0.00     0.074 A 
ATOM     45  C   UNL A   1      43.433  31.721  28.583  1.00  0.00     0.031 C 
ATOM     46  C   UNL A   1      41.615  25.103  27.788  1.00  0.00     0.029 A 
ATOM     47  C   UNL A   1      43.014  25.410  27.500  1.00  0.00     0.049 A 
ATOM     48  H   UNL A   1      43.961  27.258  27.663  1.00  0.00     0.167 HD
ATOM     49  C   UNL A   1      45.802  31.243  28.054  1.00  0.00     0.031 A 
ATOM     50  C   UNL A   1      43.944  24.530  27.079  1.00  0.00     0.031 A 
ATOM     51  C   UNL A   1      46.872  30.360  27.674  1.00  0.00     0.049 A 
ATOM     52  C   UNL A   1      45.351  25.013  26.842  1.00  0.00     0.074 A 
ATOM     53  C   UNL A   1      48.211  30.657  27.500  1.00  0.00     0.029 A 
ATOM     54  N   UNL A   1      46.721  29.008  27.404  1.00  0.00    -0.354 N 
ATOM     55  N   UNL A   1      45.849  26.218  27.003  1.00  0.00    -0.248 NA
ATOM     56  C   UNL A   1      46.325  24.018  26.375  1.00  0.00     0.031 C 
ATOM     57  C   UNL A   1      48.860  29.497  27.064  1.00  0.00     0.029 A 
ATOM     58  C   UNL A   1      47.938  28.462  27.034  1.00  0.00     0.049 A 
ATOM     59  H   UNL A   1      45.874  28.510  27.465  1.00  0.00     0.167 HD
ATOM     60  C   UNL A   1      47.199  26.116  26.687  1.00  0.00     0.074 A 
ATOM     61  C   UNL A   1      47.442  24.731  26.338  1.00  0.00     0.031 C 
ATOM     62  C   UNL A   1      48.155  27.080  26.688  1.00  0.00     0.031 A 
BRANCH  49  63
ATOM     63  C   UNL A   1      46.105  32.705  28.251  1.00  0.00    -0.014 A 
ATOM     64  C   UNL A   1      46.496  33.210  29.505  1.00  0.00     0.010 A 
ATOM     65  C   UNL A   1      46.028  33.584  27.155  1.00  0.00     0.010 A 
ATOM     66  C   UNL A   1      46.766  34.572  29.666  1.00  0.00     0.020 A 
ATOM     67  C   UNL A   1      46.325  34.941  27.306  1.00  0.00     0.020 A 
ATOM     68  C   UNL A   1      46.677  35.430  28.566  1.00  0.00     0.054 A 
BRANCH  68  69
ATOM     69  S   UNL A   1      47.056  37.188  28.799  1.00  0.00     0.124 S 
ATOM     70  O   UNL A   1      46.714  37.745  27.492  1.00  0.00    -0.237 OA
ATOM     71  O   UNL A   1      46.166  37.565  29.895  1.00  0.00    -0.237 OA
ATOM     72  O   UNL A   1      48.479  37.197  29.125  1.00  0.00    -0.744 OA
ENDBRANCH  68  69
ENDBRANCH  49  63
BRANCH  50  73
ATOM     73  C   UNL A   1      43.571  23.108  26.844  1.00  0.00    -0.014 A 
ATOM     74  C   UNL A   1      42.907  22.363  27.834  1.00  0.00     0.010 A 
ATOM     75  C   UNL A   1      43.879  22.489  25.617  1.00  0.00     0.010 A 
ATOM     76  C   UNL A   1      42.575  21.023  27.610  1.00  0.00     0.020 A 
ATOM     77  C   UNL A   1      43.522  21.160  25.379  1.00  0.00     0.020 A 
ATOM     78  C   UNL A   1      42.882  20.431  26.382  1.00  0.00     0.054 A 
BRANCH  78  79
ATOM     79  S   UNL A   1      42.398  18.705  26.096  1.00  0.00     0.124 S 
ATOM     80  O   UNL A   1      42.683  18.093  27.390  1.00  0.00    -0.237 OA
ATOM     81  O   UNL A   1      40.983  18.828  25.751  1.00  0.00    -0.237 OA
ATOM     82  O   UNL A   1      43.265  18.284  24.999  1.00  0.00    -0.744 OA
ENDBRANCH  78  79
ENDBRANCH  50  73
BRANCH  62  83
ATOM     83  C   UNL A   1      49.560  26.664  26.337  1.00  0.00    -0.014 A 
ATOM     84  C   UNL A   1      50.023  26.697  25.011  1.00  0.00     0.010 A 
ATOM     85  C   UNL A   1      50.448  26.295  27.365  1.00  0.00     0.010 A 
ATOM     86  C   UNL A   1      51.340  26.336  24.714  1.00  0.00     0.020 A 
ATOM     87  C   UNL A   1      51.773  25.963  27.076  1.00  0.00     0.020 A 
ATOM     88  C   UNL A   1      52.207  25.972  25.750  1.00  0.00     0.054 A 
BRANCH  88  89
ATOM     89  S   UNL A   1      53.923  25.550  25.342  1.00  0.00     0.124 S 
ATOM     90  O   UNL A   1      53.908  25.588  23.883  1.00  0.00    -0.237 OA
ATOM     91  O   UNL A   1      54.678  26.619  25.991  1.00  0.00    -0.237 OA
ATOM     92  O   UNL A   1      54.103  24.224  25.930  1.00  0.00    -0.744 OA
ENDBRANCH  88  89
ENDBRANCH  62  83
ENDBRANCH  36  37
ENDBRANCH  29  31
ENDBRANCH  28  29
ENDBRANCH  27  28
ENDBRANCH  26  27
ENDBRANCH   1  26
TORSDOF 22
ENDMDL
MODEL 3
REMARK VINA RESULT:      -9.3      6.790     11.972
REMARK SMILES CC[C@H](C)[C@@H](NC(=O)c1csc(NC(C)=O)n1)C(=O)OCCOCCOC(=O)c1ccc(-c2c3nc(c(-c4ccc(S(=O)(=O)[O-])cc4)c4ccc([nH]4)c(-c4ccc(S(=O)(=O)[O-])cc4)c4nc(c(-c5ccc(S(=O)(=O)[O-])cc5)c5ccc2[nH]5)C=C4)C=C3)cc1
REMARK SMILES IDX 23 1 22 2 21 3 20 4 18 5 19 6 5 7 3 8 4 9 2 10 1 11 6 12
REMARK SMILES IDX 7 13 8 15 9 16 10 17 17 18 11 19 12 20 13 21 14 22 15 24
REMARK SMILES IDX 16 25 24 26 25 27 26 28 27 29 28 30 29 31 30 32 88 33 31 34
REMARK SMILES IDX 87 35 32 36 33 37 34 38 81 39 35 40 86 41 80 42 82 43 36 44
REMARK SMILES IDX 85 45 79 46 78 47 37 49 67 50 48 51 66 52 49 53 52 54 65 55
REMARK SMILES IDX 83 56 50 57 51 58 64 60 84 61 53 62 38 63 39 64 47 65 40 66
REMARK SMILES IDX 46 67 41 68 42 69 43 70 44 71 45 72 68 73 69 74 77 75 70 76
REMARK SMILES IDX 76 77 71 78 72 79 73 80 74 81 75 82 54 83 55 84 63 85 56 86
REMARK SMILES IDX 62 87 57 88 58 89 59 90 60 91 61 92
REMARK H PARENT 6 14 13 23 82 48 52 59
REMARK Flexibility Score: inf
ROOT
ATOM      1  O   UNL A   1      38.830  22.326  26.516  1.00  0.00    -0.374 OA
ENDROOT
BRANCH   1   2
ATOM      2  C   UNL A   1      38.423  21.589  25.389  1.00  0.00     0.202 C 
BRANCH   2   3
ATOM      3  C   UNL A   1      37.078  21.858  24.702  1.00  0.00     0.261 C 
BRANCH   3   4
ATOM      4  O   UNL A   1      36.062  20.855  24.656  1.00  0.00    -0.462 OA
BRANCH   4   5
ATOM      5  C   UNL A   1      35.054  20.966  25.562  1.00  0.00     0.329 C 
ATOM      6  O   UNL A   1      35.162  21.448  26.685  1.00  0.00    -0.250 OA
BRANCH   5   7
ATOM      7  C   UNL A   1      33.732  20.393  25.017  1.00  0.00     0.195 C 
BRANCH   7   8
ATOM      8  C   UNL A   1      33.720  18.827  25.204  1.00  0.00     0.019 C 
ATOM      9  C   UNL A   1      32.328  18.175  25.123  1.00  0.00     0.010 C 
BRANCH   8  10
ATOM     10  C   UNL A   1      34.665  18.038  24.264  1.00  0.00     0.002 C 
ATOM     11  C   UNL A   1      34.282  16.598  23.968  1.00  0.00     0.004 C 
ENDBRANCH   8  10
ENDBRANCH   7   8
BRANCH   7  12
ATOM     12  N   UNL A   1      32.520  20.985  25.634  1.00  0.00    -0.337 N 
ATOM     13  C   UNL A   1      31.819  22.156  25.471  1.00  0.00     0.271 C 
ATOM     14  H   UNL A   1      32.125  20.403  26.322  1.00  0.00     0.164 HD
ATOM     15  O   UNL A   1      30.638  22.132  25.820  1.00  0.00    -0.267 OA
BRANCH  13  16
ATOM     16  C   UNL A   1      32.464  23.406  25.081  1.00  0.00     0.141 A 
ATOM     17  C   UNL A   1      32.598  23.771  23.749  1.00  0.00     0.102 A 
ATOM     18  N   UNL A   1      32.989  24.336  25.966  1.00  0.00    -0.215 NA
ATOM     19  S   UNL A   1      33.280  25.337  23.626  1.00  0.00    -0.104 S 
ATOM     20  C   UNL A   1      33.300  25.441  25.324  1.00  0.00     0.190 A 
BRANCH  20  21
ATOM     21  N   UNL A   1      33.500  26.617  26.007  1.00  0.00    -0.302 N 
ATOM     22  C   UNL A   1      32.527  27.499  26.425  1.00  0.00     0.223 C 
ATOM     23  H   UNL A   1      34.432  26.853  26.220  1.00  0.00     0.172 HD
ATOM     24  C   UNL A   1      33.059  28.594  27.320  1.00  0.00     0.114 C 
ATOM     25  O   UNL A   1      31.325  27.445  26.188  1.00  0.00    -0.275 OA
ENDBRANCH  20  21
ENDBRANCH  13  16
ENDBRANCH   7  12
ENDBRANCH   5   7
ENDBRANCH   4   5
ENDBRANCH   3   4
ENDBRANCH   2   3
ENDBRANCH   1   2
BRANCH   1  26
ATOM     26  C   UNL A   1      40.205  22.507  26.814  1.00  0.00     0.202 C 
BRANCH  26  27
ATOM     27  C   UNL A   1      40.763  23.408  27.934  1.00  0.00     0.261 C 
BRANCH  27  28
ATOM     28  O   UNL A   1      41.310  24.671  27.565  1.00  0.00    -0.460 OA
BRANCH  28  29
ATOM     29  C   UNL A   1      40.400  25.547  27.071  1.00  0.00     0.338 C 
ATOM     30  O   UNL A   1      39.795  25.464  26.019  1.00  0.00    -0.246 OA
BRANCH  29  31
ATOM     31  C   UNL A   1      40.111  26.553  28.105  1.00  0.00     0.060 A 
ATOM     32  C   UNL A   1      40.785  27.779  28.045  1.00  0.00     0.016 A 
ATOM     33  C   UNL A   1      39.235  26.264  29.151  1.00  0.00     0.016 A 
ATOM     34  C   UNL A   1      40.623  28.707  29.068  1.00  0.00     0.010 A 
ATOM     35  C   UNL A   1      39.086  27.189  30.185  1.00  0.00     0.010 A 
ATOM     36  C   UNL A   1      39.816  28.391  30.168  1.00  0.00    -0.014 A 
BRANCH  36  37
ATOM     37  C   UNL A   1      39.905  29.220  31.390  1.00  0.00     0.031 A 
ATOM     38  C   UNL A   1      41.047  28.967  32.339  1.00  0.00     0.074 A 
ATOM     39  C   UNL A   1      39.015  30.198  31.629  1.00  0.00     0.049 A 
ATOM     40  N   UNL A   1      41.327  29.552  33.473  1.00  0.00    -0.248 NA
ATOM     41  C   UNL A   1      41.998  27.908  31.957  1.00  0.00     0.031 C 
ATOM     42  C   UNL A   1      37.902  30.561  30.754  1.00  0.00     0.029 A 
ATOM     43  N   UNL A   1      38.914  31.067  32.684  1.00  0.00    -0.354 N 
ATOM     44  C   UNL A   1      42.476  28.928  33.944  1.00  0.00     0.074 A 
ATOM     45  C   UNL A   1      42.824  27.898  32.991  1.00  0.00     0.031 C 
ATOM     46  C   UNL A   1      37.224  31.580  31.312  1.00  0.00     0.029 A 
ATOM     47  C   UNL A   1      37.838  31.917  32.595  1.00  0.00     0.049 A 
ATOM     48  H   UNL A   1      39.550  31.082  33.434  1.00  0.00     0.167 HD
ATOM     49  C   UNL A   1      43.183  29.195  35.067  1.00  0.00     0.031 A 
ATOM     50  C   UNL A   1      37.392  32.849  33.461  1.00  0.00     0.031 A 
ATOM     51  C   UNL A   1      42.821  30.216  36.013  1.00  0.00     0.049 A 
ATOM     52  C   UNL A   1      38.156  33.081  34.739  1.00  0.00     0.074 A 
ATOM     53  C   UNL A   1      43.474  30.582  37.176  1.00  0.00     0.029 A 
ATOM     54  N   UNL A   1      41.703  31.030  35.906  1.00  0.00    -0.354 N 
ATOM     55  N   UNL A   1      39.257  32.501  35.160  1.00  0.00    -0.248 NA
ATOM     56  C   UNL A   1      37.625  34.100  35.653  1.00  0.00     0.031 C 
ATOM     57  C   UNL A   1      42.717  31.575  37.804  1.00  0.00     0.029 A 
ATOM     58  C   UNL A   1      41.629  31.877  36.998  1.00  0.00     0.049 A 
ATOM     59  H   UNL A   1      41.057  31.009  35.164  1.00  0.00     0.167 HD
ATOM     60  C   UNL A   1      39.564  33.107  36.373  1.00  0.00     0.074 A 
ATOM     61  C   UNL A   1      38.543  34.106  36.611  1.00  0.00     0.031 C 
ATOM     62  C   UNL A   1      40.601  32.863  37.215  1.00  0.00     0.031 A 
BRANCH  49  63
ATOM     63  C   UNL A   1      44.392  28.343  35.350  1.00  0.00    -0.014 A 
ATOM     64  C   UNL A   1      44.265  27.012  35.788  1.00  0.00     0.010 A 
ATOM     65  C   UNL A   1      45.679  28.874  35.145  1.00  0.00     0.010 A 
ATOM     66  C   UNL A   1      45.402  26.242  36.051  1.00  0.00     0.020 A 
ATOM     67  C   UNL A   1      46.818  28.098  35.379  1.00  0.00     0.020 A 
ATOM     68  C   UNL A   1      46.671  26.791  35.848  1.00  0.00     0.054 A 
BRANCH  68  69
ATOM     69  S   UNL A   1      48.128  25.762  36.174  1.00  0.00     0.124 S 
ATOM     70  O   UNL A   1      48.077  25.619  37.628  1.00  0.00    -0.237 OA
ATOM     71  O   UNL A   1      47.840  24.548  35.414  1.00  0.00    -0.237 OA
ATOM     72  O   UNL A   1      49.240  26.561  35.668  1.00  0.00    -0.744 OA
ENDBRANCH  68  69
ENDBRANCH  49  63
BRANCH  50  73
ATOM     73  C   UNL A   1      36.156  33.620  33.155  1.00  0.00    -0.014 A 
ATOM     74  C   UNL A   1      36.230  34.928  32.645  1.00  0.00     0.010 A 
ATOM     75  C   UNL A   1      34.890  33.044  33.371  1.00  0.00     0.010 A 
ATOM     76  C   UNL A   1      35.064  35.651  32.375  1.00  0.00     0.020 A 
ATOM     77  C   UNL A   1      33.723  33.752  33.074  1.00  0.00     0.020 A 
ATOM     78  C   UNL A   1      33.817  35.057  32.589  1.00  0.00     0.054 A 
BRANCH  78  79
ATOM     79  S   UNL A   1      32.318  35.996  32.186  1.00  0.00     0.124 S 
ATOM     80  O   UNL A   1      32.493  37.204  32.987  1.00  0.00    -0.237 OA
ATOM     81  O   UNL A   1      32.436  36.172  30.740  1.00  0.00    -0.237 OA
ATOM     82  O   UNL A   1      31.235  35.113  32.613  1.00  0.00    -0.744 OA
ENDBRANCH  78  79
ENDBRANCH  50  73
BRANCH  62  83
ATOM     83  C   UNL A   1      40.704  33.714  38.454  1.00  0.00    -0.014 A 
ATOM     84  C   UNL A   1      41.380  34.946  38.442  1.00  0.00     0.010 A 
ATOM     85  C   UNL A   1      40.058  33.297  39.634  1.00  0.00     0.010 A 
ATOM     86  C   UNL A   1      41.436  35.731  39.596  1.00  0.00     0.020 A 
ATOM     87  C   UNL A   1      40.086  34.094  40.780  1.00  0.00     0.020 A 
ATOM     88  C   UNL A   1      40.788  35.300  40.758  1.00  0.00     0.054 A 
BRANCH  88  89
ATOM     89  S   UNL A   1      40.840  36.359  42.229  1.00  0.00     0.124 S 
ATOM     90  O   UNL A   1      41.953  37.251  41.923  1.00  0.00    -0.237 OA
ATOM     91  O   UNL A   1      39.517  36.979  42.224  1.00  0.00    -0.237 OA
ATOM     92  O   UNL A   1      41.076  35.420  43.324  1.00  0.00    -0.744 OA
ENDBRANCH  88  89
ENDBRANCH  62  83
ENDBRANCH  36  37
ENDBRANCH  29  31
ENDBRANCH  28  29
ENDBRANCH  27  28
ENDBRANCH  26  27
ENDBRANCH   1  26
TORSDOF 22
ENDMDL
