MODEL 1
REMARK VINA RESULT:     -10.5      0.000      0.000
REMARK SMILES C[NH+](C)CCc1nc(Nc2ccc(O)c(C(=O)OCCOCCOC(=O)c3ccc(-c4c5nc(c(-c6ccc(S(=O)(=O)[O-])cc6)c6ccc([nH]6)c(-c6ccc(S(=O)(=O)[O-])cc6)c6nc(c(-c7ccc(S(=O)(=O)[O-])cc7)c7ccc4[nH]7)C=C6)C=C5)cc3)c2)c2ccccc2n1
REMARK SMILES IDX 20 1 19 2 18 3 16 4 17 5 15 6 10 7 11 8 87 9 12 10 13 11
REMARK SMILES IDX 9 12 8 14 6 15 7 16 94 17 93 18 88 19 92 20 89 21 91 22
REMARK SMILES IDX 90 23 5 24 4 25 2 26 1 27 3 28 14 30 21 32 22 33 23 34 24 35
REMARK SMILES IDX 25 36 26 37 27 38 28 39 86 40 29 41 85 42 30 43 31 44 32 45
REMARK SMILES IDX 79 46 33 47 84 48 78 49 80 50 34 51 83 52 77 53 76 54 35 56
REMARK SMILES IDX 65 57 46 58 64 59 47 60 50 61 63 62 81 63 48 64 49 65 62 67
REMARK SMILES IDX 82 68 51 69 36 70 37 71 45 72 38 73 44 74 39 75 40 76 41 77
REMARK SMILES IDX 42 78 43 79 66 80 67 81 75 82 68 83 74 84 69 85 70 86 71 87
REMARK SMILES IDX 72 88 73 89 52 90 53 91 61 92 54 93 60 94 55 95 56 96 57 97
REMARK SMILES IDX 58 98 59 99
REMARK H PARENT 9 13 2 29 14 31 80 55 50 66
REMARK Flexibility Score: inf
ROOT
ATOM      1  C   UNL A   1      36.719  22.840  25.699  1.00  0.00     0.202 C 
ENDROOT
BRANCH   1   2
ATOM      2  C   UNL A   1      35.583  23.341  24.806  1.00  0.00     0.261 C 
BRANCH   2   3
ATOM      3  O   UNL A   1      35.014  22.245  24.073  1.00  0.00    -0.460 OA
BRANCH   3   4
ATOM      4  C   UNL A   1      34.169  21.453  24.769  1.00  0.00     0.342 C 
ATOM      5  O   UNL A   1      34.376  20.302  25.126  1.00  0.00    -0.246 OA
BRANCH   4   6
ATOM      6  C   UNL A   1      33.023  22.237  25.279  1.00  0.00     0.103 A 
ATOM      7  C   UNL A   1      31.055  23.529  24.656  1.00  0.00     0.041 A 
ATOM      8  C   UNL A   1      30.858  23.843  26.003  1.00  0.00     0.030 A 
ATOM      9  C   UNL A   1      32.147  22.734  24.303  1.00  0.00     0.045 A 
ATOM     10  C   UNL A   1      31.701  23.318  26.989  1.00  0.00     0.049 A 
ATOM     11  C   UNL A   1      32.784  22.513  26.627  1.00  0.00     0.130 A 
BRANCH   7  12
ATOM     12  N   UNL A   1      30.284  24.134  23.640  1.00  0.00    -0.340 N 
ATOM     13  H   UNL A   1      29.756  23.555  23.044  1.00  0.00     0.168 HD
BRANCH  12  14
ATOM     14  C   UNL A   1      30.235  25.537  23.440  1.00  0.00     0.142 A 
ATOM     15  C   UNL A   1      29.012  27.483  23.483  1.00  0.00     0.137 A 
ATOM     16  N   UNL A   1      29.050  26.151  23.601  1.00  0.00    -0.215 NA
ATOM     17  N   UNL A   1      30.087  28.253  23.255  1.00  0.00    -0.233 NA
ATOM     18  C   UNL A   1      31.246  27.635  23.021  1.00  0.00     0.076 A 
ATOM     19  C   UNL A   1      31.393  26.244  23.075  1.00  0.00     0.043 A 
ATOM     20  C   UNL A   1      32.344  28.412  22.678  1.00  0.00     0.029 A 
ATOM     21  C   UNL A   1      32.652  25.665  22.767  1.00  0.00     0.014 A 
ATOM     22  C   UNL A   1      33.582  27.844  22.368  1.00  0.00     0.002 A 
ATOM     23  C   UNL A   1      33.736  26.465  22.409  1.00  0.00     0.001 A 
BRANCH  15  24
ATOM     24  C   UNL A   1      27.662  28.134  23.549  1.00  0.00     0.138 C 
BRANCH  24  25
ATOM     25  C   UNL A   1      27.458  29.264  22.523  1.00  0.00     0.269 C 
BRANCH  25  26
ATOM     26  N   UNL A   1      28.227  30.521  22.626  1.00  0.00    -0.339 N 
ATOM     27  C   UNL A   1      28.513  31.132  21.329  1.00  0.00     0.332 C 
ATOM     28  C   UNL A   1      27.618  31.492  23.529  1.00  0.00     0.332 C 
ATOM     29  H   UNL A   1      29.120  30.242  23.030  1.00  0.00     0.347 HD
ENDBRANCH  25  26
ENDBRANCH  24  25
ENDBRANCH  15  24
ENDBRANCH  12  14
ENDBRANCH   7  12
BRANCH  11  30
ATOM     30  O   UNL A   1      33.618  22.034  27.594  1.00  0.00    -0.507 OA
ATOM     31  H   UNL A   1      33.624  22.427  28.445  1.00  0.00     0.293 HD
ENDBRANCH  11  30
ENDBRANCH   4   6
ENDBRANCH   3   4
ENDBRANCH   2   3
ENDBRANCH   1   2
BRANCH   1  32
ATOM     32  O   UNL A   1      37.573  21.851  25.116  1.00  0.00    -0.374 OA
BRANCH  32  33
ATOM     33  C   UNL A   1      38.820  21.612  25.770  1.00  0.00     0.202 C 
BRANCH  33  34
ATOM     34  C   UNL A   1      39.339  20.170  25.732  1.00  0.00     0.261 C 
BRANCH  34  35
ATOM     35  O   UNL A   1      40.326  19.921  26.746  1.00  0.00    -0.460 OA
BRANCH  35  36
ATOM     36  C   UNL A   1      41.591  19.773  26.286  1.00  0.00     0.338 C 
ATOM     37  O   UNL A   1      42.042  18.817  25.668  1.00  0.00    -0.246 OA
BRANCH  36  38
ATOM     38  C   UNL A   1      42.350  21.023  26.479  1.00  0.00     0.060 A 
ATOM     39  C   UNL A   1      42.564  21.452  27.795  1.00  0.00     0.016 A 
ATOM     40  C   UNL A   1      42.790  21.794  25.402  1.00  0.00     0.016 A 
ATOM     41  C   UNL A   1      43.176  22.680  28.039  1.00  0.00     0.010 A 
ATOM     42  C   UNL A   1      43.396  23.031  25.648  1.00  0.00     0.010 A 
ATOM     43  C   UNL A   1      43.560  23.495  26.966  1.00  0.00    -0.014 A 
BRANCH  43  44
ATOM     44  C   UNL A   1      44.000  24.887  27.223  1.00  0.00     0.031 A 
ATOM     45  C   UNL A   1      45.448  25.244  27.016  1.00  0.00     0.074 A 
ATOM     46  C   UNL A   1      43.121  25.828  27.609  1.00  0.00     0.049 A 
ATOM     47  N   UNL A   1      46.053  26.387  27.204  1.00  0.00    -0.248 NA
ATOM     48  C   UNL A   1      46.329  24.167  26.533  1.00  0.00     0.031 C 
ATOM     49  C   UNL A   1      41.686  25.618  27.800  1.00  0.00     0.029 A 
ATOM     50  N   UNL A   1      43.311  27.154  27.912  1.00  0.00    -0.354 N 
ATOM     51  C   UNL A   1      47.386  26.169  26.871  1.00  0.00     0.074 A 
ATOM     52  C   UNL A   1      47.506  24.777  26.497  1.00  0.00     0.031 C 
ATOM     53  C   UNL A   1      41.126  26.775  28.194  1.00  0.00     0.029 A 
ATOM     54  C   UNL A   1      42.165  27.796  28.313  1.00  0.00     0.049 A 
ATOM     55  H   UNL A   1      44.186  27.600  27.849  1.00  0.00     0.167 HD
ATOM     56  C   UNL A   1      48.416  27.048  26.871  1.00  0.00     0.031 A 
ATOM     57  C   UNL A   1      41.978  29.059  28.746  1.00  0.00     0.031 A 
ATOM     58  C   UNL A   1      48.298  28.429  27.257  1.00  0.00     0.049 A 
ATOM     59  C   UNL A   1      43.153  29.999  28.810  1.00  0.00     0.074 A 
ATOM     60  C   UNL A   1      49.281  29.403  27.280  1.00  0.00     0.029 A 
ATOM     61  N   UNL A   1      47.128  29.031  27.694  1.00  0.00    -0.354 N 
ATOM     62  N   UNL A   1      44.402  29.783  28.473  1.00  0.00    -0.248 NA
ATOM     63  C   UNL A   1      42.890  31.359  29.306  1.00  0.00     0.031 C 
ATOM     64  C   UNL A   1      48.717  30.581  27.781  1.00  0.00     0.029 A 
ATOM     65  C   UNL A   1      47.369  30.357  28.014  1.00  0.00     0.049 A 
ATOM     66  H   UNL A   1      46.254  28.583  27.765  1.00  0.00     0.167 HD
ATOM     67  C   UNL A   1      45.068  30.986  28.689  1.00  0.00     0.074 A 
ATOM     68  C   UNL A   1      44.081  31.929  29.176  1.00  0.00     0.031 C 
ATOM     69  C   UNL A   1      46.377  31.284  28.497  1.00  0.00     0.031 A 
BRANCH  56  70
ATOM     70  C   UNL A   1      49.772  26.529  26.474  1.00  0.00    -0.014 A 
ATOM     71  C   UNL A   1      50.241  26.648  25.153  1.00  0.00     0.010 A 
ATOM     72  C   UNL A   1      50.602  25.938  27.445  1.00  0.00     0.010 A 
ATOM     73  C   UNL A   1      51.498  26.150  24.802  1.00  0.00     0.020 A 
ATOM     74  C   UNL A   1      51.871  25.462  27.103  1.00  0.00     0.020 A 
ATOM     75  C   UNL A   1      52.304  25.555  25.778  1.00  0.00     0.054 A 
BRANCH  75  76
ATOM     76  S   UNL A   1      53.937  24.929  25.298  1.00  0.00     0.124 S 
ATOM     77  O   UNL A   1      54.750  25.288  26.457  1.00  0.00    -0.237 OA
ATOM     78  O   UNL A   1      53.693  23.500  25.121  1.00  0.00    -0.237 OA
ATOM     79  O   UNL A   1      54.243  25.663  24.072  1.00  0.00    -0.744 OA
ENDBRANCH  75  76
ENDBRANCH  56  70
BRANCH  57  80
ATOM     80  C   UNL A   1      40.624  29.506  29.171  1.00  0.00    -0.014 A 
ATOM     81  C   UNL A   1      40.338  29.742  30.527  1.00  0.00     0.010 A 
ATOM     82  C   UNL A   1      39.609  29.699  28.215  1.00  0.00     0.010 A 
ATOM     83  C   UNL A   1      39.059  30.149  30.920  1.00  0.00     0.020 A 
ATOM     84  C   UNL A   1      38.338  30.132  28.601  1.00  0.00     0.020 A 
ATOM     85  C   UNL A   1      38.068  30.342  29.955  1.00  0.00     0.054 A 
BRANCH  85  86
ATOM     86  S   UNL A   1      36.430  30.920  30.482  1.00  0.00     0.124 S 
ATOM     87  O   UNL A   1      35.677  30.875  29.234  1.00  0.00    -0.237 OA
ATOM     88  O   UNL A   1      36.054  29.928  31.486  1.00  0.00    -0.237 OA
ATOM     89  O   UNL A   1      36.694  32.258  31.008  1.00  0.00    -0.744 OA
ENDBRANCH  85  86
ENDBRANCH  57  80
BRANCH  69  90
ATOM     90  C   UNL A   1      46.818  32.697  28.778  1.00  0.00    -0.014 A 
ATOM     91  C   UNL A   1      47.497  33.028  29.965  1.00  0.00     0.010 A 
ATOM     92  C   UNL A   1      46.603  33.695  27.810  1.00  0.00     0.010 A 
ATOM     93  C   UNL A   1      47.925  34.340  30.190  1.00  0.00     0.020 A 
ATOM     94  C   UNL A   1      47.053  35.000  28.020  1.00  0.00     0.020 A 
ATOM     95  C   UNL A   1      47.701  35.317  29.215  1.00  0.00     0.054 A 
BRANCH  95  96
ATOM     96  S   UNL A   1      48.308  37.001  29.510  1.00  0.00     0.124 S 
ATOM     97  O   UNL A   1      49.752  36.797  29.575  1.00  0.00    -0.237 OA
ATOM     98  O   UNL A   1      47.827  37.727  28.337  1.00  0.00    -0.237 OA
ATOM     99  O   UNL A   1      47.674  37.381  30.771  1.00  0.00    -0.744 OA
ENDBRANCH  95  96
ENDBRANCH  69  90
ENDBRANCH  43  44
ENDBRANCH  36  38
ENDBRANCH  35  36
ENDBRANCH  34  35
ENDBRANCH  33  34
ENDBRANCH  32  33
ENDBRANCH   1  32
TORSDOF 23
ENDMDL
MODEL 2
REMARK VINA RESULT:     -10.4      1.419      8.000
REMARK SMILES C[NH+](C)CCc1nc(Nc2ccc(O)c(C(=O)OCCOCCOC(=O)c3ccc(-c4c5nc(c(-c6ccc(S(=O)(=O)[O-])cc6)c6ccc([nH]6)c(-c6ccc(S(=O)(=O)[O-])cc6)c6nc(c(-c7ccc(S(=O)(=O)[O-])cc7)c7ccc4[nH]7)C=C6)C=C5)cc3)c2)c2ccccc2n1
REMARK SMILES IDX 20 1 19 2 18 3 16 4 17 5 15 6 10 7 11 8 87 9 12 10 13 11
REMARK SMILES IDX 9 12 8 14 6 15 7 16 94 17 93 18 88 19 92 20 89 21 91 22
REMARK SMILES IDX 90 23 5 24 4 25 2 26 1 27 3 28 14 30 21 32 22 33 23 34 24 35
REMARK SMILES IDX 25 36 26 37 27 38 28 39 86 40 29 41 85 42 30 43 31 44 32 45
REMARK SMILES IDX 79 46 33 47 84 48 78 49 80 50 34 51 83 52 77 53 76 54 35 56
REMARK SMILES IDX 65 57 46 58 64 59 47 60 50 61 63 62 81 63 48 64 49 65 62 67
REMARK SMILES IDX 82 68 51 69 36 70 37 71 45 72 38 73 44 74 39 75 40 76 41 77
REMARK SMILES IDX 42 78 43 79 66 80 67 81 75 82 68 83 74 84 69 85 70 86 71 87
REMARK SMILES IDX 72 88 73 89 52 90 53 91 61 92 54 93 60 94 55 95 56 96 57 97
REMARK SMILES IDX 58 98 59 99
REMARK H PARENT 9 13 2 29 14 31 80 55 50 66
REMARK Flexibility Score: inf
ROOT
ATOM      1  C   UNL A   1      36.633  21.699  24.528  1.00  0.00     0.202 C 
ENDROOT
BRANCH   1   2
ATOM      2  C   UNL A   1      36.520  22.907  23.596  1.00  0.00     0.261 C 
BRANCH   2   3
ATOM      3  O   UNL A   1      35.406  23.725  23.985  1.00  0.00    -0.460 OA
BRANCH   3   4
ATOM      4  C   UNL A   1      34.260  23.516  23.298  1.00  0.00     0.342 C 
ATOM      5  O   UNL A   1      34.158  23.293  22.101  1.00  0.00    -0.246 OA
BRANCH   4   6
ATOM      6  C   UNL A   1      33.123  23.340  24.228  1.00  0.00     0.103 A 
ATOM      7  C   UNL A   1      31.480  24.490  25.610  1.00  0.00     0.041 A 
ATOM      8  C   UNL A   1      31.037  23.251  26.081  1.00  0.00     0.030 A 
ATOM      9  C   UNL A   1      32.530  24.524  24.691  1.00  0.00     0.045 A 
ATOM     10  C   UNL A   1      31.593  22.062  25.594  1.00  0.00     0.049 A 
ATOM     11  C   UNL A   1      32.635  22.106  24.665  1.00  0.00     0.130 A 
BRANCH   7  12
ATOM     12  N   UNL A   1      31.009  25.698  26.167  1.00  0.00    -0.340 N 
ATOM     13  H   UNL A   1      30.589  25.672  27.057  1.00  0.00     0.168 HD
BRANCH  12  14
ATOM     14  C   UNL A   1      31.113  26.946  25.503  1.00  0.00     0.142 A 
ATOM     15  C   UNL A   1      30.432  28.319  23.789  1.00  0.00     0.137 A 
ATOM     16  N   UNL A   1      30.393  27.120  24.381  1.00  0.00    -0.215 NA
ATOM     17  N   UNL A   1      31.110  29.374  24.263  1.00  0.00    -0.233 NA
ATOM     18  C   UNL A   1      31.883  29.177  25.333  1.00  0.00     0.076 A 
ATOM     19  C   UNL A   1      31.953  27.953  26.007  1.00  0.00     0.043 A 
ATOM     20  C   UNL A   1      32.673  30.231  25.772  1.00  0.00     0.029 A 
ATOM     21  C   UNL A   1      32.837  27.816  27.109  1.00  0.00     0.014 A 
ATOM     22  C   UNL A   1      33.548  30.096  26.852  1.00  0.00     0.002 A 
ATOM     23  C   UNL A   1      33.634  28.883  27.522  1.00  0.00     0.001 A 
BRANCH  15  24
ATOM     24  C   UNL A   1      29.717  28.454  22.477  1.00  0.00     0.138 C 
BRANCH  24  25
ATOM     25  C   UNL A   1      29.072  29.833  22.251  1.00  0.00     0.269 C 
BRANCH  25  26
ATOM     26  N   UNL A   1      27.682  30.093  22.677  1.00  0.00    -0.339 N 
ATOM     27  C   UNL A   1      26.995  28.901  23.169  1.00  0.00     0.332 C 
ATOM     28  C   UNL A   1      27.573  31.185  23.639  1.00  0.00     0.332 C 
ATOM     29  H   UNL A   1      27.205  30.385  21.824  1.00  0.00     0.347 HD
ENDBRANCH  25  26
ENDBRANCH  24  25
ENDBRANCH  15  24
ENDBRANCH  12  14
ENDBRANCH   7  12
BRANCH  11  30
ATOM     30  O   UNL A   1      33.191  20.942  24.222  1.00  0.00    -0.507 OA
ATOM     31  H   UNL A   1      34.076  20.730  24.446  1.00  0.00     0.293 HD
ENDBRANCH  11  30
ENDBRANCH   4   6
ENDBRANCH   3   4
ENDBRANCH   2   3
ENDBRANCH   1   2
BRANCH   1  32
ATOM     32  O   UNL A   1      37.966  21.275  24.832  1.00  0.00    -0.374 OA
BRANCH  32  33
ATOM     33  C   UNL A   1      38.114  19.970  25.390  1.00  0.00     0.202 C 
BRANCH  33  34
ATOM     34  C   UNL A   1      39.540  19.407  25.425  1.00  0.00     0.261 C 
BRANCH  34  35
ATOM     35  O   UNL A   1      40.258  19.820  26.600  1.00  0.00    -0.460 OA
BRANCH  35  36
ATOM     36  C   UNL A   1      41.585  20.017  26.416  1.00  0.00     0.338 C 
ATOM     37  O   UNL A   1      42.374  19.255  25.874  1.00  0.00    -0.246 OA
BRANCH  36  38
ATOM     38  C   UNL A   1      41.953  21.389  26.814  1.00  0.00     0.060 A 
ATOM     39  C   UNL A   1      41.893  22.385  25.831  1.00  0.00     0.016 A 
ATOM     40  C   UNL A   1      42.407  21.688  28.100  1.00  0.00     0.016 A 
ATOM     41  C   UNL A   1      42.335  23.675  26.116  1.00  0.00     0.010 A 
ATOM     42  C   UNL A   1      42.858  22.982  28.382  1.00  0.00     0.010 A 
ATOM     43  C   UNL A   1      42.856  23.972  27.382  1.00  0.00    -0.014 A 
BRANCH  43  44
ATOM     44  C   UNL A   1      43.529  25.273  27.612  1.00  0.00     0.031 A 
ATOM     45  C   UNL A   1      42.721  26.428  28.141  1.00  0.00     0.074 A 
ATOM     46  C   UNL A   1      44.845  25.420  27.379  1.00  0.00     0.049 A 
ATOM     47  N   UNL A   1      43.097  27.655  28.390  1.00  0.00    -0.248 NA
ATOM     48  C   UNL A   1      41.301  26.162  28.426  1.00  0.00     0.031 C 
ATOM     49  C   UNL A   1      45.744  24.366  26.910  1.00  0.00     0.029 A 
ATOM     50  N   UNL A   1      45.655  26.521  27.506  1.00  0.00    -0.354 N 
ATOM     51  C   UNL A   1      41.962  28.311  28.854  1.00  0.00     0.074 A 
ATOM     52  C   UNL A   1      40.878  27.354  28.824  1.00  0.00     0.031 C 
ATOM     53  C   UNL A   1      46.982  24.874  26.783  1.00  0.00     0.029 A 
ATOM     54  C   UNL A   1      46.957  26.294  27.131  1.00  0.00     0.049 A 
ATOM     55  H   UNL A   1      45.332  27.391  27.835  1.00  0.00     0.167 HD
ATOM     56  C   UNL A   1      41.834  29.593  29.272  1.00  0.00     0.031 A 
ATOM     57  C   UNL A   1      48.005  27.138  27.058  1.00  0.00     0.031 A 
ATOM     58  C   UNL A   1      42.910  30.548  29.288  1.00  0.00     0.049 A 
ATOM     59  C   UNL A   1      47.821  28.579  27.457  1.00  0.00     0.074 A 
ATOM     60  C   UNL A   1      42.883  31.868  29.705  1.00  0.00     0.029 A 
ATOM     61  N   UNL A   1      44.204  30.289  28.864  1.00  0.00    -0.354 N 
ATOM     62  N   UNL A   1      46.746  29.179  27.911  1.00  0.00    -0.248 NA
ATOM     63  C   UNL A   1      48.995  29.456  27.339  1.00  0.00     0.031 C 
ATOM     64  C   UNL A   1      44.148  32.421  29.482  1.00  0.00     0.029 A 
ATOM     65  C   UNL A   1      44.978  31.430  28.983  1.00  0.00     0.049 A 
ATOM     66  H   UNL A   1      44.525  29.421  28.528  1.00  0.00     0.167 HD
ATOM     67  C   UNL A   1      47.122  30.496  28.161  1.00  0.00     0.074 A 
ATOM     68  C   UNL A   1      48.526  30.602  27.816  1.00  0.00     0.031 C 
ATOM     69  C   UNL A   1      46.375  31.522  28.636  1.00  0.00     0.031 A 
BRANCH  56  70
ATOM     70  C   UNL A   1      40.468  30.046  29.713  1.00  0.00    -0.014 A 
ATOM     71  C   UNL A   1      40.211  30.395  31.051  1.00  0.00     0.010 A 
ATOM     72  C   UNL A   1      39.431  30.151  28.767  1.00  0.00     0.010 A 
ATOM     73  C   UNL A   1      38.933  30.803  31.443  1.00  0.00     0.020 A 
ATOM     74  C   UNL A   1      38.158  30.584  29.150  1.00  0.00     0.020 A 
ATOM     75  C   UNL A   1      37.912  30.890  30.490  1.00  0.00     0.054 A 
BRANCH  75  76
ATOM     76  S   UNL A   1      36.267  31.435  31.023  1.00  0.00     0.124 S 
ATOM     77  O   UNL A   1      35.545  31.494  29.755  1.00  0.00    -0.237 OA
ATOM     78  O   UNL A   1      35.854  30.368  31.930  1.00  0.00    -0.237 OA
ATOM     79  O   UNL A   1      36.518  32.727  31.658  1.00  0.00    -0.744 OA
ENDBRANCH  75  76
ENDBRANCH  56  70
BRANCH  57  80
ATOM     80  C   UNL A   1      49.322  26.648  26.570  1.00  0.00    -0.014 A 
ATOM     81  C   UNL A   1      50.223  26.018  27.446  1.00  0.00     0.010 A 
ATOM     82  C   UNL A   1      49.681  26.808  25.219  1.00  0.00     0.010 A 
ATOM     83  C   UNL A   1      51.465  25.572  26.983  1.00  0.00     0.020 A 
ATOM     84  C   UNL A   1      50.909  26.338  24.747  1.00  0.00     0.020 A 
ATOM     85  C   UNL A   1      51.799  25.733  25.636  1.00  0.00     0.054 A 
BRANCH  85  86
ATOM     86  S   UNL A   1      53.394  25.100  25.046  1.00  0.00     0.124 S 
ATOM     87  O   UNL A   1      53.222  23.659  25.195  1.00  0.00    -0.237 OA
ATOM     88  O   UNL A   1      53.441  25.594  23.672  1.00  0.00    -0.237 OA
ATOM     89  O   UNL A   1      54.362  25.714  25.953  1.00  0.00    -0.744 OA
ENDBRANCH  85  86
ENDBRANCH  57  80
BRANCH  69  90
ATOM     90  C   UNL A   1      47.063  32.845  28.850  1.00  0.00    -0.014 A 
ATOM     91  C   UNL A   1      47.786  33.111  30.026  1.00  0.00     0.010 A 
ATOM     92  C   UNL A   1      47.034  33.813  27.829  1.00  0.00     0.010 A 
ATOM     93  C   UNL A   1      48.444  34.334  30.189  1.00  0.00     0.020 A 
ATOM     94  C   UNL A   1      47.712  35.025  27.977  1.00  0.00     0.020 A 
ATOM     95  C   UNL A   1      48.402  35.282  29.163  1.00  0.00     0.054 A 
BRANCH  95  96
ATOM     96  S   UNL A   1      49.303  36.843  29.379  1.00  0.00     0.124 S 
ATOM     97  O   UNL A   1      50.194  36.843  28.222  1.00  0.00    -0.237 OA
ATOM     98  O   UNL A   1      48.233  37.838  29.350  1.00  0.00    -0.237 OA
ATOM     99  O   UNL A   1      49.961  36.686  30.674  1.00  0.00    -0.744 OA
ENDBRANCH  95  96
ENDBRANCH  69  90
ENDBRANCH  43  44
ENDBRANCH  36  38
ENDBRANCH  35  36
ENDBRANCH  34  35
ENDBRANCH  33  34
ENDBRANCH  32  33
ENDBRANCH   1  32
TORSDOF 23
ENDMDL
MODEL 3
REMARK VINA RESULT:     -10.0      2.569      8.649
REMARK SMILES C[NH+](C)CCc1nc(Nc2ccc(O)c(C(=O)OCCOCCOC(=O)c3ccc(-c4c5nc(c(-c6ccc(S(=O)(=O)[O-])cc6)c6ccc([nH]6)c(-c6ccc(S(=O)(=O)[O-])cc6)c6nc(c(-c7ccc(S(=O)(=O)[O-])cc7)c7ccc4[nH]7)C=C6)C=C5)cc3)c2)c2ccccc2n1
REMARK SMILES IDX 20 1 19 2 18 3 16 4 17 5 15 6 10 7 11 8 87 9 12 10 13 11
REMARK SMILES IDX 9 12 8 14 6 15 7 16 94 17 93 18 88 19 92 20 89 21 91 22
REMARK SMILES IDX 90 23 5 24 4 25 2 26 1 27 3 28 14 30 21 32 22 33 23 34 24 35
REMARK SMILES IDX 25 36 26 37 27 38 28 39 86 40 29 41 85 42 30 43 31 44 32 45
REMARK SMILES IDX 79 46 33 47 84 48 78 49 80 50 34 51 83 52 77 53 76 54 35 56
REMARK SMILES IDX 65 57 46 58 64 59 47 60 50 61 63 62 81 63 48 64 49 65 62 67
REMARK SMILES IDX 82 68 51 69 36 70 37 71 45 72 38 73 44 74 39 75 40 76 41 77
REMARK SMILES IDX 42 78 43 79 66 80 67 81 75 82 68 83 74 84 69 85 70 86 71 87
REMARK SMILES IDX 72 88 73 89 52 90 53 91 61 92 54 93 60 94 55 95 56 96 57 97
REMARK SMILES IDX 58 98 59 99
REMARK H PARENT 9 13 2 29 14 31 80 55 50 66
REMARK Flexibility Score: inf
ROOT
ATOM      1  C   UNL A   1      36.002  21.032  25.179  1.00  0.00     0.202 C 
ENDROOT
BRANCH   1   2
ATOM      2  C   UNL A   1      34.548  20.566  25.078  1.00  0.00     0.261 C 
BRANCH   2   3
ATOM      3  O   UNL A   1      33.714  21.648  24.640  1.00  0.00    -0.460 OA
BRANCH   3   4
ATOM      4  C   UNL A   1      32.396  21.519  24.914  1.00  0.00     0.342 C 
ATOM      5  O   UNL A   1      31.772  20.473  25.014  1.00  0.00    -0.246 OA
BRANCH   4   6
ATOM      6  C   UNL A   1      31.823  22.817  25.334  1.00  0.00     0.103 A 
ATOM      7  C   UNL A   1      32.160  25.229  25.366  1.00  0.00     0.041 A 
ATOM      8  C   UNL A   1      30.995  25.362  26.125  1.00  0.00     0.030 A 
ATOM      9  C   UNL A   1      32.572  23.951  24.984  1.00  0.00     0.045 A 
ATOM     10  C   UNL A   1      30.218  24.242  26.444  1.00  0.00     0.049 A 
ATOM     11  C   UNL A   1      30.632  22.968  26.046  1.00  0.00     0.130 A 
BRANCH   7  12
ATOM     12  N   UNL A   1      33.012  26.329  25.128  1.00  0.00    -0.340 N 
ATOM     13  H   UNL A   1      33.956  26.153  24.911  1.00  0.00     0.168 HD
BRANCH  12  14
ATOM     14  C   UNL A   1      32.569  27.675  25.187  1.00  0.00     0.142 A 
ATOM     15  C   UNL A   1      31.058  29.273  24.519  1.00  0.00     0.137 A 
ATOM     16  N   UNL A   1      31.525  28.024  24.415  1.00  0.00    -0.215 NA
ATOM     17  N   UNL A   1      31.536  30.191  25.372  1.00  0.00    -0.233 NA
ATOM     18  C   UNL A   1      32.619  29.864  26.081  1.00  0.00     0.076 A 
ATOM     19  C   UNL A   1      33.218  28.600  26.021  1.00  0.00     0.043 A 
ATOM     20  C   UNL A   1      33.189  30.838  26.890  1.00  0.00     0.029 A 
ATOM     21  C   UNL A   1      34.395  28.352  26.773  1.00  0.00     0.014 A 
ATOM     22  C   UNL A   1      34.351  30.597  27.626  1.00  0.00     0.002 A 
ATOM     23  C   UNL A   1      34.959  29.351  27.565  1.00  0.00     0.001 A 
BRANCH  15  24
ATOM     24  C   UNL A   1      29.972  29.676  23.565  1.00  0.00     0.138 C 
BRANCH  24  25
ATOM     25  C   UNL A   1      29.477  28.534  22.659  1.00  0.00     0.269 C 
BRANCH  25  26
ATOM     26  N   UNL A   1      28.172  27.887  22.908  1.00  0.00    -0.339 N 
ATOM     27  C   UNL A   1      28.244  26.792  23.873  1.00  0.00     0.332 C 
ATOM     28  C   UNL A   1      27.126  28.834  23.281  1.00  0.00     0.332 C 
ATOM     29  H   UNL A   1      27.914  27.481  22.010  1.00  0.00     0.347 HD
ENDBRANCH  25  26
ENDBRANCH  24  25
ENDBRANCH  15  24
ENDBRANCH  12  14
ENDBRANCH   7  12
BRANCH  11  30
ATOM     30  O   UNL A   1      29.884  21.881  26.391  1.00  0.00    -0.507 OA
ATOM     31  H   UNL A   1      29.629  21.261  25.736  1.00  0.00     0.293 HD
ENDBRANCH  11  30
ENDBRANCH   4   6
ENDBRANCH   3   4
ENDBRANCH   2   3
ENDBRANCH   1   2
BRANCH   1  32
ATOM     32  O   UNL A   1      36.991  20.029  24.927  1.00  0.00    -0.374 OA
BRANCH  32  33
ATOM     33  C   UNL A   1      38.288  20.253  25.479  1.00  0.00     0.202 C 
BRANCH  33  34
ATOM     34  C   UNL A   1      38.858  21.666  25.320  1.00  0.00     0.261 C 
BRANCH  34  35
ATOM     35  O   UNL A   1      38.764  22.430  26.534  1.00  0.00    -0.460 OA
BRANCH  35  36
ATOM     36  C   UNL A   1      38.283  23.687  26.381  1.00  0.00     0.338 C 
ATOM     37  O   UNL A   1      37.152  24.005  26.038  1.00  0.00    -0.246 OA
BRANCH  36  38
ATOM     38  C   UNL A   1      39.274  24.670  26.857  1.00  0.00     0.060 A 
ATOM     39  C   UNL A   1      39.299  24.950  28.230  1.00  0.00     0.016 A 
ATOM     40  C   UNL A   1      40.120  25.351  25.980  1.00  0.00     0.016 A 
ATOM     41  C   UNL A   1      40.133  25.950  28.724  1.00  0.00     0.010 A 
ATOM     42  C   UNL A   1      40.951  26.360  26.476  1.00  0.00     0.010 A 
ATOM     43  C   UNL A   1      40.937  26.688  27.844  1.00  0.00    -0.014 A 
BRANCH  43  44
ATOM     44  C   UNL A   1      41.650  27.891  28.337  1.00  0.00     0.031 A 
ATOM     45  C   UNL A   1      40.849  29.032  28.904  1.00  0.00     0.074 A 
ATOM     46  C   UNL A   1      42.992  27.958  28.305  1.00  0.00     0.049 A 
ATOM     47  N   UNL A   1      41.261  30.184  29.365  1.00  0.00    -0.248 NA
ATOM     48  C   UNL A   1      39.388  28.849  28.957  1.00  0.00     0.031 C 
ATOM     49  C   UNL A   1      43.881  26.902  27.823  1.00  0.00     0.029 A 
ATOM     50  N   UNL A   1      43.843  28.966  28.688  1.00  0.00    -0.354 N 
ATOM     51  C   UNL A   1      40.115  30.867  29.756  1.00  0.00     0.074 A 
ATOM     52  C   UNL A   1      38.988  30.012  29.451  1.00  0.00     0.031 C 
ATOM     53  C   UNL A   1      45.155  27.320  27.934  1.00  0.00     0.029 A 
ATOM     54  C   UNL A   1      45.168  28.682  28.464  1.00  0.00     0.049 A 
ATOM     55  H   UNL A   1      43.532  29.811  29.084  1.00  0.00     0.167 HD
ATOM     56  C   UNL A   1      40.009  32.093  30.323  1.00  0.00     0.031 A 
ATOM     57  C   UNL A   1      46.267  29.441  28.648  1.00  0.00     0.031 A 
ATOM     58  C   UNL A   1      41.129  32.947  30.612  1.00  0.00     0.049 A 
ATOM     59  C   UNL A   1      46.119  30.831  29.209  1.00  0.00     0.074 A 
ATOM     60  C   UNL A   1      41.125  34.202  31.196  1.00  0.00     0.029 A 
ATOM     61  N   UNL A   1      42.452  32.639  30.335  1.00  0.00    -0.354 N 
ATOM     62  N   UNL A   1      45.029  31.454  29.592  1.00  0.00    -0.248 NA
ATOM     63  C   UNL A   1      47.351  31.618  29.371  1.00  0.00     0.031 C 
ATOM     64  C   UNL A   1      42.441  34.675  31.223  1.00  0.00     0.029 A 
ATOM     65  C   UNL A   1      43.271  33.690  30.711  1.00  0.00     0.049 A 
ATOM     66  H   UNL A   1      42.762  31.797  29.931  1.00  0.00     0.167 HD
ATOM     67  C   UNL A   1      45.448  32.694  30.065  1.00  0.00     0.074 A 
ATOM     68  C   UNL A   1      46.890  32.728  29.931  1.00  0.00     0.031 C 
ATOM     69  C   UNL A   1      44.706  33.711  30.571  1.00  0.00     0.031 A 
BRANCH  56  70
ATOM     70  C   UNL A   1      38.624  32.596  30.633  1.00  0.00    -0.014 A 
ATOM     71  C   UNL A   1      37.859  33.271  29.664  1.00  0.00     0.010 A 
ATOM     72  C   UNL A   1      38.069  32.365  31.905  1.00  0.00     0.010 A 
ATOM     73  C   UNL A   1      36.580  33.740  29.976  1.00  0.00     0.020 A 
ATOM     74  C   UNL A   1      36.779  32.809  32.211  1.00  0.00     0.020 A 
ATOM     75  C   UNL A   1      36.049  33.510  31.249  1.00  0.00     0.054 A 
BRANCH  75  76
ATOM     76  S   UNL A   1      34.382  34.118  31.622  1.00  0.00     0.124 S 
ATOM     77  O   UNL A   1      34.664  35.402  32.258  1.00  0.00    -0.237 OA
ATOM     78  O   UNL A   1      33.765  34.195  30.300  1.00  0.00    -0.237 OA
ATOM     79  O   UNL A   1      33.829  33.093  32.505  1.00  0.00    -0.744 OA
ENDBRANCH  75  76
ENDBRANCH  56  70
BRANCH  57  80
ATOM     80  C   UNL A   1      47.607  28.910  28.279  1.00  0.00    -0.014 A 
ATOM     81  C   UNL A   1      48.389  28.219  29.221  1.00  0.00     0.010 A 
ATOM     82  C   UNL A   1      48.108  29.093  26.977  1.00  0.00     0.010 A 
ATOM     83  C   UNL A   1      49.654  27.735  28.871  1.00  0.00     0.020 A 
ATOM     84  C   UNL A   1      49.359  28.586  26.616  1.00  0.00     0.020 A 
ATOM     85  C   UNL A   1      50.130  27.920  27.571  1.00  0.00     0.054 A 
BRANCH  85  86
ATOM     86  S   UNL A   1      51.751  27.238  27.124  1.00  0.00     0.124 S 
ATOM     87  O   UNL A   1      51.651  27.145  25.672  1.00  0.00    -0.237 OA
ATOM     88  O   UNL A   1      52.671  28.252  27.633  1.00  0.00    -0.237 OA
ATOM     89  O   UNL A   1      51.791  25.961  27.833  1.00  0.00    -0.744 OA
ENDBRANCH  85  86
ENDBRANCH  57  80
BRANCH  69  90
ATOM     90  C   UNL A   1      45.438  34.936  31.052  1.00  0.00    -0.014 A 
ATOM     91  C   UNL A   1      45.923  35.027  32.369  1.00  0.00     0.010 A 
ATOM     92  C   UNL A   1      45.696  35.986  30.152  1.00  0.00     0.010 A 
ATOM     93  C   UNL A   1      46.628  36.161  32.784  1.00  0.00     0.020 A 
ATOM     94  C   UNL A   1      46.422  37.109  30.556  1.00  0.00     0.020 A 
ATOM     95  C   UNL A   1      46.873  37.194  31.874  1.00  0.00     0.054 A 
BRANCH  95  96
ATOM     96  S   UNL A   1      47.830  38.634  32.424  1.00  0.00     0.124 S 
ATOM     97  O   UNL A   1      47.490  39.630  31.413  1.00  0.00    -0.237 OA
ATOM     98  O   UNL A   1      47.295  38.884  33.760  1.00  0.00    -0.237 OA
ATOM     99  O   UNL A   1      49.213  38.162  32.394  1.00  0.00    -0.744 OA
ENDBRANCH  95  96
ENDBRANCH  69  90
ENDBRANCH  43  44
ENDBRANCH  36  38
ENDBRANCH  35  36
ENDBRANCH  34  35
ENDBRANCH  33  34
ENDBRANCH  32  33
ENDBRANCH   1  32
TORSDOF 23
ENDMDL
