MODEL 1
REMARK VINA RESULT:     -12.3      0.000      0.000
REMARK SMILES Cc1ccccc1C(=O)Nc1ccc(OCC(=O)OCCOCCOC(=O)c2ccc(-c3c4nc(c(-c5ccc(S(=O)(=O)[O-])cc5)c5ccc([nH]5)c(-c5ccc(S(=O)(=O)[O-])cc5)c5nc(c(-c6ccc(S(=O)(=O)[O-])cc6)c6ccc3[nH]6)C=C5)C=C4)cc2)c(-c2nc3ccccc3s2)c1
REMARK SMILES IDX 21 1 20 2 19 3 17 4 18 5 16 6 15 7 14 8 11 9 12 10 98 11
REMARK SMILES IDX 13 12 88 13 10 14 8 15 9 16 7 18 1 19 2 20 3 21 4 22 6 23
REMARK SMILES IDX 5 24 89 25 90 26 97 27 91 28 96 29 92 30 95 31 93 32 94 33
REMARK SMILES IDX 22 34 23 35 24 36 25 37 26 38 27 39 28 40 29 41 87 42 30 43
REMARK SMILES IDX 86 44 31 45 32 46 33 47 80 48 34 49 85 50 79 51 81 52 35 53
REMARK SMILES IDX 84 54 78 55 77 56 36 58 66 59 47 60 65 61 48 62 51 63 64 64
REMARK SMILES IDX 82 65 49 66 50 67 63 69 83 70 52 71 37 72 38 73 46 74 39 75
REMARK SMILES IDX 45 76 40 77 41 78 42 79 43 80 44 81 67 82 68 83 76 84 69 85
REMARK SMILES IDX 75 86 70 87 71 88 72 89 73 90 74 91 53 92 54 93 62 94 55 95
REMARK SMILES IDX 61 96 56 97 57 98 58 99 59 100 60 101
REMARK H PARENT 10 17 81 57 51 68
REMARK Flexibility Score: inf
ROOT
ATOM      1  C   UNL A   1      38.960  23.259  26.591  1.00  0.00     0.202 C 
ENDROOT
BRANCH   1   2
ATOM      2  C   UNL A   1      37.548  23.080  26.059  1.00  0.00     0.261 C 
BRANCH   2   3
ATOM      3  O   UNL A   1      37.350  21.695  25.802  1.00  0.00    -0.461 OA
BRANCH   3   4
ATOM      4  C   UNL A   1      36.384  21.273  24.980  1.00  0.00     0.344 C 
ATOM      5  O   UNL A   1      35.781  20.212  25.042  1.00  0.00    -0.248 OA
BRANCH   4   6
ATOM      6  C   UNL A   1      36.108  22.371  23.952  1.00  0.00     0.352 C 
BRANCH   6   7
ATOM      7  O   UNL A   1      35.039  22.503  23.025  1.00  0.00    -0.481 OA
BRANCH   7   8
ATOM      8  C   UNL A   1      33.780  22.989  23.243  1.00  0.00     0.130 A 
ATOM      9  C   UNL A   1      31.321  24.460  23.318  1.00  0.00     0.042 A 
ATOM     10  C   UNL A   1      32.510  25.086  22.961  1.00  0.00     0.030 A 
ATOM     11  C   UNL A   1      31.356  23.091  23.569  1.00  0.00     0.041 A 
ATOM     12  C   UNL A   1      33.720  24.375  22.986  1.00  0.00     0.049 A 
ATOM     13  C   UNL A   1      32.560  22.306  23.454  1.00  0.00     0.055 A 
BRANCH   9  14
ATOM     14  N   UNL A   1      30.149  25.244  23.329  1.00  0.00    -0.322 N 
ATOM     15  C   UNL A   1      29.687  26.246  24.161  1.00  0.00     0.255 C 
ATOM     16  O   UNL A   1      28.473  26.475  24.183  1.00  0.00    -0.269 OA
ATOM     17  H   UNL A   1      29.533  25.034  22.591  1.00  0.00     0.170 HD
BRANCH  15  18
ATOM     18  C   UNL A   1      30.586  27.178  24.906  1.00  0.00     0.043 A 
ATOM     19  C   UNL A   1      30.272  29.088  23.256  1.00  0.00     0.045 C 
ATOM     20  C   UNL A   1      30.930  28.459  24.446  1.00  0.00    -0.038 A 
ATOM     21  C   UNL A   1      31.813  29.252  25.205  1.00  0.00     0.004 A 
ATOM     22  C   UNL A   1      32.185  28.880  26.492  1.00  0.00     0.000 A 
ATOM     23  C   UNL A   1      30.898  26.854  26.241  1.00  0.00     0.014 A 
ATOM     24  C   UNL A   1      31.670  27.710  27.035  1.00  0.00     0.001 A 
ENDBRANCH  15  18
ENDBRANCH   9  14
BRANCH  13  25
ATOM     25  C   UNL A   1      32.339  20.847  23.596  1.00  0.00     0.128 A 
ATOM     26  N   UNL A   1      32.172  20.252  24.766  1.00  0.00    -0.236 NA
ATOM     27  S   UNL A   1      32.187  19.714  22.307  1.00  0.00    -0.114 S 
ATOM     28  C   UNL A   1      32.525  18.923  24.663  1.00  0.00     0.082 A 
ATOM     29  C   UNL A   1      32.814  18.500  23.368  1.00  0.00     0.055 A 
ATOM     30  C   UNL A   1      32.701  18.028  25.732  1.00  0.00     0.030 A 
ATOM     31  C   UNL A   1      33.465  17.283  23.116  1.00  0.00     0.021 A 
ATOM     32  C   UNL A   1      33.311  16.795  25.493  1.00  0.00     0.002 A 
ATOM     33  C   UNL A   1      33.733  16.451  24.210  1.00  0.00     0.002 A 
ENDBRANCH  13  25
ENDBRANCH   7   8
ENDBRANCH   6   7
ENDBRANCH   4   6
ENDBRANCH   3   4
ENDBRANCH   2   3
ENDBRANCH   1   2
BRANCH   1  34
ATOM     34  O   UNL A   1      39.270  24.577  27.053  1.00  0.00    -0.374 OA
BRANCH  34  35
ATOM     35  C   UNL A   1      39.979  24.719  28.284  1.00  0.00     0.202 C 
BRANCH  35  36
ATOM     36  C   UNL A   1      40.056  26.123  28.845  1.00  0.00     0.261 C 
BRANCH  36  37
ATOM     37  O   UNL A   1      39.159  27.021  28.210  1.00  0.00    -0.460 OA
BRANCH  37  38
ATOM     38  C   UNL A   1      38.778  28.120  28.938  1.00  0.00     0.338 C 
ATOM     39  O   UNL A   1      38.186  28.205  29.966  1.00  0.00    -0.246 OA
BRANCH  38  40
ATOM     40  C   UNL A   1      39.515  29.211  28.258  1.00  0.00     0.060 A 
ATOM     41  C   UNL A   1      39.703  29.080  26.877  1.00  0.00     0.016 A 
ATOM     42  C   UNL A   1      40.486  29.780  29.079  1.00  0.00     0.016 A 
ATOM     43  C   UNL A   1      40.997  29.161  26.390  1.00  0.00     0.010 A 
ATOM     44  C   UNL A   1      41.777  29.819  28.595  1.00  0.00     0.010 A 
ATOM     45  C   UNL A   1      42.032  29.295  27.322  1.00  0.00    -0.014 A 
BRANCH  45  46
ATOM     46  C   UNL A   1      43.297  28.567  27.146  1.00  0.00     0.031 A 
ATOM     47  C   UNL A   1      43.242  27.146  26.833  1.00  0.00     0.074 A 
ATOM     48  C   UNL A   1      44.498  29.185  27.139  1.00  0.00     0.049 A 
ATOM     49  N   UNL A   1      43.177  26.206  27.713  1.00  0.00    -0.248 NA
ATOM     50  C   UNL A   1      43.175  26.707  25.438  1.00  0.00     0.031 C 
ATOM     51  C   UNL A   1      45.819  28.582  27.003  1.00  0.00     0.029 A 
ATOM     52  N   UNL A   1      44.775  30.533  27.320  1.00  0.00    -0.354 N 
ATOM     53  C   UNL A   1      43.393  25.056  26.989  1.00  0.00     0.074 A 
ATOM     54  C   UNL A   1      43.114  25.384  25.597  1.00  0.00     0.031 C 
ATOM     55  C   UNL A   1      46.742  29.485  27.391  1.00  0.00     0.029 A 
ATOM     56  C   UNL A   1      46.067  30.715  27.796  1.00  0.00     0.049 A 
ATOM     57  H   UNL A   1      44.139  31.263  27.137  1.00  0.00     0.167 HD
ATOM     58  C   UNL A   1      44.355  24.153  27.338  1.00  0.00     0.031 A 
ATOM     59  C   UNL A   1      46.240  31.363  28.983  1.00  0.00     0.031 A 
ATOM     60  C   UNL A   1      45.397  24.768  28.169  1.00  0.00     0.049 A 
ATOM     61  C   UNL A   1      46.241  30.329  30.101  1.00  0.00     0.074 A 
ATOM     62  C   UNL A   1      46.723  25.080  27.911  1.00  0.00     0.029 A 
ATOM     63  N   UNL A   1      45.068  25.457  29.337  1.00  0.00    -0.354 N 
ATOM     64  N   UNL A   1      46.068  29.051  29.874  1.00  0.00    -0.248 NA
ATOM     65  C   UNL A   1      46.473  30.588  31.518  1.00  0.00     0.031 C 
ATOM     66  C   UNL A   1      47.163  26.012  28.892  1.00  0.00     0.029 A 
ATOM     67  C   UNL A   1      46.119  26.249  29.770  1.00  0.00     0.049 A 
ATOM     68  H   UNL A   1      44.199  25.389  29.796  1.00  0.00     0.167 HD
ATOM     69  C   UNL A   1      46.161  28.332  31.024  1.00  0.00     0.074 A 
ATOM     70  C   UNL A   1      46.414  29.343  32.038  1.00  0.00     0.031 C 
ATOM     71  C   UNL A   1      46.036  26.971  31.042  1.00  0.00     0.031 A 
BRANCH  58  72
ATOM     72  C   UNL A   1      44.477  22.874  26.537  1.00  0.00    -0.014 A 
ATOM     73  C   UNL A   1      45.661  22.518  25.872  1.00  0.00     0.010 A 
ATOM     74  C   UNL A   1      43.412  21.938  26.483  1.00  0.00     0.010 A 
ATOM     75  C   UNL A   1      45.756  21.325  25.134  1.00  0.00     0.020 A 
ATOM     76  C   UNL A   1      43.481  20.765  25.720  1.00  0.00     0.020 A 
ATOM     77  C   UNL A   1      44.662  20.461  25.055  1.00  0.00     0.054 A 
BRANCH  77  78
ATOM     78  S   UNL A   1      44.805  18.926  24.100  1.00  0.00     0.124 S 
ATOM     79  O   UNL A   1      44.571  19.381  22.732  1.00  0.00    -0.237 OA
ATOM     80  O   UNL A   1      46.169  18.501  24.401  1.00  0.00    -0.237 OA
ATOM     81  O   UNL A   1      43.752  18.076  24.653  1.00  0.00    -0.744 OA
ENDBRANCH  77  78
ENDBRANCH  58  72
BRANCH  59  82
ATOM     82  C   UNL A   1      45.724  32.772  28.916  1.00  0.00    -0.014 A 
ATOM     83  C   UNL A   1      46.159  33.517  27.790  1.00  0.00     0.010 A 
ATOM     84  C   UNL A   1      44.570  33.230  29.580  1.00  0.00     0.010 A 
ATOM     85  C   UNL A   1      45.414  34.585  27.267  1.00  0.00     0.020 A 
ATOM     86  C   UNL A   1      43.810  34.303  29.051  1.00  0.00     0.020 A 
ATOM     87  C   UNL A   1      44.224  34.958  27.883  1.00  0.00     0.054 A 
BRANCH  87  88
ATOM     88  S   UNL A   1      43.112  36.121  27.001  1.00  0.00     0.124 S 
ATOM     89  O   UNL A   1      42.778  35.381  25.791  1.00  0.00    -0.237 OA
ATOM     90  O   UNL A   1      42.016  36.301  27.954  1.00  0.00    -0.237 OA
ATOM     91  O   UNL A   1      43.955  37.298  26.816  1.00  0.00    -0.744 OA
ENDBRANCH  87  88
ENDBRANCH  59  82
BRANCH  71  92
ATOM     92  C   UNL A   1      45.907  26.136  32.287  1.00  0.00    -0.014 A 
ATOM     93  C   UNL A   1      44.680  25.834  32.891  1.00  0.00     0.010 A 
ATOM     94  C   UNL A   1      47.059  25.474  32.779  1.00  0.00     0.010 A 
ATOM     95  C   UNL A   1      44.611  24.933  33.959  1.00  0.00     0.020 A 
ATOM     96  C   UNL A   1      46.993  24.537  33.806  1.00  0.00     0.020 A 
ATOM     97  C   UNL A   1      45.767  24.286  34.405  1.00  0.00     0.054 A 
BRANCH  97  98
ATOM     98  S   UNL A   1      45.648  23.054  35.723  1.00  0.00     0.124 S 
ATOM     99  O   UNL A   1      44.460  23.504  36.444  1.00  0.00    -0.237 OA
ATOM    100  O   UNL A   1      45.496  21.801  34.984  1.00  0.00    -0.237 OA
ATOM    101  O   UNL A   1      46.911  23.196  36.441  1.00  0.00    -0.744 OA
ENDBRANCH  97  98
ENDBRANCH  71  92
ENDBRANCH  45  46
ENDBRANCH  38  40
ENDBRANCH  37  38
ENDBRANCH  36  37
ENDBRANCH  35  36
ENDBRANCH  34  35
ENDBRANCH   1  34
TORSDOF 22
ENDMDL
MODEL 2
REMARK VINA RESULT:     -11.5      3.399      5.437
REMARK SMILES Cc1ccccc1C(=O)Nc1ccc(OCC(=O)OCCOCCOC(=O)c2ccc(-c3c4nc(c(-c5ccc(S(=O)(=O)[O-])cc5)c5ccc([nH]5)c(-c5ccc(S(=O)(=O)[O-])cc5)c5nc(c(-c6ccc(S(=O)(=O)[O-])cc6)c6ccc3[nH]6)C=C5)C=C4)cc2)c(-c2nc3ccccc3s2)c1
REMARK SMILES IDX 21 1 20 2 19 3 17 4 18 5 16 6 15 7 14 8 11 9 12 10 98 11
REMARK SMILES IDX 13 12 88 13 10 14 8 15 9 16 7 18 1 19 2 20 3 21 4 22 6 23
REMARK SMILES IDX 5 24 89 25 90 26 97 27 91 28 96 29 92 30 95 31 93 32 94 33
REMARK SMILES IDX 22 34 23 35 24 36 25 37 26 38 27 39 28 40 29 41 87 42 30 43
REMARK SMILES IDX 86 44 31 45 32 46 33 47 80 48 34 49 85 50 79 51 81 52 35 53
REMARK SMILES IDX 84 54 78 55 77 56 36 58 66 59 47 60 65 61 48 62 51 63 64 64
REMARK SMILES IDX 82 65 49 66 50 67 63 69 83 70 52 71 37 72 38 73 46 74 39 75
REMARK SMILES IDX 45 76 40 77 41 78 42 79 43 80 44 81 67 82 68 83 76 84 69 85
REMARK SMILES IDX 75 86 70 87 71 88 72 89 73 90 74 91 53 92 54 93 62 94 55 95
REMARK SMILES IDX 61 96 56 97 57 98 58 99 59 100 60 101
REMARK H PARENT 10 17 81 57 51 68
REMARK Flexibility Score: inf
ROOT
ATOM      1  C   UNL A   1      40.186  20.125  26.111  1.00  0.00     0.202 C 
ENDROOT
BRANCH   1   2
ATOM      2  C   UNL A   1      39.504  21.482  26.161  1.00  0.00     0.261 C 
BRANCH   2   3
ATOM      3  O   UNL A   1      38.283  21.384  25.436  1.00  0.00    -0.461 OA
BRANCH   3   4
ATOM      4  C   UNL A   1      37.382  22.371  25.460  1.00  0.00     0.344 C 
ATOM      5  O   UNL A   1      37.571  23.527  25.810  1.00  0.00    -0.248 OA
BRANCH   4   6
ATOM      6  C   UNL A   1      36.057  21.831  24.923  1.00  0.00     0.352 C 
BRANCH   6   7
ATOM      7  O   UNL A   1      35.261  22.284  23.836  1.00  0.00    -0.481 OA
BRANCH   7   8
ATOM      8  C   UNL A   1      33.994  22.798  23.867  1.00  0.00     0.130 A 
ATOM      9  C   UNL A   1      31.590  24.335  23.601  1.00  0.00     0.042 A 
ATOM     10  C   UNL A   1      32.835  24.940  23.467  1.00  0.00     0.030 A 
ATOM     11  C   UNL A   1      31.553  22.958  23.800  1.00  0.00     0.041 A 
ATOM     12  C   UNL A   1      34.008  24.193  23.659  1.00  0.00     0.049 A 
ATOM     13  C   UNL A   1      32.741  22.144  23.850  1.00  0.00     0.055 A 
BRANCH   9  14
ATOM     14  N   UNL A   1      30.450  25.152  23.454  1.00  0.00    -0.322 N 
ATOM     15  C   UNL A   1      29.931  26.199  24.193  1.00  0.00     0.255 C 
ATOM     16  O   UNL A   1      28.730  26.462  24.072  1.00  0.00    -0.269 OA
ATOM     17  H   UNL A   1      29.912  24.931  22.660  1.00  0.00     0.170 HD
BRANCH  15  18
ATOM     18  C   UNL A   1      30.774  27.135  24.998  1.00  0.00     0.043 A 
ATOM     19  C   UNL A   1      30.692  28.990  23.262  1.00  0.00     0.045 C 
ATOM     20  C   UNL A   1      31.201  28.389  24.536  1.00  0.00    -0.038 A 
ATOM     21  C   UNL A   1      32.021  29.186  25.357  1.00  0.00     0.004 A 
ATOM     22  C   UNL A   1      32.244  28.851  26.689  1.00  0.00     0.000 A 
ATOM     23  C   UNL A   1      30.932  26.851  26.369  1.00  0.00     0.014 A 
ATOM     24  C   UNL A   1      31.640  27.715  27.213  1.00  0.00     0.001 A 
ENDBRANCH  15  18
ENDBRANCH   9  14
BRANCH  13  25
ATOM     25  C   UNL A   1      32.467  20.687  23.896  1.00  0.00     0.128 A 
ATOM     26  N   UNL A   1      32.280  20.022  25.025  1.00  0.00    -0.236 NA
ATOM     27  S   UNL A   1      32.273  19.649  22.535  1.00  0.00    -0.114 S 
ATOM     28  C   UNL A   1      32.584  18.691  24.833  1.00  0.00     0.082 A 
ATOM     29  C   UNL A   1      32.856  18.345  23.511  1.00  0.00     0.055 A 
ATOM     30  C   UNL A   1      32.729  17.722  25.839  1.00  0.00     0.030 A 
ATOM     31  C   UNL A   1      33.462  17.125  23.177  1.00  0.00     0.021 A 
ATOM     32  C   UNL A   1      33.294  16.485  25.517  1.00  0.00     0.002 A 
ATOM     33  C   UNL A   1      33.701  16.213  24.213  1.00  0.00     0.002 A 
ENDBRANCH  13  25
ENDBRANCH   7   8
ENDBRANCH   6   7
ENDBRANCH   4   6
ENDBRANCH   3   4
ENDBRANCH   2   3
ENDBRANCH   1   2
BRANCH   1  34
ATOM     34  O   UNL A   1      41.583  20.160  25.805  1.00  0.00    -0.374 OA
BRANCH  34  35
ATOM     35  C   UNL A   1      42.397  21.139  26.450  1.00  0.00     0.202 C 
BRANCH  35  36
ATOM     36  C   UNL A   1      42.954  22.228  25.557  1.00  0.00     0.261 C 
BRANCH  36  37
ATOM     37  O   UNL A   1      42.119  23.375  25.499  1.00  0.00    -0.460 OA
BRANCH  37  38
ATOM     38  C   UNL A   1      42.748  24.592  25.589  1.00  0.00     0.338 C 
ATOM     39  O   UNL A   1      43.605  25.075  24.922  1.00  0.00    -0.246 OA
BRANCH  38  40
ATOM     40  C   UNL A   1      41.912  25.296  26.589  1.00  0.00     0.060 A 
ATOM     41  C   UNL A   1      41.830  26.689  26.475  1.00  0.00     0.016 A 
ATOM     42  C   UNL A   1      41.933  24.663  27.830  1.00  0.00     0.016 A 
ATOM     43  C   UNL A   1      42.157  27.449  27.585  1.00  0.00     0.010 A 
ATOM     44  C   UNL A   1      42.298  25.424  28.920  1.00  0.00     0.010 A 
ATOM     45  C   UNL A   1      42.617  26.773  28.720  1.00  0.00    -0.014 A 
BRANCH  45  46
ATOM     46  C   UNL A   1      43.725  27.318  29.519  1.00  0.00     0.031 A 
ATOM     47  C   UNL A   1      45.088  26.987  29.130  1.00  0.00     0.074 A 
ATOM     48  C   UNL A   1      43.533  28.208  30.517  1.00  0.00     0.049 A 
ATOM     49  N   UNL A   1      45.726  25.938  29.522  1.00  0.00    -0.248 NA
ATOM     50  C   UNL A   1      45.799  27.833  28.170  1.00  0.00     0.031 C 
ATOM     51  C   UNL A   1      44.533  28.800  31.398  1.00  0.00     0.029 A 
ATOM     52  N   UNL A   1      42.336  28.729  30.990  1.00  0.00    -0.354 N 
ATOM     53  C   UNL A   1      47.022  26.167  29.120  1.00  0.00     0.074 A 
ATOM     54  C   UNL A   1      46.960  27.183  28.078  1.00  0.00     0.031 C 
ATOM     55  C   UNL A   1      43.900  29.350  32.454  1.00  0.00     0.029 A 
ATOM     56  C   UNL A   1      42.461  29.142  32.310  1.00  0.00     0.049 A 
ATOM     57  H   UNL A   1      41.509  28.796  30.459  1.00  0.00     0.167 HD
ATOM     58  C   UNL A   1      48.072  26.087  29.988  1.00  0.00     0.031 A 
ATOM     59  C   UNL A   1      41.641  28.589  33.247  1.00  0.00     0.031 A 
ATOM     60  C   UNL A   1      47.637  26.260  31.379  1.00  0.00     0.049 A 
ATOM     61  C   UNL A   1      42.330  27.361  33.827  1.00  0.00     0.074 A 
ATOM     62  C   UNL A   1      47.826  27.292  32.286  1.00  0.00     0.029 A 
ATOM     63  N   UNL A   1      46.625  25.464  31.918  1.00  0.00    -0.354 N 
ATOM     64  N   UNL A   1      43.505  26.957  33.415  1.00  0.00    -0.248 NA
ATOM     65  C   UNL A   1      41.831  26.520  34.911  1.00  0.00     0.031 C 
ATOM     66  C   UNL A   1      46.875  27.145  33.335  1.00  0.00     0.029 A 
ATOM     67  C   UNL A   1      46.124  26.008  33.090  1.00  0.00     0.049 A 
ATOM     68  H   UNL A   1      46.308  24.622  31.517  1.00  0.00     0.167 HD
ATOM     69  C   UNL A   1      43.926  25.873  34.120  1.00  0.00     0.074 A 
ATOM     70  C   UNL A   1      42.836  25.630  35.052  1.00  0.00     0.031 C 
ATOM     71  C   UNL A   1      45.135  25.280  33.888  1.00  0.00     0.031 A 
BRANCH  58  72
ATOM     72  C   UNL A   1      49.476  26.273  29.452  1.00  0.00    -0.014 A 
ATOM     73  C   UNL A   1      50.345  27.254  29.955  1.00  0.00     0.010 A 
ATOM     74  C   UNL A   1      50.001  25.409  28.456  1.00  0.00     0.010 A 
ATOM     75  C   UNL A   1      51.645  27.411  29.445  1.00  0.00     0.020 A 
ATOM     76  C   UNL A   1      51.280  25.580  27.913  1.00  0.00     0.020 A 
ATOM     77  C   UNL A   1      52.101  26.579  28.420  1.00  0.00     0.054 A 
BRANCH  77  78
ATOM     78  S   UNL A   1      53.783  26.796  27.777  1.00  0.00     0.124 S 
ATOM     79  O   UNL A   1      53.897  28.248  27.672  1.00  0.00    -0.237 OA
ATOM     80  O   UNL A   1      54.595  26.171  28.817  1.00  0.00    -0.237 OA
ATOM     81  O   UNL A   1      53.758  26.088  26.497  1.00  0.00    -0.744 OA
ENDBRANCH  77  78
ENDBRANCH  58  72
BRANCH  59  82
ATOM     82  C   UNL A   1      40.198  28.889  32.954  1.00  0.00    -0.014 A 
ATOM     83  C   UNL A   1      39.867  30.268  32.923  1.00  0.00     0.010 A 
ATOM     84  C   UNL A   1      39.315  28.004  32.306  1.00  0.00     0.010 A 
ATOM     85  C   UNL A   1      38.787  30.761  32.175  1.00  0.00     0.020 A 
ATOM     86  C   UNL A   1      38.228  28.497  31.543  1.00  0.00     0.020 A 
ATOM     87  C   UNL A   1      37.986  29.876  31.462  1.00  0.00     0.054 A 
BRANCH  87  88
ATOM     88  S   UNL A   1      36.801  30.560  30.239  1.00  0.00     0.124 S 
ATOM     89  O   UNL A   1      36.279  29.360  29.599  1.00  0.00    -0.237 OA
ATOM     90  O   UNL A   1      35.854  31.289  31.084  1.00  0.00    -0.237 OA
ATOM     91  O   UNL A   1      37.649  31.408  29.407  1.00  0.00    -0.744 OA
ENDBRANCH  87  88
ENDBRANCH  59  82
BRANCH  71  92
ATOM     92  C   UNL A   1      45.570  23.961  34.467  1.00  0.00    -0.014 A 
ATOM     93  C   UNL A   1      46.586  23.835  35.424  1.00  0.00     0.010 A 
ATOM     94  C   UNL A   1      44.806  22.806  34.167  1.00  0.00     0.010 A 
ATOM     95  C   UNL A   1      46.845  22.602  36.033  1.00  0.00     0.020 A 
ATOM     96  C   UNL A   1      45.022  21.589  34.807  1.00  0.00     0.020 A 
ATOM     97  C   UNL A   1      46.058  21.489  35.725  1.00  0.00     0.054 A 
BRANCH  97  98
ATOM     98  S   UNL A   1      46.344  19.927  36.590  1.00  0.00     0.124 S 
ATOM     99  O   UNL A   1      45.710  20.182  37.880  1.00  0.00    -0.237 OA
ATOM    100  O   UNL A   1      45.661  18.955  35.737  1.00  0.00    -0.237 OA
ATOM    101  O   UNL A   1      47.798  19.810  36.615  1.00  0.00    -0.744 OA
ENDBRANCH  97  98
ENDBRANCH  71  92
ENDBRANCH  45  46
ENDBRANCH  38  40
ENDBRANCH  37  38
ENDBRANCH  36  37
ENDBRANCH  35  36
ENDBRANCH  34  35
ENDBRANCH   1  34
TORSDOF 22
ENDMDL
MODEL 3
REMARK VINA RESULT:     -11.2      4.387      7.502
REMARK SMILES Cc1ccccc1C(=O)Nc1ccc(OCC(=O)OCCOCCOC(=O)c2ccc(-c3c4nc(c(-c5ccc(S(=O)(=O)[O-])cc5)c5ccc([nH]5)c(-c5ccc(S(=O)(=O)[O-])cc5)c5nc(c(-c6ccc(S(=O)(=O)[O-])cc6)c6ccc3[nH]6)C=C5)C=C4)cc2)c(-c2nc3ccccc3s2)c1
REMARK SMILES IDX 21 1 20 2 19 3 17 4 18 5 16 6 15 7 14 8 11 9 12 10 98 11
REMARK SMILES IDX 13 12 88 13 10 14 8 15 9 16 7 18 1 19 2 20 3 21 4 22 6 23
REMARK SMILES IDX 5 24 89 25 90 26 97 27 91 28 96 29 92 30 95 31 93 32 94 33
REMARK SMILES IDX 22 34 23 35 24 36 25 37 26 38 27 39 28 40 29 41 87 42 30 43
REMARK SMILES IDX 86 44 31 45 32 46 33 47 80 48 34 49 85 50 79 51 81 52 35 53
REMARK SMILES IDX 84 54 78 55 77 56 36 58 66 59 47 60 65 61 48 62 51 63 64 64
REMARK SMILES IDX 82 65 49 66 50 67 63 69 83 70 52 71 37 72 38 73 46 74 39 75
REMARK SMILES IDX 45 76 40 77 41 78 42 79 43 80 44 81 67 82 68 83 76 84 69 85
REMARK SMILES IDX 75 86 70 87 71 88 72 89 73 90 74 91 53 92 54 93 62 94 55 95
REMARK SMILES IDX 61 96 56 97 57 98 58 99 59 100 60 101
REMARK H PARENT 10 17 81 57 51 68
REMARK Flexibility Score: inf
ROOT
ATOM      1  C   UNL A   1      35.131  32.635  28.139  1.00  0.00     0.202 C 
ENDROOT
BRANCH   1   2
ATOM      2  C   UNL A   1      35.487  31.229  27.688  1.00  0.00     0.261 C 
BRANCH   2   3
ATOM      3  O   UNL A   1      34.385  30.714  26.951  1.00  0.00    -0.461 OA
BRANCH   3   4
ATOM      4  C   UNL A   1      34.114  29.405  26.932  1.00  0.00     0.344 C 
ATOM      5  O   UNL A   1      34.374  28.590  27.806  1.00  0.00    -0.248 OA
BRANCH   4   6
ATOM      6  C   UNL A   1      33.369  29.082  25.636  1.00  0.00     0.352 C 
BRANCH   6   7
ATOM      7  O   UNL A   1      32.146  28.387  25.438  1.00  0.00    -0.481 OA
BRANCH   7   8
ATOM      8  C   UNL A   1      31.939  27.199  24.794  1.00  0.00     0.130 A 
ATOM      9  C   UNL A   1      31.692  24.461  23.981  1.00  0.00     0.042 A 
ATOM     10  C   UNL A   1      32.527  24.814  25.036  1.00  0.00     0.030 A 
ATOM     11  C   UNL A   1      30.937  25.466  23.384  1.00  0.00     0.041 A 
ATOM     12  C   UNL A   1      32.689  26.162  25.389  1.00  0.00     0.049 A 
ATOM     13  C   UNL A   1      30.973  26.838  23.827  1.00  0.00     0.055 A 
BRANCH   9  14
ATOM     14  N   UNL A   1      31.617  23.095  23.639  1.00  0.00    -0.322 N 
ATOM     15  C   UNL A   1      32.561  22.157  23.267  1.00  0.00     0.255 C 
ATOM     16  O   UNL A   1      32.182  21.162  22.639  1.00  0.00    -0.269 OA
ATOM     17  H   UNL A   1      30.701  22.735  23.672  1.00  0.00     0.170 HD
BRANCH  15  18
ATOM     18  C   UNL A   1      33.983  22.194  23.725  1.00  0.00     0.043 A 
ATOM     19  C   UNL A   1      33.724  20.195  25.275  1.00  0.00     0.045 C 
ATOM     20  C   UNL A   1      34.502  21.348  24.717  1.00  0.00    -0.038 A 
ATOM     21  C   UNL A   1      35.849  21.481  25.105  1.00  0.00     0.004 A 
ATOM     22  C   UNL A   1      36.726  22.286  24.385  1.00  0.00     0.000 A 
ATOM     23  C   UNL A   1      34.897  22.936  22.951  1.00  0.00     0.014 A 
ATOM     24  C   UNL A   1      36.262  22.961  23.264  1.00  0.00     0.001 A 
ENDBRANCH  15  18
ENDBRANCH   9  14
BRANCH  13  25
ATOM     25  C   UNL A   1      29.966  27.705  23.169  1.00  0.00     0.128 A 
ATOM     26  N   UNL A   1      30.259  28.523  22.170  1.00  0.00    -0.236 NA
ATOM     27  S   UNL A   1      28.280  27.749  23.520  1.00  0.00    -0.114 S 
ATOM     28  C   UNL A   1      29.336  29.547  22.126  1.00  0.00     0.082 A 
ATOM     29  C   UNL A   1      28.267  29.401  23.007  1.00  0.00     0.055 A 
ATOM     30  C   UNL A   1      29.439  30.721  21.361  1.00  0.00     0.030 A 
ATOM     31  C   UNL A   1      27.406  30.467  23.306  1.00  0.00     0.021 A 
ATOM     32  C   UNL A   1      28.563  31.778  21.616  1.00  0.00     0.002 A 
ATOM     33  C   UNL A   1      27.594  31.668  22.611  1.00  0.00     0.002 A 
ENDBRANCH  13  25
ENDBRANCH   7   8
ENDBRANCH   6   7
ENDBRANCH   4   6
ENDBRANCH   3   4
ENDBRANCH   2   3
ENDBRANCH   1   2
BRANCH   1  34
ATOM     34  O   UNL A   1      34.477  32.716  29.408  1.00  0.00    -0.374 OA
BRANCH  34  35
ATOM     35  C   UNL A   1      35.204  33.244  30.518  1.00  0.00     0.202 C 
BRANCH  35  36
ATOM     36  C   UNL A   1      34.977  32.553  31.846  1.00  0.00     0.261 C 
BRANCH  36  37
ATOM     37  O   UNL A   1      35.469  31.222  31.866  1.00  0.00    -0.460 OA
BRANCH  37  38
ATOM     38  C   UNL A   1      36.805  31.070  32.145  1.00  0.00     0.338 C 
ATOM     39  O   UNL A   1      37.495  31.598  32.955  1.00  0.00    -0.246 OA
BRANCH  38  40
ATOM     40  C   UNL A   1      37.152  29.873  31.343  1.00  0.00     0.060 A 
ATOM     41  C   UNL A   1      37.648  28.767  32.042  1.00  0.00     0.016 A 
ATOM     42  C   UNL A   1      37.619  30.209  30.074  1.00  0.00     0.016 A 
ATOM     43  C   UNL A   1      38.865  28.241  31.640  1.00  0.00     0.010 A 
ATOM     44  C   UNL A   1      38.850  29.708  29.704  1.00  0.00     0.010 A 
ATOM     45  C   UNL A   1      39.545  28.898  30.610  1.00  0.00    -0.014 A 
BRANCH  45  46
ATOM     46  C   UNL A   1      41.005  29.068  30.665  1.00  0.00     0.031 A 
ATOM     47  C   UNL A   1      41.819  28.413  29.651  1.00  0.00     0.074 A 
ATOM     48  C   UNL A   1      41.608  29.904  31.539  1.00  0.00     0.049 A 
ATOM     49  N   UNL A   1      42.262  27.206  29.739  1.00  0.00    -0.248 NA
ATOM     50  C   UNL A   1      42.116  29.103  28.395  1.00  0.00     0.031 C 
ATOM     51  C   UNL A   1      43.035  30.141  31.717  1.00  0.00     0.029 A 
ATOM     52  N   UNL A   1      41.023  30.691  32.522  1.00  0.00    -0.354 N 
ATOM     53  C   UNL A   1      43.163  27.106  28.702  1.00  0.00     0.074 A 
ATOM     54  C   UNL A   1      42.836  28.174  27.766  1.00  0.00     0.031 C 
ATOM     55  C   UNL A   1      43.220  30.764  32.899  1.00  0.00     0.029 A 
ATOM     56  C   UNL A   1      41.924  30.961  33.544  1.00  0.00     0.049 A 
ATOM     57  H   UNL A   1      40.093  31.016  32.497  1.00  0.00     0.167 HD
ATOM     58  C   UNL A   1      44.446  26.687  28.899  1.00  0.00     0.031 A 
ATOM     59  C   UNL A   1      41.603  30.583  34.813  1.00  0.00     0.031 A 
ATOM     60  C   UNL A   1      44.867  26.870  30.292  1.00  0.00     0.049 A 
ATOM     61  C   UNL A   1      42.139  29.176  35.048  1.00  0.00     0.074 A 
ATOM     62  C   UNL A   1      45.767  27.746  30.880  1.00  0.00     0.029 A 
ATOM     63  N   UNL A   1      44.118  26.338  31.343  1.00  0.00    -0.354 N 
ATOM     64  N   UNL A   1      42.769  28.502  34.119  1.00  0.00    -0.248 NA
ATOM     65  C   UNL A   1      42.079  28.426  36.298  1.00  0.00     0.031 C 
ATOM     66  C   UNL A   1      45.507  27.785  32.278  1.00  0.00     0.029 A 
ATOM     67  C   UNL A   1      44.469  26.912  32.555  1.00  0.00     0.049 A 
ATOM     68  H   UNL A   1      43.428  25.643  31.237  1.00  0.00     0.167 HD
ATOM     69  C   UNL A   1      43.192  27.299  34.588  1.00  0.00     0.074 A 
ATOM     70  C   UNL A   1      42.732  27.291  35.968  1.00  0.00     0.031 C 
ATOM     71  C   UNL A   1      43.892  26.421  33.809  1.00  0.00     0.031 A 
BRANCH  58  72
ATOM     72  C   UNL A   1      45.352  26.527  27.696  1.00  0.00    -0.014 A 
ATOM     73  C   UNL A   1      45.128  25.546  26.717  1.00  0.00     0.010 A 
ATOM     74  C   UNL A   1      46.434  27.416  27.469  1.00  0.00     0.010 A 
ATOM     75  C   UNL A   1      45.980  25.414  25.606  1.00  0.00     0.020 A 
ATOM     76  C   UNL A   1      47.311  27.271  26.387  1.00  0.00     0.020 A 
ATOM     77  C   UNL A   1      47.072  26.271  25.453  1.00  0.00     0.054 A 
BRANCH  77  78
ATOM     78  S   UNL A   1      48.157  26.085  24.012  1.00  0.00     0.124 S 
ATOM     79  O   UNL A   1      47.774  24.774  23.495  1.00  0.00    -0.237 OA
ATOM     80  O   UNL A   1      47.772  27.227  23.187  1.00  0.00    -0.237 OA
ATOM     81  O   UNL A   1      49.502  26.153  24.582  1.00  0.00    -0.744 OA
ENDBRANCH  77  78
ENDBRANCH  58  72
BRANCH  59  82
ATOM     82  C   UNL A   1      40.361  31.279  35.292  1.00  0.00    -0.014 A 
ATOM     83  C   UNL A   1      39.243  30.432  35.503  1.00  0.00     0.010 A 
ATOM     84  C   UNL A   1      40.347  32.530  35.937  1.00  0.00     0.010 A 
ATOM     85  C   UNL A   1      38.223  30.753  36.412  1.00  0.00     0.020 A 
ATOM     86  C   UNL A   1      39.324  32.855  36.863  1.00  0.00     0.020 A 
ATOM     87  C   UNL A   1      38.281  31.953  37.113  1.00  0.00     0.054 A 
BRANCH  87  88
ATOM     88  S   UNL A   1      37.133  32.197  38.523  1.00  0.00     0.124 S 
ATOM     89  O   UNL A   1      37.996  32.794  39.533  1.00  0.00    -0.237 OA
ATOM     90  O   UNL A   1      36.115  33.083  37.957  1.00  0.00    -0.237 OA
ATOM     91  O   UNL A   1      36.670  30.841  38.803  1.00  0.00    -0.744 OA
ENDBRANCH  87  88
ENDBRANCH  59  82
BRANCH  71  92
ATOM     92  C   UNL A   1      44.198  24.996  34.182  1.00  0.00    -0.014 A 
ATOM     93  C   UNL A   1      44.284  23.954  33.249  1.00  0.00     0.010 A 
ATOM     94  C   UNL A   1      44.592  24.716  35.514  1.00  0.00     0.010 A 
ATOM     95  C   UNL A   1      44.718  22.681  33.637  1.00  0.00     0.020 A 
ATOM     96  C   UNL A   1      45.073  23.467  35.897  1.00  0.00     0.020 A 
ATOM     97  C   UNL A   1      45.114  22.448  34.956  1.00  0.00     0.054 A 
BRANCH  97  98
ATOM     98  S   UNL A   1      45.761  20.824  35.420  1.00  0.00     0.124 S 
ATOM     99  O   UNL A   1      45.925  20.971  36.864  1.00  0.00    -0.237 OA
ATOM    100  O   UNL A   1      44.693  19.918  35.000  1.00  0.00    -0.237 OA
ATOM    101  O   UNL A   1      46.998  20.715  34.654  1.00  0.00    -0.744 OA
ENDBRANCH  97  98
ENDBRANCH  71  92
ENDBRANCH  45  46
ENDBRANCH  38  40
ENDBRANCH  37  38
ENDBRANCH  36  37
ENDBRANCH  35  36
ENDBRANCH  34  35
ENDBRANCH   1  34
TORSDOF 22
ENDMDL
