MODEL 1
REMARK VINA RESULT:     -10.2      0.000      0.000
REMARK SMILES O=C(OCCOCCOC(=O)[C@H]1[C@@H](C(=O)Nc2ccccc2-c2ccccc2)[C@@H]2C=C[C@H]1O2)c1ccc(-c2c3nc(c(-c4ccc(S(=O)(=O)[O-])cc4)c4ccc([nH]4)c(-c4ccc(S(=O)(=O)[O-])cc4)c4nc(c(-c5ccc(S(=O)(=O)[O-])cc5)c5ccc2[nH]5)C=C4)C=C3)cc1
REMARK SMILES IDX 6 1 5 2 4 3 3 4 2 5 1 6 34 7 35 8 93 9 36 10 92 11 37 12
REMARK SMILES IDX 38 13 39 14 86 15 40 16 91 17 85 18 87 19 41 20 90 21 84 22
REMARK SMILES IDX 83 23 42 25 72 26 53 27 71 28 54 29 57 30 70 31 88 32 55 33
REMARK SMILES IDX 56 34 69 36 89 37 58 38 43 39 44 40 52 41 45 42 51 43 46 44
REMARK SMILES IDX 47 45 48 46 49 47 50 48 73 49 74 50 82 51 75 52 81 53 76 54
REMARK SMILES IDX 77 55 78 56 79 57 80 58 59 59 60 60 68 61 61 62 67 63 62 64
REMARK SMILES IDX 63 65 64 66 65 67 66 68 7 69 8 70 9 71 10 72 11 73 12 74
REMARK SMILES IDX 13 75 32 76 29 77 31 78 33 79 30 80 14 81 15 82 16 83 17 85
REMARK SMILES IDX 18 86 22 87 19 88 21 89 20 90 23 91 24 92 28 93 25 94 27 95
REMARK SMILES IDX 26 96
REMARK H PARENT 87 24 57 35 16 84
REMARK Flexibility Score: inf
ROOT
ATOM      1  O   UNL A   1      35.167  33.397  28.782  1.00  0.00    -0.374 OA
ENDROOT
BRANCH   1   2
ATOM      2  C   UNL A   1      34.798  33.366  30.167  1.00  0.00     0.202 C 
BRANCH   2   3
ATOM      3  C   UNL A   1      35.160  32.110  30.964  1.00  0.00     0.261 C 
BRANCH   3   4
ATOM      4  O   UNL A   1      36.554  32.104  31.307  1.00  0.00    -0.460 OA
BRANCH   4   5
ATOM      5  C   UNL A   1      37.303  31.086  31.782  1.00  0.00     0.338 C 
ATOM      6  O   UNL A   1      36.892  30.470  32.766  1.00  0.00    -0.246 OA
BRANCH   5   7
ATOM      7  C   UNL A   1      38.614  30.672  31.189  1.00  0.00     0.060 A 
ATOM      8  C   UNL A   1      39.689  30.146  31.906  1.00  0.00     0.016 A 
ATOM      9  C   UNL A   1      38.730  30.735  29.790  1.00  0.00     0.016 A 
ATOM     10  C   UNL A   1      40.841  29.704  31.284  1.00  0.00     0.010 A 
ATOM     11  C   UNL A   1      39.883  30.278  29.144  1.00  0.00     0.010 A 
ATOM     12  C   UNL A   1      40.938  29.762  29.902  1.00  0.00    -0.014 A 
BRANCH  12  13
ATOM     13  C   UNL A   1      42.219  29.357  29.316  1.00  0.00     0.031 A 
ATOM     14  C   UNL A   1      42.329  27.970  28.769  1.00  0.00     0.074 A 
ATOM     15  C   UNL A   1      43.171  30.288  29.130  1.00  0.00     0.049 A 
ATOM     16  N   UNL A   1      43.345  27.395  28.190  1.00  0.00    -0.248 NA
ATOM     17  C   UNL A   1      41.124  27.124  28.863  1.00  0.00     0.031 C 
ATOM     18  C   UNL A   1      43.054  31.702  29.503  1.00  0.00     0.029 A 
ATOM     19  N   UNL A   1      44.403  30.200  28.544  1.00  0.00    -0.354 N 
ATOM     20  C   UNL A   1      42.914  26.114  27.876  1.00  0.00     0.074 A 
ATOM     21  C   UNL A   1      41.544  25.993  28.317  1.00  0.00     0.031 C 
ATOM     22  C   UNL A   1      44.167  32.349  29.123  1.00  0.00     0.029 A 
ATOM     23  C   UNL A   1      45.093  31.388  28.539  1.00  0.00     0.049 A 
ATOM     24  H   UNL A   1      44.760  29.365  28.162  1.00  0.00     0.167 HD
ATOM     25  C   UNL A   1      43.622  25.127  27.285  1.00  0.00     0.031 A 
ATOM     26  C   UNL A   1      46.352  31.646  28.137  1.00  0.00     0.031 A 
ATOM     27  C   UNL A   1      44.992  25.284  26.882  1.00  0.00     0.049 A 
ATOM     28  C   UNL A   1      47.152  30.496  27.586  1.00  0.00     0.074 A 
ATOM     29  C   UNL A   1      45.849  24.342  26.349  1.00  0.00     0.029 A 
ATOM     30  N   UNL A   1      45.700  26.475  26.975  1.00  0.00    -0.354 N 
ATOM     31  N   UNL A   1      46.765  29.261  27.358  1.00  0.00    -0.248 NA
ATOM     32  C   UNL A   1      48.556  30.763  27.252  1.00  0.00     0.031 C 
ATOM     33  C   UNL A   1      47.094  24.954  26.165  1.00  0.00     0.029 A 
ATOM     34  C   UNL A   1      46.994  26.289  26.529  1.00  0.00     0.049 A 
ATOM     35  H   UNL A   1      45.335  27.326  27.309  1.00  0.00     0.167 HD
ATOM     36  C   UNL A   1      47.874  28.605  26.843  1.00  0.00     0.074 A 
ATOM     37  C   UNL A   1      48.940  29.588  26.770  1.00  0.00     0.031 C 
ATOM     38  C   UNL A   1      48.013  27.308  26.471  1.00  0.00     0.031 A 
BRANCH  25  39
ATOM     39  C   UNL A   1      42.951  23.791  27.138  1.00  0.00    -0.014 A 
ATOM     40  C   UNL A   1      42.913  22.864  28.194  1.00  0.00     0.010 A 
ATOM     41  C   UNL A   1      42.353  23.457  25.909  1.00  0.00     0.010 A 
ATOM     42  C   UNL A   1      42.310  21.615  28.014  1.00  0.00     0.020 A 
ATOM     43  C   UNL A   1      41.732  22.218  25.732  1.00  0.00     0.020 A 
ATOM     44  C   UNL A   1      41.726  21.300  26.782  1.00  0.00     0.054 A 
BRANCH  44  45
ATOM     45  S   UNL A   1      40.932  19.681  26.581  1.00  0.00     0.124 S 
ATOM     46  O   UNL A   1      39.687  20.038  25.904  1.00  0.00    -0.237 OA
ATOM     47  O   UNL A   1      41.900  18.948  25.769  1.00  0.00    -0.237 OA
ATOM     48  O   UNL A   1      40.778  19.197  27.950  1.00  0.00    -0.744 OA
ENDBRANCH  44  45
ENDBRANCH  25  39
BRANCH  26  49
ATOM     49  C   UNL A   1      46.947  33.000  28.320  1.00  0.00    -0.014 A 
ATOM     50  C   UNL A   1      46.881  33.972  27.307  1.00  0.00     0.010 A 
ATOM     51  C   UNL A   1      47.616  33.317  29.519  1.00  0.00     0.010 A 
ATOM     52  C   UNL A   1      47.498  35.218  27.477  1.00  0.00     0.020 A 
ATOM     53  C   UNL A   1      48.204  34.570  29.705  1.00  0.00     0.020 A 
ATOM     54  C   UNL A   1      48.161  35.506  28.673  1.00  0.00     0.054 A 
BRANCH  54  55
ATOM     55  S   UNL A   1      48.952  37.126  28.877  1.00  0.00     0.124 S 
ATOM     56  O   UNL A   1      48.790  37.364  30.308  1.00  0.00    -0.237 OA
ATOM     57  O   UNL A   1      50.319  36.873  28.428  1.00  0.00    -0.237 OA
ATOM     58  O   UNL A   1      48.171  38.001  28.005  1.00  0.00    -0.744 OA
ENDBRANCH  54  55
ENDBRANCH  26  49
BRANCH  38  59
ATOM     59  C   UNL A   1      49.351  26.900  25.925  1.00  0.00    -0.014 A 
ATOM     60  C   UNL A   1      49.671  27.099  24.572  1.00  0.00     0.010 A 
ATOM     61  C   UNL A   1      50.319  26.375  26.799  1.00  0.00     0.010 A 
ATOM     62  C   UNL A   1      50.936  26.754  24.095  1.00  0.00     0.020 A 
ATOM     63  C   UNL A   1      51.593  26.056  26.331  1.00  0.00     0.020 A 
ATOM     64  C   UNL A   1      51.890  26.237  24.978  1.00  0.00     0.054 A 
BRANCH  64  65
ATOM     65  S   UNL A   1      53.544  25.852  24.347  1.00  0.00     0.124 S 
ATOM     66  O   UNL A   1      53.706  24.459  24.755  1.00  0.00    -0.237 OA
ATOM     67  O   UNL A   1      53.401  26.075  22.910  1.00  0.00    -0.237 OA
ATOM     68  O   UNL A   1      54.407  26.809  25.036  1.00  0.00    -0.744 OA
ENDBRANCH  64  65
ENDBRANCH  38  59
ENDBRANCH  12  13
ENDBRANCH   5   7
ENDBRANCH   4   5
ENDBRANCH   3   4
ENDBRANCH   2   3
ENDBRANCH   1   2
BRANCH   1  69
ATOM     69  C   UNL A   1      34.980  32.183  28.037  1.00  0.00     0.202 C 
BRANCH  69  70
ATOM     70  C   UNL A   1      33.513  31.995  27.604  1.00  0.00     0.261 C 
BRANCH  70  71
ATOM     71  O   UNL A   1      33.195  30.603  27.464  1.00  0.00    -0.463 OA
BRANCH  71  72
ATOM     72  C   UNL A   1      32.179  30.363  26.619  1.00  0.00     0.312 C 
ATOM     73  O   UNL A   1      31.526  31.243  26.065  1.00  0.00    -0.252 OA
BRANCH  72  74
ATOM     74  C   UNL A   1      31.972  28.902  26.309  1.00  0.00     0.147 C 
ATOM     75  C   UNL A   1      32.279  28.239  24.917  1.00  0.00     0.129 C 
ATOM     76  C   UNL A   1      32.909  28.137  27.250  1.00  0.00     0.157 C 
ATOM     77  C   UNL A   1      33.442  27.308  25.318  1.00  0.00     0.155 C 
ATOM     78  C   UNL A   1      32.526  26.684  27.302  1.00  0.00     0.004 C 
ATOM     79  O   UNL A   1      34.072  28.048  26.393  1.00  0.00    -0.365 OA
ATOM     80  C   UNL A   1      32.874  26.166  26.117  1.00  0.00     0.004 C 
BRANCH  75  81
ATOM     81  C   UNL A   1      32.481  29.081  23.647  1.00  0.00     0.231 C 
ATOM     82  O   UNL A   1      33.514  29.704  23.403  1.00  0.00    -0.274 OA
ATOM     83  N   UNL A   1      31.478  29.315  22.760  1.00  0.00    -0.325 N 
ATOM     84  H   UNL A   1      31.767  29.490  21.835  1.00  0.00     0.169 HD
BRANCH  83  85
ATOM     85  C   UNL A   1      30.100  29.343  22.971  1.00  0.00     0.049 A 
ATOM     86  C   UNL A   1      29.534  30.624  22.932  1.00  0.00     0.027 A 
ATOM     87  C   UNL A   1      29.304  28.184  23.143  1.00  0.00     0.005 A 
ATOM     88  C   UNL A   1      28.154  30.770  22.902  1.00  0.00     0.002 A 
ATOM     89  C   UNL A   1      27.910  28.373  23.125  1.00  0.00     0.011 A 
ATOM     90  C   UNL A   1      27.343  29.643  22.977  1.00  0.00     0.001 A 
BRANCH  87  91
ATOM     91  C   UNL A   1      29.856  26.828  23.412  1.00  0.00    -0.016 A 
ATOM     92  C   UNL A   1      29.521  26.117  24.580  1.00  0.00     0.009 A 
ATOM     93  C   UNL A   1      30.732  26.197  22.507  1.00  0.00     0.009 A 
ATOM     94  C   UNL A   1      30.008  24.826  24.814  1.00  0.00     0.001 A 
ATOM     95  C   UNL A   1      31.219  24.906  22.738  1.00  0.00     0.001 A 
ATOM     96  C   UNL A   1      30.856  24.220  23.893  1.00  0.00     0.000 A 
ENDBRANCH  87  91
ENDBRANCH  83  85
ENDBRANCH  75  81
ENDBRANCH  72  74
ENDBRANCH  71  72
ENDBRANCH  70  71
ENDBRANCH  69  70
ENDBRANCH   1  69
TORSDOF 20
ENDMDL
MODEL 2
REMARK VINA RESULT:      -9.9      7.278     14.511
REMARK SMILES O=C(OCCOCCOC(=O)[C@H]1[C@@H](C(=O)Nc2ccccc2-c2ccccc2)[C@@H]2C=C[C@H]1O2)c1ccc(-c2c3nc(c(-c4ccc(S(=O)(=O)[O-])cc4)c4ccc([nH]4)c(-c4ccc(S(=O)(=O)[O-])cc4)c4nc(c(-c5ccc(S(=O)(=O)[O-])cc5)c5ccc2[nH]5)C=C4)C=C3)cc1
REMARK SMILES IDX 6 1 5 2 4 3 3 4 2 5 1 6 34 7 35 8 93 9 36 10 92 11 37 12
REMARK SMILES IDX 38 13 39 14 86 15 40 16 91 17 85 18 87 19 41 20 90 21 84 22
REMARK SMILES IDX 83 23 42 25 72 26 53 27 71 28 54 29 57 30 70 31 88 32 55 33
REMARK SMILES IDX 56 34 69 36 89 37 58 38 43 39 44 40 52 41 45 42 51 43 46 44
REMARK SMILES IDX 47 45 48 46 49 47 50 48 73 49 74 50 82 51 75 52 81 53 76 54
REMARK SMILES IDX 77 55 78 56 79 57 80 58 59 59 60 60 68 61 61 62 67 63 62 64
REMARK SMILES IDX 63 65 64 66 65 67 66 68 7 69 8 70 9 71 10 72 11 73 12 74
REMARK SMILES IDX 13 75 32 76 29 77 31 78 33 79 30 80 14 81 15 82 16 83 17 85
REMARK SMILES IDX 18 86 22 87 19 88 21 89 20 90 23 91 24 92 28 93 25 94 27 95
REMARK SMILES IDX 26 96
REMARK H PARENT 87 24 57 35 16 84
REMARK Flexibility Score: inf
ROOT
ATOM      1  O   UNL A   1      46.549  41.302  26.566  1.00  0.00    -0.374 OA
ENDROOT
BRANCH   1   2
ATOM      2  C   UNL A   1      47.296  40.078  26.526  1.00  0.00     0.202 C 
BRANCH   2   3
ATOM      3  C   UNL A   1      47.809  39.524  27.857  1.00  0.00     0.261 C 
BRANCH   3   4
ATOM      4  O   UNL A   1      47.371  38.171  28.053  1.00  0.00    -0.460 OA
BRANCH   4   5
ATOM      5  C   UNL A   1      48.113  37.048  28.151  1.00  0.00     0.338 C 
ATOM      6  O   UNL A   1      49.324  37.165  28.344  1.00  0.00    -0.246 OA
BRANCH   5   7
ATOM      7  C   UNL A   1      47.551  35.666  28.024  1.00  0.00     0.060 A 
ATOM      8  C   UNL A   1      46.955  35.144  26.875  1.00  0.00     0.016 A 
ATOM      9  C   UNL A   1      47.722  34.804  29.119  1.00  0.00     0.016 A 
ATOM     10  C   UNL A   1      46.533  33.831  26.798  1.00  0.00     0.010 A 
ATOM     11  C   UNL A   1      47.314  33.468  29.052  1.00  0.00     0.010 A 
ATOM     12  C   UNL A   1      46.717  32.988  27.883  1.00  0.00    -0.014 A 
BRANCH  12  13
ATOM     13  C   UNL A   1      46.170  31.633  27.763  1.00  0.00     0.031 A 
ATOM     14  C   UNL A   1      47.086  30.550  27.293  1.00  0.00     0.074 A 
ATOM     15  C   UNL A   1      44.940  31.386  28.245  1.00  0.00     0.049 A 
ATOM     16  N   UNL A   1      46.837  29.281  27.127  1.00  0.00    -0.248 NA
ATOM     17  C   UNL A   1      48.476  30.941  26.993  1.00  0.00     0.031 C 
ATOM     18  C   UNL A   1      44.059  32.383  28.864  1.00  0.00     0.029 A 
ATOM     19  N   UNL A   1      44.234  30.219  28.333  1.00  0.00    -0.354 N 
ATOM     20  C   UNL A   1      48.027  28.727  26.679  1.00  0.00     0.074 A 
ATOM     21  C   UNL A   1      49.004  29.790  26.605  1.00  0.00     0.031 C 
ATOM     22  C   UNL A   1      42.934  31.777  29.278  1.00  0.00     0.029 A 
ATOM     23  C   UNL A   1      42.991  30.371  28.900  1.00  0.00     0.049 A 
ATOM     24  H   UNL A   1      44.582  29.353  28.019  1.00  0.00     0.167 HD
ATOM     25  C   UNL A   1      48.265  27.441  26.343  1.00  0.00     0.031 A 
ATOM     26  C   UNL A   1      42.004  29.470  29.056  1.00  0.00     0.031 A 
ATOM     27  C   UNL A   1      47.257  26.419  26.411  1.00  0.00     0.049 A 
ATOM     28  C   UNL A   1      42.262  28.070  28.568  1.00  0.00     0.074 A 
ATOM     29  C   UNL A   1      47.340  25.097  26.023  1.00  0.00     0.029 A 
ATOM     30  N   UNL A   1      45.974  26.621  26.903  1.00  0.00    -0.354 N 
ATOM     31  N   UNL A   1      43.369  27.563  28.072  1.00  0.00    -0.248 NA
ATOM     32  C   UNL A   1      41.143  27.123  28.643  1.00  0.00     0.031 C 
ATOM     33  C   UNL A   1      46.088  24.510  26.237  1.00  0.00     0.029 A 
ATOM     34  C   UNL A   1      45.245  25.452  26.810  1.00  0.00     0.049 A 
ATOM     35  H   UNL A   1      45.634  27.471  27.264  1.00  0.00     0.167 HD
ATOM     36  C   UNL A   1      43.084  26.235  27.786  1.00  0.00     0.074 A 
ATOM     37  C   UNL A   1      41.708  26.011  28.189  1.00  0.00     0.031 C 
ATOM     38  C   UNL A   1      43.877  25.283  27.234  1.00  0.00     0.031 A 
BRANCH  25  39
ATOM     39  C   UNL A   1      49.623  27.111  25.794  1.00  0.00    -0.014 A 
ATOM     40  C   UNL A   1      49.922  27.256  24.427  1.00  0.00     0.010 A 
ATOM     41  C   UNL A   1      50.619  26.638  26.667  1.00  0.00     0.010 A 
ATOM     42  C   UNL A   1      51.187  26.908  23.941  1.00  0.00     0.020 A 
ATOM     43  C   UNL A   1      51.890  26.309  26.189  1.00  0.00     0.020 A 
ATOM     44  C   UNL A   1      52.161  26.434  24.826  1.00  0.00     0.054 A 
BRANCH  44  45
ATOM     45  S   UNL A   1      53.800  26.009  24.174  1.00  0.00     0.124 S 
ATOM     46  O   UNL A   1      54.655  26.983  24.850  1.00  0.00    -0.237 OA
ATOM     47  O   UNL A   1      53.967  24.623  24.604  1.00  0.00    -0.237 OA
ATOM     48  O   UNL A   1      53.661  26.199  22.734  1.00  0.00    -0.744 OA
ENDBRANCH  44  45
ENDBRANCH  25  39
BRANCH  26  49
ATOM     49  C   UNL A   1      40.681  29.877  29.608  1.00  0.00    -0.014 A 
ATOM     50  C   UNL A   1      40.404  29.791  30.983  1.00  0.00     0.010 A 
ATOM     51  C   UNL A   1      39.669  30.336  28.741  1.00  0.00     0.010 A 
ATOM     52  C   UNL A   1      39.135  30.124  31.474  1.00  0.00     0.020 A 
ATOM     53  C   UNL A   1      38.413  30.699  29.230  1.00  0.00     0.020 A 
ATOM     54  C   UNL A   1      38.146  30.570  30.593  1.00  0.00     0.054 A 
BRANCH  54  55
ATOM     55  S   UNL A   1      36.508  30.999  31.246  1.00  0.00     0.124 S 
ATOM     56  O   UNL A   1      36.353  30.036  32.331  1.00  0.00    -0.237 OA
ATOM     57  O   UNL A   1      36.682  32.391  31.654  1.00  0.00    -0.237 OA
ATOM     58  O   UNL A   1      35.620  30.801  30.102  1.00  0.00    -0.744 OA
ENDBRANCH  54  55
ENDBRANCH  26  49
BRANCH  38  59
ATOM     59  C   UNL A   1      43.278  23.916  27.068  1.00  0.00    -0.014 A 
ATOM     60  C   UNL A   1      42.595  23.564  25.893  1.00  0.00     0.010 A 
ATOM     61  C   UNL A   1      43.468  22.957  28.078  1.00  0.00     0.010 A 
ATOM     62  C   UNL A   1      42.086  22.273  25.741  1.00  0.00     0.020 A 
ATOM     63  C   UNL A   1      42.985  21.658  27.917  1.00  0.00     0.020 A 
ATOM     64  C   UNL A   1      42.286  21.329  26.753  1.00  0.00     0.054 A 
BRANCH  64  65
ATOM     65  S   UNL A   1      41.666  19.644  26.507  1.00  0.00     0.124 S 
ATOM     66  O   UNL A   1      42.625  19.107  25.546  1.00  0.00    -0.237 OA
ATOM     67  O   UNL A   1      41.736  19.076  27.851  1.00  0.00    -0.237 OA
ATOM     68  O   UNL A   1      40.314  19.846  25.993  1.00  0.00    -0.744 OA
ENDBRANCH  64  65
ENDBRANCH  38  59
ENDBRANCH  12  13
ENDBRANCH   5   7
ENDBRANCH   4   5
ENDBRANCH   3   4
ENDBRANCH   2   3
ENDBRANCH   1   2
BRANCH   1  69
ATOM     69  C   UNL A   1      46.826  42.261  25.532  1.00  0.00     0.202 C 
BRANCH  69  70
ATOM     70  C   UNL A   1      45.537  42.751  24.844  1.00  0.00     0.261 C 
BRANCH  70  71
ATOM     71  O   UNL A   1      45.838  43.424  23.614  1.00  0.00    -0.463 OA
BRANCH  71  72
ATOM     72  C   UNL A   1      45.336  42.815  22.527  1.00  0.00     0.312 C 
ATOM     73  O   UNL A   1      45.753  41.747  22.086  1.00  0.00    -0.252 OA
BRANCH  72  74
ATOM     74  C   UNL A   1      44.127  43.500  21.944  1.00  0.00     0.147 C 
ATOM     75  C   UNL A   1      43.996  43.943  20.441  1.00  0.00     0.129 C 
ATOM     76  C   UNL A   1      42.969  42.508  22.096  1.00  0.00     0.157 C 
ATOM     77  C   UNL A   1      42.860  43.003  19.987  1.00  0.00     0.155 C 
ATOM     78  C   UNL A   1      41.652  43.207  21.901  1.00  0.00     0.004 C 
ATOM     79  O   UNL A   1      43.075  41.836  20.817  1.00  0.00    -0.365 OA
ATOM     80  C   UNL A   1      41.574  43.495  20.595  1.00  0.00     0.004 C 
BRANCH  75  81
ATOM     81  C   UNL A   1      45.220  44.036  19.517  1.00  0.00     0.231 C 
ATOM     82  O   UNL A   1      46.380  43.922  19.912  1.00  0.00    -0.274 OA
ATOM     83  N   UNL A   1      45.122  44.391  18.208  1.00  0.00    -0.325 N 
ATOM     84  H   UNL A   1      45.833  44.044  17.623  1.00  0.00     0.169 HD
BRANCH  83  85
ATOM     85  C   UNL A   1      44.157  45.175  17.576  1.00  0.00     0.049 A 
ATOM     86  C   UNL A   1      43.239  44.452  16.803  1.00  0.00     0.027 A 
ATOM     87  C   UNL A   1      44.048  46.578  17.739  1.00  0.00     0.005 A 
ATOM     88  C   UNL A   1      42.104  45.079  16.308  1.00  0.00     0.002 A 
ATOM     89  C   UNL A   1      42.893  47.182  17.210  1.00  0.00     0.011 A 
ATOM     90  C   UNL A   1      41.921  46.440  16.531  1.00  0.00     0.001 A 
BRANCH  87  91
ATOM     91  C   UNL A   1      45.101  47.428  18.357  1.00  0.00    -0.016 A 
ATOM     92  C   UNL A   1      46.205  47.886  17.613  1.00  0.00     0.009 A 
ATOM     93  C   UNL A   1      45.036  47.813  19.711  1.00  0.00     0.009 A 
ATOM     94  C   UNL A   1      47.176  48.718  18.183  1.00  0.00     0.001 A 
ATOM     95  C   UNL A   1      46.004  48.647  20.282  1.00  0.00     0.001 A 
ATOM     96  C   UNL A   1      47.074  49.099  19.517  1.00  0.00     0.000 A 
ENDBRANCH  87  91
ENDBRANCH  83  85
ENDBRANCH  75  81
ENDBRANCH  72  74
ENDBRANCH  71  72
ENDBRANCH  70  71
ENDBRANCH  69  70
ENDBRANCH   1  69
TORSDOF 20
ENDMDL
MODEL 3
REMARK VINA RESULT:      -9.8      6.944     14.274
REMARK SMILES O=C(OCCOCCOC(=O)[C@H]1[C@@H](C(=O)Nc2ccccc2-c2ccccc2)[C@@H]2C=C[C@H]1O2)c1ccc(-c2c3nc(c(-c4ccc(S(=O)(=O)[O-])cc4)c4ccc([nH]4)c(-c4ccc(S(=O)(=O)[O-])cc4)c4nc(c(-c5ccc(S(=O)(=O)[O-])cc5)c5ccc2[nH]5)C=C4)C=C3)cc1
REMARK SMILES IDX 6 1 5 2 4 3 3 4 2 5 1 6 34 7 35 8 93 9 36 10 92 11 37 12
REMARK SMILES IDX 38 13 39 14 86 15 40 16 91 17 85 18 87 19 41 20 90 21 84 22
REMARK SMILES IDX 83 23 42 25 72 26 53 27 71 28 54 29 57 30 70 31 88 32 55 33
REMARK SMILES IDX 56 34 69 36 89 37 58 38 43 39 44 40 52 41 45 42 51 43 46 44
REMARK SMILES IDX 47 45 48 46 49 47 50 48 73 49 74 50 82 51 75 52 81 53 76 54
REMARK SMILES IDX 77 55 78 56 79 57 80 58 59 59 60 60 68 61 61 62 67 63 62 64
REMARK SMILES IDX 63 65 64 66 65 67 66 68 7 69 8 70 9 71 10 72 11 73 12 74
REMARK SMILES IDX 13 75 32 76 29 77 31 78 33 79 30 80 14 81 15 82 16 83 17 85
REMARK SMILES IDX 18 86 22 87 19 88 21 89 20 90 23 91 24 92 28 93 25 94 27 95
REMARK SMILES IDX 26 96
REMARK H PARENT 87 24 57 35 16 84
REMARK Flexibility Score: inf
ROOT
ATOM      1  O   UNL A   1      47.809  39.187  25.423  1.00  0.00    -0.374 OA
ENDROOT
BRANCH   1   2
ATOM      2  C   UNL A   1      47.552  39.210  26.833  1.00  0.00     0.202 C 
BRANCH   2   3
ATOM      3  C   UNL A   1      48.742  38.980  27.769  1.00  0.00     0.261 C 
BRANCH   3   4
ATOM      4  O   UNL A   1      48.988  37.577  27.950  1.00  0.00    -0.460 OA
BRANCH   4   5
ATOM      5  C   UNL A   1      48.606  36.776  28.967  1.00  0.00     0.338 C 
ATOM      6  O   UNL A   1      48.791  37.168  30.119  1.00  0.00    -0.246 OA
BRANCH   5   7
ATOM      7  C   UNL A   1      47.981  35.430  28.773  1.00  0.00     0.060 A 
ATOM      8  C   UNL A   1      47.245  35.038  27.654  1.00  0.00     0.016 A 
ATOM      9  C   UNL A   1      48.237  34.459  29.757  1.00  0.00     0.016 A 
ATOM     10  C   UNL A   1      46.769  33.751  27.501  1.00  0.00     0.010 A 
ATOM     11  C   UNL A   1      47.775  33.148  29.610  1.00  0.00     0.010 A 
ATOM     12  C   UNL A   1      47.038  32.801  28.474  1.00  0.00    -0.014 A 
BRANCH  12  13
ATOM     13  C   UNL A   1      46.430  31.480  28.288  1.00  0.00     0.031 A 
ATOM     14  C   UNL A   1      47.291  30.386  27.746  1.00  0.00     0.074 A 
ATOM     15  C   UNL A   1      45.197  31.259  28.776  1.00  0.00     0.049 A 
ATOM     16  N   UNL A   1      46.985  29.141  27.514  1.00  0.00    -0.248 NA
ATOM     17  C   UNL A   1      48.693  30.733  27.445  1.00  0.00     0.031 C 
ATOM     18  C   UNL A   1      44.369  32.257  29.463  1.00  0.00     0.029 A 
ATOM     19  N   UNL A   1      44.442  30.120  28.811  1.00  0.00    -0.354 N 
ATOM     20  C   UNL A   1      48.144  28.562  27.017  1.00  0.00     0.074 A 
ATOM     21  C   UNL A   1      49.165  29.584  26.986  1.00  0.00     0.031 C 
ATOM     22  C   UNL A   1      43.225  31.678  29.861  1.00  0.00     0.029 A 
ATOM     23  C   UNL A   1      43.215  30.294  29.406  1.00  0.00     0.049 A 
ATOM     24  H   UNL A   1      44.748  29.259  28.444  1.00  0.00     0.167 HD
ATOM     25  C   UNL A   1      48.321  27.287  26.607  1.00  0.00     0.031 A 
ATOM     26  C   UNL A   1      42.191  29.428  29.527  1.00  0.00     0.031 A 
ATOM     27  C   UNL A   1      47.270  26.307  26.634  1.00  0.00     0.049 A 
ATOM     28  C   UNL A   1      42.382  28.048  28.959  1.00  0.00     0.074 A 
ATOM     29  C   UNL A   1      47.290  25.006  26.174  1.00  0.00     0.029 A 
ATOM     30  N   UNL A   1      46.004  26.536  27.157  1.00  0.00    -0.354 N 
ATOM     31  N   UNL A   1      43.459  27.523  28.418  1.00  0.00    -0.248 NA
ATOM     32  C   UNL A   1      41.224  27.147  29.000  1.00  0.00     0.031 C 
ATOM     33  C   UNL A   1      46.016  24.463  26.375  1.00  0.00     0.029 A 
ATOM     34  C   UNL A   1      45.223  25.406  27.012  1.00  0.00     0.049 A 
ATOM     35  H   UNL A   1      45.707  27.379  27.570  1.00  0.00     0.167 HD
ATOM     36  C   UNL A   1      43.112  26.226  28.065  1.00  0.00     0.074 A 
ATOM     37  C   UNL A   1      41.733  26.039  28.476  1.00  0.00     0.031 C 
ATOM     38  C   UNL A   1      43.855  25.273  27.448  1.00  0.00     0.031 A 
BRANCH  25  39
ATOM     39  C   UNL A   1      49.656  26.930  26.019  1.00  0.00    -0.014 A 
ATOM     40  C   UNL A   1      49.944  27.144  24.659  1.00  0.00     0.010 A 
ATOM     41  C   UNL A   1      50.640  26.361  26.847  1.00  0.00     0.010 A 
ATOM     42  C   UNL A   1      51.185  26.770  24.134  1.00  0.00     0.020 A 
ATOM     43  C   UNL A   1      51.888  26.005  26.332  1.00  0.00     0.020 A 
ATOM     44  C   UNL A   1      52.148  26.200  24.975  1.00  0.00     0.054 A 
BRANCH  44  45
ATOM     45  S   UNL A   1      53.758  25.742  24.274  1.00  0.00     0.124 S 
ATOM     46  O   UNL A   1      53.821  24.313  24.574  1.00  0.00    -0.237 OA
ATOM     47  O   UNL A   1      53.601  26.080  22.862  1.00  0.00    -0.237 OA
ATOM     48  O   UNL A   1      54.706  26.574  25.009  1.00  0.00    -0.744 OA
ENDBRANCH  44  45
ENDBRANCH  25  39
BRANCH  26  49
ATOM     49  C   UNL A   1      40.896  29.860  30.122  1.00  0.00    -0.014 A 
ATOM     50  C   UNL A   1      39.785  30.165  29.316  1.00  0.00     0.010 A 
ATOM     51  C   UNL A   1      40.775  29.995  31.520  1.00  0.00     0.010 A 
ATOM     52  C   UNL A   1      38.594  30.625  29.892  1.00  0.00     0.020 A 
ATOM     53  C   UNL A   1      39.579  30.423  32.100  1.00  0.00     0.020 A 
ATOM     54  C   UNL A   1      38.501  30.757  31.281  1.00  0.00     0.054 A 
BRANCH  54  55
ATOM     55  S   UNL A   1      36.950  31.352  32.011  1.00  0.00     0.124 S 
ATOM     56  O   UNL A   1      36.003  30.326  31.587  1.00  0.00    -0.237 OA
ATOM     57  O   UNL A   1      37.259  31.378  33.438  1.00  0.00    -0.237 OA
ATOM     58  O   UNL A   1      36.765  32.666  31.398  1.00  0.00    -0.744 OA
ENDBRANCH  54  55
ENDBRANCH  26  49
BRANCH  38  59
ATOM     59  C   UNL A   1      43.195  23.944  27.217  1.00  0.00    -0.014 A 
ATOM     60  C   UNL A   1      42.889  23.093  28.291  1.00  0.00     0.010 A 
ATOM     61  C   UNL A   1      42.818  23.582  25.912  1.00  0.00     0.010 A 
ATOM     62  C   UNL A   1      42.234  21.882  28.059  1.00  0.00     0.020 A 
ATOM     63  C   UNL A   1      42.138  22.387  25.681  1.00  0.00     0.020 A 
ATOM     64  C   UNL A   1      41.862  21.538  26.756  1.00  0.00     0.054 A 
BRANCH  64  65
ATOM     65  S   UNL A   1      40.961  19.989  26.487  1.00  0.00     0.124 S 
ATOM     66  O   UNL A   1      39.657  20.471  26.040  1.00  0.00    -0.237 OA
ATOM     67  O   UNL A   1      41.768  19.319  25.470  1.00  0.00    -0.237 OA
ATOM     68  O   UNL A   1      40.974  19.351  27.802  1.00  0.00    -0.744 OA
ENDBRANCH  64  65
ENDBRANCH  38  59
ENDBRANCH  12  13
ENDBRANCH   5   7
ENDBRANCH   4   5
ENDBRANCH   3   4
ENDBRANCH   2   3
ENDBRANCH   1   2
BRANCH   1  69
ATOM     69  C   UNL A   1      46.759  39.670  24.568  1.00  0.00     0.202 C 
BRANCH  69  70
ATOM     70  C   UNL A   1      46.635  41.205  24.624  1.00  0.00     0.261 C 
BRANCH  70  71
ATOM     71  O   UNL A   1      45.561  41.662  23.790  1.00  0.00    -0.463 OA
BRANCH  71  72
ATOM     72  C   UNL A   1      45.731  42.910  23.324  1.00  0.00     0.312 C 
ATOM     73  O   UNL A   1      46.821  43.471  23.249  1.00  0.00    -0.252 OA
BRANCH  72  74
ATOM     74  C   UNL A   1      44.473  43.539  22.784  1.00  0.00     0.147 C 
ATOM     75  C   UNL A   1      44.169  43.744  21.254  1.00  0.00     0.129 C 
ATOM     76  C   UNL A   1      43.324  42.627  23.227  1.00  0.00     0.157 C 
ATOM     77  C   UNL A   1      42.970  42.787  21.093  1.00  0.00     0.155 C 
ATOM     78  C   UNL A   1      42.006  43.336  23.076  1.00  0.00     0.004 C 
ATOM     79  O   UNL A   1      43.262  41.758  22.070  1.00  0.00    -0.365 OA
ATOM     80  C   UNL A   1      41.776  43.416  21.759  1.00  0.00     0.004 C 
BRANCH  75  81
ATOM     81  C   UNL A   1      45.274  43.644  20.191  1.00  0.00     0.231 C 
ATOM     82  O   UNL A   1      46.019  42.672  20.074  1.00  0.00    -0.274 OA
ATOM     83  N   UNL A   1      45.606  44.686  19.383  1.00  0.00    -0.325 N 
ATOM     84  H   UNL A   1      45.995  44.438  18.514  1.00  0.00     0.169 HD
BRANCH  83  85
ATOM     85  C   UNL A   1      45.472  46.056  19.609  1.00  0.00     0.049 A 
ATOM     86  C   UNL A   1      46.414  46.591  20.498  1.00  0.00     0.027 A 
ATOM     87  C   UNL A   1      44.521  46.875  18.954  1.00  0.00     0.005 A 
ATOM     88  C   UNL A   1      46.534  47.966  20.635  1.00  0.00     0.002 A 
ATOM     89  C   UNL A   1      44.663  48.264  19.130  1.00  0.00     0.011 A 
ATOM     90  C   UNL A   1      45.673  48.803  19.934  1.00  0.00     0.001 A 
BRANCH  87  91
ATOM     91  C   UNL A   1      43.365  46.350  18.177  1.00  0.00    -0.016 A 
ATOM     92  C   UNL A   1      43.095  46.798  16.870  1.00  0.00     0.009 A 
ATOM     93  C   UNL A   1      42.497  45.379  18.714  1.00  0.00     0.009 A 
ATOM     94  C   UNL A   1      42.033  46.276  16.123  1.00  0.00     0.001 A 
ATOM     95  C   UNL A   1      41.436  44.854  17.969  1.00  0.00     0.001 A 
ATOM     96  C   UNL A   1      41.204  45.303  16.673  1.00  0.00     0.000 A 
ENDBRANCH  87  91
ENDBRANCH  83  85
ENDBRANCH  75  81
ENDBRANCH  72  74
ENDBRANCH  71  72
ENDBRANCH  70  71
ENDBRANCH  69  70
ENDBRANCH   1  69
TORSDOF 20
ENDMDL
