MODEL 1
REMARK VINA RESULT:      -7.2      0.000      0.000
REMARK SMILES C[C@@H]1CCC[C@](CCSc2ccccc2)(C(=O)OCCOCCOC(=O)c2ccc(-c3c4nc(c(-c5ccc(S(=O)(=O)[O-])cc5)c5ccc([nH]5)c(-c5ccc(S(=O)(=O)[O-])cc5)c5nc(c(-c6ccc(S(=O)(=O)[O-])cc6)c6ccc3[nH]6)C=C5)C=C4)cc2)C1
REMARK SMILES IDX 20 1 19 2 18 3 16 4 17 5 6 6 1 7 2 8 3 9 87 10 4 11 5 12
REMARK SMILES IDX 7 13 8 14 9 15 10 16 11 17 15 18 12 19 14 20 13 21 21 22
REMARK SMILES IDX 22 23 23 24 24 25 25 26 26 27 27 28 28 29 86 30 29 31 85 32
REMARK SMILES IDX 30 33 31 34 32 35 79 36 33 37 84 38 78 39 80 40 34 41 83 42
REMARK SMILES IDX 77 43 76 44 35 46 65 47 46 48 64 49 47 50 50 51 63 52 81 53
REMARK SMILES IDX 48 54 49 55 62 57 82 58 51 59 36 60 37 61 45 62 38 63 44 64
REMARK SMILES IDX 39 65 40 66 41 67 42 68 43 69 66 70 67 71 75 72 68 73 74 74
REMARK SMILES IDX 69 75 70 76 71 77 72 78 73 79 52 80 53 81 61 82 54 83 60 84
REMARK SMILES IDX 55 85 56 86 57 87 58 88 59 89
REMARK H PARENT 80 45 50 56
REMARK Flexibility Score: inf
ROOT
ATOM      1  C   UNL A   1      43.776  23.698  30.048  1.00  0.00     0.202 C 
ENDROOT
BRANCH   1   2
ATOM      2  C   UNL A   1      44.479  23.533  31.422  1.00  0.00     0.261 C 
BRANCH   2   3
ATOM      3  O   UNL A   1      44.643  24.675  32.267  1.00  0.00    -0.463 OA
BRANCH   3   4
ATOM      4  C   UNL A   1      43.951  24.546  33.419  1.00  0.00     0.312 C 
ATOM      5  O   UNL A   1      43.560  23.452  33.790  1.00  0.00    -0.252 OA
BRANCH   4   6
ATOM      6  C   UNL A   1      43.817  25.805  34.272  1.00  0.00     0.069 C 
ATOM      7  C   UNL A   1      46.202  24.088  35.805  1.00  0.00     0.007 C 
ATOM      8  C   UNL A   1      45.559  25.422  36.194  1.00  0.00    -0.013 C 
ATOM      9  C   UNL A   1      44.423  25.258  37.205  1.00  0.00     0.003 C 
ATOM     10  C   UNL A   1      45.108  26.249  34.982  1.00  0.00     0.022 C 
ATOM     11  C   UNL A   1      43.117  24.790  36.575  1.00  0.00     0.001 C 
ATOM     12  C   UNL A   1      42.707  25.625  35.351  1.00  0.00     0.019 C 
BRANCH   6  13
ATOM     13  C   UNL A   1      43.363  26.922  33.244  1.00  0.00     0.030 C 
BRANCH  13  14
ATOM     14  C   UNL A   1      42.169  27.878  33.569  1.00  0.00     0.076 C 
BRANCH  14  15
ATOM     15  S   UNL A   1      42.314  29.510  34.449  1.00  0.00    -0.126 SA
BRANCH  15  16
ATOM     16  C   UNL A   1      40.756  30.334  34.094  1.00  0.00     0.007 A 
ATOM     17  C   UNL A   1      40.433  31.536  34.747  1.00  0.00     0.015 A 
ATOM     18  C   UNL A   1      39.819  29.776  33.228  1.00  0.00     0.015 A 
ATOM     19  C   UNL A   1      39.150  32.086  34.642  1.00  0.00     0.001 A 
ATOM     20  C   UNL A   1      38.536  30.322  33.121  1.00  0.00     0.001 A 
ATOM     21  C   UNL A   1      38.193  31.462  33.847  1.00  0.00     0.000 A 
ENDBRANCH  15  16
ENDBRANCH  14  15
ENDBRANCH  13  14
ENDBRANCH   6  13
ENDBRANCH   4   6
ENDBRANCH   3   4
ENDBRANCH   2   3
ENDBRANCH   1   2
BRANCH   1  22
ATOM     22  O   UNL A   1      42.928  22.720  29.466  1.00  0.00    -0.374 OA
BRANCH  22  23
ATOM     23  C   UNL A   1      42.924  22.471  28.072  1.00  0.00     0.202 C 
BRANCH  23  24
ATOM     24  C   UNL A   1      41.680  21.893  27.403  1.00  0.00     0.261 C 
BRANCH  24  25
ATOM     25  O   UNL A   1      41.205  22.688  26.307  1.00  0.00    -0.460 OA
BRANCH  25  26
ATOM     26  C   UNL A   1      39.918  23.086  26.430  1.00  0.00     0.338 C 
ATOM     27  O   UNL A   1      38.914  22.406  26.270  1.00  0.00    -0.246 OA
BRANCH  26  28
ATOM     28  C   UNL A   1      39.863  24.446  26.985  1.00  0.00     0.060 A 
ATOM     29  C   UNL A   1      40.487  25.473  26.261  1.00  0.00     0.016 A 
ATOM     30  C   UNL A   1      39.300  24.692  28.237  1.00  0.00     0.016 A 
ATOM     31  C   UNL A   1      40.595  26.744  26.810  1.00  0.00     0.010 A 
ATOM     32  C   UNL A   1      39.440  25.961  28.802  1.00  0.00     0.010 A 
ATOM     33  C   UNL A   1      40.127  26.974  28.108  1.00  0.00    -0.014 A 
BRANCH  33  34
ATOM     34  C   UNL A   1      40.564  28.195  28.819  1.00  0.00     0.031 A 
ATOM     35  C   UNL A   1      41.977  28.244  29.337  1.00  0.00     0.074 A 
ATOM     36  C   UNL A   1      39.742  29.247  28.961  1.00  0.00     0.049 A 
ATOM     37  N   UNL A   1      42.569  29.175  30.037  1.00  0.00    -0.248 NA
ATOM     38  C   UNL A   1      42.837  27.088  29.022  1.00  0.00     0.031 C 
ATOM     39  C   UNL A   1      38.379  29.336  28.438  1.00  0.00     0.029 A 
ATOM     40  N   UNL A   1      39.939  30.445  29.598  1.00  0.00    -0.354 N 
ATOM     41  C   UNL A   1      43.864  28.716  30.251  1.00  0.00     0.074 A 
ATOM     42  C   UNL A   1      43.965  27.413  29.633  1.00  0.00     0.031 C 
ATOM     43  C   UNL A   1      37.855  30.523  28.792  1.00  0.00     0.029 A 
ATOM     44  C   UNL A   1      38.830  31.257  29.595  1.00  0.00     0.049 A 
ATOM     45  H   UNL A   1      40.793  30.700  30.017  1.00  0.00     0.167 HD
ATOM     46  C   UNL A   1      44.879  29.329  30.902  1.00  0.00     0.031 A 
ATOM     47  C   UNL A   1      38.622  32.443  30.201  1.00  0.00     0.031 A 
ATOM     48  C   UNL A   1      44.766  30.619  31.525  1.00  0.00     0.049 A 
ATOM     49  C   UNL A   1      39.740  33.062  31.002  1.00  0.00     0.074 A 
ATOM     50  C   UNL A   1      45.732  31.329  32.216  1.00  0.00     0.029 A 
ATOM     51  N   UNL A   1      43.615  31.393  31.536  1.00  0.00    -0.354 N 
ATOM     52  N   UNL A   1      40.961  32.620  31.194  1.00  0.00    -0.248 NA
ATOM     53  C   UNL A   1      39.454  34.342  31.664  1.00  0.00     0.031 C 
ATOM     54  C   UNL A   1      45.149  32.506  32.694  1.00  0.00     0.029 A 
ATOM     55  C   UNL A   1      43.840  32.562  32.242  1.00  0.00     0.049 A 
ATOM     56  H   UNL A   1      42.764  31.147  31.106  1.00  0.00     0.167 HD
ATOM     57  C   UNL A   1      41.598  33.588  31.966  1.00  0.00     0.074 A 
ATOM     58  C   UNL A   1      40.631  34.642  32.194  1.00  0.00     0.031 C 
ATOM     59  C   UNL A   1      42.867  33.606  32.445  1.00  0.00     0.031 A 
BRANCH  46  60
ATOM     60  C   UNL A   1      46.194  28.602  30.999  1.00  0.00    -0.014 A 
ATOM     61  C   UNL A   1      46.584  27.956  32.186  1.00  0.00     0.010 A 
ATOM     62  C   UNL A   1      47.022  28.508  29.866  1.00  0.00     0.010 A 
ATOM     63  C   UNL A   1      47.787  27.246  32.243  1.00  0.00     0.020 A 
ATOM     64  C   UNL A   1      48.211  27.776  29.909  1.00  0.00     0.020 A 
ATOM     65  C   UNL A   1      48.590  27.157  31.102  1.00  0.00     0.054 A 
BRANCH  65  66
ATOM     66  S   UNL A   1      50.117  26.181  31.189  1.00  0.00     0.124 S 
ATOM     67  O   UNL A   1      49.625  24.893  31.672  1.00  0.00    -0.237 OA
ATOM     68  O   UNL A   1      50.584  26.197  29.805  1.00  0.00    -0.237 OA
ATOM     69  O   UNL A   1      50.949  26.922  32.134  1.00  0.00    -0.744 OA
ENDBRANCH  65  66
ENDBRANCH  46  60
BRANCH  47  70
ATOM     70  C   UNL A   1      37.293  33.111  30.113  1.00  0.00    -0.014 A 
ATOM     71  C   UNL A   1      36.261  32.786  31.012  1.00  0.00     0.010 A 
ATOM     72  C   UNL A   1      37.041  34.052  29.098  1.00  0.00     0.010 A 
ATOM     73  C   UNL A   1      34.993  33.361  30.873  1.00  0.00     0.020 A 
ATOM     74  C   UNL A   1      35.786  34.654  28.976  1.00  0.00     0.020 A 
ATOM     75  C   UNL A   1      34.764  34.289  29.853  1.00  0.00     0.054 A 
BRANCH  75  76
ATOM     76  S   UNL A   1      33.117  35.033  29.700  1.00  0.00     0.124 S 
ATOM     77  O   UNL A   1      33.434  36.376  29.226  1.00  0.00    -0.237 OA
ATOM     78  O   UNL A   1      32.464  34.156  28.732  1.00  0.00    -0.237 OA
ATOM     79  O   UNL A   1      32.581  34.958  31.057  1.00  0.00    -0.744 OA
ENDBRANCH  75  76
ENDBRANCH  47  70
BRANCH  59  80
ATOM     80  C   UNL A   1      43.305  34.823  33.216  1.00  0.00    -0.014 A 
ATOM     81  C   UNL A   1      43.978  35.887  32.589  1.00  0.00     0.010 A 
ATOM     82  C   UNL A   1      42.981  34.928  34.581  1.00  0.00     0.010 A 
ATOM     83  C   UNL A   1      44.350  37.017  33.323  1.00  0.00     0.020 A 
ATOM     84  C   UNL A   1      43.321  36.070  35.310  1.00  0.00     0.020 A 
ATOM     85  C   UNL A   1      44.018  37.101  34.678  1.00  0.00     0.054 A 
BRANCH  85  86
ATOM     86  S   UNL A   1      44.474  38.597  35.596  1.00  0.00     0.124 S 
ATOM     87  O   UNL A   1      45.931  38.576  35.510  1.00  0.00    -0.237 OA
ATOM     88  O   UNL A   1      43.814  39.654  34.833  1.00  0.00    -0.237 OA
ATOM     89  O   UNL A   1      43.926  38.367  36.931  1.00  0.00    -0.744 OA
ENDBRANCH  85  86
ENDBRANCH  59  80
ENDBRANCH  33  34
ENDBRANCH  26  28
ENDBRANCH  25  26
ENDBRANCH  24  25
ENDBRANCH  23  24
ENDBRANCH  22  23
ENDBRANCH   1  22
TORSDOF 21
ENDMDL
MODEL 2
REMARK VINA RESULT:      -6.9      9.634     15.825
REMARK SMILES C[C@@H]1CCC[C@](CCSc2ccccc2)(C(=O)OCCOCCOC(=O)c2ccc(-c3c4nc(c(-c5ccc(S(=O)(=O)[O-])cc5)c5ccc([nH]5)c(-c5ccc(S(=O)(=O)[O-])cc5)c5nc(c(-c6ccc(S(=O)(=O)[O-])cc6)c6ccc3[nH]6)C=C5)C=C4)cc2)C1
REMARK SMILES IDX 20 1 19 2 18 3 16 4 17 5 6 6 1 7 2 8 3 9 87 10 4 11 5 12
REMARK SMILES IDX 7 13 8 14 9 15 10 16 11 17 15 18 12 19 14 20 13 21 21 22
REMARK SMILES IDX 22 23 23 24 24 25 25 26 26 27 27 28 28 29 86 30 29 31 85 32
REMARK SMILES IDX 30 33 31 34 32 35 79 36 33 37 84 38 78 39 80 40 34 41 83 42
REMARK SMILES IDX 77 43 76 44 35 46 65 47 46 48 64 49 47 50 50 51 63 52 81 53
REMARK SMILES IDX 48 54 49 55 62 57 82 58 51 59 36 60 37 61 45 62 38 63 44 64
REMARK SMILES IDX 39 65 40 66 41 67 42 68 43 69 66 70 67 71 75 72 68 73 74 74
REMARK SMILES IDX 69 75 70 76 71 77 72 78 73 79 52 80 53 81 61 82 54 83 60 84
REMARK SMILES IDX 55 85 56 86 57 87 58 88 59 89
REMARK H PARENT 80 45 50 56
REMARK Flexibility Score: inf
ROOT
ATOM      1  C   UNL A   1      42.030  41.742  24.469  1.00  0.00     0.202 C 
ENDROOT
BRANCH   1   2
ATOM      2  C   UNL A   1      42.456  42.669  23.299  1.00  0.00     0.261 C 
BRANCH   2   3
ATOM      3  O   UNL A   1      43.540  42.276  22.453  1.00  0.00    -0.463 OA
BRANCH   3   4
ATOM      4  C   UNL A   1      44.488  43.234  22.380  1.00  0.00     0.312 C 
ATOM      5  O   UNL A   1      44.751  43.923  23.353  1.00  0.00    -0.252 OA
BRANCH   4   6
ATOM      6  C   UNL A   1      45.285  43.302  21.080  1.00  0.00     0.069 C 
ATOM      7  C   UNL A   1      47.107  41.301  22.993  1.00  0.00     0.007 C 
ATOM      8  C   UNL A   1      47.386  41.817  21.579  1.00  0.00    -0.013 C 
ATOM      9  C   UNL A   1      48.280  43.058  21.568  1.00  0.00     0.003 C 
ATOM     10  C   UNL A   1      46.110  42.044  20.757  1.00  0.00     0.022 C 
ATOM     11  C   UNL A   1      47.532  44.342  21.909  1.00  0.00     0.001 C 
ATOM     12  C   UNL A   1      46.248  44.527  21.085  1.00  0.00     0.019 C 
BRANCH   6  13
ATOM     13  C   UNL A   1      44.182  43.517  19.962  1.00  0.00     0.030 C 
BRANCH  13  14
ATOM     14  C   UNL A   1      44.496  44.334  18.667  1.00  0.00     0.076 C 
BRANCH  14  15
ATOM     15  S   UNL A   1      43.431  44.374  17.143  1.00  0.00    -0.126 SA
BRANCH  15  16
ATOM     16  C   UNL A   1      43.285  46.126  16.762  1.00  0.00     0.007 A 
ATOM     17  C   UNL A   1      44.406  46.965  16.877  1.00  0.00     0.015 A 
ATOM     18  C   UNL A   1      42.062  46.695  16.413  1.00  0.00     0.015 A 
ATOM     19  C   UNL A   1      44.274  48.355  16.784  1.00  0.00     0.001 A 
ATOM     20  C   UNL A   1      41.926  48.084  16.320  1.00  0.00     0.001 A 
ATOM     21  C   UNL A   1      43.025  48.915  16.530  1.00  0.00     0.000 A 
ENDBRANCH  15  16
ENDBRANCH  14  15
ENDBRANCH  13  14
ENDBRANCH   6  13
ENDBRANCH   4   6
ENDBRANCH   3   4
ENDBRANCH   2   3
ENDBRANCH   1   2
BRANCH   1  22
ATOM     22  O   UNL A   1      42.924  40.907  25.188  1.00  0.00    -0.374 OA
BRANCH  22  23
ATOM     23  C   UNL A   1      42.620  40.435  26.489  1.00  0.00     0.202 C 
BRANCH  23  24
ATOM     24  C   UNL A   1      41.644  39.276  26.671  1.00  0.00     0.261 C 
BRANCH  24  25
ATOM     25  O   UNL A   1      42.248  37.990  26.476  1.00  0.00    -0.460 OA
BRANCH  25  26
ATOM     26  C   UNL A   1      41.963  37.091  27.447  1.00  0.00     0.338 C 
ATOM     27  O   UNL A   1      41.112  37.189  28.319  1.00  0.00    -0.246 OA
BRANCH  26  28
ATOM     28  C   UNL A   1      42.701  35.842  27.209  1.00  0.00     0.060 A 
ATOM     29  C   UNL A   1      42.985  35.031  28.316  1.00  0.00     0.016 A 
ATOM     30  C   UNL A   1      43.193  35.526  25.943  1.00  0.00     0.016 A 
ATOM     31  C   UNL A   1      43.806  33.920  28.172  1.00  0.00     0.010 A 
ATOM     32  C   UNL A   1      44.045  34.429  25.806  1.00  0.00     0.010 A 
ATOM     33  C   UNL A   1      44.388  33.653  26.928  1.00  0.00    -0.014 A 
BRANCH  33  34
ATOM     34  C   UNL A   1      45.529  32.713  26.861  1.00  0.00     0.031 A 
ATOM     35  C   UNL A   1      46.920  33.289  26.850  1.00  0.00     0.074 A 
ATOM     36  C   UNL A   1      45.333  31.385  26.853  1.00  0.00     0.049 A 
ATOM     37  N   UNL A   1      48.068  32.676  26.738  1.00  0.00    -0.248 NA
ATOM     38  C   UNL A   1      47.030  34.753  26.986  1.00  0.00     0.031 C 
ATOM     39  C   UNL A   1      44.034  30.718  26.931  1.00  0.00     0.029 A 
ATOM     40  N   UNL A   1      46.237  30.357  26.769  1.00  0.00    -0.354 N 
ATOM     41  C   UNL A   1      49.034  33.675  26.782  1.00  0.00     0.074 A 
ATOM     42  C   UNL A   1      48.339  34.937  26.903  1.00  0.00     0.031 C 
ATOM     43  C   UNL A   1      44.226  29.388  26.875  1.00  0.00     0.029 A 
ATOM     44  C   UNL A   1      45.652  29.114  26.718  1.00  0.00     0.049 A 
ATOM     45  H   UNL A   1      47.212  30.495  26.748  1.00  0.00     0.167 HD
ATOM     46  C   UNL A   1      50.380  33.550  26.730  1.00  0.00     0.031 A 
ATOM     47  C   UNL A   1      46.209  27.901  26.535  1.00  0.00     0.031 A 
ATOM     48  C   UNL A   1      51.061  32.292  26.596  1.00  0.00     0.049 A 
ATOM     49  C   UNL A   1      47.706  27.798  26.383  1.00  0.00     0.074 A 
ATOM     50  C   UNL A   1      52.423  32.054  26.528  1.00  0.00     0.029 A 
ATOM     51  N   UNL A   1      50.433  31.058  26.507  1.00  0.00    -0.354 N 
ATOM     52  N   UNL A   1      48.609  28.750  26.431  1.00  0.00    -0.248 NA
ATOM     53  C   UNL A   1      48.261  26.456  26.159  1.00  0.00     0.031 C 
ATOM     54  C   UNL A   1      52.616  30.683  26.340  1.00  0.00     0.029 A 
ATOM     55  C   UNL A   1      51.378  30.059  26.361  1.00  0.00     0.049 A 
ATOM     56  H   UNL A   1      49.460  30.916  26.542  1.00  0.00     0.167 HD
ATOM     57  C   UNL A   1      49.839  28.115  26.281  1.00  0.00     0.074 A 
ATOM     58  C   UNL A   1      49.564  26.699  26.154  1.00  0.00     0.031 C 
ATOM     59  C   UNL A   1      51.084  28.652  26.250  1.00  0.00     0.031 A 
BRANCH  46  60
ATOM     60  C   UNL A   1      51.205  34.808  26.790  1.00  0.00    -0.014 A 
ATOM     61  C   UNL A   1      51.585  35.487  25.619  1.00  0.00     0.010 A 
ATOM     62  C   UNL A   1      51.551  35.353  28.040  1.00  0.00     0.010 A 
ATOM     63  C   UNL A   1      52.312  36.678  25.696  1.00  0.00     0.020 A 
ATOM     64  C   UNL A   1      52.253  36.558  28.123  1.00  0.00     0.020 A 
ATOM     65  C   UNL A   1      52.637  37.209  26.949  1.00  0.00     0.054 A 
BRANCH  65  66
ATOM     66  S   UNL A   1      53.531  38.785  27.018  1.00  0.00     0.124 S 
ATOM     67  O   UNL A   1      52.665  39.586  27.880  1.00  0.00    -0.237 OA
ATOM     68  O   UNL A   1      54.814  38.398  27.600  1.00  0.00    -0.237 OA
ATOM     69  O   UNL A   1      53.587  39.215  25.623  1.00  0.00    -0.744 OA
ENDBRANCH  65  66
ENDBRANCH  46  60
BRANCH  47  70
ATOM     70  C   UNL A   1      45.352  26.685  26.441  1.00  0.00    -0.014 A 
ATOM     71  C   UNL A   1      45.078  25.907  27.579  1.00  0.00     0.010 A 
ATOM     72  C   UNL A   1      44.836  26.279  25.197  1.00  0.00     0.010 A 
ATOM     73  C   UNL A   1      44.337  24.725  27.468  1.00  0.00     0.020 A 
ATOM     74  C   UNL A   1      44.068  25.117  25.086  1.00  0.00     0.020 A 
ATOM     75  C   UNL A   1      43.840  24.338  26.220  1.00  0.00     0.054 A 
BRANCH  75  76
ATOM     76  S   UNL A   1      42.869  22.810  26.101  1.00  0.00     0.124 S 
ATOM     77  O   UNL A   1      43.545  21.945  27.062  1.00  0.00    -0.237 OA
ATOM     78  O   UNL A   1      41.532  23.256  26.481  1.00  0.00    -0.237 OA
ATOM     79  O   UNL A   1      43.014  22.422  24.699  1.00  0.00    -0.744 OA
ENDBRANCH  75  76
ENDBRANCH  47  70
BRANCH  59  80
ATOM     80  C   UNL A   1      52.249  27.705  26.128  1.00  0.00    -0.014 A 
ATOM     81  C   UNL A   1      52.921  27.521  24.907  1.00  0.00     0.010 A 
ATOM     82  C   UNL A   1      52.716  27.035  27.274  1.00  0.00     0.010 A 
ATOM     83  C   UNL A   1      54.016  26.656  24.827  1.00  0.00     0.020 A 
ATOM     84  C   UNL A   1      53.830  26.196  27.206  1.00  0.00     0.020 A 
ATOM     85  C   UNL A   1      54.464  26.001  25.978  1.00  0.00     0.054 A 
BRANCH  85  86
ATOM     86  S   UNL A   1      55.914  24.918  25.857  1.00  0.00     0.124 S 
ATOM     87  O   UNL A   1      55.321  23.594  26.021  1.00  0.00    -0.237 OA
ATOM     88  O   UNL A   1      56.425  25.217  24.521  1.00  0.00    -0.237 OA
ATOM     89  O   UNL A   1      56.770  25.358  26.957  1.00  0.00    -0.744 OA
ENDBRANCH  85  86
ENDBRANCH  59  80
ENDBRANCH  33  34
ENDBRANCH  26  28
ENDBRANCH  25  26
ENDBRANCH  24  25
ENDBRANCH  23  24
ENDBRANCH  22  23
ENDBRANCH   1  22
TORSDOF 21
ENDMDL
MODEL 3
REMARK VINA RESULT:      -6.8      4.317     10.918
REMARK SMILES C[C@@H]1CCC[C@](CCSc2ccccc2)(C(=O)OCCOCCOC(=O)c2ccc(-c3c4nc(c(-c5ccc(S(=O)(=O)[O-])cc5)c5ccc([nH]5)c(-c5ccc(S(=O)(=O)[O-])cc5)c5nc(c(-c6ccc(S(=O)(=O)[O-])cc6)c6ccc3[nH]6)C=C5)C=C4)cc2)C1
REMARK SMILES IDX 20 1 19 2 18 3 16 4 17 5 6 6 1 7 2 8 3 9 87 10 4 11 5 12
REMARK SMILES IDX 7 13 8 14 9 15 10 16 11 17 15 18 12 19 14 20 13 21 21 22
REMARK SMILES IDX 22 23 23 24 24 25 25 26 26 27 27 28 28 29 86 30 29 31 85 32
REMARK SMILES IDX 30 33 31 34 32 35 79 36 33 37 84 38 78 39 80 40 34 41 83 42
REMARK SMILES IDX 77 43 76 44 35 46 65 47 46 48 64 49 47 50 50 51 63 52 81 53
REMARK SMILES IDX 48 54 49 55 62 57 82 58 51 59 36 60 37 61 45 62 38 63 44 64
REMARK SMILES IDX 39 65 40 66 41 67 42 68 43 69 66 70 67 71 75 72 68 73 74 74
REMARK SMILES IDX 69 75 70 76 71 77 72 78 73 79 52 80 53 81 61 82 54 83 60 84
REMARK SMILES IDX 55 85 56 86 57 87 58 88 59 89
REMARK H PARENT 80 45 50 56
REMARK Flexibility Score: inf
ROOT
ATOM      1  C   UNL A   1      37.283  23.353  26.009  1.00  0.00     0.202 C 
ENDROOT
BRANCH   1   2
ATOM      2  C   UNL A   1      36.313  23.182  24.809  1.00  0.00     0.261 C 
BRANCH   2   3
ATOM      3  O   UNL A   1      35.442  24.258  24.452  1.00  0.00    -0.463 OA
BRANCH   3   4
ATOM      4  C   UNL A   1      34.263  24.182  25.105  1.00  0.00     0.312 C 
ATOM      5  O   UNL A   1      34.178  24.513  26.276  1.00  0.00    -0.252 OA
BRANCH   4   6
ATOM      6  C   UNL A   1      33.047  23.800  24.264  1.00  0.00     0.069 C 
ATOM      7  C   UNL A   1      32.643  22.039  27.043  1.00  0.00     0.007 C 
ATOM      8  C   UNL A   1      31.790  22.063  25.772  1.00  0.00    -0.013 C 
ATOM      9  C   UNL A   1      32.151  20.940  24.797  1.00  0.00     0.003 C 
ATOM     10  C   UNL A   1      31.791  23.428  25.070  1.00  0.00     0.022 C 
ATOM     11  C   UNL A   1      33.407  21.229  23.983  1.00  0.00     0.001 C 
ATOM     12  C   UNL A   1      33.385  22.612  23.314  1.00  0.00     0.019 C 
BRANCH   6  13
ATOM     13  C   UNL A   1      32.758  25.093  23.394  1.00  0.00     0.030 C 
BRANCH  13  14
ATOM     14  C   UNL A   1      32.211  26.401  24.052  1.00  0.00     0.076 C 
BRANCH  14  15
ATOM     15  S   UNL A   1      32.467  28.120  23.388  1.00  0.00    -0.126 SA
BRANCH  15  16
ATOM     16  C   UNL A   1      32.694  29.124  24.863  1.00  0.00     0.007 A 
ATOM     17  C   UNL A   1      33.796  28.896  25.704  1.00  0.00     0.015 A 
ATOM     18  C   UNL A   1      31.763  30.092  25.234  1.00  0.00     0.015 A 
ATOM     19  C   UNL A   1      33.885  29.522  26.954  1.00  0.00     0.001 A 
ATOM     20  C   UNL A   1      31.849  30.718  26.482  1.00  0.00     0.001 A 
ATOM     21  C   UNL A   1      32.894  30.415  27.352  1.00  0.00     0.000 A 
ENDBRANCH  15  16
ENDBRANCH  14  15
ENDBRANCH  13  14
ENDBRANCH   6  13
ENDBRANCH   4   6
ENDBRANCH   3   4
ENDBRANCH   2   3
ENDBRANCH   1   2
BRANCH   1  22
ATOM     22  O   UNL A   1      38.691  23.477  25.882  1.00  0.00    -0.374 OA
BRANCH  22  23
ATOM     23  C   UNL A   1      39.578  22.558  26.496  1.00  0.00     0.202 C 
BRANCH  23  24
ATOM     24  C   UNL A   1      41.073  22.860  26.548  1.00  0.00     0.261 C 
BRANCH  24  25
ATOM     25  O   UNL A   1      41.394  24.203  26.164  1.00  0.00    -0.460 OA
BRANCH  25  26
ATOM     26  C   UNL A   1      42.426  24.745  26.853  1.00  0.00     0.338 C 
ATOM     27  O   UNL A   1      43.617  24.509  26.709  1.00  0.00    -0.246 OA
BRANCH  26  28
ATOM     28  C   UNL A   1      41.941  25.838  27.708  1.00  0.00     0.060 A 
ATOM     29  C   UNL A   1      42.799  26.925  27.928  1.00  0.00     0.016 A 
ATOM     30  C   UNL A   1      40.712  25.751  28.362  1.00  0.00     0.016 A 
ATOM     31  C   UNL A   1      42.453  27.910  28.843  1.00  0.00     0.010 A 
ATOM     32  C   UNL A   1      40.381  26.724  29.307  1.00  0.00     0.010 A 
ATOM     33  C   UNL A   1      41.272  27.778  29.580  1.00  0.00    -0.014 A 
BRANCH  33  34
ATOM     34  C   UNL A   1      41.089  28.609  30.791  1.00  0.00     0.031 A 
ATOM     35  C   UNL A   1      40.004  29.652  30.775  1.00  0.00     0.074 A 
ATOM     36  C   UNL A   1      41.838  28.412  31.887  1.00  0.00     0.049 A 
ATOM     37  N   UNL A   1      39.691  30.534  31.686  1.00  0.00    -0.248 NA
ATOM     38  C   UNL A   1      39.156  29.705  29.569  1.00  0.00     0.031 C 
ATOM     39  C   UNL A   1      42.869  27.385  32.038  1.00  0.00     0.029 A 
ATOM     40  N   UNL A   1      41.848  29.079  33.086  1.00  0.00    -0.354 N 
ATOM     41  C   UNL A   1      38.620  31.250  31.164  1.00  0.00     0.074 A 
ATOM     42  C   UNL A   1      38.352  30.721  29.846  1.00  0.00     0.031 C 
ATOM     43  C   UNL A   1      43.423  27.502  33.258  1.00  0.00     0.029 A 
ATOM     44  C   UNL A   1      42.814  28.632  33.955  1.00  0.00     0.049 A 
ATOM     45  H   UNL A   1      41.221  29.806  33.303  1.00  0.00     0.167 HD
ATOM     46  C   UNL A   1      37.919  32.257  31.735  1.00  0.00     0.031 A 
ATOM     47  C   UNL A   1      43.181  29.107  35.162  1.00  0.00     0.031 A 
ATOM     48  C   UNL A   1      38.201  32.786  33.042  1.00  0.00     0.049 A 
ATOM     49  C   UNL A   1      42.446  30.293  35.736  1.00  0.00     0.074 A 
ATOM     50  C   UNL A   1      37.556  33.810  33.713  1.00  0.00     0.029 A 
ATOM     51  N   UNL A   1      39.214  32.335  33.876  1.00  0.00    -0.354 N 
ATOM     52  N   UNL A   1      41.432  30.959  35.234  1.00  0.00    -0.248 NA
ATOM     53  C   UNL A   1      42.901  30.788  37.042  1.00  0.00     0.031 C 
ATOM     54  C   UNL A   1      38.215  34.017  34.928  1.00  0.00     0.029 A 
ATOM     55  C   UNL A   1      39.226  33.076  35.044  1.00  0.00     0.049 A 
ATOM     56  H   UNL A   1      39.832  31.598  33.667  1.00  0.00     0.167 HD
ATOM     57  C   UNL A   1      41.106  31.925  36.182  1.00  0.00     0.074 A 
ATOM     58  C   UNL A   1      42.022  31.748  37.290  1.00  0.00     0.031 C 
ATOM     59  C   UNL A   1      40.138  32.874  36.142  1.00  0.00     0.031 A 
BRANCH  46  60
ATOM     60  C   UNL A   1      36.798  32.872  30.941  1.00  0.00    -0.014 A 
ATOM     61  C   UNL A   1      35.469  32.443  31.104  1.00  0.00     0.010 A 
ATOM     62  C   UNL A   1      37.070  33.939  30.066  1.00  0.00     0.010 A 
ATOM     63  C   UNL A   1      34.435  33.058  30.392  1.00  0.00     0.020 A 
ATOM     64  C   UNL A   1      36.037  34.575  29.373  1.00  0.00     0.020 A 
ATOM     65  C   UNL A   1      34.725  34.124  29.535  1.00  0.00     0.054 A 
BRANCH  65  66
ATOM     66  S   UNL A   1      33.356  34.939  28.668  1.00  0.00     0.124 S 
ATOM     67  O   UNL A   1      32.546  35.431  29.779  1.00  0.00    -0.237 OA
ATOM     68  O   UNL A   1      34.041  35.965  27.886  1.00  0.00    -0.237 OA
ATOM     69  O   UNL A   1      32.751  33.864  27.886  1.00  0.00    -0.744 OA
ENDBRANCH  65  66
ENDBRANCH  46  60
BRANCH  47  70
ATOM     70  C   UNL A   1      44.323  28.494  35.897  1.00  0.00    -0.014 A 
ATOM     71  C   UNL A   1      44.125  27.393  36.748  1.00  0.00     0.010 A 
ATOM     72  C   UNL A   1      45.614  29.039  35.777  1.00  0.00     0.010 A 
ATOM     73  C   UNL A   1      45.189  26.873  37.494  1.00  0.00     0.020 A 
ATOM     74  C   UNL A   1      46.687  28.502  36.494  1.00  0.00     0.020 A 
ATOM     75  C   UNL A   1      46.462  27.434  37.363  1.00  0.00     0.054 A 
BRANCH  75  76
ATOM     76  S   UNL A   1      47.830  26.736  38.328  1.00  0.00     0.124 S 
ATOM     77  O   UNL A   1      48.994  27.186  37.573  1.00  0.00    -0.237 OA
ATOM     78  O   UNL A   1      47.643  27.359  39.636  1.00  0.00    -0.237 OA
ATOM     79  O   UNL A   1      47.576  25.298  38.289  1.00  0.00    -0.744 OA
ENDBRANCH  75  76
ENDBRANCH  47  70
BRANCH  59  80
ATOM     80  C   UNL A   1      39.979  33.760  37.349  1.00  0.00    -0.014 A 
ATOM     81  C   UNL A   1      39.161  33.389  38.430  1.00  0.00     0.010 A 
ATOM     82  C   UNL A   1      40.713  34.959  37.426  1.00  0.00     0.010 A 
ATOM     83  C   UNL A   1      39.051  34.218  39.550  1.00  0.00     0.020 A 
ATOM     84  C   UNL A   1      40.632  35.773  38.557  1.00  0.00     0.020 A 
ATOM     85  C   UNL A   1      39.789  35.404  39.606  1.00  0.00     0.054 A 
BRANCH  85  86
ATOM     86  S   UNL A   1      39.663  36.439  41.090  1.00  0.00     0.124 S 
ATOM     87  O   UNL A   1      41.043  36.880  41.272  1.00  0.00    -0.237 OA
ATOM     88  O   UNL A   1      38.722  37.477  40.677  1.00  0.00    -0.237 OA
ATOM     89  O   UNL A   1      39.162  35.523  42.112  1.00  0.00    -0.744 OA
ENDBRANCH  85  86
ENDBRANCH  59  80
ENDBRANCH  33  34
ENDBRANCH  26  28
ENDBRANCH  25  26
ENDBRANCH  24  25
ENDBRANCH  23  24
ENDBRANCH  22  23
ENDBRANCH   1  22
TORSDOF 21
ENDMDL
