MODEL 1
REMARK VINA RESULT:      -9.5      0.000      0.000
REMARK SMILES C[C@H](Nc1nc(CC(=O)OCCOCCOC(=O)c2ccc(-c3c4nc(c(-c5ccc(S(=O)(=O)[O-])cc5)c5ccc([nH]5)c(-c5ccc(S(=O)(=O)[O-])cc5)c5nc(c(-c6ccc(S(=O)(=O)[O-])cc6)c6ccc3[nH]6)C=C5)C=C4)cc2)cs1)c1ccccc1
REMARK SMILES IDX 12 1 11 2 10 3 8 4 9 5 7 6 6 7 4 8 5 9 80 10 79 11 3 12 2 14
REMARK SMILES IDX 1 15 81 16 82 17 86 18 83 19 85 20 84 21 13 22 14 23 15 24
REMARK SMILES IDX 16 25 17 26 18 27 19 28 20 29 78 30 21 31 77 32 22 33 23 34
REMARK SMILES IDX 24 35 71 36 25 37 76 38 70 39 72 40 26 41 75 42 69 43 68 44
REMARK SMILES IDX 27 46 57 47 38 48 56 49 39 50 42 51 55 52 73 53 40 54 41 55
REMARK SMILES IDX 54 57 74 58 43 59 28 60 29 61 37 62 30 63 36 64 31 65 32 66
REMARK SMILES IDX 33 67 34 68 35 69 58 70 59 71 67 72 60 73 66 74 61 75 62 76
REMARK SMILES IDX 63 77 64 78 65 79 44 80 45 81 53 82 46 83 52 84 47 85 48 86
REMARK SMILES IDX 49 87 50 88 51 89
REMARK H PARENT 3 13 72 45 42 56
REMARK Flexibility Score: inf
ROOT
ATOM      1  C   UNL A   1      35.051  24.740  25.237  1.00  0.00     0.202 C 
ENDROOT
BRANCH   1   2
ATOM      2  C   UNL A   1      34.676  23.717  24.157  1.00  0.00     0.261 C 
BRANCH   2   3
ATOM      3  O   UNL A   1      34.458  24.330  22.870  1.00  0.00    -0.463 OA
BRANCH   3   4
ATOM      4  C   UNL A   1      33.398  23.866  22.156  1.00  0.00     0.311 C 
ATOM      5  O   UNL A   1      33.356  23.818  20.930  1.00  0.00    -0.252 OA
BRANCH   4   6
ATOM      6  C   UNL A   1      32.220  23.434  22.992  1.00  0.00     0.179 C 
BRANCH   6   7
ATOM      7  C   UNL A   1      31.416  24.508  23.649  1.00  0.00     0.065 A 
ATOM      8  C   UNL A   1      30.405  26.486  23.584  1.00  0.00     0.183 A 
ATOM      9  N   UNL A   1      31.191  25.667  22.928  1.00  0.00    -0.225 NA
ATOM     10  S   UNL A   1      29.997  25.973  25.173  1.00  0.00    -0.105 S 
ATOM     11  C   UNL A   1      30.697  24.447  24.827  1.00  0.00     0.093 A 
BRANCH   8  12
ATOM     12  N   UNL A   1      29.798  27.553  23.032  1.00  0.00    -0.355 N 
ATOM     13  H   UNL A   1      29.097  27.466  22.346  1.00  0.00     0.163 HD
BRANCH  12  14
ATOM     14  C   UNL A   1      30.253  28.853  23.522  1.00  0.00     0.108 C 
ATOM     15  C   UNL A   1      31.745  28.994  23.197  1.00  0.00     0.036 C 
BRANCH  14  16
ATOM     16  C   UNL A   1      29.454  30.024  22.992  1.00  0.00    -0.026 A 
ATOM     17  C   UNL A   1      29.050  29.998  21.643  1.00  0.00     0.006 A 
ATOM     18  C   UNL A   1      29.104  31.135  23.769  1.00  0.00     0.006 A 
ATOM     19  C   UNL A   1      28.316  31.048  21.090  1.00  0.00     0.000 A 
ATOM     20  C   UNL A   1      28.370  32.187  23.214  1.00  0.00     0.000 A 
ATOM     21  C   UNL A   1      27.975  32.143  21.877  1.00  0.00     0.000 A 
ENDBRANCH  14  16
ENDBRANCH  12  14
ENDBRANCH   8  12
ENDBRANCH   6   7
ENDBRANCH   4   6
ENDBRANCH   3   4
ENDBRANCH   2   3
ENDBRANCH   1   2
BRANCH   1  22
ATOM     22  O   UNL A   1      33.965  25.447  25.841  1.00  0.00    -0.374 OA
BRANCH  22  23
ATOM     23  C   UNL A   1      33.750  26.783  25.396  1.00  0.00     0.202 C 
BRANCH  23  24
ATOM     24  C   UNL A   1      33.613  27.850  26.490  1.00  0.00     0.261 C 
BRANCH  24  25
ATOM     25  O   UNL A   1      34.530  28.942  26.298  1.00  0.00    -0.460 OA
BRANCH  25  26
ATOM     26  C   UNL A   1      34.415  29.934  27.213  1.00  0.00     0.338 C 
ATOM     27  O   UNL A   1      33.431  30.636  27.411  1.00  0.00    -0.246 OA
BRANCH  26  28
ATOM     28  C   UNL A   1      35.590  29.976  28.101  1.00  0.00     0.060 A 
ATOM     29  C   UNL A   1      36.771  30.502  27.563  1.00  0.00     0.016 A 
ATOM     30  C   UNL A   1      35.582  29.418  29.382  1.00  0.00     0.016 A 
ATOM     31  C   UNL A   1      37.966  30.404  28.270  1.00  0.00     0.010 A 
ATOM     32  C   UNL A   1      36.789  29.313  30.089  1.00  0.00     0.010 A 
ATOM     33  C   UNL A   1      37.994  29.763  29.516  1.00  0.00    -0.014 A 
BRANCH  33  34
ATOM     34  C   UNL A   1      39.308  29.421  30.115  1.00  0.00     0.031 A 
ATOM     35  C   UNL A   1      39.764  30.165  31.344  1.00  0.00     0.074 A 
ATOM     36  C   UNL A   1      40.051  28.412  29.624  1.00  0.00     0.049 A 
ATOM     37  N   UNL A   1      40.850  30.003  32.056  1.00  0.00    -0.248 NA
ATOM     38  C   UNL A   1      38.874  31.229  31.840  1.00  0.00     0.031 C 
ATOM     39  C   UNL A   1      39.698  27.584  28.472  1.00  0.00     0.029 A 
ATOM     40  N   UNL A   1      41.256  27.907  30.045  1.00  0.00    -0.354 N 
ATOM     41  C   UNL A   1      40.775  30.939  33.082  1.00  0.00     0.074 A 
ATOM     42  C   UNL A   1      39.552  31.687  32.883  1.00  0.00     0.031 C 
ATOM     43  C   UNL A   1      40.666  26.671  28.279  1.00  0.00     0.029 A 
ATOM     44  C   UNL A   1      41.718  26.865  29.277  1.00  0.00     0.049 A 
ATOM     45  H   UNL A   1      41.745  28.259  30.825  1.00  0.00     0.167 HD
ATOM     46  C   UNL A   1      41.638  31.152  34.103  1.00  0.00     0.031 A 
ATOM     47  C   UNL A   1      42.860  26.156  29.361  1.00  0.00     0.031 A 
ATOM     48  C   UNL A   1      42.859  30.417  34.297  1.00  0.00     0.049 A 
ATOM     49  C   UNL A   1      43.840  26.459  30.466  1.00  0.00     0.074 A 
ATOM     50  C   UNL A   1      43.802  30.563  35.301  1.00  0.00     0.029 A 
ATOM     51  N   UNL A   1      43.310  29.400  33.470  1.00  0.00    -0.354 N 
ATOM     52  N   UNL A   1      43.744  27.339  31.434  1.00  0.00    -0.248 NA
ATOM     53  C   UNL A   1      45.075  25.663  30.496  1.00  0.00     0.031 C 
ATOM     54  C   UNL A   1      44.844  29.662  35.055  1.00  0.00     0.029 A 
ATOM     55  C   UNL A   1      44.525  28.921  33.930  1.00  0.00     0.049 A 
ATOM     56  H   UNL A   1      42.836  29.067  32.674  1.00  0.00     0.167 HD
ATOM     57  C   UNL A   1      44.893  27.181  32.204  1.00  0.00     0.074 A 
ATOM     58  C   UNL A   1      45.662  26.115  31.595  1.00  0.00     0.031 C 
ATOM     59  C   UNL A   1      45.275  27.855  33.317  1.00  0.00     0.031 A 
BRANCH  46  60
ATOM     60  C   UNL A   1      41.303  32.248  35.080  1.00  0.00    -0.014 A 
ATOM     61  C   UNL A   1      41.695  33.577  34.841  1.00  0.00     0.010 A 
ATOM     62  C   UNL A   1      40.548  31.950  36.230  1.00  0.00     0.010 A 
ATOM     63  C   UNL A   1      41.366  34.585  35.752  1.00  0.00     0.020 A 
ATOM     64  C   UNL A   1      40.198  32.960  37.131  1.00  0.00     0.020 A 
ATOM     65  C   UNL A   1      40.622  34.269  36.893  1.00  0.00     0.054 A 
BRANCH  65  66
ATOM     66  S   UNL A   1      40.186  35.600  38.047  1.00  0.00     0.124 S 
ATOM     67  O   UNL A   1      39.884  36.700  37.136  1.00  0.00    -0.237 OA
ATOM     68  O   UNL A   1      39.040  35.043  38.762  1.00  0.00    -0.237 OA
ATOM     69  O   UNL A   1      41.394  35.770  38.852  1.00  0.00    -0.744 OA
ENDBRANCH  65  66
ENDBRANCH  46  60
BRANCH  47  70
ATOM     70  C   UNL A   1      43.156  25.095  28.359  1.00  0.00    -0.014 A 
ATOM     71  C   UNL A   1      43.873  25.391  27.186  1.00  0.00     0.010 A 
ATOM     72  C   UNL A   1      42.702  23.780  28.569  1.00  0.00     0.010 A 
ATOM     73  C   UNL A   1      44.109  24.398  26.231  1.00  0.00     0.020 A 
ATOM     74  C   UNL A   1      42.959  22.779  27.630  1.00  0.00     0.020 A 
ATOM     75  C   UNL A   1      43.649  23.098  26.458  1.00  0.00     0.054 A 
BRANCH  75  76
ATOM     76  S   UNL A   1      43.995  21.814  25.223  1.00  0.00     0.124 S 
ATOM     77  O   UNL A   1      42.963  20.824  25.518  1.00  0.00    -0.237 OA
ATOM     78  O   UNL A   1      43.840  22.536  23.964  1.00  0.00    -0.237 OA
ATOM     79  O   UNL A   1      45.363  21.404  25.533  1.00  0.00    -0.744 OA
ENDBRANCH  75  76
ENDBRANCH  47  70
BRANCH  59  80
ATOM     80  C   UNL A   1      46.562  27.435  33.977  1.00  0.00    -0.014 A 
ATOM     81  C   UNL A   1      47.790  28.015  33.617  1.00  0.00     0.010 A 
ATOM     82  C   UNL A   1      46.528  26.484  35.014  1.00  0.00     0.010 A 
ATOM     83  C   UNL A   1      48.969  27.626  34.260  1.00  0.00     0.020 A 
ATOM     84  C   UNL A   1      47.701  26.112  35.676  1.00  0.00     0.020 A 
ATOM     85  C   UNL A   1      48.917  26.674  35.284  1.00  0.00     0.054 A 
BRANCH  85  86
ATOM     86  S   UNL A   1      50.454  26.215  36.132  1.00  0.00     0.124 S 
ATOM     87  O   UNL A   1      51.088  27.513  36.337  1.00  0.00    -0.237 OA
ATOM     88  O   UNL A   1      49.970  25.554  37.342  1.00  0.00    -0.237 OA
ATOM     89  O   UNL A   1      51.126  25.336  35.177  1.00  0.00    -0.744 OA
ENDBRANCH  85  86
ENDBRANCH  59  80
ENDBRANCH  33  34
ENDBRANCH  26  28
ENDBRANCH  25  26
ENDBRANCH  24  25
ENDBRANCH  23  24
ENDBRANCH  22  23
ENDBRANCH   1  22
TORSDOF 21
ENDMDL
MODEL 2
REMARK VINA RESULT:      -9.4      1.971      4.384
REMARK SMILES C[C@H](Nc1nc(CC(=O)OCCOCCOC(=O)c2ccc(-c3c4nc(c(-c5ccc(S(=O)(=O)[O-])cc5)c5ccc([nH]5)c(-c5ccc(S(=O)(=O)[O-])cc5)c5nc(c(-c6ccc(S(=O)(=O)[O-])cc6)c6ccc3[nH]6)C=C5)C=C4)cc2)cs1)c1ccccc1
REMARK SMILES IDX 12 1 11 2 10 3 8 4 9 5 7 6 6 7 4 8 5 9 80 10 79 11 3 12 2 14
REMARK SMILES IDX 1 15 81 16 82 17 86 18 83 19 85 20 84 21 13 22 14 23 15 24
REMARK SMILES IDX 16 25 17 26 18 27 19 28 20 29 78 30 21 31 77 32 22 33 23 34
REMARK SMILES IDX 24 35 71 36 25 37 76 38 70 39 72 40 26 41 75 42 69 43 68 44
REMARK SMILES IDX 27 46 57 47 38 48 56 49 39 50 42 51 55 52 73 53 40 54 41 55
REMARK SMILES IDX 54 57 74 58 43 59 28 60 29 61 37 62 30 63 36 64 31 65 32 66
REMARK SMILES IDX 33 67 34 68 35 69 58 70 59 71 67 72 60 73 66 74 61 75 62 76
REMARK SMILES IDX 63 77 64 78 65 79 44 80 45 81 53 82 46 83 52 84 47 85 48 86
REMARK SMILES IDX 49 87 50 88 51 89
REMARK H PARENT 3 13 72 45 42 56
REMARK Flexibility Score: inf
ROOT
ATOM      1  C   UNL A   1      30.574  29.532  24.119  1.00  0.00     0.202 C 
ENDROOT
BRANCH   1   2
ATOM      2  C   UNL A   1      29.493  28.815  23.301  1.00  0.00     0.261 C 
BRANCH   2   3
ATOM      3  O   UNL A   1      29.959  27.568  22.746  1.00  0.00    -0.463 OA
BRANCH   3   4
ATOM      4  C   UNL A   1      29.742  26.458  23.500  1.00  0.00     0.311 C 
ATOM      5  O   UNL A   1      28.731  26.262  24.169  1.00  0.00    -0.252 OA
BRANCH   4   6
ATOM      6  C   UNL A   1      30.877  25.465  23.495  1.00  0.00     0.179 C 
BRANCH   6   7
ATOM      7  C   UNL A   1      30.959  24.514  24.643  1.00  0.00     0.065 A 
ATOM      8  C   UNL A   1      31.307  22.472  25.447  1.00  0.00     0.183 A 
ATOM      9  N   UNL A   1      31.171  23.179  24.352  1.00  0.00    -0.225 NA
ATOM     10  S   UNL A   1      31.051  23.347  26.905  1.00  0.00    -0.105 S 
ATOM     11  C   UNL A   1      31.034  24.799  25.993  1.00  0.00     0.093 A 
BRANCH   8  12
ATOM     12  N   UNL A   1      31.787  21.214  25.479  1.00  0.00    -0.355 N 
ATOM     13  H   UNL A   1      31.313  20.479  25.931  1.00  0.00     0.163 HD
BRANCH  12  14
ATOM     14  C   UNL A   1      33.063  21.017  24.794  1.00  0.00     0.108 C 
ATOM     15  C   UNL A   1      34.193  21.339  25.780  1.00  0.00     0.036 C 
BRANCH  14  16
ATOM     16  C   UNL A   1      33.229  19.640  24.187  1.00  0.00    -0.026 A 
ATOM     17  C   UNL A   1      34.287  18.832  24.648  1.00  0.00     0.006 A 
ATOM     18  C   UNL A   1      32.392  19.132  23.186  1.00  0.00     0.006 A 
ATOM     19  C   UNL A   1      34.499  17.556  24.127  1.00  0.00     0.000 A 
ATOM     20  C   UNL A   1      32.606  17.853  22.663  1.00  0.00     0.000 A 
ATOM     21  C   UNL A   1      33.656  17.066  23.134  1.00  0.00     0.000 A 
ENDBRANCH  14  16
ENDBRANCH  12  14
ENDBRANCH   8  12
ENDBRANCH   6   7
ENDBRANCH   4   6
ENDBRANCH   3   4
ENDBRANCH   2   3
ENDBRANCH   1   2
BRANCH   1  22
ATOM     22  O   UNL A   1      31.888  28.975  24.053  1.00  0.00    -0.374 OA
BRANCH  22  23
ATOM     23  C   UNL A   1      32.407  28.424  25.260  1.00  0.00     0.202 C 
BRANCH  23  24
ATOM     24  C   UNL A   1      33.916  28.585  25.488  1.00  0.00     0.261 C 
BRANCH  24  25
ATOM     25  O   UNL A   1      34.248  28.656  26.886  1.00  0.00    -0.460 OA
BRANCH  25  26
ATOM     26  C   UNL A   1      34.471  29.911  27.343  1.00  0.00     0.338 C 
ATOM     27  O   UNL A   1      33.724  30.875  27.229  1.00  0.00    -0.246 OA
BRANCH  26  28
ATOM     28  C   UNL A   1      35.685  29.964  28.177  1.00  0.00     0.060 A 
ATOM     29  C   UNL A   1      36.853  30.432  27.563  1.00  0.00     0.016 A 
ATOM     30  C   UNL A   1      35.721  29.468  29.483  1.00  0.00     0.016 A 
ATOM     31  C   UNL A   1      38.076  30.335  28.222  1.00  0.00     0.010 A 
ATOM     32  C   UNL A   1      36.955  29.366  30.141  1.00  0.00     0.010 A 
ATOM     33  C   UNL A   1      38.143  29.755  29.495  1.00  0.00    -0.014 A 
BRANCH  33  34
ATOM     34  C   UNL A   1      39.475  29.407  30.053  1.00  0.00     0.031 A 
ATOM     35  C   UNL A   1      39.983  30.168  31.250  1.00  0.00     0.074 A 
ATOM     36  C   UNL A   1      40.186  28.380  29.555  1.00  0.00     0.049 A 
ATOM     37  N   UNL A   1      41.093  30.005  31.925  1.00  0.00    -0.248 NA
ATOM     38  C   UNL A   1      39.126  31.252  31.758  1.00  0.00     0.031 C 
ATOM     39  C   UNL A   1      39.781  27.534  28.432  1.00  0.00     0.029 A 
ATOM     40  N   UNL A   1      41.400  27.867  29.942  1.00  0.00    -0.354 N 
ATOM     41  C   UNL A   1      41.066  30.961  32.935  1.00  0.00     0.074 A 
ATOM     42  C   UNL A   1      39.847  31.721  32.766  1.00  0.00     0.031 C 
ATOM     43  C   UNL A   1      40.730  26.605  28.222  1.00  0.00     0.029 A 
ATOM     44  C   UNL A   1      41.820  26.804  29.178  1.00  0.00     0.049 A 
ATOM     45  H   UNL A   1      41.921  28.226  30.697  1.00  0.00     0.167 HD
ATOM     46  C   UNL A   1      41.969  31.182  33.920  1.00  0.00     0.031 A 
ATOM     47  C   UNL A   1      42.956  26.082  29.235  1.00  0.00     0.031 A 
ATOM     48  C   UNL A   1      43.187  30.435  34.084  1.00  0.00     0.049 A 
ATOM     49  C   UNL A   1      43.979  26.393  30.297  1.00  0.00     0.074 A 
ATOM     50  C   UNL A   1      44.167  30.587  35.050  1.00  0.00     0.029 A 
ATOM     51  N   UNL A   1      43.595  29.396  33.261  1.00  0.00    -0.354 N 
ATOM     52  N   UNL A   1      43.929  27.292  31.251  1.00  0.00    -0.248 NA
ATOM     53  C   UNL A   1      45.204  25.581  30.298  1.00  0.00     0.031 C 
ATOM     54  C   UNL A   1      45.189  29.669  34.785  1.00  0.00     0.029 A 
ATOM     55  C   UNL A   1      44.819  28.910  33.686  1.00  0.00     0.049 A 
ATOM     56  H   UNL A   1      43.088  29.055  32.490  1.00  0.00     0.167 HD
ATOM     57  C   UNL A   1      45.103  27.133  31.982  1.00  0.00     0.074 A 
ATOM     58  C   UNL A   1      45.836  26.046  31.366  1.00  0.00     0.031 C 
ATOM     59  C   UNL A   1      45.534  27.823  33.067  1.00  0.00     0.031 A 
BRANCH  46  60
ATOM     60  C   UNL A   1      41.683  32.300  34.887  1.00  0.00    -0.014 A 
ATOM     61  C   UNL A   1      42.099  33.617  34.617  1.00  0.00     0.010 A 
ATOM     62  C   UNL A   1      40.952  32.038  36.060  1.00  0.00     0.010 A 
ATOM     63  C   UNL A   1      41.815  34.646  35.520  1.00  0.00     0.020 A 
ATOM     64  C   UNL A   1      40.646  33.069  36.953  1.00  0.00     0.020 A 
ATOM     65  C   UNL A   1      41.094  34.365  36.684  1.00  0.00     0.054 A 
BRANCH  65  66
ATOM     66  S   UNL A   1      40.717  35.723  37.827  1.00  0.00     0.124 S 
ATOM     67  O   UNL A   1      39.939  36.622  36.979  1.00  0.00    -0.237 OA
ATOM     68  O   UNL A   1      39.967  35.053  38.886  1.00  0.00    -0.237 OA
ATOM     69  O   UNL A   1      42.034  36.220  38.220  1.00  0.00    -0.744 OA
ENDBRANCH  65  66
ENDBRANCH  46  60
BRANCH  47  70
ATOM     70  C   UNL A   1      43.202  24.999  28.243  1.00  0.00    -0.014 A 
ATOM     71  C   UNL A   1      42.817  23.673  28.512  1.00  0.00     0.010 A 
ATOM     72  C   UNL A   1      43.845  25.289  27.025  1.00  0.00     0.010 A 
ATOM     73  C   UNL A   1      43.090  22.656  27.594  1.00  0.00     0.020 A 
ATOM     74  C   UNL A   1      44.096  24.280  26.094  1.00  0.00     0.020 A 
ATOM     75  C   UNL A   1      43.731  22.965  26.390  1.00  0.00     0.054 A 
BRANCH  75  76
ATOM     76  S   UNL A   1      44.046  21.637  25.196  1.00  0.00     0.124 S 
ATOM     77  O   UNL A   1      42.888  20.771  25.392  1.00  0.00    -0.237 OA
ATOM     78  O   UNL A   1      44.092  22.356  23.926  1.00  0.00    -0.237 OA
ATOM     79  O   UNL A   1      45.325  21.082  25.634  1.00  0.00    -0.744 OA
ENDBRANCH  75  76
ENDBRANCH  47  70
BRANCH  59  80
ATOM     80  C   UNL A   1      46.838  27.399  33.688  1.00  0.00    -0.014 A 
ATOM     81  C   UNL A   1      48.060  27.954  33.271  1.00  0.00     0.010 A 
ATOM     82  C   UNL A   1      46.830  26.470  34.745  1.00  0.00     0.010 A 
ATOM     83  C   UNL A   1      49.257  27.561  33.879  1.00  0.00     0.020 A 
ATOM     84  C   UNL A   1      48.022  26.095  35.372  1.00  0.00     0.020 A 
ATOM     85  C   UNL A   1      49.230  26.632  34.924  1.00  0.00     0.054 A 
BRANCH  85  86
ATOM     86  S   UNL A   1      50.791  26.169  35.724  1.00  0.00     0.124 S 
ATOM     87  O   UNL A   1      51.717  26.152  34.597  1.00  0.00    -0.237 OA
ATOM     88  O   UNL A   1      50.993  27.248  36.688  1.00  0.00    -0.237 OA
ATOM     89  O   UNL A   1      50.503  24.863  36.314  1.00  0.00    -0.744 OA
ENDBRANCH  85  86
ENDBRANCH  59  80
ENDBRANCH  33  34
ENDBRANCH  26  28
ENDBRANCH  25  26
ENDBRANCH  24  25
ENDBRANCH  23  24
ENDBRANCH  22  23
ENDBRANCH   1  22
TORSDOF 21
ENDMDL
MODEL 3
REMARK VINA RESULT:      -9.3      4.325     10.260
REMARK SMILES C[C@H](Nc1nc(CC(=O)OCCOCCOC(=O)c2ccc(-c3c4nc(c(-c5ccc(S(=O)(=O)[O-])cc5)c5ccc([nH]5)c(-c5ccc(S(=O)(=O)[O-])cc5)c5nc(c(-c6ccc(S(=O)(=O)[O-])cc6)c6ccc3[nH]6)C=C5)C=C4)cc2)cs1)c1ccccc1
REMARK SMILES IDX 12 1 11 2 10 3 8 4 9 5 7 6 6 7 4 8 5 9 80 10 79 11 3 12 2 14
REMARK SMILES IDX 1 15 81 16 82 17 86 18 83 19 85 20 84 21 13 22 14 23 15 24
REMARK SMILES IDX 16 25 17 26 18 27 19 28 20 29 78 30 21 31 77 32 22 33 23 34
REMARK SMILES IDX 24 35 71 36 25 37 76 38 70 39 72 40 26 41 75 42 69 43 68 44
REMARK SMILES IDX 27 46 57 47 38 48 56 49 39 50 42 51 55 52 73 53 40 54 41 55
REMARK SMILES IDX 54 57 74 58 43 59 28 60 29 61 37 62 30 63 36 64 31 65 32 66
REMARK SMILES IDX 33 67 34 68 35 69 58 70 59 71 67 72 60 73 66 74 61 75 62 76
REMARK SMILES IDX 63 77 64 78 65 79 44 80 45 81 53 82 46 83 52 84 47 85 48 86
REMARK SMILES IDX 49 87 50 88 51 89
REMARK H PARENT 3 13 72 45 42 56
REMARK Flexibility Score: inf
ROOT
ATOM      1  C   UNL A   1      42.092  21.707  27.102  1.00  0.00     0.202 C 
ENDROOT
BRANCH   1   2
ATOM      2  C   UNL A   1      40.770  21.052  26.683  1.00  0.00     0.261 C 
BRANCH   2   3
ATOM      3  O   UNL A   1      39.983  21.902  25.823  1.00  0.00    -0.463 OA
BRANCH   3   4
ATOM      4  C   UNL A   1      38.667  21.583  25.705  1.00  0.00     0.311 C 
ATOM      5  O   UNL A   1      38.245  20.590  25.118  1.00  0.00    -0.252 OA
BRANCH   4   6
ATOM      6  C   UNL A   1      37.722  22.578  26.330  1.00  0.00     0.179 C 
BRANCH   6   7
ATOM      7  C   UNL A   1      36.566  23.036  25.503  1.00  0.00     0.065 A 
ATOM      8  C   UNL A   1      34.754  22.596  24.294  1.00  0.00     0.183 A 
ATOM      9  N   UNL A   1      35.776  22.063  24.916  1.00  0.00    -0.225 NA
ATOM     10  S   UNL A   1      34.750  24.315  24.256  1.00  0.00    -0.105 S 
ATOM     11  C   UNL A   1      36.048  24.310  25.377  1.00  0.00     0.093 A 
BRANCH   8  12
ATOM     12  N   UNL A   1      33.682  21.900  23.870  1.00  0.00    -0.355 N 
ATOM     13  H   UNL A   1      33.232  22.092  23.015  1.00  0.00     0.163 HD
BRANCH  12  14
ATOM     14  C   UNL A   1      33.232  20.839  24.768  1.00  0.00     0.108 C 
ATOM     15  C   UNL A   1      31.784  21.134  25.174  1.00  0.00     0.036 C 
BRANCH  14  16
ATOM     16  C   UNL A   1      33.378  19.445  24.194  1.00  0.00    -0.026 A 
ATOM     17  C   UNL A   1      34.461  18.656  24.628  1.00  0.00     0.006 A 
ATOM     18  C   UNL A   1      32.499  18.904  23.247  1.00  0.00     0.006 A 
ATOM     19  C   UNL A   1      34.657  17.366  24.134  1.00  0.00     0.000 A 
ATOM     20  C   UNL A   1      32.696  17.612  22.753  1.00  0.00     0.000 A 
ATOM     21  C   UNL A   1      33.772  16.844  23.196  1.00  0.00     0.000 A 
ENDBRANCH  14  16
ENDBRANCH  12  14
ENDBRANCH   8  12
ENDBRANCH   6   7
ENDBRANCH   4   6
ENDBRANCH   3   4
ENDBRANCH   2   3
ENDBRANCH   1   2
BRANCH   1  22
ATOM     22  O   UNL A   1      42.893  22.243  26.047  1.00  0.00    -0.374 OA
BRANCH  22  23
ATOM     23  C   UNL A   1      43.033  23.660  26.012  1.00  0.00     0.202 C 
BRANCH  23  24
ATOM     24  C   UNL A   1      42.341  24.440  27.137  1.00  0.00     0.261 C 
BRANCH  24  25
ATOM     25  O   UNL A   1      41.823  25.703  26.681  1.00  0.00    -0.460 OA
BRANCH  25  26
ATOM     26  C   UNL A   1      40.476  25.817  26.765  1.00  0.00     0.338 C 
ATOM     27  O   UNL A   1      39.647  25.174  26.135  1.00  0.00    -0.246 OA
BRANCH  26  28
ATOM     28  C   UNL A   1      40.088  26.719  27.864  1.00  0.00     0.060 A 
ATOM     29  C   UNL A   1      40.670  27.992  27.873  1.00  0.00     0.016 A 
ATOM     30  C   UNL A   1      39.273  26.305  28.921  1.00  0.00     0.016 A 
ATOM     31  C   UNL A   1      40.503  28.830  28.972  1.00  0.00     0.010 A 
ATOM     32  C   UNL A   1      39.113  27.149  30.031  1.00  0.00     0.010 A 
ATOM     33  C   UNL A   1      39.766  28.394  30.081  1.00  0.00    -0.014 A 
BRANCH  33  34
ATOM     34  C   UNL A   1      39.837  29.179  31.340  1.00  0.00     0.031 A 
ATOM     35  C   UNL A   1      40.977  28.924  32.293  1.00  0.00     0.074 A 
ATOM     36  C   UNL A   1      38.950  30.157  31.596  1.00  0.00     0.049 A 
ATOM     37  N   UNL A   1      41.260  29.519  33.423  1.00  0.00    -0.248 NA
ATOM     38  C   UNL A   1      41.926  27.863  31.918  1.00  0.00     0.031 C 
ATOM     39  C   UNL A   1      37.832  30.535  30.731  1.00  0.00     0.029 A 
ATOM     40  N   UNL A   1      38.859  31.020  32.660  1.00  0.00    -0.354 N 
ATOM     41  C   UNL A   1      42.417  28.908  33.894  1.00  0.00     0.074 A 
ATOM     42  C   UNL A   1      42.767  27.875  32.944  1.00  0.00     0.031 C 
ATOM     43  C   UNL A   1      37.168  31.557  31.299  1.00  0.00     0.029 A 
ATOM     44  C   UNL A   1      37.797  31.889  32.578  1.00  0.00     0.049 A 
ATOM     45  H   UNL A   1      39.495  31.017  33.412  1.00  0.00     0.167 HD
ATOM     46  C   UNL A   1      43.130  29.186  35.011  1.00  0.00     0.031 A 
ATOM     47  C   UNL A   1      37.374  32.836  33.438  1.00  0.00     0.031 A 
ATOM     48  C   UNL A   1      42.780  30.205  35.963  1.00  0.00     0.049 A 
ATOM     49  C   UNL A   1      38.146  33.080  34.709  1.00  0.00     0.074 A 
ATOM     50  C   UNL A   1      43.439  30.559  37.128  1.00  0.00     0.029 A 
ATOM     51  N   UNL A   1      41.672  31.033  35.863  1.00  0.00    -0.354 N 
ATOM     52  N   UNL A   1      39.245  32.501  35.130  1.00  0.00    -0.248 NA
ATOM     53  C   UNL A   1      37.626  34.114  35.614  1.00  0.00     0.031 C 
ATOM     54  C   UNL A   1      42.705  31.572  37.755  1.00  0.00     0.029 A 
ATOM     55  C   UNL A   1      41.619  31.884  36.954  1.00  0.00     0.049 A 
ATOM     56  H   UNL A   1      41.020  31.017  35.126  1.00  0.00     0.167 HD
ATOM     57  C   UNL A   1      39.563  33.122  36.334  1.00  0.00     0.074 A 
ATOM     58  C   UNL A   1      38.547  34.127  36.568  1.00  0.00     0.031 C 
ATOM     59  C   UNL A   1      40.604  32.884  37.170  1.00  0.00     0.031 A 
BRANCH  46  60
ATOM     60  C   UNL A   1      44.356  28.353  35.278  1.00  0.00    -0.014 A 
ATOM     61  C   UNL A   1      44.271  27.150  36.003  1.00  0.00     0.010 A 
ATOM     62  C   UNL A   1      45.600  28.756  34.761  1.00  0.00     0.010 A 
ATOM     63  C   UNL A   1      45.416  26.382  36.232  1.00  0.00     0.020 A 
ATOM     64  C   UNL A   1      46.743  27.979  34.969  1.00  0.00     0.020 A 
ATOM     65  C   UNL A   1      46.646  26.803  35.717  1.00  0.00     0.054 A 
BRANCH  65  66
ATOM     66  S   UNL A   1      48.113  25.775  36.007  1.00  0.00     0.124 S 
ATOM     67  O   UNL A   1      48.829  25.909  34.742  1.00  0.00    -0.237 OA
ATOM     68  O   UNL A   1      48.739  26.426  37.155  1.00  0.00    -0.237 OA
ATOM     69  O   UNL A   1      47.560  24.449  36.274  1.00  0.00    -0.744 OA
ENDBRANCH  65  66
ENDBRANCH  46  60
BRANCH  47  70
ATOM     70  C   UNL A   1      36.144  33.621  33.138  1.00  0.00    -0.014 A 
ATOM     71  C   UNL A   1      34.871  33.113  33.451  1.00  0.00     0.010 A 
ATOM     72  C   UNL A   1      36.245  34.880  32.518  1.00  0.00     0.010 A 
ATOM     73  C   UNL A   1      33.720  33.839  33.127  1.00  0.00     0.020 A 
ATOM     74  C   UNL A   1      35.099  35.619  32.217  1.00  0.00     0.020 A 
ATOM     75  C   UNL A   1      33.842  35.087  32.510  1.00  0.00     0.054 A 
BRANCH  75  76
ATOM     76  S   UNL A   1      32.338  36.029  32.129  1.00  0.00     0.124 S 
ATOM     77  O   UNL A   1      31.288  35.087  32.503  1.00  0.00    -0.237 OA
ATOM     78  O   UNL A   1      32.473  37.203  32.987  1.00  0.00    -0.237 OA
ATOM     79  O   UNL A   1      32.459  36.297  30.697  1.00  0.00    -0.744 OA
ENDBRANCH  75  76
ENDBRANCH  47  70
BRANCH  59  80
ATOM     80  C   UNL A   1      40.726  33.751  38.394  1.00  0.00    -0.014 A 
ATOM     81  C   UNL A   1      40.058  33.428  39.588  1.00  0.00     0.010 A 
ATOM     82  C   UNL A   1      41.568  34.878  38.362  1.00  0.00     0.010 A 
ATOM     83  C   UNL A   1      40.204  34.235  40.719  1.00  0.00     0.020 A 
ATOM     84  C   UNL A   1      41.737  35.673  39.499  1.00  0.00     0.020 A 
ATOM     85  C   UNL A   1      41.041  35.355  40.667  1.00  0.00     0.054 A 
BRANCH  85  86
ATOM     86  S   UNL A   1      41.247  36.366  42.160  1.00  0.00     0.124 S 
ATOM     87  O   UNL A   1      39.914  36.311  42.750  1.00  0.00    -0.237 OA
ATOM     88  O   UNL A   1      42.289  35.650  42.892  1.00  0.00    -0.237 OA
ATOM     89  O   UNL A   1      41.646  37.672  41.640  1.00  0.00    -0.744 OA
ENDBRANCH  85  86
ENDBRANCH  59  80
ENDBRANCH  33  34
ENDBRANCH  26  28
ENDBRANCH  25  26
ENDBRANCH  24  25
ENDBRANCH  23  24
ENDBRANCH  22  23
ENDBRANCH   1  22
TORSDOF 21
ENDMDL
