MODEL 1
REMARK VINA RESULT:      -9.7      0.000      0.000
REMARK SMILES C[C@]([NH2+]C[C@H](O)C(F)(F)F)(C(=O)OCCOCCOC(=O)c1ccc(-c2c3nc(c(-c4ccc(S(=O)(=O)[O-])cc4)c4ccc([nH]4)c(-c4ccc(S(=O)(=O)[O-])cc4)c4nc(c(-c5ccc(S(=O)(=O)[O-])cc5)c5ccc2[nH]5)C=C4)C=C3)cc1)C(F)(F)F
REMARK SMILES IDX 15 1 14 2 13 3 11 4 12 5 2 6 1 7 82 8 83 9 84 10 85 11 3 12
REMARK SMILES IDX 4 15 5 16 7 17 8 18 9 19 10 20 6 21 16 23 17 24 18 25 19 26
REMARK SMILES IDX 20 27 21 28 22 29 23 30 81 31 24 32 80 33 25 34 26 35 27 36
REMARK SMILES IDX 74 37 28 38 79 39 73 40 75 41 29 42 78 43 72 44 71 45 30 47
REMARK SMILES IDX 60 48 41 49 59 50 42 51 45 52 58 53 76 54 43 55 44 56 57 58
REMARK SMILES IDX 77 59 46 60 31 61 32 62 40 63 33 64 39 65 34 66 35 67 36 68
REMARK SMILES IDX 37 69 38 70 61 71 62 72 70 73 63 74 69 75 64 76 65 77 66 78
REMARK SMILES IDX 67 79 68 80 47 81 48 82 56 83 49 84 55 85 50 86 51 87 52 88
REMARK SMILES IDX 53 89 54 90
REMARK H PARENT 3 13 3 14 6 22 75 46 45 57
REMARK Flexibility Score: inf
ROOT
ATOM      1  C   UNL A   1      37.756  22.157  25.691  1.00  0.00     0.202 C 
ENDROOT
BRANCH   1   2
ATOM      2  C   UNL A   1      36.608  23.157  25.529  1.00  0.00     0.261 C 
BRANCH   2   3
ATOM      3  O   UNL A   1      35.320  22.548  25.732  1.00  0.00    -0.458 OA
BRANCH   3   4
ATOM      4  C   UNL A   1      34.626  22.253  24.594  1.00  0.00     0.377 C 
ATOM      5  O   UNL A   1      34.986  22.607  23.476  1.00  0.00    -0.244 OA
BRANCH   4   6
ATOM      6  C   UNL A   1      33.310  21.503  24.864  1.00  0.00     0.287 C 
ATOM      7  C   UNL A   1      33.604  20.514  26.000  1.00  0.00     0.103 C 
BRANCH   6   8
ATOM      8  C   UNL A   1      32.349  22.623  25.350  1.00  0.00     0.455 C 
ATOM      9  F   UNL A   1      31.054  22.230  25.298  1.00  0.00    -0.164 F 
ATOM     10  F   UNL A   1      32.601  22.937  26.651  1.00  0.00    -0.164 F 
ATOM     11  F   UNL A   1      32.463  23.785  24.674  1.00  0.00    -0.164 F 
ENDBRANCH   6   8
BRANCH   6  12
ATOM     12  N   UNL A   1      32.853  20.719  23.643  1.00  0.00    -0.322 N 
ATOM     13  H   UNL A   1      33.624  20.691  22.975  1.00  0.00     0.347 HD
ATOM     14  H   UNL A   1      32.031  21.199  23.278  1.00  0.00     0.347 HD
BRANCH  12  15
ATOM     15  C   UNL A   1      32.442  19.336  23.932  1.00  0.00     0.303 C 
BRANCH  15  16
ATOM     16  C   UNL A   1      32.934  18.279  22.919  1.00  0.00     0.275 C 
BRANCH  16  17
ATOM     17  C   UNL A   1      33.756  17.223  23.676  1.00  0.00     0.419 C 
ATOM     18  F   UNL A   1      34.204  16.247  22.859  1.00  0.00    -0.168 F 
ATOM     19  F   UNL A   1      34.833  17.776  24.278  1.00  0.00    -0.168 F 
ATOM     20  F   UNL A   1      33.007  16.636  24.641  1.00  0.00    -0.168 F 
ENDBRANCH  16  17
BRANCH  16  21
ATOM     21  O   UNL A   1      31.816  17.705  22.215  1.00  0.00    -0.379 OA
ATOM     22  H   UNL A   1      32.135  17.028  21.599  1.00  0.00     0.211 HD
ENDBRANCH  16  21
ENDBRANCH  15  16
ENDBRANCH  12  15
ENDBRANCH   6  12
ENDBRANCH   4   6
ENDBRANCH   3   4
ENDBRANCH   2   3
ENDBRANCH   1   2
BRANCH   1  23
ATOM     23  O   UNL A   1      38.884  22.587  26.450  1.00  0.00    -0.374 OA
BRANCH  23  24
ATOM     24  C   UNL A   1      40.049  21.760  26.435  1.00  0.00     0.202 C 
BRANCH  24  25
ATOM     25  C   UNL A   1      41.414  22.454  26.518  1.00  0.00     0.261 C 
BRANCH  25  26
ATOM     26  O   UNL A   1      41.439  23.536  27.463  1.00  0.00    -0.460 OA
BRANCH  26  27
ATOM     27  C   UNL A   1      41.753  24.740  26.929  1.00  0.00     0.338 C 
ATOM     28  O   UNL A   1      42.311  24.944  25.856  1.00  0.00    -0.246 OA
BRANCH  27  29
ATOM     29  C   UNL A   1      41.173  25.836  27.725  1.00  0.00     0.060 A 
ATOM     30  C   UNL A   1      41.880  27.046  27.756  1.00  0.00     0.016 A 
ATOM     31  C   UNL A   1      40.031  25.662  28.509  1.00  0.00     0.016 A 
ATOM     32  C   UNL A   1      41.498  28.056  28.635  1.00  0.00     0.010 A 
ATOM     33  C   UNL A   1      39.652  26.677  29.398  1.00  0.00     0.010 A 
ATOM     34  C   UNL A   1      40.417  27.853  29.501  1.00  0.00    -0.014 A 
BRANCH  34  35
ATOM     35  C   UNL A   1      40.233  28.785  30.642  1.00  0.00     0.031 A 
ATOM     36  C   UNL A   1      41.139  28.648  31.838  1.00  0.00     0.074 A 
ATOM     37  C   UNL A   1      39.331  29.780  30.589  1.00  0.00     0.049 A 
ATOM     38  N   UNL A   1      41.202  29.381  32.919  1.00  0.00    -0.248 NA
ATOM     39  C   UNL A   1      42.103  27.535  31.809  1.00  0.00     0.031 C 
ATOM     40  C   UNL A   1      38.433  30.051  29.468  1.00  0.00     0.029 A 
ATOM     41  N   UNL A   1      39.035  30.760  31.504  1.00  0.00    -0.354 N 
ATOM     42  C   UNL A   1      42.204  28.816  33.701  1.00  0.00     0.074 A 
ATOM     43  C   UNL A   1      42.699  27.662  32.984  1.00  0.00     0.031 C 
ATOM     44  C   UNL A   1      37.689  31.133  29.758  1.00  0.00     0.029 A 
ATOM     45  C   UNL A   1      38.044  31.617  31.091  1.00  0.00     0.049 A 
ATOM     46  H   UNL A   1      39.490  30.840  32.373  1.00  0.00     0.167 HD
ATOM     47  C   UNL A   1      42.675  29.222  34.904  1.00  0.00     0.031 A 
ATOM     48  C   UNL A   1      37.487  32.672  31.718  1.00  0.00     0.031 A 
ATOM     49  C   UNL A   1      42.176  30.363  35.624  1.00  0.00     0.049 A 
ATOM     50  C   UNL A   1      37.987  33.074  33.080  1.00  0.00     0.074 A 
ATOM     51  C   UNL A   1      42.596  30.864  36.844  1.00  0.00     0.029 A 
ATOM     52  N   UNL A   1      41.140  31.177  35.191  1.00  0.00    -0.354 N 
ATOM     53  N   UNL A   1      38.950  32.541  33.796  1.00  0.00    -0.248 NA
ATOM     54  C   UNL A   1      37.334  34.229  33.712  1.00  0.00     0.031 C 
ATOM     55  C   UNL A   1      41.780  31.953  37.170  1.00  0.00     0.029 A 
ATOM     56  C   UNL A   1      40.890  32.164  36.129  1.00  0.00     0.049 A 
ATOM     57  H   UNL A   1      40.654  31.068  34.341  1.00  0.00     0.167 HD
ATOM     58  C   UNL A   1      39.042  33.319  34.946  1.00  0.00     0.074 A 
ATOM     59  C   UNL A   1      38.039  34.358  34.828  1.00  0.00     0.031 C 
ATOM     60  C   UNL A   1      39.889  33.191  35.999  1.00  0.00     0.031 A 
BRANCH  47  61
ATOM     61  C   UNL A   1      43.759  28.387  35.534  1.00  0.00    -0.014 A 
ATOM     62  C   UNL A   1      45.114  28.576  35.204  1.00  0.00     0.010 A 
ATOM     63  C   UNL A   1      43.413  27.391  36.465  1.00  0.00     0.010 A 
ATOM     64  C   UNL A   1      46.096  27.747  35.754  1.00  0.00     0.020 A 
ATOM     65  C   UNL A   1      44.396  26.579  37.037  1.00  0.00     0.020 A 
ATOM     66  C   UNL A   1      45.730  26.747  36.659  1.00  0.00     0.054 A 
BRANCH  66  67
ATOM     67  S   UNL A   1      47.019  25.673  37.348  1.00  0.00     0.124 S 
ATOM     68  O   UNL A   1      48.162  26.580  37.412  1.00  0.00    -0.237 OA
ATOM     69  O   UNL A   1      46.456  25.281  38.638  1.00  0.00    -0.237 OA
ATOM     70  O   UNL A   1      47.133  24.596  36.369  1.00  0.00    -0.744 OA
ENDBRANCH  66  67
ENDBRANCH  47  61
BRANCH  48  71
ATOM     71  C   UNL A   1      36.398  33.436  31.051  1.00  0.00    -0.014 A 
ATOM     72  C   UNL A   1      36.578  33.955  29.757  1.00  0.00     0.010 A 
ATOM     73  C   UNL A   1      35.167  33.631  31.702  1.00  0.00     0.010 A 
ATOM     74  C   UNL A   1      35.547  34.659  29.128  1.00  0.00     0.020 A 
ATOM     75  C   UNL A   1      34.126  34.314  31.067  1.00  0.00     0.020 A 
ATOM     76  C   UNL A   1      34.325  34.830  29.785  1.00  0.00     0.054 A 
BRANCH  76  77
ATOM     77  S   UNL A   1      32.978  35.684  28.922  1.00  0.00     0.124 S 
ATOM     78  O   UNL A   1      32.166  36.174  30.031  1.00  0.00    -0.237 OA
ATOM     79  O   UNL A   1      33.689  36.706  28.158  1.00  0.00    -0.237 OA
ATOM     80  O   UNL A   1      32.367  34.629  28.116  1.00  0.00    -0.744 OA
ENDBRANCH  76  77
ENDBRANCH  48  71
BRANCH  60  81
ATOM     81  C   UNL A   1      39.800  34.227  37.088  1.00  0.00    -0.014 A 
ATOM     82  C   UNL A   1      39.015  34.022  38.235  1.00  0.00     0.010 A 
ATOM     83  C   UNL A   1      40.556  35.409  36.977  1.00  0.00     0.010 A 
ATOM     84  C   UNL A   1      38.956  34.998  39.235  1.00  0.00     0.020 A 
ATOM     85  C   UNL A   1      40.520  36.376  37.985  1.00  0.00     0.020 A 
ATOM     86  C   UNL A   1      39.707  36.172  39.101  1.00  0.00     0.054 A 
BRANCH  86  87
ATOM     87  S   UNL A   1      39.638  37.412  40.422  1.00  0.00     0.124 S 
ATOM     88  O   UNL A   1      41.027  37.860  40.489  1.00  0.00    -0.237 OA
ATOM     89  O   UNL A   1      38.687  38.390  39.900  1.00  0.00    -0.237 OA
ATOM     90  O   UNL A   1      39.171  36.655  41.582  1.00  0.00    -0.744 OA
ENDBRANCH  86  87
ENDBRANCH  60  81
ENDBRANCH  34  35
ENDBRANCH  27  29
ENDBRANCH  26  27
ENDBRANCH  25  26
ENDBRANCH  24  25
ENDBRANCH  23  24
ENDBRANCH   1  23
TORSDOF 23
ENDMDL
MODEL 2
REMARK VINA RESULT:      -9.4      4.603      6.292
REMARK SMILES C[C@]([NH2+]C[C@H](O)C(F)(F)F)(C(=O)OCCOCCOC(=O)c1ccc(-c2c3nc(c(-c4ccc(S(=O)(=O)[O-])cc4)c4ccc([nH]4)c(-c4ccc(S(=O)(=O)[O-])cc4)c4nc(c(-c5ccc(S(=O)(=O)[O-])cc5)c5ccc2[nH]5)C=C4)C=C3)cc1)C(F)(F)F
REMARK SMILES IDX 15 1 14 2 13 3 11 4 12 5 2 6 1 7 82 8 83 9 84 10 85 11 3 12
REMARK SMILES IDX 4 15 5 16 7 17 8 18 9 19 10 20 6 21 16 23 17 24 18 25 19 26
REMARK SMILES IDX 20 27 21 28 22 29 23 30 81 31 24 32 80 33 25 34 26 35 27 36
REMARK SMILES IDX 74 37 28 38 79 39 73 40 75 41 29 42 78 43 72 44 71 45 30 47
REMARK SMILES IDX 60 48 41 49 59 50 42 51 45 52 58 53 76 54 43 55 44 56 57 58
REMARK SMILES IDX 77 59 46 60 31 61 32 62 40 63 33 64 39 65 34 66 35 67 36 68
REMARK SMILES IDX 37 69 38 70 61 71 62 72 70 73 63 74 69 75 64 76 65 77 66 78
REMARK SMILES IDX 67 79 68 80 47 81 48 82 56 83 49 84 55 85 50 86 51 87 52 88
REMARK SMILES IDX 53 89 54 90
REMARK H PARENT 3 13 3 14 6 22 75 46 45 57
REMARK Flexibility Score: inf
ROOT
ATOM      1  C   UNL A   1      33.754  23.873  22.666  1.00  0.00     0.202 C 
ENDROOT
BRANCH   1   2
ATOM      2  C   UNL A   1      32.496  24.722  22.464  1.00  0.00     0.261 C 
BRANCH   2   3
ATOM      3  O   UNL A   1      32.126  25.442  23.653  1.00  0.00    -0.458 OA
BRANCH   3   4
ATOM      4  C   UNL A   1      32.378  26.784  23.627  1.00  0.00     0.377 C 
ATOM      5  O   UNL A   1      33.307  27.281  22.999  1.00  0.00    -0.244 OA
BRANCH   4   6
ATOM      6  C   UNL A   1      31.432  27.597  24.528  1.00  0.00     0.287 C 
ATOM      7  C   UNL A   1      30.099  26.835  24.549  1.00  0.00     0.103 C 
BRANCH   6   8
ATOM      8  C   UNL A   1      32.117  27.536  25.921  1.00  0.00     0.455 C 
ATOM      9  F   UNL A   1      31.217  27.644  26.927  1.00  0.00    -0.164 F 
ATOM     10  F   UNL A   1      32.743  26.339  26.093  1.00  0.00    -0.164 F 
ATOM     11  F   UNL A   1      33.073  28.469  26.110  1.00  0.00    -0.164 F 
ENDBRANCH   6   8
BRANCH   6  12
ATOM     12  N   UNL A   1      31.187  28.990  23.967  1.00  0.00    -0.322 N 
ATOM     13  H   UNL A   1      31.834  29.141  23.193  1.00  0.00     0.347 HD
ATOM     14  H   UNL A   1      31.330  29.643  24.736  1.00  0.00     0.347 HD
BRANCH  12  15
ATOM     15  C   UNL A   1      29.818  29.210  23.474  1.00  0.00     0.303 C 
BRANCH  15  16
ATOM     16  C   UNL A   1      29.719  29.751  22.031  1.00  0.00     0.275 C 
BRANCH  16  17
ATOM     17  C   UNL A   1      28.718  30.920  22.016  1.00  0.00     0.419 C 
ATOM     18  F   UNL A   1      27.439  30.492  22.015  1.00  0.00    -0.168 F 
ATOM     19  F   UNL A   1      28.879  31.719  23.095  1.00  0.00    -0.168 F 
ATOM     20  F   UNL A   1      28.893  31.685  20.913  1.00  0.00    -0.168 F 
ENDBRANCH  16  17
BRANCH  16  21
ATOM     21  O   UNL A   1      31.021  30.136  21.553  1.00  0.00    -0.379 OA
ATOM     22  H   UNL A   1      30.923  30.780  20.833  1.00  0.00     0.211 HD
ENDBRANCH  16  21
ENDBRANCH  15  16
ENDBRANCH  12  15
ENDBRANCH   6  12
ENDBRANCH   4   6
ENDBRANCH   3   4
ENDBRANCH   2   3
ENDBRANCH   1   2
BRANCH   1  23
ATOM     23  O   UNL A   1      34.399  23.967  23.935  1.00  0.00    -0.374 OA
BRANCH  23  24
ATOM     24  C   UNL A   1      35.081  22.810  24.419  1.00  0.00     0.202 C 
BRANCH  24  25
ATOM     25  C   UNL A   1      35.749  22.903  25.797  1.00  0.00     0.261 C 
BRANCH  25  26
ATOM     26  O   UNL A   1      36.780  23.904  25.856  1.00  0.00    -0.460 OA
BRANCH  26  27
ATOM     27  C   UNL A   1      38.031  23.412  26.011  1.00  0.00     0.338 C 
ATOM     28  O   UNL A   1      38.480  22.378  25.526  1.00  0.00    -0.246 OA
BRANCH  27  29
ATOM     29  C   UNL A   1      38.893  24.379  26.714  1.00  0.00     0.060 A 
ATOM     30  C   UNL A   1      38.696  24.527  28.093  1.00  0.00     0.016 A 
ATOM     31  C   UNL A   1      39.794  25.201  26.034  1.00  0.00     0.016 A 
ATOM     32  C   UNL A   1      39.335  25.552  28.784  1.00  0.00     0.010 A 
ATOM     33  C   UNL A   1      40.432  26.237  26.730  1.00  0.00     0.010 A 
ATOM     34  C   UNL A   1      40.160  26.448  28.095  1.00  0.00    -0.014 A 
BRANCH  34  35
ATOM     35  C   UNL A   1      40.560  27.710  28.765  1.00  0.00     0.031 A 
ATOM     36  C   UNL A   1      41.976  27.846  29.261  1.00  0.00     0.074 A 
ATOM     37  C   UNL A   1      39.706  28.744  28.869  1.00  0.00     0.049 A 
ATOM     38  N   UNL A   1      42.564  28.872  29.821  1.00  0.00    -0.248 NA
ATOM     39  C   UNL A   1      42.845  26.669  29.100  1.00  0.00     0.031 C 
ATOM     40  C   UNL A   1      38.327  28.755  28.384  1.00  0.00     0.029 A 
ATOM     41  N   UNL A   1      39.886  29.993  29.408  1.00  0.00    -0.354 N 
ATOM     42  C   UNL A   1      43.866  28.462  30.087  1.00  0.00     0.074 A 
ATOM     43  C   UNL A   1      43.972  27.086  29.655  1.00  0.00     0.031 C 
ATOM     44  C   UNL A   1      37.786  29.960  28.640  1.00  0.00     0.029 A 
ATOM     45  C   UNL A   1      38.772  30.794  29.325  1.00  0.00     0.049 A 
ATOM     46  H   UNL A   1      40.732  30.287  29.816  1.00  0.00     0.167 HD
ATOM     47  C   UNL A   1      44.884  29.167  30.636  1.00  0.00     0.031 A 
ATOM     48  C   UNL A   1      38.572  32.056  29.753  1.00  0.00     0.031 A 
ATOM     49  C   UNL A   1      44.777  30.531  31.076  1.00  0.00     0.049 A 
ATOM     50  C   UNL A   1      39.701  32.803  30.411  1.00  0.00     0.074 A 
ATOM     51  C   UNL A   1      45.755  31.337  31.634  1.00  0.00     0.029 A 
ATOM     52  N   UNL A   1      43.618  31.290  31.016  1.00  0.00    -0.354 N 
ATOM     53  N   UNL A   1      40.933  32.408  30.636  1.00  0.00    -0.248 NA
ATOM     54  C   UNL A   1      39.416  34.173  30.861  1.00  0.00     0.031 C 
ATOM     55  C   UNL A   1      45.172  32.569  31.955  1.00  0.00     0.029 A 
ATOM     56  C   UNL A   1      43.848  32.549  31.546  1.00  0.00     0.049 A 
ATOM     57  H   UNL A   1      42.758  30.980  30.650  1.00  0.00     0.167 HD
ATOM     58  C   UNL A   1      41.578  33.493  31.219  1.00  0.00     0.074 A 
ATOM     59  C   UNL A   1      40.602  34.560  31.311  1.00  0.00     0.031 C 
ATOM     60  C   UNL A   1      42.867  33.600  31.631  1.00  0.00     0.031 A 
BRANCH  47  61
ATOM     61  C   UNL A   1      46.191  28.445  30.831  1.00  0.00    -0.014 A 
ATOM     62  C   UNL A   1      47.165  28.404  29.815  1.00  0.00     0.010 A 
ATOM     63  C   UNL A   1      46.445  27.788  32.049  1.00  0.00     0.010 A 
ATOM     64  C   UNL A   1      48.344  27.675  29.996  1.00  0.00     0.020 A 
ATOM     65  C   UNL A   1      47.635  27.081  32.242  1.00  0.00     0.020 A 
ATOM     66  C   UNL A   1      48.566  27.009  31.204  1.00  0.00     0.054 A 
BRANCH  66  67
ATOM     67  S   UNL A   1      50.096  26.056  31.411  1.00  0.00     0.124 S 
ATOM     68  O   UNL A   1      50.438  25.734  30.028  1.00  0.00    -0.237 OA
ATOM     69  O   UNL A   1      50.984  27.011  32.070  1.00  0.00    -0.237 OA
ATOM     70  O   UNL A   1      49.688  24.920  32.233  1.00  0.00    -0.744 OA
ENDBRANCH  66  67
ENDBRANCH  47  61
BRANCH  48  71
ATOM     71  C   UNL A   1      37.245  32.700  29.556  1.00  0.00    -0.014 A 
ATOM     72  C   UNL A   1      36.339  32.812  30.624  1.00  0.00     0.010 A 
ATOM     73  C   UNL A   1      36.891  33.223  28.299  1.00  0.00     0.010 A 
ATOM     74  C   UNL A   1      35.100  33.432  30.438  1.00  0.00     0.020 A 
ATOM     75  C   UNL A   1      35.662  33.863  28.115  1.00  0.00     0.020 A 
ATOM     76  C   UNL A   1      34.771  33.958  29.185  1.00  0.00     0.054 A 
BRANCH  76  77
ATOM     77  S   UNL A   1      33.188  34.821  28.985  1.00  0.00     0.124 S 
ATOM     78  O   UNL A   1      32.513  33.996  27.989  1.00  0.00    -0.237 OA
ATOM     79  O   UNL A   1      32.628  34.771  30.334  1.00  0.00    -0.237 OA
ATOM     80  O   UNL A   1      33.582  36.154  28.533  1.00  0.00    -0.744 OA
ENDBRANCH  76  77
ENDBRANCH  48  71
BRANCH  60  81
ATOM     81  C   UNL A   1      43.311  34.932  32.177  1.00  0.00    -0.014 A 
ATOM     82  C   UNL A   1      43.896  35.906  31.351  1.00  0.00     0.010 A 
ATOM     83  C   UNL A   1      43.094  35.226  33.536  1.00  0.00     0.010 A 
ATOM     84  C   UNL A   1      44.293  37.137  31.882  1.00  0.00     0.020 A 
ATOM     85  C   UNL A   1      43.466  36.464  34.066  1.00  0.00     0.020 A 
ATOM     86  C   UNL A   1      44.079  37.406  33.239  1.00  0.00     0.054 A 
BRANCH  86  87
ATOM     87  S   UNL A   1      44.575  39.020  33.902  1.00  0.00     0.124 S 
ATOM     88  O   UNL A   1      46.032  38.943  33.828  1.00  0.00    -0.237 OA
ATOM     89  O   UNL A   1      43.948  39.958  32.974  1.00  0.00    -0.237 OA
ATOM     90  O   UNL A   1      44.018  39.024  35.253  1.00  0.00    -0.744 OA
ENDBRANCH  86  87
ENDBRANCH  60  81
ENDBRANCH  34  35
ENDBRANCH  27  29
ENDBRANCH  26  27
ENDBRANCH  25  26
ENDBRANCH  24  25
ENDBRANCH  23  24
ENDBRANCH   1  23
TORSDOF 23
ENDMDL
MODEL 3
REMARK VINA RESULT:      -9.2      5.842      8.057
REMARK SMILES C[C@]([NH2+]C[C@H](O)C(F)(F)F)(C(=O)OCCOCCOC(=O)c1ccc(-c2c3nc(c(-c4ccc(S(=O)(=O)[O-])cc4)c4ccc([nH]4)c(-c4ccc(S(=O)(=O)[O-])cc4)c4nc(c(-c5ccc(S(=O)(=O)[O-])cc5)c5ccc2[nH]5)C=C4)C=C3)cc1)C(F)(F)F
REMARK SMILES IDX 15 1 14 2 13 3 11 4 12 5 2 6 1 7 82 8 83 9 84 10 85 11 3 12
REMARK SMILES IDX 4 15 5 16 7 17 8 18 9 19 10 20 6 21 16 23 17 24 18 25 19 26
REMARK SMILES IDX 20 27 21 28 22 29 23 30 81 31 24 32 80 33 25 34 26 35 27 36
REMARK SMILES IDX 74 37 28 38 79 39 73 40 75 41 29 42 78 43 72 44 71 45 30 47
REMARK SMILES IDX 60 48 41 49 59 50 42 51 45 52 58 53 76 54 43 55 44 56 57 58
REMARK SMILES IDX 77 59 46 60 31 61 32 62 40 63 33 64 39 65 34 66 35 67 36 68
REMARK SMILES IDX 37 69 38 70 61 71 62 72 70 73 63 74 69 75 64 76 65 77 66 78
REMARK SMILES IDX 67 79 68 80 47 81 48 82 56 83 49 84 55 85 50 86 51 87 52 88
REMARK SMILES IDX 53 89 54 90
REMARK H PARENT 3 13 3 14 6 22 75 46 45 57
REMARK Flexibility Score: inf
ROOT
ATOM      1  C   UNL A   1      45.024  21.881  25.118  1.00  0.00     0.202 C 
ENDROOT
BRANCH   1   2
ATOM      2  C   UNL A   1      45.370  23.314  24.705  1.00  0.00     0.261 C 
BRANCH   2   3
ATOM      3  O   UNL A   1      46.230  23.964  25.658  1.00  0.00    -0.458 OA
BRANCH   3   4
ATOM      4  C   UNL A   1      46.679  25.201  25.292  1.00  0.00     0.377 C 
ATOM      5  O   UNL A   1      46.936  25.507  24.133  1.00  0.00    -0.244 OA
BRANCH   4   6
ATOM      6  C   UNL A   1      46.907  26.141  26.489  1.00  0.00     0.287 C 
ATOM      7  C   UNL A   1      45.870  25.746  27.550  1.00  0.00     0.103 C 
BRANCH   6   8
ATOM      8  C   UNL A   1      48.341  25.780  26.966  1.00  0.00     0.455 C 
ATOM      9  F   UNL A   1      48.957  26.836  27.548  1.00  0.00    -0.164 F 
ATOM     10  F   UNL A   1      48.297  24.795  27.906  1.00  0.00    -0.164 F 
ATOM     11  F   UNL A   1      49.147  25.308  25.992  1.00  0.00    -0.164 F 
ENDBRANCH   6   8
BRANCH   6  12
ATOM     12  N   UNL A   1      46.680  27.596  26.107  1.00  0.00    -0.322 N 
ATOM     13  H   UNL A   1      46.099  27.620  25.269  1.00  0.00     0.347 HD
ATOM     14  H   UNL A   1      47.602  28.007  25.961  1.00  0.00     0.347 HD
BRANCH  12  15
ATOM     15  C   UNL A   1      46.020  28.399  27.149  1.00  0.00     0.303 C 
BRANCH  15  16
ATOM     16  C   UNL A   1      44.544  28.755  26.868  1.00  0.00     0.275 C 
BRANCH  16  17
ATOM     17  C   UNL A   1      44.375  30.277  27.008  1.00  0.00     0.419 C 
ATOM     18  F   UNL A   1      43.317  30.737  26.308  1.00  0.00    -0.168 F 
ATOM     19  F   UNL A   1      44.194  30.635  28.300  1.00  0.00    -0.168 F 
ATOM     20  F   UNL A   1      45.475  30.925  26.556  1.00  0.00    -0.168 F 
ENDBRANCH  16  17
BRANCH  16  21
ATOM     21  O   UNL A   1      44.155  28.276  25.566  1.00  0.00    -0.379 OA
ATOM     22  H   UNL A   1      44.836  27.673  25.227  1.00  0.00     0.211 HD
ENDBRANCH  16  21
ENDBRANCH  15  16
ENDBRANCH  12  15
ENDBRANCH   6  12
ENDBRANCH   4   6
ENDBRANCH   3   4
ENDBRANCH   2   3
ENDBRANCH   1   2
BRANCH   1  23
ATOM     23  O   UNL A   1      43.681  21.453  24.901  1.00  0.00    -0.374 OA
BRANCH  23  24
ATOM     24  C   UNL A   1      43.041  20.720  25.946  1.00  0.00     0.202 C 
BRANCH  24  25
ATOM     25  C   UNL A   1      41.594  21.092  26.293  1.00  0.00     0.261 C 
BRANCH  25  26
ATOM     26  O   UNL A   1      41.297  22.478  26.056  1.00  0.00    -0.460 OA
BRANCH  26  27
ATOM     27  C   UNL A   1      39.993  22.806  26.205  1.00  0.00     0.338 C 
ATOM     28  O   UNL A   1      39.025  22.079  26.002  1.00  0.00    -0.246 OA
BRANCH  27  29
ATOM     29  C   UNL A   1      39.851  24.132  26.831  1.00  0.00     0.060 A 
ATOM     30  C   UNL A   1      40.506  25.204  26.212  1.00  0.00     0.016 A 
ATOM     31  C   UNL A   1      39.192  24.311  28.049  1.00  0.00     0.016 A 
ATOM     32  C   UNL A   1      40.578  26.441  26.847  1.00  0.00     0.010 A 
ATOM     33  C   UNL A   1      39.271  25.555  28.691  1.00  0.00     0.010 A 
ATOM     34  C   UNL A   1      40.010  26.605  28.116  1.00  0.00    -0.014 A 
BRANCH  34  35
ATOM     35  C   UNL A   1      40.377  27.804  28.912  1.00  0.00     0.031 A 
ATOM     36  C   UNL A   1      41.750  27.868  29.528  1.00  0.00     0.074 A 
ATOM     37  C   UNL A   1      39.537  28.847  29.026  1.00  0.00     0.049 A 
ATOM     38  N   UNL A   1      42.310  28.834  30.209  1.00  0.00    -0.248 NA
ATOM     39  C   UNL A   1      42.608  26.684  29.347  1.00  0.00     0.031 C 
ATOM     40  C   UNL A   1      38.202  28.929  28.434  1.00  0.00     0.029 A 
ATOM     41  N   UNL A   1      39.695  30.048  29.671  1.00  0.00    -0.354 N 
ATOM     42  C   UNL A   1      43.578  28.373  30.546  1.00  0.00     0.074 A 
ATOM     43  C   UNL A   1      43.694  27.031  30.019  1.00  0.00     0.031 C 
ATOM     44  C   UNL A   1      37.665  30.124  28.738  1.00  0.00     0.029 A 
ATOM     45  C   UNL A   1      38.607  30.880  29.562  1.00  0.00     0.049 A 
ATOM     46  H   UNL A   1      40.511  30.290  30.166  1.00  0.00     0.167 HD
ATOM     47  C   UNL A   1      44.562  29.009  31.226  1.00  0.00     0.031 A 
ATOM     48  C   UNL A   1      38.396  32.111  30.068  1.00  0.00     0.031 A 
ATOM     49  C   UNL A   1      44.444  30.339  31.760  1.00  0.00     0.049 A 
ATOM     50  C   UNL A   1      39.482  32.779  30.869  1.00  0.00     0.074 A 
ATOM     51  C   UNL A   1      45.388  31.077  32.454  1.00  0.00     0.029 A 
ATOM     52  N   UNL A   1      43.308  31.129  31.666  1.00  0.00    -0.354 N 
ATOM     53  N   UNL A   1      40.684  32.338  31.160  1.00  0.00    -0.248 NA
ATOM     54  C   UNL A   1      39.186  34.118  31.398  1.00  0.00     0.031 C 
ATOM     55  C   UNL A   1      44.804  32.295  32.820  1.00  0.00     0.029 A 
ATOM     56  C   UNL A   1      43.518  32.338  32.308  1.00  0.00     0.049 A 
ATOM     57  H   UNL A   1      42.475  30.868  31.210  1.00  0.00     0.167 HD
ATOM     58  C   UNL A   1      41.300  33.360  31.874  1.00  0.00     0.074 A 
ATOM     59  C   UNL A   1      40.339  34.441  31.969  1.00  0.00     0.031 C 
ATOM     60  C   UNL A   1      42.553  33.404  32.395  1.00  0.00     0.031 A 
BRANCH  47  61
ATOM     61  C   UNL A   1      45.835  28.242  31.469  1.00  0.00    -0.014 A 
ATOM     62  C   UNL A   1      46.791  28.068  30.450  1.00  0.00     0.010 A 
ATOM     63  C   UNL A   1      46.074  27.680  32.736  1.00  0.00     0.010 A 
ATOM     64  C   UNL A   1      47.935  27.300  30.681  1.00  0.00     0.020 A 
ATOM     65  C   UNL A   1      47.231  26.933  32.977  1.00  0.00     0.020 A 
ATOM     66  C   UNL A   1      48.143  26.728  31.939  1.00  0.00     0.054 A 
BRANCH  66  67
ATOM     67  S   UNL A   1      49.628  25.722  32.211  1.00  0.00     0.124 S 
ATOM     68  O   UNL A   1      49.997  25.358  30.846  1.00  0.00    -0.237 OA
ATOM     69  O   UNL A   1      50.532  26.656  32.878  1.00  0.00    -0.237 OA
ATOM     70  O   UNL A   1      49.151  24.620  33.043  1.00  0.00    -0.744 OA
ENDBRANCH  66  67
ENDBRANCH  47  61
BRANCH  48  71
ATOM     71  C   UNL A   1      37.102  32.801  29.815  1.00  0.00    -0.014 A 
ATOM     72  C   UNL A   1      36.093  32.808  30.794  1.00  0.00     0.010 A 
ATOM     73  C   UNL A   1      36.882  33.471  28.598  1.00  0.00     0.010 A 
ATOM     74  C   UNL A   1      34.885  33.470  30.559  1.00  0.00     0.020 A 
ATOM     75  C   UNL A   1      35.684  34.154  28.368  1.00  0.00     0.020 A 
ATOM     76  C   UNL A   1      34.689  34.143  29.349  1.00  0.00     0.054 A 
BRANCH  76  77
ATOM     77  S   UNL A   1      33.142  35.056  29.093  1.00  0.00     0.124 S 
ATOM     78  O   UNL A   1      33.626  36.361  28.656  1.00  0.00    -0.237 OA
ATOM     79  O   UNL A   1      32.468  34.256  28.074  1.00  0.00    -0.237 OA
ATOM     80  O   UNL A   1      32.511  35.030  30.411  1.00  0.00    -0.744 OA
ENDBRANCH  76  77
ENDBRANCH  48  71
BRANCH  60  81
ATOM     81  C   UNL A   1      42.975  34.680  33.074  1.00  0.00    -0.014 A 
ATOM     82  C   UNL A   1      42.747  34.894  34.444  1.00  0.00     0.010 A 
ATOM     83  C   UNL A   1      43.656  35.663  32.331  1.00  0.00     0.010 A 
ATOM     84  C   UNL A   1      43.156  36.085  35.051  1.00  0.00     0.020 A 
ATOM     85  C   UNL A   1      44.090  36.843  32.939  1.00  0.00     0.020 A 
ATOM     86  C   UNL A   1      43.821  37.055  34.292  1.00  0.00     0.054 A 
BRANCH  86  87
ATOM     87  S   UNL A   1      44.369  38.581  35.106  1.00  0.00     0.124 S 
ATOM     88  O   UNL A   1      45.794  38.600  34.785  1.00  0.00    -0.237 OA
ATOM     89  O   UNL A   1      43.563  39.606  34.448  1.00  0.00    -0.237 OA
ATOM     90  O   UNL A   1      44.050  38.354  36.514  1.00  0.00    -0.744 OA
ENDBRANCH  86  87
ENDBRANCH  60  81
ENDBRANCH  34  35
ENDBRANCH  27  29
ENDBRANCH  26  27
ENDBRANCH  25  26
ENDBRANCH  24  25
ENDBRANCH  23  24
ENDBRANCH   1  23
TORSDOF 23
ENDMDL
