MODEL 1
REMARK VINA RESULT:     -11.4      0.000      0.000
REMARK SMILES Cc1ccc(C2=NN(C(=O)CCC(=O)OCCOCCOC(=O)c3ccc(-c4c5nc(c(-c6ccc(S(=O)(=O)[O-])cc6)c6ccc([nH]6)c(-c6ccc(S(=O)(=O)[O-])cc6)c6nc(c(-c7ccc(S(=O)(=O)[O-])cc7)c7ccc4[nH]7)C=C6)C=C5)cc3)[C@H](C[C@H]3C=c4cccc(C)c4=NC3=O)C2)cc1
REMARK SMILES IDX 17 1 16 2 15 3 13 4 14 5 12 6 11 7 9 8 10 9 8 10 6 11 7 12
REMARK SMILES IDX 98 13 84 14 5 15 1 16 2 17 3 18 100 19 4 20 99 21 85 22
REMARK SMILES IDX 86 23 87 24 96 25 88 26 95 27 97 28 89 29 94 30 90 31 92 32
REMARK SMILES IDX 91 33 93 34 18 35 19 36 20 37 21 38 22 39 23 40 24 41 25 42
REMARK SMILES IDX 83 43 26 44 82 45 27 46 28 47 29 48 76 49 30 50 81 51 75 52
REMARK SMILES IDX 77 53 31 54 80 55 74 56 73 57 32 59 62 60 43 61 61 62 44 63
REMARK SMILES IDX 47 64 60 65 78 66 45 67 46 68 59 70 79 71 48 72 33 73 34 74
REMARK SMILES IDX 42 75 35 76 41 77 36 78 37 79 38 80 39 81 40 82 63 83 64 84
REMARK SMILES IDX 72 85 65 86 71 87 66 88 67 89 68 90 69 91 70 92 49 93 50 94
REMARK SMILES IDX 58 95 51 96 57 97 52 98 53 99 54 100 55 101 56 102
REMARK H PARENT 77 58 47 69
REMARK Flexibility Score: inf
ROOT
ATOM      1  C   UNL A   1      35.851  34.450  33.446  1.00  0.00     0.202 C 
ENDROOT
BRANCH   1   2
ATOM      2  C   UNL A   1      37.100  34.576  32.684  1.00  0.00     0.261 C 
BRANCH   2   3
ATOM      3  O   UNL A   1      38.264  34.294  33.410  1.00  0.00    -0.463 OA
BRANCH   3   4
ATOM      4  C   UNL A   1      39.055  33.432  32.763  1.00  0.00     0.306 C 
ATOM      5  O   UNL A   1      38.831  32.243  32.586  1.00  0.00    -0.252 OA
BRANCH   4   6
ATOM      6  C   UNL A   1      40.269  34.145  32.275  1.00  0.00     0.132 C 
BRANCH   6   7
ATOM      7  C   UNL A   1      40.546  34.152  30.766  1.00  0.00     0.114 C 
BRANCH   7   8
ATOM      8  C   UNL A   1      41.908  33.831  30.011  1.00  0.00     0.243 C 
ATOM      9  O   UNL A   1      42.199  32.620  30.112  1.00  0.00    -0.273 OA
BRANCH   8  10
ATOM     10  N   UNL A   1      42.776  34.730  29.210  1.00  0.00    -0.230 N 
ATOM     11  C   UNL A   1      43.848  37.508  29.371  1.00  0.00     0.070 C 
ATOM     12  N   UNL A   1      43.162  36.329  30.296  1.00  0.00    -0.174 NA
ATOM     13  C   UNL A   1      44.245  36.768  27.564  1.00  0.00     0.086 C 
ATOM     14  C   UNL A   1      43.469  34.921  27.328  1.00  0.00     0.118 C 
BRANCH  11  15
ATOM     15  C   UNL A   1      44.161  38.952  29.549  1.00  0.00    -0.002 A 
ATOM     16  C   UNL A   1      44.281  43.235  29.980  1.00  0.00     0.044 C 
ATOM     17  C   UNL A   1      44.308  41.746  29.855  1.00  0.00    -0.051 A 
ATOM     18  C   UNL A   1      44.759  41.111  28.683  1.00  0.00     0.004 A 
ATOM     19  C   UNL A   1      43.776  40.976  30.876  1.00  0.00     0.004 A 
ATOM     20  C   UNL A   1      44.720  39.715  28.543  1.00  0.00     0.010 A 
ATOM     21  C   UNL A   1      43.665  39.607  30.695  1.00  0.00     0.010 A 
ENDBRANCH  11  15
BRANCH  14  22
ATOM     22  C   UNL A   1      44.187  33.288  26.134  1.00  0.00     0.045 C 
BRANCH  22  23
ATOM     23  C   UNL A   1      45.404  31.883  26.935  1.00  0.00     0.106 C 
ATOM     24  C   UNL A   1      44.852  30.341  27.256  1.00  0.00    -0.003 C 
ATOM     25  C   UNL A   1      46.888  31.528  26.432  1.00  0.00     0.253 C 
ATOM     26  C   UNL A   1      45.143  29.281  26.484  1.00  0.00    -0.003 A 
ATOM     27  N   UNL A   1      47.392  30.191  26.464  1.00  0.00    -0.212 NA
ATOM     28  O   UNL A   1      47.623  32.444  26.059  1.00  0.00    -0.272 OA
ATOM     29  C   UNL A   1      44.279  28.189  26.044  1.00  0.00     0.010 A 
ATOM     30  C   UNL A   1      46.594  29.163  26.459  1.00  0.00     0.077 A 
ATOM     31  C   UNL A   1      44.775  26.969  25.806  1.00  0.00     0.001 A 
ATOM     32  C   UNL A   1      46.969  27.680  26.621  1.00  0.00    -0.025 A 
ATOM     33  C   UNL A   1      46.105  26.693  26.277  1.00  0.00     0.005 A 
ATOM     34  C   UNL A   1      48.119  27.370  27.510  1.00  0.00     0.047 C 
ENDBRANCH  22  23
ENDBRANCH  14  22
ENDBRANCH   8  10
ENDBRANCH   7   8
ENDBRANCH   6   7
ENDBRANCH   4   6
ENDBRANCH   3   4
ENDBRANCH   2   3
ENDBRANCH   1   2
BRANCH   1  35
ATOM     35  O   UNL A   1      34.721  35.083  32.918  1.00  0.00    -0.374 OA
BRANCH  35  36
ATOM     36  C   UNL A   1      34.142  34.782  31.612  1.00  0.00     0.202 C 
BRANCH  36  37
ATOM     37  C   UNL A   1      34.794  33.746  30.256  1.00  0.00     0.261 C 
BRANCH  37  38
ATOM     38  O   UNL A   1      35.111  31.831  30.121  1.00  0.00    -0.460 OA
BRANCH  38  39
ATOM     39  C   UNL A   1      36.420  30.718  30.524  1.00  0.00     0.338 C 
ATOM     40  O   UNL A   1      36.314  30.094  31.586  1.00  0.00    -0.246 OA
BRANCH  39  41
ATOM     41  C   UNL A   1      37.651  30.082  29.335  1.00  0.00     0.060 A 
ATOM     42  C   UNL A   1      37.640  28.860  28.645  1.00  0.00     0.016 A 
ATOM     43  C   UNL A   1      38.884  30.675  29.052  1.00  0.00     0.016 A 
ATOM     44  C   UNL A   1      38.847  28.024  28.544  1.00  0.00     0.010 A 
ATOM     45  C   UNL A   1      40.079  29.892  28.914  1.00  0.00     0.010 A 
ATOM     46  C   UNL A   1      40.084  28.496  28.965  1.00  0.00    -0.014 A 
BRANCH  46  47
ATOM     47  C   UNL A   1      41.354  27.742  29.452  1.00  0.00     0.031 A 
ATOM     48  C   UNL A   1      41.543  26.314  29.038  1.00  0.00     0.074 A 
ATOM     49  C   UNL A   1      42.535  28.311  29.925  1.00  0.00     0.049 A 
ATOM     50  N   UNL A   1      42.549  25.588  29.390  1.00  0.00    -0.248 NA
ATOM     51  C   UNL A   1      40.626  25.572  28.181  1.00  0.00     0.031 C 
ATOM     52  C   UNL A   1      43.960  27.851  29.783  1.00  0.00     0.029 A 
ATOM     53  N   UNL A   1      42.813  29.589  30.369  1.00  0.00    -0.354 N 
ATOM     54  C   UNL A   1      42.624  24.511  28.542  1.00  0.00     0.074 A 
ATOM     55  C   UNL A   1      41.328  24.461  27.921  1.00  0.00     0.031 C 
ATOM     56  C   UNL A   1      44.837  28.722  30.330  1.00  0.00     0.029 A 
ATOM     57  C   UNL A   1      44.054  29.698  31.027  1.00  0.00     0.049 A 
ATOM     58  H   UNL A   1      42.202  30.351  30.236  1.00  0.00     0.167 HD
ATOM     59  C   UNL A   1      43.817  23.867  28.380  1.00  0.00     0.031 A 
ATOM     60  C   UNL A   1      44.045  29.969  32.371  1.00  0.00     0.031 A 
ATOM     61  C   UNL A   1      44.851  24.405  29.285  1.00  0.00     0.049 A 
ATOM     62  C   UNL A   1      44.315  28.729  33.143  1.00  0.00     0.074 A 
ATOM     63  C   UNL A   1      46.037  25.100  29.120  1.00  0.00     0.029 A 
ATOM     64  N   UNL A   1      44.548  24.509  30.640  1.00  0.00    -0.354 N 
ATOM     65  N   UNL A   1      44.518  27.626  32.492  1.00  0.00    -0.248 NA
ATOM     66  C   UNL A   1      44.347  28.530  34.582  1.00  0.00     0.031 C 
ATOM     67  C   UNL A   1      46.397  25.668  30.393  1.00  0.00     0.029 A 
ATOM     68  C   UNL A   1      45.459  25.280  31.339  1.00  0.00     0.049 A 
ATOM     69  H   UNL A   1      43.766  24.079  31.056  1.00  0.00     0.167 HD
ATOM     70  C   UNL A   1      44.810  26.619  33.311  1.00  0.00     0.074 A 
ATOM     71  C   UNL A   1      44.554  27.196  34.631  1.00  0.00     0.031 C 
ATOM     72  C   UNL A   1      45.266  25.446  32.788  1.00  0.00     0.031 A 
BRANCH  59  73
ATOM     73  C   UNL A   1      44.101  22.811  27.322  1.00  0.00    -0.014 A 
ATOM     74  C   UNL A   1      45.408  22.675  26.810  1.00  0.00     0.010 A 
ATOM     75  C   UNL A   1      43.137  21.944  26.761  1.00  0.00     0.010 A 
ATOM     76  C   UNL A   1      45.737  21.721  25.829  1.00  0.00     0.020 A 
ATOM     77  C   UNL A   1      43.455  20.966  25.801  1.00  0.00     0.020 A 
ATOM     78  C   UNL A   1      44.760  20.858  25.340  1.00  0.00     0.054 A 
BRANCH  78  79
ATOM     79  S   UNL A   1      45.213  19.601  24.114  1.00  0.00     0.124 S 
ATOM     80  O   UNL A   1      44.459  20.024  22.936  1.00  0.00    -0.237 OA
ATOM     81  O   UNL A   1      46.662  19.756  24.024  1.00  0.00    -0.237 OA
ATOM     82  O   UNL A   1      44.764  18.347  24.717  1.00  0.00    -0.744 OA
ENDBRANCH  78  79
ENDBRANCH  59  73
BRANCH  60  83
ATOM     83  C   UNL A   1      43.103  31.095  32.682  1.00  0.00    -0.014 A 
ATOM     84  C   UNL A   1      41.951  30.576  33.221  1.00  0.00     0.010 A 
ATOM     85  C   UNL A   1      43.682  32.163  33.380  1.00  0.00     0.010 A 
ATOM     86  C   UNL A   1      41.742  30.755  34.602  1.00  0.00     0.020 A 
ATOM     87  C   UNL A   1      43.472  32.322  34.830  1.00  0.00     0.020 A 
ATOM     88  C   UNL A   1      42.456  31.727  35.724  1.00  0.00     0.054 A 
BRANCH  88  89
ATOM     89  S   UNL A   1      41.058  32.596  37.710  1.00  0.00     0.124 S 
ATOM     90  O   UNL A   1      39.623  32.118  37.660  1.00  0.00    -0.237 OA
ATOM     91  O   UNL A   1      41.571  32.133  39.030  1.00  0.00    -0.237 OA
ATOM     92  O   UNL A   1      40.805  34.048  37.726  1.00  0.00    -0.744 OA
ENDBRANCH  88  89
ENDBRANCH  60  83
BRANCH  72  93
ATOM     93  C   UNL A   1      45.501  24.296  33.682  1.00  0.00    -0.014 A 
ATOM     94  C   UNL A   1      44.533  23.309  33.873  1.00  0.00     0.010 A 
ATOM     95  C   UNL A   1      46.742  24.167  34.330  1.00  0.00     0.010 A 
ATOM     96  C   UNL A   1      44.876  22.118  34.486  1.00  0.00     0.020 A 
ATOM     97  C   UNL A   1      47.072  23.010  35.008  1.00  0.00     0.020 A 
ATOM     98  C   UNL A   1      46.151  21.972  35.031  1.00  0.00     0.054 A 
BRANCH  98  99
ATOM     99  S   UNL A   1      46.559  20.419  35.826  1.00  0.00     0.124 S 
ATOM    100  O   UNL A   1      45.447  20.251  36.757  1.00  0.00    -0.237 OA
ATOM    101  O   UNL A   1      46.577  19.501  34.689  1.00  0.00    -0.237 OA
ATOM    102  O   UNL A   1      47.856  20.680  36.444  1.00  0.00    -0.744 OA
ENDBRANCH  98  99
ENDBRANCH  72  93
ENDBRANCH  46  47
ENDBRANCH  39  41
ENDBRANCH  38  39
ENDBRANCH  37  38
ENDBRANCH  36  37
ENDBRANCH  35  36
ENDBRANCH   1  35
TORSDOF 23
ENDMDL
MODEL 2
REMARK VINA RESULT:     -11.4      4.675     13.363
REMARK SMILES Cc1ccc(C2=NN(C(=O)CCC(=O)OCCOCCOC(=O)c3ccc(-c4c5nc(c(-c6ccc(S(=O)(=O)[O-])cc6)c6ccc([nH]6)c(-c6ccc(S(=O)(=O)[O-])cc6)c6nc(c(-c7ccc(S(=O)(=O)[O-])cc7)c7ccc4[nH]7)C=C6)C=C5)cc3)[C@H](C[C@H]3C=c4cccc(C)c4=NC3=O)C2)cc1
REMARK SMILES IDX 17 1 16 2 15 3 13 4 14 5 12 6 11 7 9 8 10 9 8 10 6 11 7 12
REMARK SMILES IDX 98 13 84 14 5 15 1 16 2 17 3 18 100 19 4 20 99 21 85 22
REMARK SMILES IDX 86 23 87 24 96 25 88 26 95 27 97 28 89 29 94 30 90 31 92 32
REMARK SMILES IDX 91 33 93 34 18 35 19 36 20 37 21 38 22 39 23 40 24 41 25 42
REMARK SMILES IDX 83 43 26 44 82 45 27 46 28 47 29 48 76 49 30 50 81 51 75 52
REMARK SMILES IDX 77 53 31 54 80 55 74 56 73 57 32 59 62 60 43 61 61 62 44 63
REMARK SMILES IDX 47 64 60 65 78 66 45 67 46 68 59 70 79 71 48 72 33 73 34 74
REMARK SMILES IDX 42 75 35 76 41 77 36 78 37 79 38 80 39 81 40 82 63 83 64 84
REMARK SMILES IDX 72 85 65 86 71 87 66 88 67 89 68 90 69 91 70 92 49 93 50 94
REMARK SMILES IDX 58 95 51 96 57 97 52 98 53 99 54 100 55 101 56 102
REMARK H PARENT 77 58 47 69
REMARK Flexibility Score: inf
ROOT
ATOM      1  C   UNL A   1      47.811  27.174  36.783  1.00  0.00     0.202 C 
ENDROOT
BRANCH   1   2
ATOM      2  C   UNL A   1      46.476  27.048  37.382  1.00  0.00     0.261 C 
BRANCH   2   3
ATOM      3  O   UNL A   1      46.305  25.931  38.209  1.00  0.00    -0.463 OA
BRANCH   3   4
ATOM      4  C   UNL A   1      45.016  25.596  38.330  1.00  0.00     0.306 C 
ATOM      5  O   UNL A   1      44.067  26.367  38.300  1.00  0.00    -0.252 OA
BRANCH   4   6
ATOM      6  C   UNL A   1      44.902  24.121  38.503  1.00  0.00     0.132 C 
BRANCH   6   7
ATOM      7  C   UNL A   1      46.162  23.270  38.299  1.00  0.00     0.114 C 
BRANCH   7   8
ATOM      8  C   UNL A   1      46.661  22.024  39.153  1.00  0.00     0.243 C 
ATOM      9  O   UNL A   1      47.509  22.376  40.001  1.00  0.00    -0.273 OA
BRANCH   8  10
ATOM     10  N   UNL A   1      46.221  20.608  39.099  1.00  0.00    -0.230 N 
ATOM     11  C   UNL A   1      45.567  18.409  41.003  1.00  0.00     0.070 C 
ATOM     12  N   UNL A   1      45.758  20.044  40.929  1.00  0.00    -0.174 NA
ATOM     13  C   UNL A   1      45.640  17.662  39.158  1.00  0.00     0.086 C 
ATOM     14  C   UNL A   1      46.174  19.062  37.806  1.00  0.00     0.118 C 
BRANCH  11  15
ATOM     15  C   UNL A   1      45.428  17.403  42.091  1.00  0.00    -0.002 A 
ATOM     16  C   UNL A   1      45.124  13.958  44.657  1.00  0.00     0.044 C 
ATOM     17  C   UNL A   1      45.236  15.195  43.825  1.00  0.00    -0.051 A 
ATOM     18  C   UNL A   1      44.107  15.961  43.485  1.00  0.00     0.004 A 
ATOM     19  C   UNL A   1      46.468  15.535  43.290  1.00  0.00     0.004 A 
ATOM     20  C   UNL A   1      44.206  17.084  42.649  1.00  0.00     0.010 A 
ATOM     21  C   UNL A   1      46.541  16.594  42.400  1.00  0.00     0.010 A 
ENDBRANCH  11  15
BRANCH  14  22
ATOM     22  C   UNL A   1      45.628  19.233  35.738  1.00  0.00     0.045 C 
BRANCH  22  23
ATOM     23  C   UNL A   1      45.950  20.956  34.726  1.00  0.00     0.106 C 
ATOM     24  C   UNL A   1      44.681  21.928  34.245  1.00  0.00    -0.003 C 
ATOM     25  C   UNL A   1      47.012  22.095  35.123  1.00  0.00     0.253 C 
ATOM     26  C   UNL A   1      44.350  23.069  34.871  1.00  0.00    -0.003 A 
ATOM     27  N   UNL A   1      46.740  23.481  34.910  1.00  0.00    -0.212 NA
ATOM     28  O   UNL A   1      48.107  21.754  35.573  1.00  0.00    -0.272 OA
ATOM     29  C   UNL A   1      43.029  23.591  35.211  1.00  0.00     0.010 A 
ATOM     30  C   UNL A   1      45.522  23.931  34.823  1.00  0.00     0.077 A 
ATOM     31  C   UNL A   1      42.805  24.908  35.282  1.00  0.00     0.001 A 
ATOM     32  C   UNL A   1      45.068  25.357  34.470  1.00  0.00    -0.025 A 
ATOM     33  C   UNL A   1      43.806  25.780  34.728  1.00  0.00     0.005 A 
ATOM     34  C   UNL A   1      45.911  26.111  33.505  1.00  0.00     0.047 C 
ENDBRANCH  22  23
ENDBRANCH  14  22
ENDBRANCH   8  10
ENDBRANCH   7   8
ENDBRANCH   6   7
ENDBRANCH   4   6
ENDBRANCH   3   4
ENDBRANCH   2   3
ENDBRANCH   1   2
BRANCH   1  35
ATOM     35  O   UNL A   1      48.834  27.648  37.612  1.00  0.00    -0.374 OA
BRANCH  35  36
ATOM     36  C   UNL A   1      49.118  29.061  37.845  1.00  0.00     0.202 C 
BRANCH  36  37
ATOM     37  C   UNL A   1      50.454  30.111  37.176  1.00  0.00     0.261 C 
BRANCH  37  38
ATOM     38  O   UNL A   1      50.461  31.488  35.802  1.00  0.00    -0.460 OA
BRANCH  38  39
ATOM     39  C   UNL A   1      49.369  32.030  34.525  1.00  0.00     0.338 C 
ATOM     40  O   UNL A   1      49.890  32.469  33.495  1.00  0.00    -0.246 OA
BRANCH  39  41
ATOM     41  C   UNL A   1      47.601  31.586  34.409  1.00  0.00     0.060 A 
ATOM     42  C   UNL A   1      46.967  30.419  34.862  1.00  0.00     0.016 A 
ATOM     43  C   UNL A   1      46.632  32.303  33.701  1.00  0.00     0.016 A 
ATOM     44  C   UNL A   1      45.994  29.700  34.025  1.00  0.00     0.010 A 
ATOM     45  C   UNL A   1      45.646  31.638  32.899  1.00  0.00     0.010 A 
ATOM     46  C   UNL A   1      45.526  30.247  32.837  1.00  0.00    -0.014 A 
BRANCH  46  47
ATOM     47  C   UNL A   1      44.951  29.574  31.557  1.00  0.00     0.031 A 
ATOM     48  C   UNL A   1      43.463  29.472  31.408  1.00  0.00     0.074 A 
ATOM     49  C   UNL A   1      45.614  29.372  30.348  1.00  0.00     0.049 A 
ATOM     50  N   UNL A   1      42.875  28.926  30.399  1.00  0.00    -0.248 NA
ATOM     51  C   UNL A   1      42.498  29.984  32.374  1.00  0.00     0.031 C 
ATOM     52  C   UNL A   1      45.091  29.396  28.938  1.00  0.00     0.029 A 
ATOM     53  N   UNL A   1      46.957  29.411  30.032  1.00  0.00    -0.354 N 
ATOM     54  C   UNL A   1      41.569  29.349  30.378  1.00  0.00     0.074 A 
ATOM     55  C   UNL A   1      41.345  29.866  31.701  1.00  0.00     0.031 C 
ATOM     56  C   UNL A   1      46.071  29.219  28.024  1.00  0.00     0.029 A 
ATOM     57  C   UNL A   1      47.251  28.877  28.761  1.00  0.00     0.049 A 
ATOM     58  H   UNL A   1      47.644  29.778  30.636  1.00  0.00     0.167 HD
ATOM     59  C   UNL A   1      40.873  29.320  29.203  1.00  0.00     0.031 A 
ATOM     60  C   UNL A   1      47.972  27.712  28.706  1.00  0.00     0.031 A 
ATOM     61  C   UNL A   1      41.661  28.697  28.123  1.00  0.00     0.049 A 
ATOM     62  C   UNL A   1      47.069  26.567  28.421  1.00  0.00     0.074 A 
ATOM     63  C   UNL A   1      42.220  29.136  26.934  1.00  0.00     0.029 A 
ATOM     64  N   UNL A   1      42.238  27.453  28.363  1.00  0.00    -0.354 N 
ATOM     65  N   UNL A   1      45.803  26.801  28.264  1.00  0.00    -0.248 NA
ATOM     66  C   UNL A   1      47.381  25.151  28.329  1.00  0.00     0.031 C 
ATOM     67  C   UNL A   1      43.184  28.154  26.509  1.00  0.00     0.029 A 
ATOM     68  C   UNL A   1      43.176  27.099  27.411  1.00  0.00     0.049 A 
ATOM     69  H   UNL A   1      42.003  26.885  29.132  1.00  0.00     0.167 HD
ATOM     70  C   UNL A   1      45.134  25.694  27.951  1.00  0.00     0.074 A 
ATOM     71  C   UNL A   1      46.141  24.649  28.140  1.00  0.00     0.031 C 
ATOM     72  C   UNL A   1      43.840  25.792  27.536  1.00  0.00     0.031 A 
BRANCH  59  73
ATOM     73  C   UNL A   1      39.508  29.955  28.983  1.00  0.00    -0.014 A 
ATOM     74  C   UNL A   1      38.518  29.243  28.273  1.00  0.00     0.010 A 
ATOM     75  C   UNL A   1      39.135  31.248  29.412  1.00  0.00     0.010 A 
ATOM     76  C   UNL A   1      37.237  29.773  28.032  1.00  0.00     0.020 A 
ATOM     77  C   UNL A   1      37.849  31.780  29.206  1.00  0.00     0.020 A 
ATOM     78  C   UNL A   1      36.903  31.036  28.515  1.00  0.00     0.054 A 
BRANCH  78  79
ATOM     79  S   UNL A   1      35.229  31.681  28.242  1.00  0.00     0.124 S 
ATOM     80  O   UNL A   1      34.701  31.768  29.601  1.00  0.00    -0.237 OA
ATOM     81  O   UNL A   1      35.488  32.958  27.583  1.00  0.00    -0.237 OA
ATOM     82  O   UNL A   1      34.599  30.668  27.396  1.00  0.00    -0.744 OA
ENDBRANCH  78  79
ENDBRANCH  59  73
BRANCH  60  83
ATOM     83  C   UNL A   1      49.163  27.778  29.616  1.00  0.00    -0.014 A 
ATOM     84  C   UNL A   1      48.751  27.552  30.907  1.00  0.00     0.010 A 
ATOM     85  C   UNL A   1      50.269  27.035  29.184  1.00  0.00     0.010 A 
ATOM     86  C   UNL A   1      49.075  26.308  31.483  1.00  0.00     0.020 A 
ATOM     87  C   UNL A   1      50.579  25.724  29.781  1.00  0.00     0.020 A 
ATOM     88  C   UNL A   1      50.121  25.113  31.046  1.00  0.00     0.054 A 
BRANCH  88  89
ATOM     89  S   UNL A   1      51.243  23.689  32.882  1.00  0.00     0.124 S 
ATOM     90  O   UNL A   1      50.350  23.493  34.089  1.00  0.00    -0.237 OA
ATOM     91  O   UNL A   1      51.580  22.311  32.426  1.00  0.00    -0.237 OA
ATOM     92  O   UNL A   1      52.394  24.313  33.560  1.00  0.00    -0.744 OA
ENDBRANCH  88  89
ENDBRANCH  60  83
BRANCH  72  93
ATOM     93  C   UNL A   1      43.065  24.563  27.280  1.00  0.00    -0.014 A 
ATOM     94  C   UNL A   1      43.006  23.988  26.010  1.00  0.00     0.010 A 
ATOM     95  C   UNL A   1      42.400  23.932  28.345  1.00  0.00     0.010 A 
ATOM     96  C   UNL A   1      42.512  22.706  25.856  1.00  0.00     0.020 A 
ATOM     97  C   UNL A   1      41.838  22.680  28.188  1.00  0.00     0.020 A 
ATOM     98  C   UNL A   1      41.950  22.055  26.954  1.00  0.00     0.054 A 
BRANCH  98  99
ATOM     99  S   UNL A   1      41.311  20.398  26.719  1.00  0.00     0.124 S 
ATOM    100  O   UNL A   1      39.883  20.584  26.959  1.00  0.00    -0.237 OA
ATOM    101  O   UNL A   1      41.689  20.130  25.333  1.00  0.00    -0.237 OA
ATOM    102  O   UNL A   1      42.015  19.611  27.727  1.00  0.00    -0.744 OA
ENDBRANCH  98  99
ENDBRANCH  72  93
ENDBRANCH  46  47
ENDBRANCH  39  41
ENDBRANCH  38  39
ENDBRANCH  37  38
ENDBRANCH  36  37
ENDBRANCH  35  36
ENDBRANCH   1  35
TORSDOF 23
ENDMDL
MODEL 3
REMARK VINA RESULT:     -11.0      6.000     12.390
REMARK SMILES Cc1ccc(C2=NN(C(=O)CCC(=O)OCCOCCOC(=O)c3ccc(-c4c5nc(c(-c6ccc(S(=O)(=O)[O-])cc6)c6ccc([nH]6)c(-c6ccc(S(=O)(=O)[O-])cc6)c6nc(c(-c7ccc(S(=O)(=O)[O-])cc7)c7ccc4[nH]7)C=C6)C=C5)cc3)[C@H](C[C@H]3C=c4cccc(C)c4=NC3=O)C2)cc1
REMARK SMILES IDX 17 1 16 2 15 3 13 4 14 5 12 6 11 7 9 8 10 9 8 10 6 11 7 12
REMARK SMILES IDX 98 13 84 14 5 15 1 16 2 17 3 18 100 19 4 20 99 21 85 22
REMARK SMILES IDX 86 23 87 24 96 25 88 26 95 27 97 28 89 29 94 30 90 31 92 32
REMARK SMILES IDX 91 33 93 34 18 35 19 36 20 37 21 38 22 39 23 40 24 41 25 42
REMARK SMILES IDX 83 43 26 44 82 45 27 46 28 47 29 48 76 49 30 50 81 51 75 52
REMARK SMILES IDX 77 53 31 54 80 55 74 56 73 57 32 59 62 60 43 61 61 62 44 63
REMARK SMILES IDX 47 64 60 65 78 66 45 67 46 68 59 70 79 71 48 72 33 73 34 74
REMARK SMILES IDX 42 75 35 76 41 77 36 78 37 79 38 80 39 81 40 82 63 83 64 84
REMARK SMILES IDX 72 85 65 86 71 87 66 88 67 89 68 90 69 91 70 92 49 93 50 94
REMARK SMILES IDX 58 95 51 96 57 97 52 98 53 99 54 100 55 101 56 102
REMARK H PARENT 77 58 47 69
REMARK Flexibility Score: inf
ROOT
ATOM      1  C   UNL A   1      41.594  22.126  27.831  1.00  0.00     0.202 C 
ENDROOT
BRANCH   1   2
ATOM      2  C   UNL A   1      40.711  22.210  26.661  1.00  0.00     0.261 C 
BRANCH   2   3
ATOM      3  O   UNL A   1      40.307  23.506  26.321  1.00  0.00    -0.463 OA
BRANCH   3   4
ATOM      4  C   UNL A   1      39.073  23.773  26.763  1.00  0.00     0.306 C 
ATOM      5  O   UNL A   1      38.773  24.620  27.592  1.00  0.00    -0.252 OA
BRANCH   4   6
ATOM      6  C   UNL A   1      38.098  22.874  26.082  1.00  0.00     0.132 C 
BRANCH   6   7
ATOM      7  C   UNL A   1      37.207  23.471  24.986  1.00  0.00     0.114 C 
BRANCH   7   8
ATOM      8  C   UNL A   1      35.641  23.741  25.025  1.00  0.00     0.243 C 
ATOM      9  O   UNL A   1      35.388  24.822  25.599  1.00  0.00    -0.273 OA
BRANCH   8  10
ATOM     10  N   UNL A   1      34.532  22.941  24.446  1.00  0.00    -0.230 N 
ATOM     11  C   UNL A   1      33.530  20.135  24.544  1.00  0.00     0.070 C 
ATOM     12  N   UNL A   1      34.516  21.187  25.342  1.00  0.00    -0.174 NA
ATOM     13  C   UNL A   1      32.547  21.120  23.119  1.00  0.00     0.086 C 
ATOM     14  C   UNL A   1      33.227  23.008  22.912  1.00  0.00     0.118 C 
BRANCH  11  15
ATOM     15  C   UNL A   1      33.271  18.670  24.598  1.00  0.00    -0.002 A 
ATOM     16  C   UNL A   1      33.018  14.442  25.378  1.00  0.00     0.044 C 
ATOM     17  C   UNL A   1      33.048  15.904  25.063  1.00  0.00    -0.051 A 
ATOM     18  C   UNL A   1      33.771  16.407  23.966  1.00  0.00     0.004 A 
ATOM     19  C   UNL A   1      32.439  16.791  25.934  1.00  0.00     0.004 A 
ATOM     20  C   UNL A   1      33.854  17.785  23.712  1.00  0.00     0.010 A 
ATOM     21  C   UNL A   1      32.595  18.152  25.721  1.00  0.00     0.010 A 
ENDBRANCH  11  15
BRANCH  14  22
ATOM     22  C   UNL A   1      32.171  24.774  22.301  1.00  0.00     0.045 C 
BRANCH  22  23
ATOM     23  C   UNL A   1      32.412  26.517  23.303  1.00  0.00     0.106 C 
ATOM     24  C   UNL A   1      31.913  27.968  22.647  1.00  0.00    -0.003 C 
ATOM     25  C   UNL A   1      32.023  26.779  24.839  1.00  0.00     0.253 C 
ATOM     26  C   UNL A   1      30.795  28.604  23.033  1.00  0.00    -0.003 A 
ATOM     27  N   UNL A   1      31.516  28.040  25.280  1.00  0.00    -0.212 NA
ATOM     28  O   UNL A   1      32.218  25.883  25.662  1.00  0.00    -0.272 OA
ATOM     29  C   UNL A   1      29.786  29.283  22.224  1.00  0.00     0.010 A 
ATOM     30  C   UNL A   1      30.929  28.863  24.460  1.00  0.00     0.077 A 
ATOM     31  C   UNL A   1      29.094  30.319  22.710  1.00  0.00     0.001 A 
ATOM     32  C   UNL A   1      30.451  30.296  24.745  1.00  0.00    -0.025 A 
ATOM     33  C   UNL A   1      29.575  30.924  23.923  1.00  0.00     0.005 A 
ATOM     34  C   UNL A   1      31.257  31.095  25.705  1.00  0.00     0.047 C 
ENDBRANCH  22  23
ENDBRANCH  14  22
ENDBRANCH   8  10
ENDBRANCH   7   8
ENDBRANCH   6   7
ENDBRANCH   4   6
ENDBRANCH   3   4
ENDBRANCH   2   3
ENDBRANCH   1   2
BRANCH   1  35
ATOM     35  O   UNL A   1      42.904  22.591  27.670  1.00  0.00    -0.374 OA
BRANCH  35  36
ATOM     36  C   UNL A   1      43.361  23.393  26.539  1.00  0.00     0.202 C 
BRANCH  36  37
ATOM     37  C   UNL A   1      45.058  23.761  25.976  1.00  0.00     0.261 C 
BRANCH  37  38
ATOM     38  O   UNL A   1      45.793  25.231  24.935  1.00  0.00    -0.460 OA
BRANCH  38  39
ATOM     39  C   UNL A   1      45.916  26.984  25.103  1.00  0.00     0.338 C 
ATOM     40  O   UNL A   1      45.959  27.642  24.058  1.00  0.00    -0.246 OA
BRANCH  39  41
ATOM     41  C   UNL A   1      45.533  27.914  26.626  1.00  0.00     0.060 A 
ATOM     42  C   UNL A   1      46.292  28.921  27.242  1.00  0.00     0.016 A 
ATOM     43  C   UNL A   1      44.472  27.643  27.496  1.00  0.00     0.016 A 
ATOM     44  C   UNL A   1      46.519  28.930  28.696  1.00  0.00     0.010 A 
ATOM     45  C   UNL A   1      44.644  27.673  28.920  1.00  0.00     0.010 A 
ATOM     46  C   UNL A   1      45.840  28.055  29.534  1.00  0.00    -0.014 A 
BRANCH  46  47
ATOM     47  C   UNL A   1      46.208  27.486  30.935  1.00  0.00     0.031 A 
ATOM     48  C   UNL A   1      47.349  26.521  31.039  1.00  0.00     0.074 A 
ATOM     49  C   UNL A   1      45.861  28.023  32.173  1.00  0.00     0.049 A 
ATOM     50  N   UNL A   1      47.737  25.978  32.142  1.00  0.00    -0.248 NA
ATOM     51  C   UNL A   1      48.170  26.085  29.915  1.00  0.00     0.031 C 
ATOM     52  C   UNL A   1      46.620  28.040  33.471  1.00  0.00     0.029 A 
ATOM     53  N   UNL A   1      44.906  28.958  32.522  1.00  0.00    -0.354 N 
ATOM     54  C   UNL A   1      49.007  25.489  31.963  1.00  0.00     0.074 A 
ATOM     55  C   UNL A   1      49.165  25.436  30.535  1.00  0.00     0.031 C 
ATOM     56  C   UNL A   1      45.968  28.725  34.438  1.00  0.00     0.029 A 
ATOM     57  C   UNL A   1      44.672  29.031  33.910  1.00  0.00     0.049 A 
ATOM     58  H   UNL A   1      44.436  29.521  31.864  1.00  0.00     0.167 HD
ATOM     59  C   UNL A   1      49.815  25.306  33.049  1.00  0.00     0.031 A 
ATOM     60  C   UNL A   1      43.451  28.617  34.376  1.00  0.00     0.031 A 
ATOM     61  C   UNL A   1      49.097  25.575  34.310  1.00  0.00     0.049 A 
ATOM     62  C   UNL A   1      43.568  27.264  34.978  1.00  0.00     0.074 A 
ATOM     63  C   UNL A   1      49.195  26.524  35.314  1.00  0.00     0.029 A 
ATOM     64  N   UNL A   1      47.873  24.944  34.516  1.00  0.00    -0.354 N 
ATOM     65  N   UNL A   1      44.731  26.690  34.990  1.00  0.00    -0.248 NA
ATOM     66  C   UNL A   1      42.532  26.416  35.543  1.00  0.00     0.031 C 
ATOM     67  C   UNL A   1      47.977  26.483  36.081  1.00  0.00     0.029 A 
ATOM     68  C   UNL A   1      47.162  25.479  35.575  1.00  0.00     0.049 A 
ATOM     69  H   UNL A   1      47.548  24.196  33.965  1.00  0.00     0.167 HD
ATOM     70  C   UNL A   1      44.693  25.516  35.617  1.00  0.00     0.074 A 
ATOM     71  C   UNL A   1      43.259  25.313  35.827  1.00  0.00     0.031 C 
ATOM     72  C   UNL A   1      45.861  24.882  35.915  1.00  0.00     0.031 A 
BRANCH  59  73
ATOM     73  C   UNL A   1      51.301  24.985  32.985  1.00  0.00    -0.014 A 
ATOM     74  C   UNL A   1      51.736  23.664  33.217  1.00  0.00     0.010 A 
ATOM     75  C   UNL A   1      52.324  25.926  32.737  1.00  0.00     0.010 A 
ATOM     76  C   UNL A   1      53.096  23.301  33.175  1.00  0.00     0.020 A 
ATOM     77  C   UNL A   1      53.685  25.575  32.662  1.00  0.00     0.020 A 
ATOM     78  C   UNL A   1      54.064  24.257  32.881  1.00  0.00     0.054 A 
BRANCH  78  79
ATOM     79  S   UNL A   1      55.806  23.761  32.780  1.00  0.00     0.124 S 
ATOM     80  O   UNL A   1      56.487  25.041  32.608  1.00  0.00    -0.237 OA
ATOM     81  O   UNL A   1      56.020  23.099  34.064  1.00  0.00    -0.237 OA
ATOM     82  O   UNL A   1      55.849  22.876  31.617  1.00  0.00    -0.744 OA
ENDBRANCH  78  79
ENDBRANCH  59  73
BRANCH  60  83
ATOM     83  C   UNL A   1      42.340  29.197  33.552  1.00  0.00    -0.014 A 
ATOM     84  C   UNL A   1      41.140  28.718  34.019  1.00  0.00     0.010 A 
ATOM     85  C   UNL A   1      42.417  30.583  33.361  1.00  0.00     0.010 A 
ATOM     86  C   UNL A   1      40.324  29.609  34.742  1.00  0.00     0.020 A 
ATOM     87  C   UNL A   1      41.572  31.502  34.143  1.00  0.00     0.020 A 
ATOM     88  C   UNL A   1      40.347  31.246  34.929  1.00  0.00     0.054 A 
BRANCH  88  89
ATOM     89  S   UNL A   1      38.122  32.504  35.278  1.00  0.00     0.124 S 
ATOM     90  O   UNL A   1      37.464  32.160  36.598  1.00  0.00    -0.237 OA
ATOM     91  O   UNL A   1      38.289  33.985  35.307  1.00  0.00    -0.237 OA
ATOM     92  O   UNL A   1      37.021  32.118  34.377  1.00  0.00    -0.744 OA
ENDBRANCH  88  89
ENDBRANCH  60  83
BRANCH  72  93
ATOM     93  C   UNL A   1      45.822  23.538  36.523  1.00  0.00    -0.014 A 
ATOM     94  C   UNL A   1      45.462  22.412  35.783  1.00  0.00     0.010 A 
ATOM     95  C   UNL A   1      46.193  23.379  37.870  1.00  0.00     0.010 A 
ATOM     96  C   UNL A   1      45.699  21.148  36.293  1.00  0.00     0.020 A 
ATOM     97  C   UNL A   1      46.365  22.122  38.414  1.00  0.00     0.020 A 
ATOM     98  C   UNL A   1      46.169  21.016  37.599  1.00  0.00     0.054 A 
BRANCH  98  99
ATOM     99  S   UNL A   1      46.457  19.364  38.232  1.00  0.00     0.124 S 
ATOM    100  O   UNL A   1      45.891  19.449  39.575  1.00  0.00    -0.237 OA
ATOM    101  O   UNL A   1      45.706  18.549  37.280  1.00  0.00    -0.237 OA
ATOM    102  O   UNL A   1      47.908  19.222  38.174  1.00  0.00    -0.744 OA
ENDBRANCH  98  99
ENDBRANCH  72  93
ENDBRANCH  46  47
ENDBRANCH  39  41
ENDBRANCH  38  39
ENDBRANCH  37  38
ENDBRANCH  36  37
ENDBRANCH  35  36
ENDBRANCH   1  35
TORSDOF 23
ENDMDL
