MODEL 1
REMARK VINA RESULT:      -9.8      0.000      0.000
REMARK SMILES Cc1cc2c(c(C)c1Br)C=C(C(=O)OCCOCCOC(=O)c1ccc(-c3c4nc(c(-c5ccc(S(=O)(=O)[O-])cc5)c5ccc([nH]5)c(-c5ccc(S(=O)(=O)[O-])cc5)c5nc(c(-c6ccc(S(=O)(=O)[O-])cc6)c6ccc3[nH]6)C=C5)C=C4)cc1)[C@@H](C(F)(F)F)O2
REMARK SMILES IDX 18 1 17 2 16 3 15 4 14 5 12 6 13 7 11 8 1 9 2 10 3 11 8 12
REMARK SMILES IDX 4 13 6 14 9 15 5 16 88 17 7 18 10 19 83 20 84 21 85 22 86 23
REMARK SMILES IDX 87 24 19 25 20 26 21 27 22 28 23 29 24 30 82 31 25 32 81 33
REMARK SMILES IDX 26 34 27 35 28 36 75 37 29 38 80 39 74 40 76 41 30 42 79 43
REMARK SMILES IDX 73 44 72 45 31 47 61 48 42 49 60 50 43 51 46 52 59 53 77 54
REMARK SMILES IDX 44 55 45 56 58 58 78 59 47 60 32 61 33 62 41 63 34 64 40 65
REMARK SMILES IDX 35 66 36 67 37 68 38 69 39 70 62 71 63 72 71 73 64 74 70 75
REMARK SMILES IDX 65 76 66 77 67 78 68 79 69 80 48 81 49 82 57 83 50 84 56 85
REMARK SMILES IDX 51 86 52 87 53 88 54 89 55 90
REMARK H PARENT 76 46 46 57
REMARK Flexibility Score: inf
ROOT
ATOM      1  C   UNL A   1      33.569  35.225  28.409  1.00  0.00     0.202 C 
ENDROOT
BRANCH   1   2
ATOM      2  O   UNL A   1      32.511  36.017  28.949  1.00  0.00    -0.374 OA
BRANCH   2   3
ATOM      3  C   UNL A   1      32.517  36.267  30.354  1.00  0.00     0.202 C 
BRANCH   3   4
ATOM      4  C   UNL A   1      33.881  36.268  31.049  1.00  0.00     0.261 C 
BRANCH   4   5
ATOM      5  O   UNL A   1      33.967  35.244  32.052  1.00  0.00    -0.460 OA
BRANCH   5   6
ATOM      6  C   UNL A   1      34.779  34.211  31.732  1.00  0.00     0.338 C 
ATOM      7  O   UNL A   1      34.510  33.259  31.014  1.00  0.00    -0.246 OA
BRANCH   6   8
ATOM      8  C   UNL A   1      36.133  34.454  32.265  1.00  0.00     0.087 C 
ATOM      9  C   UNL A   1      42.459  34.168  33.513  1.00  0.00     0.046 C 
ATOM     10  C   UNL A   1      41.115  34.360  32.860  1.00  0.00    -0.033 A 
ATOM     11  C   UNL A   1      40.016  34.603  33.696  1.00  0.00     0.051 A 
ATOM     12  C   UNL A   1      40.899  34.223  31.472  1.00  0.00     0.024 A 
ATOM     13  C   UNL A   1      38.723  34.662  33.186  1.00  0.00     0.128 A 
ATOM     14  C   UNL A   1      39.596  34.335  30.928  1.00  0.00    -0.026 A 
ATOM     15  Br  UNL A   1      42.390  33.822  30.341  1.00  0.00    -0.050 Br
ATOM     16  C   UNL A   1      38.501  34.497  31.816  1.00  0.00     0.021 A 
ATOM     17  O   UNL A   1      37.739  34.886  34.107  1.00  0.00    -0.475 OA
ATOM     18  C   UNL A   1      39.329  34.263  29.441  1.00  0.00     0.046 C 
ATOM     19  C   UNL A   1      37.118  34.413  31.359  1.00  0.00     0.027 C 
ATOM     20  C   UNL A   1      36.349  34.692  33.728  1.00  0.00     0.316 C 
BRANCH  20  21
ATOM     21  C   UNL A   1      35.757  33.579  34.606  1.00  0.00     0.430 C 
ATOM     22  F   UNL A   1      34.417  33.482  34.433  1.00  0.00    -0.167 F 
ATOM     23  F   UNL A   1      36.280  32.369  34.301  1.00  0.00    -0.167 F 
ATOM     24  F   UNL A   1      35.983  33.803  35.920  1.00  0.00    -0.167 F 
ENDBRANCH  20  21
ENDBRANCH   6   8
ENDBRANCH   5   6
ENDBRANCH   4   5
ENDBRANCH   3   4
ENDBRANCH   2   3
ENDBRANCH   1   2
BRANCH   1  25
ATOM     25  C   UNL A   1      33.214  33.831  27.879  1.00  0.00     0.261 C 
BRANCH  25  26
ATOM     26  O   UNL A   1      34.382  33.061  27.535  1.00  0.00    -0.460 OA
BRANCH  26  27
ATOM     27  C   UNL A   1      34.249  31.724  27.706  1.00  0.00     0.338 C 
ATOM     28  O   UNL A   1      33.268  31.041  27.442  1.00  0.00    -0.246 OA
BRANCH  27  29
ATOM     29  C   UNL A   1      35.541  31.132  28.091  1.00  0.00     0.060 A 
ATOM     30  C   UNL A   1      35.533  29.828  28.601  1.00  0.00     0.016 A 
ATOM     31  C   UNL A   1      36.726  31.870  28.043  1.00  0.00     0.016 A 
ATOM     32  C   UNL A   1      36.705  29.268  29.105  1.00  0.00     0.010 A 
ATOM     33  C   UNL A   1      37.898  31.311  28.562  1.00  0.00     0.010 A 
ATOM     34  C   UNL A   1      37.884  30.022  29.127  1.00  0.00    -0.014 A 
BRANCH  34  35
ATOM     35  C   UNL A   1      39.057  29.516  29.881  1.00  0.00     0.031 A 
ATOM     36  C   UNL A   1      39.271  29.991  31.294  1.00  0.00     0.074 A 
ATOM     37  C   UNL A   1      39.884  28.604  29.339  1.00  0.00     0.049 A 
ATOM     38  N   UNL A   1      40.229  29.687  32.131  1.00  0.00    -0.248 NA
ATOM     39  C   UNL A   1      38.271  30.926  31.838  1.00  0.00     0.031 C 
ATOM     40  C   UNL A   1      39.741  28.018  28.006  1.00  0.00     0.029 A 
ATOM     41  N   UNL A   1      41.005  28.002  29.851  1.00  0.00    -0.354 N 
ATOM     42  C   UNL A   1      39.945  30.383  33.300  1.00  0.00     0.074 A 
ATOM     43  C   UNL A   1      38.745  31.154  33.054  1.00  0.00     0.031 C 
ATOM     44  C   UNL A   1      40.736  27.137  27.809  1.00  0.00     0.029 A 
ATOM     45  C   UNL A   1      41.604  27.119  28.984  1.00  0.00     0.049 A 
ATOM     46  H   UNL A   1      41.349  28.186  30.756  1.00  0.00     0.167 HD
ATOM     47  C   UNL A   1      40.615  30.373  34.475  1.00  0.00     0.031 A 
ATOM     48  C   UNL A   1      42.731  26.392  29.119  1.00  0.00     0.031 A 
ATOM     49  C   UNL A   1      41.815  29.618  34.714  1.00  0.00     0.049 A 
ATOM     50  C   UNL A   1      43.519  26.484  30.402  1.00  0.00     0.074 A 
ATOM     51  C   UNL A   1      42.575  29.555  35.870  1.00  0.00     0.029 A 
ATOM     52  N   UNL A   1      42.430  28.794  33.784  1.00  0.00    -0.354 N 
ATOM     53  N   UNL A   1      43.240  27.155  31.494  1.00  0.00    -0.248 NA
ATOM     54  C   UNL A   1      44.774  25.720  30.468  1.00  0.00     0.031 C 
ATOM     55  C   UNL A   1      43.677  28.732  35.622  1.00  0.00     0.029 A 
ATOM     56  C   UNL A   1      43.572  28.236  34.332  1.00  0.00     0.049 A 
ATOM     57  H   UNL A   1      42.103  28.630  32.871  1.00  0.00     0.167 HD
ATOM     58  C   UNL A   1      44.272  26.873  32.384  1.00  0.00     0.074 A 
ATOM     59  C   UNL A   1      45.172  25.962  31.710  1.00  0.00     0.031 C 
ATOM     60  C   UNL A   1      44.457  27.329  33.648  1.00  0.00     0.031 A 
BRANCH  47  61
ATOM     61  C   UNL A   1      40.075  31.214  35.599  1.00  0.00    -0.014 A 
ATOM     62  C   UNL A   1      38.771  31.015  36.085  1.00  0.00     0.010 A 
ATOM     63  C   UNL A   1      40.907  32.158  36.230  1.00  0.00     0.010 A 
ATOM     64  C   UNL A   1      38.303  31.752  37.176  1.00  0.00     0.020 A 
ATOM     65  C   UNL A   1      40.450  32.881  37.335  1.00  0.00     0.020 A 
ATOM     66  C   UNL A   1      39.148  32.678  37.797  1.00  0.00     0.054 A 
BRANCH  66  67
ATOM     67  S   UNL A   1      38.532  33.577  39.247  1.00  0.00     0.124 S 
ATOM     68  O   UNL A   1      37.173  33.056  39.370  1.00  0.00    -0.237 OA
ATOM     69  O   UNL A   1      39.461  33.164  40.296  1.00  0.00    -0.237 OA
ATOM     70  O   UNL A   1      38.626  34.981  38.852  1.00  0.00    -0.744 OA
ENDBRANCH  66  67
ENDBRANCH  47  61
BRANCH  48  71
ATOM     71  C   UNL A   1      43.201  25.521  28.007  1.00  0.00    -0.014 A 
ATOM     72  C   UNL A   1      42.834  24.165  27.956  1.00  0.00     0.010 A 
ATOM     73  C   UNL A   1      44.036  26.042  27.002  1.00  0.00     0.010 A 
ATOM     74  C   UNL A   1      43.312  23.340  26.934  1.00  0.00     0.020 A 
ATOM     75  C   UNL A   1      44.494  25.226  25.962  1.00  0.00     0.020 A 
ATOM     76  C   UNL A   1      44.140  23.876  25.943  1.00  0.00     0.054 A 
BRANCH  76  77
ATOM     77  S   UNL A   1      44.723  22.793  24.610  1.00  0.00     0.124 S 
ATOM     78  O   UNL A   1      45.774  23.601  24.000  1.00  0.00    -0.237 OA
ATOM     79  O   UNL A   1      45.175  21.612  25.340  1.00  0.00    -0.237 OA
ATOM     80  O   UNL A   1      43.532  22.590  23.788  1.00  0.00    -0.744 OA
ENDBRANCH  76  77
ENDBRANCH  48  71
BRANCH  60  81
ATOM     81  C   UNL A   1      45.663  26.835  34.401  1.00  0.00    -0.014 A 
ATOM     82  C   UNL A   1      46.859  27.573  34.418  1.00  0.00     0.010 A 
ATOM     83  C   UNL A   1      45.570  25.659  35.168  1.00  0.00     0.010 A 
ATOM     84  C   UNL A   1      47.948  27.133  35.174  1.00  0.00     0.020 A 
ATOM     85  C   UNL A   1      46.649  25.230  35.946  1.00  0.00     0.020 A 
ATOM     86  C   UNL A   1      47.834  25.966  35.937  1.00  0.00     0.054 A 
BRANCH  86  87
ATOM     87  S   UNL A   1      49.245  25.452  36.956  1.00  0.00     0.124 S 
ATOM     88  O   UNL A   1      50.371  26.041  36.237  1.00  0.00    -0.237 OA
ATOM     89  O   UNL A   1      48.941  26.056  38.251  1.00  0.00    -0.237 OA
ATOM     90  O   UNL A   1      49.181  23.992  36.926  1.00  0.00    -0.744 OA
ENDBRANCH  86  87
ENDBRANCH  60  81
ENDBRANCH  34  35
ENDBRANCH  27  29
ENDBRANCH  26  27
ENDBRANCH  25  26
ENDBRANCH   1  25
TORSDOF 18
ENDMDL
MODEL 2
REMARK VINA RESULT:      -9.4      0.471      8.105
REMARK SMILES Cc1cc2c(c(C)c1Br)C=C(C(=O)OCCOCCOC(=O)c1ccc(-c3c4nc(c(-c5ccc(S(=O)(=O)[O-])cc5)c5ccc([nH]5)c(-c5ccc(S(=O)(=O)[O-])cc5)c5nc(c(-c6ccc(S(=O)(=O)[O-])cc6)c6ccc3[nH]6)C=C5)C=C4)cc1)[C@@H](C(F)(F)F)O2
REMARK SMILES IDX 18 1 17 2 16 3 15 4 14 5 12 6 13 7 11 8 1 9 2 10 3 11 8 12
REMARK SMILES IDX 4 13 6 14 9 15 5 16 88 17 7 18 10 19 83 20 84 21 85 22 86 23
REMARK SMILES IDX 87 24 19 25 20 26 21 27 22 28 23 29 24 30 82 31 25 32 81 33
REMARK SMILES IDX 26 34 27 35 28 36 75 37 29 38 80 39 74 40 76 41 30 42 79 43
REMARK SMILES IDX 73 44 72 45 31 47 61 48 42 49 60 50 43 51 46 52 59 53 77 54
REMARK SMILES IDX 44 55 45 56 58 58 78 59 47 60 32 61 33 62 41 63 34 64 40 65
REMARK SMILES IDX 35 66 36 67 37 68 38 69 39 70 62 71 63 72 71 73 64 74 70 75
REMARK SMILES IDX 65 76 66 77 67 78 68 79 69 80 48 81 49 82 57 83 50 84 56 85
REMARK SMILES IDX 51 86 52 87 53 88 54 89 55 90
REMARK H PARENT 76 46 46 57
REMARK Flexibility Score: inf
ROOT
ATOM      1  C   UNL A   1      33.535  34.911  28.394  1.00  0.00     0.202 C 
ENDROOT
BRANCH   1   2
ATOM      2  O   UNL A   1      32.438  35.607  28.987  1.00  0.00    -0.374 OA
BRANCH   2   3
ATOM      3  C   UNL A   1      32.695  36.382  30.157  1.00  0.00     0.202 C 
BRANCH   3   4
ATOM      4  C   UNL A   1      34.000  36.091  30.904  1.00  0.00     0.261 C 
BRANCH   4   5
ATOM      5  O   UNL A   1      33.834  35.048  31.876  1.00  0.00    -0.460 OA
BRANCH   5   6
ATOM      6  C   UNL A   1      34.657  33.988  31.708  1.00  0.00     0.338 C 
ATOM      7  O   UNL A   1      34.403  32.945  31.122  1.00  0.00    -0.246 OA
BRANCH   6   8
ATOM      8  C   UNL A   1      36.001  34.311  32.220  1.00  0.00     0.087 C 
ATOM      9  C   UNL A   1      42.346  34.376  33.402  1.00  0.00     0.046 C 
ATOM     10  C   UNL A   1      40.988  34.484  32.759  1.00  0.00    -0.033 A 
ATOM     11  C   UNL A   1      39.887  34.690  33.603  1.00  0.00     0.051 A 
ATOM     12  C   UNL A   1      40.765  34.304  31.378  1.00  0.00     0.024 A 
ATOM     13  C   UNL A   1      38.587  34.672  33.106  1.00  0.00     0.128 A 
ATOM     14  C   UNL A   1      39.453  34.338  30.846  1.00  0.00    -0.026 A 
ATOM     15  Br  UNL A   1      42.263  33.953  30.239  1.00  0.00    -0.050 Br
ATOM     16  C   UNL A   1      38.360  34.464  31.743  1.00  0.00     0.021 A 
ATOM     17  O   UNL A   1      37.602  34.867  34.034  1.00  0.00    -0.475 OA
ATOM     18  C   UNL A   1      39.174  34.217  29.364  1.00  0.00     0.046 C 
ATOM     19  C   UNL A   1      36.978  34.300  31.304  1.00  0.00     0.027 C 
ATOM     20  C   UNL A   1      36.220  34.593  33.675  1.00  0.00     0.316 C 
BRANCH  20  21
ATOM     21  C   UNL A   1      35.695  33.472  34.584  1.00  0.00     0.430 C 
ATOM     22  F   UNL A   1      34.403  33.178  34.300  1.00  0.00    -0.167 F 
ATOM     23  F   UNL A   1      36.400  32.329  34.428  1.00  0.00    -0.167 F 
ATOM     24  F   UNL A   1      35.757  33.815  35.891  1.00  0.00    -0.167 F 
ENDBRANCH  20  21
ENDBRANCH   6   8
ENDBRANCH   5   6
ENDBRANCH   4   5
ENDBRANCH   3   4
ENDBRANCH   2   3
ENDBRANCH   1   2
BRANCH   1  25
ATOM     25  C   UNL A   1      33.284  33.482  27.898  1.00  0.00     0.261 C 
BRANCH  25  26
ATOM     26  O   UNL A   1      34.500  32.818  27.504  1.00  0.00    -0.460 OA
BRANCH  26  27
ATOM     27  C   UNL A   1      34.441  31.465  27.535  1.00  0.00     0.338 C 
ATOM     28  O   UNL A   1      33.561  30.754  27.066  1.00  0.00    -0.246 OA
BRANCH  27  29
ATOM     29  C   UNL A   1      35.704  30.916  28.056  1.00  0.00     0.060 A 
ATOM     30  C   UNL A   1      35.669  29.641  28.635  1.00  0.00     0.016 A 
ATOM     31  C   UNL A   1      36.881  31.668  28.063  1.00  0.00     0.016 A 
ATOM     32  C   UNL A   1      36.801  29.128  29.263  1.00  0.00     0.010 A 
ATOM     33  C   UNL A   1      38.012  31.157  28.707  1.00  0.00     0.010 A 
ATOM     34  C   UNL A   1      37.967  29.901  29.339  1.00  0.00    -0.014 A 
BRANCH  34  35
ATOM     35  C   UNL A   1      39.079  29.455  30.214  1.00  0.00     0.031 A 
ATOM     36  C   UNL A   1      40.071  28.459  29.676  1.00  0.00     0.074 A 
ATOM     37  C   UNL A   1      39.236  29.973  31.446  1.00  0.00     0.049 A 
ATOM     38  N   UNL A   1      41.111  27.928  30.266  1.00  0.00    -0.248 NA
ATOM     39  C   UNL A   1      39.871  28.008  28.288  1.00  0.00     0.031 C 
ATOM     40  C   UNL A   1      38.380  30.992  32.052  1.00  0.00     0.029 A 
ATOM     41  N   UNL A   1      40.182  29.716  32.405  1.00  0.00    -0.354 N 
ATOM     42  C   UNL A   1      41.692  27.089  29.323  1.00  0.00     0.074 A 
ATOM     43  C   UNL A   1      40.871  27.153  28.133  1.00  0.00     0.031 C 
ATOM     44  C   UNL A   1      38.845  31.278  33.280  1.00  0.00     0.029 A 
ATOM     45  C   UNL A   1      40.009  30.440  33.561  1.00  0.00     0.049 A 
ATOM     46  H   UNL A   1      40.918  29.073  32.278  1.00  0.00     0.167 HD
ATOM     47  C   UNL A   1      42.815  26.341  29.433  1.00  0.00     0.031 A 
ATOM     48  C   UNL A   1      40.700  30.417  34.718  1.00  0.00     0.031 A 
ATOM     49  C   UNL A   1      43.622  26.267  30.621  1.00  0.00     0.049 A 
ATOM     50  C   UNL A   1      41.884  29.492  34.851  1.00  0.00     0.074 A 
ATOM     51  C   UNL A   1      44.772  25.525  30.833  1.00  0.00     0.029 A 
ATOM     52  N   UNL A   1      43.369  26.959  31.795  1.00  0.00    -0.354 N 
ATOM     53  N   UNL A   1      42.415  28.698  33.952  1.00  0.00    -0.248 NA
ATOM     54  C   UNL A   1      42.561  29.461  36.157  1.00  0.00     0.031 C 
ATOM     55  C   UNL A   1      45.185  25.731  32.152  1.00  0.00     0.029 A 
ATOM     56  C   UNL A   1      44.327  26.645  32.742  1.00  0.00     0.049 A 
ATOM     57  H   UNL A   1      42.620  27.582  31.933  1.00  0.00     0.167 HD
ATOM     58  C   UNL A   1      43.502  28.094  34.576  1.00  0.00     0.074 A 
ATOM     59  C   UNL A   1      43.562  28.623  35.922  1.00  0.00     0.031 C 
ATOM     60  C   UNL A   1      44.373  27.181  34.078  1.00  0.00     0.031 A 
BRANCH  47  61
ATOM     61  C   UNL A   1      43.238  25.528  28.241  1.00  0.00    -0.014 A 
ATOM     62  C   UNL A   1      44.187  26.026  27.330  1.00  0.00     0.010 A 
ATOM     63  C   UNL A   1      42.743  24.222  28.072  1.00  0.00     0.010 A 
ATOM     64  C   UNL A   1      44.626  25.235  26.265  1.00  0.00     0.020 A 
ATOM     65  C   UNL A   1      43.197  23.420  27.021  1.00  0.00     0.020 A 
ATOM     66  C   UNL A   1      44.131  23.935  26.121  1.00  0.00     0.054 A 
BRANCH  66  67
ATOM     67  S   UNL A   1      44.765  22.913  24.762  1.00  0.00     0.124 S 
ATOM     68  O   UNL A   1      45.693  23.828  24.103  1.00  0.00    -0.237 OA
ATOM     69  O   UNL A   1      45.382  21.793  25.468  1.00  0.00    -0.237 OA
ATOM     70  O   UNL A   1      43.570  22.578  23.991  1.00  0.00    -0.744 OA
ENDBRANCH  66  67
ENDBRANCH  47  61
BRANCH  48  71
ATOM     71  C   UNL A   1      40.289  31.284  35.856  1.00  0.00    -0.014 A 
ATOM     72  C   UNL A   1      39.032  31.116  36.465  1.00  0.00     0.010 A 
ATOM     73  C   UNL A   1      41.146  32.296  36.324  1.00  0.00     0.010 A 
ATOM     74  C   UNL A   1      38.632  31.959  37.505  1.00  0.00     0.020 A 
ATOM     75  C   UNL A   1      40.759  33.124  37.382  1.00  0.00     0.020 A 
ATOM     76  C   UNL A   1      39.498  32.959  37.957  1.00  0.00     0.054 A 
BRANCH  76  77
ATOM     77  S   UNL A   1      38.968  34.021  39.329  1.00  0.00     0.124 S 
ATOM     78  O   UNL A   1      40.016  33.787  40.317  1.00  0.00    -0.237 OA
ATOM     79  O   UNL A   1      38.962  35.347  38.715  1.00  0.00    -0.237 OA
ATOM     80  O   UNL A   1      37.649  33.498  39.676  1.00  0.00    -0.744 OA
ENDBRANCH  76  77
ENDBRANCH  48  71
BRANCH  60  81
ATOM     81  C   UNL A   1      45.484  26.710  34.978  1.00  0.00    -0.014 A 
ATOM     82  C   UNL A   1      46.741  27.341  34.967  1.00  0.00     0.010 A 
ATOM     83  C   UNL A   1      45.240  25.679  35.903  1.00  0.00     0.010 A 
ATOM     84  C   UNL A   1      47.741  26.933  35.854  1.00  0.00     0.020 A 
ATOM     85  C   UNL A   1      46.230  25.287  36.809  1.00  0.00     0.020 A 
ATOM     86  C   UNL A   1      47.477  25.911  36.772  1.00  0.00     0.054 A 
BRANCH  86  87
ATOM     87  S   UNL A   1      48.775  25.446  37.951  1.00  0.00     0.124 S 
ATOM     88  O   UNL A   1      48.214  24.245  38.563  1.00  0.00    -0.237 OA
ATOM     89  O   UNL A   1      49.931  25.227  37.084  1.00  0.00    -0.237 OA
ATOM     90  O   UNL A   1      48.876  26.607  38.833  1.00  0.00    -0.744 OA
ENDBRANCH  86  87
ENDBRANCH  60  81
ENDBRANCH  34  35
ENDBRANCH  27  29
ENDBRANCH  26  27
ENDBRANCH  25  26
ENDBRANCH   1  25
TORSDOF 18
ENDMDL
MODEL 3
REMARK VINA RESULT:      -9.1      4.764     11.356
REMARK SMILES Cc1cc2c(c(C)c1Br)C=C(C(=O)OCCOCCOC(=O)c1ccc(-c3c4nc(c(-c5ccc(S(=O)(=O)[O-])cc5)c5ccc([nH]5)c(-c5ccc(S(=O)(=O)[O-])cc5)c5nc(c(-c6ccc(S(=O)(=O)[O-])cc6)c6ccc3[nH]6)C=C5)C=C4)cc1)[C@@H](C(F)(F)F)O2
REMARK SMILES IDX 18 1 17 2 16 3 15 4 14 5 12 6 13 7 11 8 1 9 2 10 3 11 8 12
REMARK SMILES IDX 4 13 6 14 9 15 5 16 88 17 7 18 10 19 83 20 84 21 85 22 86 23
REMARK SMILES IDX 87 24 19 25 20 26 21 27 22 28 23 29 24 30 82 31 25 32 81 33
REMARK SMILES IDX 26 34 27 35 28 36 75 37 29 38 80 39 74 40 76 41 30 42 79 43
REMARK SMILES IDX 73 44 72 45 31 47 61 48 42 49 60 50 43 51 46 52 59 53 77 54
REMARK SMILES IDX 44 55 45 56 58 58 78 59 47 60 32 61 33 62 41 63 34 64 40 65
REMARK SMILES IDX 35 66 36 67 37 68 38 69 39 70 62 71 63 72 71 73 64 74 70 75
REMARK SMILES IDX 65 76 66 77 67 78 68 79 69 80 48 81 49 82 57 83 50 84 56 85
REMARK SMILES IDX 51 86 52 87 53 88 54 89 55 90
REMARK H PARENT 76 46 46 57
REMARK Flexibility Score: inf
ROOT
ATOM      1  C   UNL A   1      38.985  22.452  26.185  1.00  0.00     0.202 C 
ENDROOT
BRANCH   1   2
ATOM      2  O   UNL A   1      38.365  21.287  25.639  1.00  0.00    -0.374 OA
BRANCH   2   3
ATOM      3  C   UNL A   1      37.193  21.467  24.844  1.00  0.00     0.202 C 
BRANCH   3   4
ATOM      4  C   UNL A   1      35.902  21.819  25.587  1.00  0.00     0.261 C 
BRANCH   4   5
ATOM      5  O   UNL A   1      35.370  23.082  25.159  1.00  0.00    -0.460 OA
BRANCH   5   6
ATOM      6  C   UNL A   1      34.373  23.564  25.935  1.00  0.00     0.338 C 
ATOM      7  O   UNL A   1      34.134  23.262  27.096  1.00  0.00    -0.246 OA
BRANCH   6   8
ATOM      8  C   UNL A   1      33.664  24.646  25.227  1.00  0.00     0.087 C 
ATOM      9  C   UNL A   1      30.083  29.817  23.782  1.00  0.00     0.046 C 
ATOM     10  C   UNL A   1      31.161  28.892  24.282  1.00  0.00    -0.033 A 
ATOM     11  C   UNL A   1      31.304  27.655  23.637  1.00  0.00     0.051 A 
ATOM     12  C   UNL A   1      31.964  29.171  25.408  1.00  0.00     0.024 A 
ATOM     13  C   UNL A   1      32.186  26.691  24.118  1.00  0.00     0.128 A 
ATOM     14  C   UNL A   1      32.906  28.223  25.879  1.00  0.00    -0.026 A 
ATOM     15  Br  UNL A   1      31.717  30.831  26.330  1.00  0.00    -0.050 Br
ATOM     16  C   UNL A   1      32.962  26.952  25.250  1.00  0.00     0.021 A 
ATOM     17  O   UNL A   1      32.218  25.522  23.410  1.00  0.00    -0.475 OA
ATOM     18  C   UNL A   1      33.833  28.508  27.039  1.00  0.00     0.046 C 
ATOM     19  C   UNL A   1      33.750  25.854  25.799  1.00  0.00     0.027 C 
ATOM     20  C   UNL A   1      32.887  24.363  23.978  1.00  0.00     0.316 C 
BRANCH  20  21
ATOM     21  C   UNL A   1      31.849  23.245  24.163  1.00  0.00     0.430 C 
ATOM     22  F   UNL A   1      31.277  23.308  25.389  1.00  0.00    -0.167 F 
ATOM     23  F   UNL A   1      30.848  23.337  23.259  1.00  0.00    -0.167 F 
ATOM     24  F   UNL A   1      32.405  22.019  24.035  1.00  0.00    -0.167 F 
ENDBRANCH  20  21
ENDBRANCH   6   8
ENDBRANCH   5   6
ENDBRANCH   4   5
ENDBRANCH   3   4
ENDBRANCH   2   3
ENDBRANCH   1   2
BRANCH   1  25
ATOM     25  C   UNL A   1      40.480  22.372  26.516  1.00  0.00     0.261 C 
BRANCH  25  26
ATOM     26  O   UNL A   1      40.879  23.355  27.490  1.00  0.00    -0.460 OA
BRANCH  26  27
ATOM     27  C   UNL A   1      41.371  24.503  26.968  1.00  0.00     0.338 C 
ATOM     28  O   UNL A   1      41.928  24.641  25.886  1.00  0.00    -0.246 OA
BRANCH  27  29
ATOM     29  C   UNL A   1      40.979  25.649  27.804  1.00  0.00     0.060 A 
ATOM     30  C   UNL A   1      41.900  26.695  27.949  1.00  0.00     0.016 A 
ATOM     31  C   UNL A   1      39.772  25.662  28.507  1.00  0.00     0.016 A 
ATOM     32  C   UNL A   1      41.638  27.738  28.833  1.00  0.00     0.010 A 
ATOM     33  C   UNL A   1      39.517  26.704  29.404  1.00  0.00     0.010 A 
ATOM     34  C   UNL A   1      40.464  27.727  29.597  1.00  0.00    -0.014 A 
BRANCH  34  35
ATOM     35  C   UNL A   1      40.307  28.702  30.703  1.00  0.00     0.031 A 
ATOM     36  C   UNL A   1      41.219  28.599  31.897  1.00  0.00     0.074 A 
ATOM     37  C   UNL A   1      39.407  29.699  30.621  1.00  0.00     0.049 A 
ATOM     38  N   UNL A   1      41.254  29.337  32.976  1.00  0.00    -0.248 NA
ATOM     39  C   UNL A   1      42.231  27.529  31.867  1.00  0.00     0.031 C 
ATOM     40  C   UNL A   1      38.515  29.943  29.488  1.00  0.00     0.029 A 
ATOM     41  N   UNL A   1      39.104  30.700  31.508  1.00  0.00    -0.354 N 
ATOM     42  C   UNL A   1      42.292  28.828  33.748  1.00  0.00     0.074 A 
ATOM     43  C   UNL A   1      42.840  27.697  33.031  1.00  0.00     0.031 C 
ATOM     44  C   UNL A   1      37.767  31.029  29.748  1.00  0.00     0.029 A 
ATOM     45  C   UNL A   1      38.103  31.538  31.076  1.00  0.00     0.049 A 
ATOM     46  H   UNL A   1      39.562  30.810  32.374  1.00  0.00     0.167 HD
ATOM     47  C   UNL A   1      42.753  29.269  34.941  1.00  0.00     0.031 A 
ATOM     48  C   UNL A   1      37.515  32.585  31.689  1.00  0.00     0.031 A 
ATOM     49  C   UNL A   1      42.199  30.385  35.659  1.00  0.00     0.049 A 
ATOM     50  C   UNL A   1      37.978  32.987  33.066  1.00  0.00     0.074 A 
ATOM     51  C   UNL A   1      42.592  30.899  36.883  1.00  0.00     0.029 A 
ATOM     52  N   UNL A   1      41.137  31.159  35.221  1.00  0.00    -0.354 N 
ATOM     53  N   UNL A   1      38.954  32.489  33.786  1.00  0.00    -0.248 NA
ATOM     54  C   UNL A   1      37.257  34.094  33.713  1.00  0.00     0.031 C 
ATOM     55  C   UNL A   1      41.734  31.954  37.208  1.00  0.00     0.029 A 
ATOM     56  C   UNL A   1      40.846  32.133  36.159  1.00  0.00     0.049 A 
ATOM     57  H   UNL A   1      40.662  31.036  34.368  1.00  0.00     0.167 HD
ATOM     58  C   UNL A   1      38.981  33.239  34.958  1.00  0.00     0.074 A 
ATOM     59  C   UNL A   1      37.933  34.231  34.846  1.00  0.00     0.031 C 
ATOM     60  C   UNL A   1      39.800  33.115  36.032  1.00  0.00     0.031 A 
BRANCH  47  61
ATOM     61  C   UNL A   1      43.915  28.539  35.558  1.00  0.00    -0.014 A 
ATOM     62  C   UNL A   1      43.703  27.438  36.408  1.00  0.00     0.010 A 
ATOM     63  C   UNL A   1      45.231  28.906  35.223  1.00  0.00     0.010 A 
ATOM     64  C   UNL A   1      44.789  26.723  36.919  1.00  0.00     0.020 A 
ATOM     65  C   UNL A   1      46.318  28.179  35.716  1.00  0.00     0.020 A 
ATOM     66  C   UNL A   1      46.089  27.095  36.566  1.00  0.00     0.054 A 
BRANCH  66  67
ATOM     67  S   UNL A   1      47.475  26.110  37.200  1.00  0.00     0.124 S 
ATOM     68  O   UNL A   1      47.743  26.757  38.482  1.00  0.00    -0.237 OA
ATOM     69  O   UNL A   1      46.902  24.769  37.281  1.00  0.00    -0.237 OA
ATOM     70  O   UNL A   1      48.515  26.281  36.189  1.00  0.00    -0.744 OA
ENDBRANCH  66  67
ENDBRANCH  47  61
BRANCH  48  71
ATOM     71  C   UNL A   1      36.410  33.323  31.019  1.00  0.00    -0.014 A 
ATOM     72  C   UNL A   1      36.608  33.919  29.761  1.00  0.00     0.010 A 
ATOM     73  C   UNL A   1      35.158  33.451  31.647  1.00  0.00     0.010 A 
ATOM     74  C   UNL A   1      35.580  34.649  29.154  1.00  0.00     0.020 A 
ATOM     75  C   UNL A   1      34.120  34.157  31.031  1.00  0.00     0.020 A 
ATOM     76  C   UNL A   1      34.342  34.763  29.794  1.00  0.00     0.054 A 
BRANCH  76  77
ATOM     77  S   UNL A   1      33.016  35.689  28.973  1.00  0.00     0.124 S 
ATOM     78  O   UNL A   1      32.416  34.667  28.120  1.00  0.00    -0.237 OA
ATOM     79  O   UNL A   1      32.199  36.132  30.100  1.00  0.00    -0.237 OA
ATOM     80  O   UNL A   1      33.726  36.755  28.271  1.00  0.00    -0.744 OA
ENDBRANCH  76  77
ENDBRANCH  48  71
BRANCH  60  81
ATOM     81  C   UNL A   1      39.620  34.089  37.166  1.00  0.00    -0.014 A 
ATOM     82  C   UNL A   1      38.897  33.734  38.318  1.00  0.00     0.010 A 
ATOM     83  C   UNL A   1      40.253  35.345  37.111  1.00  0.00     0.010 A 
ATOM     84  C   UNL A   1      38.793  34.627  39.388  1.00  0.00     0.020 A 
ATOM     85  C   UNL A   1      40.173  36.229  38.190  1.00  0.00     0.020 A 
ATOM     86  C   UNL A   1      39.436  35.867  39.318  1.00  0.00     0.054 A 
BRANCH  86  87
ATOM     87  S   UNL A   1      39.334  36.980  40.748  1.00  0.00     0.124 S 
ATOM     88  O   UNL A   1      40.742  37.228  41.042  1.00  0.00    -0.237 OA
ATOM     89  O   UNL A   1      38.594  38.121  40.213  1.00  0.00    -0.237 OA
ATOM     90  O   UNL A   1      38.616  36.194  41.749  1.00  0.00    -0.744 OA
ENDBRANCH  86  87
ENDBRANCH  60  81
ENDBRANCH  34  35
ENDBRANCH  27  29
ENDBRANCH  26  27
ENDBRANCH  25  26
ENDBRANCH   1  25
TORSDOF 18
ENDMDL
