MODEL 1
REMARK VINA RESULT:     -11.9      0.000      0.000
REMARK SMILES O=C(OCCOCCOC(=O)c1ccc(-c2c3nc(c(-c4ccc(S(=O)(=O)[O-])cc4)c4ccc([nH]4)c(-c4ccc(S(=O)(=O)[O-])cc4)c4nc(c(-c5ccc(S(=O)(=O)[O-])cc5)c5ccc2[nH]5)C=C4)C=C3)cc1)C1=Cc2cc(S(F)(F)(F)(F)F)cc(Br)c2O[C@@H]1C(F)(F)F
REMARK SMILES IDX 7 1 6 2 5 3 4 4 3 5 2 6 1 7 72 8 73 9 88 10 74 11 87 12
REMARK SMILES IDX 75 13 86 14 76 15 84 16 83 17 85 18 89 19 90 20 91 21 92 22
REMARK SMILES IDX 77 23 78 24 79 25 80 26 81 27 82 28 8 29 9 30 10 31 11 32
REMARK SMILES IDX 12 33 13 34 71 35 14 36 70 37 15 38 16 39 17 40 64 41 18 42
REMARK SMILES IDX 69 43 63 44 65 45 19 46 68 47 62 48 61 49 20 51 50 52 31 53
REMARK SMILES IDX 49 54 32 55 35 56 48 57 66 58 33 59 34 60 47 62 67 63 36 64
REMARK SMILES IDX 21 65 22 66 30 67 23 68 29 69 24 70 25 71 26 72 27 73 28 74
REMARK SMILES IDX 51 75 52 76 60 77 53 78 59 79 54 80 55 81 56 82 57 83 58 84
REMARK SMILES IDX 37 85 38 86 46 87 39 88 45 89 40 90 41 91 42 92 43 93 44 94
REMARK H PARENT 65 50 35 61
REMARK Flexibility Score: inf
ROOT
ATOM      1  C   UNL A   1      33.678  28.397  25.512  1.00  0.00     0.202 C 
ENDROOT
BRANCH   1   2
ATOM      2  O   UNL A   1      33.799  27.032  25.140  1.00  0.00    -0.374 OA
BRANCH   2   3
ATOM      3  C   UNL A   1      33.058  26.798  23.951  1.00  0.00     0.202 C 
BRANCH   3   4
ATOM      4  C   UNL A   1      33.734  25.705  23.140  1.00  0.00     0.261 C 
BRANCH   4   5
ATOM      5  O   UNL A   1      33.805  24.517  23.914  1.00  0.00    -0.460 OA
BRANCH   5   6
ATOM      6  C   UNL A   1      32.965  23.416  23.605  1.00  0.00     0.338 C 
ATOM      7  O   UNL A   1      33.210  22.695  22.587  1.00  0.00    -0.246 OA
BRANCH   6   8
ATOM      8  C   UNL A   1      31.771  23.097  24.491  1.00  0.00     0.087 C 
ATOM      9  C   UNL A   1      31.683  21.886  25.103  1.00  0.00     0.027 C 
ATOM     10  C   UNL A   1      30.677  24.132  24.693  1.00  0.00     0.316 C 
ATOM     11  C   UNL A   1      32.777  20.851  24.901  1.00  0.00     0.020 A 
ATOM     12  O   UNL A   1      34.242  22.696  25.212  1.00  0.00    -0.474 OA
ATOM     13  C   UNL A   1      32.521  19.540  24.534  1.00  0.00     0.036 A 
ATOM     14  C   UNL A   1      34.020  21.311  24.991  1.00  0.00     0.142 A 
ATOM     15  C   UNL A   1      33.663  18.704  24.561  1.00  0.00     0.109 A 
ATOM     16  C   UNL A   1      35.091  20.459  24.872  1.00  0.00     0.062 A 
ATOM     17  C   UNL A   1      34.910  19.139  24.568  1.00  0.00     0.044 A 
ATOM     18  Br  UNL A   1      36.906  21.148  25.141  1.00  0.00    -0.047 Br
BRANCH  10  19
ATOM     19  C   UNL A   1      30.570  24.475  26.171  1.00  0.00     0.430 C 
ATOM     20  F   UNL A   1      29.819  23.565  26.784  1.00  0.00    -0.167 F 
ATOM     21  F   UNL A   1      31.785  24.486  26.713  1.00  0.00    -0.167 F 
ATOM     22  F   UNL A   1      30.013  25.674  26.308  1.00  0.00    -0.167 F 
ENDBRANCH  10  19
BRANCH  15  23
ATOM     23  S   UNL A   1      33.395  16.914  24.586  1.00  0.00     0.310 S 
ATOM     24  F   UNL A   1      34.919  16.617  24.913  1.00  0.00    -0.094 F 
ATOM     25  F   UNL A   1      33.782  16.858  23.060  1.00  0.00    -0.094 F 
ATOM     26  F   UNL A   1      33.155  15.378  24.611  1.00  0.00    -0.094 F 
ATOM     27  F   UNL A   1      33.148  16.970  26.145  1.00  0.00    -0.094 F 
ATOM     28  F   UNL A   1      33.746  18.455  24.602  1.00  0.00    -0.094 F 
ENDBRANCH  15  23
ENDBRANCH   6   8
ENDBRANCH   5   6
ENDBRANCH   4   5
ENDBRANCH   3   4
ENDBRANCH   2   3
ENDBRANCH   1   2
BRANCH   1  29
ATOM     29  C   UNL A   1      33.825  28.527  27.019  1.00  0.00     0.261 C 
BRANCH  29  30
ATOM     30  O   UNL A   1      33.511  29.855  27.412  1.00  0.00    -0.460 OA
BRANCH  30  31
ATOM     31  C   UNL A   1      34.475  30.639  28.099  1.00  0.00     0.338 C 
ATOM     32  O   UNL A   1      34.142  31.754  28.610  1.00  0.00    -0.246 OA
BRANCH  31  33
ATOM     33  C   UNL A   1      35.907  30.145  28.221  1.00  0.00     0.060 A 
ATOM     34  C   UNL A   1      36.865  30.320  27.236  1.00  0.00     0.016 A 
ATOM     35  C   UNL A   1      36.226  29.651  29.411  1.00  0.00     0.016 A 
ATOM     36  C   UNL A   1      38.093  29.671  27.507  1.00  0.00     0.010 A 
ATOM     37  C   UNL A   1      37.486  29.157  29.649  1.00  0.00     0.010 A 
ATOM     38  C   UNL A   1      38.466  29.244  28.701  1.00  0.00    -0.014 A 
BRANCH  38  39
ATOM     39  C   UNL A   1      39.908  28.868  29.001  1.00  0.00     0.031 A 
ATOM     40  C   UNL A   1      40.280  27.570  28.652  1.00  0.00     0.074 A 
ATOM     41  C   UNL A   1      40.713  29.738  29.718  1.00  0.00     0.049 A 
ATOM     42  N   UNL A   1      41.440  26.961  28.901  1.00  0.00    -0.248 NA
ATOM     43  C   UNL A   1      39.414  26.633  27.921  1.00  0.00     0.031 C 
ATOM     44  C   UNL A   1      40.349  31.053  30.067  1.00  0.00     0.029 A 
ATOM     45  N   UNL A   1      41.976  29.505  30.214  1.00  0.00    -0.354 N 
ATOM     46  C   UNL A   1      41.431  25.726  28.393  1.00  0.00     0.074 A 
ATOM     47  C   UNL A   1      40.125  25.495  27.761  1.00  0.00     0.031 C 
ATOM     48  C   UNL A   1      41.372  31.600  30.772  1.00  0.00     0.029 A 
ATOM     49  C   UNL A   1      42.394  30.638  30.876  1.00  0.00     0.049 A 
ATOM     50  H   UNL A   1      42.492  28.673  30.112  1.00  0.00     0.167 HD
ATOM     51  C   UNL A   1      42.461  24.785  28.431  1.00  0.00     0.031 A 
ATOM     52  C   UNL A   1      43.594  30.840  31.540  1.00  0.00     0.031 A 
ATOM     53  C   UNL A   1      43.678  25.002  29.059  1.00  0.00     0.049 A 
ATOM     54  C   UNL A   1      44.602  29.877  31.629  1.00  0.00     0.074 A 
ATOM     55  C   UNL A   1      44.730  24.066  29.100  1.00  0.00     0.029 A 
ATOM     56  N   UNL A   1      44.086  26.126  29.743  1.00  0.00    -0.354 N 
ATOM     57  N   UNL A   1      44.608  28.657  31.089  1.00  0.00    -0.248 NA
ATOM     58  C   UNL A   1      45.863  30.067  32.358  1.00  0.00     0.031 C 
ATOM     59  C   UNL A   1      45.755  24.615  29.806  1.00  0.00     0.029 A 
ATOM     60  C   UNL A   1      45.358  25.902  30.219  1.00  0.00     0.049 A 
ATOM     61  H   UNL A   1      43.559  26.948  29.869  1.00  0.00     0.167 HD
ATOM     62  C   UNL A   1      45.753  28.034  31.373  1.00  0.00     0.074 A 
ATOM     63  C   UNL A   1      46.573  28.929  32.200  1.00  0.00     0.031 C 
ATOM     64  C   UNL A   1      46.148  26.756  30.973  1.00  0.00     0.031 A 
BRANCH  51  65
ATOM     65  C   UNL A   1      42.236  23.447  27.747  1.00  0.00    -0.014 A 
ATOM     66  C   UNL A   1      41.536  22.437  28.386  1.00  0.00     0.010 A 
ATOM     67  C   UNL A   1      42.871  23.227  26.603  1.00  0.00     0.010 A 
ATOM     68  C   UNL A   1      41.808  21.143  27.881  1.00  0.00     0.020 A 
ATOM     69  C   UNL A   1      42.983  21.954  26.098  1.00  0.00     0.020 A 
ATOM     70  C   UNL A   1      42.367  20.898  26.710  1.00  0.00     0.054 A 
BRANCH  70  71
ATOM     71  S   UNL A   1      42.318  19.254  25.956  1.00  0.00     0.124 S 
ATOM     72  O   UNL A   1      42.877  18.223  26.941  1.00  0.00    -0.237 OA
ATOM     73  O   UNL A   1      40.872  18.894  25.608  1.00  0.00    -0.237 OA
ATOM     74  O   UNL A   1      43.264  19.251  24.532  1.00  0.00    -0.744 OA
ENDBRANCH  70  71
ENDBRANCH  51  65
BRANCH  52  75
ATOM     75  C   UNL A   1      43.825  32.184  32.211  1.00  0.00    -0.014 A 
ATOM     76  C   UNL A   1      43.527  32.425  33.542  1.00  0.00     0.010 A 
ATOM     77  C   UNL A   1      44.478  33.078  31.479  1.00  0.00     0.010 A 
ATOM     78  C   UNL A   1      43.708  33.772  33.935  1.00  0.00     0.020 A 
ATOM     79  C   UNL A   1      44.741  34.332  31.976  1.00  0.00     0.020 A 
ATOM     80  C   UNL A   1      44.420  34.660  33.264  1.00  0.00     0.054 A 
BRANCH  80  81
ATOM     81  S   UNL A   1      44.942  36.223  34.009  1.00  0.00     0.124 S 
ATOM     82  O   UNL A   1      46.267  36.669  33.386  1.00  0.00    -0.237 OA
ATOM     83  O   UNL A   1      43.875  37.291  33.757  1.00  0.00    -0.237 OA
ATOM     84  O   UNL A   1      45.147  36.010  35.694  1.00  0.00    -0.744 OA
ENDBRANCH  80  81
ENDBRANCH  52  75
BRANCH  64  85
ATOM     85  C   UNL A   1      47.526  26.272  31.391  1.00  0.00    -0.014 A 
ATOM     86  C   UNL A   1      48.655  26.474  30.614  1.00  0.00     0.010 A 
ATOM     87  C   UNL A   1      47.608  25.701  32.588  1.00  0.00     0.010 A 
ATOM     88  C   UNL A   1      49.797  25.774  31.067  1.00  0.00     0.020 A 
ATOM     89  C   UNL A   1      48.791  25.157  33.024  1.00  0.00     0.020 A 
ATOM     90  C   UNL A   1      49.933  25.268  32.281  1.00  0.00     0.054 A 
BRANCH  90  91
ATOM     91  S   UNL A   1      51.544  24.751  32.923  1.00  0.00     0.124 S 
ATOM     92  O   UNL A   1      51.785  25.408  34.284  1.00  0.00    -0.237 OA
ATOM     93  O   UNL A   1      51.565  23.229  33.081  1.00  0.00    -0.237 OA
ATOM     94  O   UNL A   1      52.772  25.229  31.833  1.00  0.00    -0.744 OA
ENDBRANCH  90  91
ENDBRANCH  64  85
ENDBRANCH  38  39
ENDBRANCH  31  33
ENDBRANCH  30  31
ENDBRANCH  29  30
ENDBRANCH   1  29
TORSDOF 19
ENDMDL
MODEL 2
REMARK VINA RESULT:     -11.7      3.559      8.755
REMARK SMILES O=C(OCCOCCOC(=O)c1ccc(-c2c3nc(c(-c4ccc(S(=O)(=O)[O-])cc4)c4ccc([nH]4)c(-c4ccc(S(=O)(=O)[O-])cc4)c4nc(c(-c5ccc(S(=O)(=O)[O-])cc5)c5ccc2[nH]5)C=C4)C=C3)cc1)C1=Cc2cc(S(F)(F)(F)(F)F)cc(Br)c2O[C@@H]1C(F)(F)F
REMARK SMILES IDX 7 1 6 2 5 3 4 4 3 5 2 6 1 7 72 8 73 9 88 10 74 11 87 12
REMARK SMILES IDX 75 13 86 14 76 15 84 16 83 17 85 18 89 19 90 20 91 21 92 22
REMARK SMILES IDX 77 23 78 24 79 25 80 26 81 27 82 28 8 29 9 30 10 31 11 32
REMARK SMILES IDX 12 33 13 34 71 35 14 36 70 37 15 38 16 39 17 40 64 41 18 42
REMARK SMILES IDX 69 43 63 44 65 45 19 46 68 47 62 48 61 49 20 51 50 52 31 53
REMARK SMILES IDX 49 54 32 55 35 56 48 57 66 58 33 59 34 60 47 62 67 63 36 64
REMARK SMILES IDX 21 65 22 66 30 67 23 68 29 69 24 70 25 71 26 72 27 73 28 74
REMARK SMILES IDX 51 75 52 76 60 77 53 78 59 79 54 80 55 81 56 82 57 83 58 84
REMARK SMILES IDX 37 85 38 86 46 87 39 88 45 89 40 90 41 91 42 92 43 93 44 94
REMARK H PARENT 65 50 35 61
REMARK Flexibility Score: inf
ROOT
ATOM      1  C   UNL A   1      35.537  22.506  24.166  1.00  0.00     0.202 C 
ENDROOT
BRANCH   1   2
ATOM      2  O   UNL A   1      35.376  22.954  22.828  1.00  0.00    -0.374 OA
BRANCH   2   3
ATOM      3  C   UNL A   1      34.095  23.548  22.678  1.00  0.00     0.202 C 
BRANCH   3   4
ATOM      4  C   UNL A   1      34.014  24.799  23.538  1.00  0.00     0.261 C 
BRANCH   4   5
ATOM      5  O   UNL A   1      32.760  25.433  23.332  1.00  0.00    -0.460 OA
BRANCH   5   6
ATOM      6  C   UNL A   1      31.599  24.937  23.980  1.00  0.00     0.338 C 
ATOM      7  O   UNL A   1      30.504  24.847  23.341  1.00  0.00    -0.246 OA
BRANCH   6   8
ATOM      8  C   UNL A   1      31.665  24.513  25.439  1.00  0.00     0.087 C 
ATOM      9  C   UNL A   1      31.937  25.432  26.403  1.00  0.00     0.027 C 
ATOM     10  C   UNL A   1      31.428  23.061  25.818  1.00  0.00     0.316 C 
ATOM     11  C   UNL A   1      32.174  26.885  26.022  1.00  0.00     0.020 A 
ATOM     12  O   UNL A   1      30.296  26.565  24.601  1.00  0.00    -0.474 OA
ATOM     13  C   UNL A   1      33.270  27.612  26.457  1.00  0.00     0.036 A 
ATOM     14  C   UNL A   1      31.314  27.392  25.146  1.00  0.00     0.142 A 
ATOM     15  C   UNL A   1      33.213  28.986  26.124  1.00  0.00     0.109 A 
ATOM     16  C   UNL A   1      31.401  28.708  24.762  1.00  0.00     0.062 A 
ATOM     17  C   UNL A   1      32.424  29.502  25.198  1.00  0.00     0.044 A 
ATOM     18  Br  UNL A   1      30.037  29.458  23.570  1.00  0.00    -0.047 Br
BRANCH  10  19
ATOM     19  C   UNL A   1      30.235  22.971  26.758  1.00  0.00     0.430 C 
ATOM     20  F   UNL A   1      29.513  24.084  26.665  1.00  0.00    -0.167 F 
ATOM     21  F   UNL A   1      29.485  21.925  26.423  1.00  0.00    -0.167 F 
ATOM     22  F   UNL A   1      30.666  22.825  28.007  1.00  0.00    -0.167 F 
ENDBRANCH  10  19
BRANCH  15  23
ATOM     23  S   UNL A   1      34.299  30.117  27.029  1.00  0.00     0.310 S 
ATOM     24  F   UNL A   1      34.471  29.102  28.236  1.00  0.00    -0.094 F 
ATOM     25  F   UNL A   1      33.039  30.690  27.779  1.00  0.00    -0.094 F 
ATOM     26  F   UNL A   1      35.236  31.093  27.797  1.00  0.00    -0.094 F 
ATOM     27  F   UNL A   1      35.563  29.435  26.371  1.00  0.00    -0.094 F 
ATOM     28  F   UNL A   1      33.374  29.045  26.327  1.00  0.00    -0.094 F 
ENDBRANCH  15  23
ENDBRANCH   6   8
ENDBRANCH   5   6
ENDBRANCH   4   5
ENDBRANCH   3   4
ENDBRANCH   2   3
ENDBRANCH   1   2
BRANCH   1  29
ATOM     29  C   UNL A   1      37.018  22.383  24.484  1.00  0.00     0.261 C 
BRANCH  29  30
ATOM     30  O   UNL A   1      37.365  23.321  25.494  1.00  0.00    -0.460 OA
BRANCH  30  31
ATOM     31  C   UNL A   1      38.598  23.194  26.186  1.00  0.00     0.338 C 
ATOM     32  O   UNL A   1      39.147  22.055  26.305  1.00  0.00    -0.246 OA
BRANCH  31  33
ATOM     33  C   UNL A   1      39.260  24.423  26.787  1.00  0.00     0.060 A 
ATOM     34  C   UNL A   1      40.047  25.302  26.062  1.00  0.00     0.016 A 
ATOM     35  C   UNL A   1      38.915  24.684  28.043  1.00  0.00     0.016 A 
ATOM     36  C   UNL A   1      40.664  26.304  26.848  1.00  0.00     0.010 A 
ATOM     37  C   UNL A   1      39.453  25.759  28.707  1.00  0.00     0.010 A 
ATOM     38  C   UNL A   1      40.284  26.636  28.069  1.00  0.00    -0.014 A 
BRANCH  38  39
ATOM     39  C   UNL A   1      40.749  27.925  28.728  1.00  0.00     0.031 A 
ATOM     40  C   UNL A   1      42.046  27.907  29.243  1.00  0.00     0.074 A 
ATOM     41  C   UNL A   1      39.853  28.964  28.921  1.00  0.00     0.049 A 
ATOM     42  N   UNL A   1      42.651  28.859  29.955  1.00  0.00    -0.248 NA
ATOM     43  C   UNL A   1      42.986  26.790  29.069  1.00  0.00     0.031 C 
ATOM     44  C   UNL A   1      38.546  28.993  28.398  1.00  0.00     0.029 A 
ATOM     45  N   UNL A   1      40.049  30.127  29.631  1.00  0.00    -0.354 N 
ATOM     46  C   UNL A   1      43.900  28.488  30.252  1.00  0.00     0.074 A 
ATOM     47  C   UNL A   1      44.130  27.150  29.692  1.00  0.00     0.031 C 
ATOM     48  C   UNL A   1      37.959  30.151  28.796  1.00  0.00     0.029 A 
ATOM     49  C   UNL A   1      38.889  30.866  29.574  1.00  0.00     0.049 A 
ATOM     50  H   UNL A   1      40.877  30.386  30.098  1.00  0.00     0.167 HD
ATOM     51  C   UNL A   1      44.853  29.215  30.966  1.00  0.00     0.031 A 
ATOM     52  C   UNL A   1      38.635  32.095  30.162  1.00  0.00     0.031 A 
ATOM     53  C   UNL A   1      44.614  30.463  31.518  1.00  0.00     0.049 A 
ATOM     54  C   UNL A   1      39.571  32.796  30.926  1.00  0.00     0.074 A 
ATOM     55  C   UNL A   1      45.567  31.212  32.234  1.00  0.00     0.029 A 
ATOM     56  N   UNL A   1      43.445  31.191  31.483  1.00  0.00    -0.354 N 
ATOM     57  N   UNL A   1      40.830  32.444  31.191  1.00  0.00    -0.248 NA
ATOM     58  C   UNL A   1      39.303  34.084  31.582  1.00  0.00     0.031 C 
ATOM     59  C   UNL A   1      44.979  32.372  32.633  1.00  0.00     0.029 A 
ATOM     60  C   UNL A   1      43.648  32.365  32.173  1.00  0.00     0.049 A 
ATOM     61  H   UNL A   1      42.609  30.919  31.040  1.00  0.00     0.167 HD
ATOM     62  C   UNL A   1      41.422  33.377  31.938  1.00  0.00     0.074 A 
ATOM     63  C   UNL A   1      40.446  34.442  32.207  1.00  0.00     0.031 C 
ATOM     64  C   UNL A   1      42.738  33.387  32.403  1.00  0.00     0.031 A 
BRANCH  51  65
ATOM     65  C   UNL A   1      46.232  28.602  31.149  1.00  0.00    -0.014 A 
ATOM     66  C   UNL A   1      47.247  28.866  30.244  1.00  0.00     0.010 A 
ATOM     67  C   UNL A   1      46.377  27.685  32.098  1.00  0.00     0.010 A 
ATOM     68  C   UNL A   1      48.279  27.899  30.242  1.00  0.00     0.020 A 
ATOM     69  C   UNL A   1      47.477  26.862  32.113  1.00  0.00     0.020 A 
ATOM     70  C   UNL A   1      48.492  27.028  31.212  1.00  0.00     0.054 A 
BRANCH  70  71
ATOM     71  S   UNL A   1      50.042  26.104  31.341  1.00  0.00     0.124 S 
ATOM     72  O   UNL A   1      51.084  26.954  32.072  1.00  0.00    -0.237 OA
ATOM     73  O   UNL A   1      49.801  24.810  32.122  1.00  0.00    -0.237 OA
ATOM     74  O   UNL A   1      50.612  25.725  29.774  1.00  0.00    -0.744 OA
ENDBRANCH  70  71
ENDBRANCH  51  65
BRANCH  52  75
ATOM     75  C   UNL A   1      37.261  32.715  29.966  1.00  0.00    -0.014 A 
ATOM     76  C   UNL A   1      36.204  32.502  30.836  1.00  0.00     0.010 A 
ATOM     77  C   UNL A   1      37.175  33.604  28.983  1.00  0.00     0.010 A 
ATOM     78  C   UNL A   1      34.984  33.074  30.406  1.00  0.00     0.020 A 
ATOM     79  C   UNL A   1      35.983  34.227  28.705  1.00  0.00     0.020 A 
ATOM     80  C   UNL A   1      34.880  34.017  29.487  1.00  0.00     0.054 A 
BRANCH  80  81
ATOM     81  S   UNL A   1      33.363  34.980  29.276  1.00  0.00     0.124 S 
ATOM     82  O   UNL A   1      32.455  34.285  28.259  1.00  0.00    -0.237 OA
ATOM     83  O   UNL A   1      32.636  35.090  30.619  1.00  0.00    -0.237 OA
ATOM     84  O   UNL A   1      33.757  36.546  28.712  1.00  0.00    -0.744 OA
ENDBRANCH  80  81
ENDBRANCH  52  75
BRANCH  64  85
ATOM     85  C   UNL A   1      43.202  34.587  33.210  1.00  0.00    -0.014 A 
ATOM     86  C   UNL A   1      42.950  34.716  34.566  1.00  0.00     0.010 A 
ATOM     87  C   UNL A   1      43.933  35.484  32.558  1.00  0.00     0.010 A 
ATOM     88  C   UNL A   1      43.275  35.988  35.092  1.00  0.00     0.020 A 
ATOM     89  C   UNL A   1      44.332  36.644  33.175  1.00  0.00     0.020 A 
ATOM     90  C   UNL A   1      44.066  36.864  34.498  1.00  0.00     0.054 A 
BRANCH  90  91
ATOM     91  S   UNL A   1      44.760  38.279  35.388  1.00  0.00     0.124 S 
ATOM     92  O   UNL A   1      43.989  39.547  35.010  1.00  0.00    -0.237 OA
ATOM     93  O   UNL A   1      44.643  38.042  36.895  1.00  0.00    -0.237 OA
ATOM     94  O   UNL A   1      46.406  38.466  34.966  1.00  0.00    -0.744 OA
ENDBRANCH  90  91
ENDBRANCH  64  85
ENDBRANCH  38  39
ENDBRANCH  31  33
ENDBRANCH  30  31
ENDBRANCH  29  30
ENDBRANCH   1  29
TORSDOF 19
ENDMDL
MODEL 3
REMARK VINA RESULT:     -11.7      0.921      8.009
REMARK SMILES O=C(OCCOCCOC(=O)c1ccc(-c2c3nc(c(-c4ccc(S(=O)(=O)[O-])cc4)c4ccc([nH]4)c(-c4ccc(S(=O)(=O)[O-])cc4)c4nc(c(-c5ccc(S(=O)(=O)[O-])cc5)c5ccc2[nH]5)C=C4)C=C3)cc1)C1=Cc2cc(S(F)(F)(F)(F)F)cc(Br)c2O[C@@H]1C(F)(F)F
REMARK SMILES IDX 7 1 6 2 5 3 4 4 3 5 2 6 1 7 72 8 73 9 88 10 74 11 87 12
REMARK SMILES IDX 75 13 86 14 76 15 84 16 83 17 85 18 89 19 90 20 91 21 92 22
REMARK SMILES IDX 77 23 78 24 79 25 80 26 81 27 82 28 8 29 9 30 10 31 11 32
REMARK SMILES IDX 12 33 13 34 71 35 14 36 70 37 15 38 16 39 17 40 64 41 18 42
REMARK SMILES IDX 69 43 63 44 65 45 19 46 68 47 62 48 61 49 20 51 50 52 31 53
REMARK SMILES IDX 49 54 32 55 35 56 48 57 66 58 33 59 34 60 47 62 67 63 36 64
REMARK SMILES IDX 21 65 22 66 30 67 23 68 29 69 24 70 25 71 26 72 27 73 28 74
REMARK SMILES IDX 51 75 52 76 60 77 53 78 59 79 54 80 55 81 56 82 57 83 58 84
REMARK SMILES IDX 37 85 38 86 46 87 39 88 45 89 40 90 41 91 42 92 43 93 44 94
REMARK H PARENT 65 50 35 61
REMARK Flexibility Score: inf
ROOT
ATOM      1  C   UNL A   1      32.300  27.854  25.729  1.00  0.00     0.202 C 
ENDROOT
BRANCH   1   2
ATOM      2  O   UNL A   1      33.261  26.978  25.156  1.00  0.00    -0.374 OA
BRANCH   2   3
ATOM      3  C   UNL A   1      33.272  27.147  23.746  1.00  0.00     0.202 C 
BRANCH   3   4
ATOM      4  C   UNL A   1      33.844  25.899  23.092  1.00  0.00     0.261 C 
BRANCH   4   5
ATOM      5  O   UNL A   1      33.763  24.810  23.999  1.00  0.00    -0.460 OA
BRANCH   5   6
ATOM      6  C   UNL A   1      33.004  23.659  23.660  1.00  0.00     0.338 C 
ATOM      7  O   UNL A   1      33.336  22.951  22.658  1.00  0.00    -0.246 OA
BRANCH   6   8
ATOM      8  C   UNL A   1      31.795  23.272  24.497  1.00  0.00     0.087 C 
ATOM      9  C   UNL A   1      31.744  22.051  25.094  1.00  0.00     0.027 C 
ATOM     10  C   UNL A   1      30.644  24.249  24.665  1.00  0.00     0.316 C 
ATOM     11  C   UNL A   1      32.896  21.074  24.925  1.00  0.00     0.020 A 
ATOM     12  O   UNL A   1      34.253  22.986  25.309  1.00  0.00    -0.474 OA
ATOM     13  C   UNL A   1      32.720  19.756  24.537  1.00  0.00     0.036 A 
ATOM     14  C   UNL A   1      34.109  21.594  25.067  1.00  0.00     0.142 A 
ATOM     15  C   UNL A   1      33.900  18.978  24.601  1.00  0.00     0.109 A 
ATOM     16  C   UNL A   1      35.226  20.799  24.983  1.00  0.00     0.062 A 
ATOM     17  C   UNL A   1      35.123  19.474  24.660  1.00  0.00     0.044 A 
ATOM     18  Br  UNL A   1      36.992  21.573  25.328  1.00  0.00    -0.047 Br
BRANCH  10  19
ATOM     19  C   UNL A   1      30.463  24.570  26.141  1.00  0.00     0.430 C 
ATOM     20  F   UNL A   1      29.787  25.708  26.267  1.00  0.00    -0.167 F 
ATOM     21  F   UNL A   1      29.788  23.586  26.729  1.00  0.00    -0.167 F 
ATOM     22  F   UNL A   1      31.655  24.696  26.715  1.00  0.00    -0.167 F 
ENDBRANCH  10  19
BRANCH  15  23
ATOM     23  S   UNL A   1      33.722  17.177  24.599  1.00  0.00     0.310 S 
ATOM     24  F   UNL A   1      32.205  17.254  24.140  1.00  0.00    -0.094 F 
ATOM     25  F   UNL A   1      33.204  17.250  26.085  1.00  0.00    -0.094 F 
ATOM     26  F   UNL A   1      33.578  15.628  24.597  1.00  0.00    -0.094 F 
ATOM     27  F   UNL A   1      34.107  17.136  23.068  1.00  0.00    -0.094 F 
ATOM     28  F   UNL A   1      33.762  18.756  24.552  1.00  0.00    -0.094 F 
ENDBRANCH  15  23
ENDBRANCH   6   8
ENDBRANCH   5   6
ENDBRANCH   4   5
ENDBRANCH   3   4
ENDBRANCH   2   3
ENDBRANCH   1   2
BRANCH   1  29
ATOM     29  C   UNL A   1      32.963  29.177  26.074  1.00  0.00     0.261 C 
BRANCH  29  30
ATOM     30  O   UNL A   1      33.491  29.113  27.392  1.00  0.00    -0.460 OA
BRANCH  30  31
ATOM     31  C   UNL A   1      34.283  30.180  27.891  1.00  0.00     0.338 C 
ATOM     32  O   UNL A   1      33.809  31.358  27.936  1.00  0.00    -0.246 OA
BRANCH  31  33
ATOM     33  C   UNL A   1      35.700  29.912  28.372  1.00  0.00     0.060 A 
ATOM     34  C   UNL A   1      36.005  29.462  29.645  1.00  0.00     0.016 A 
ATOM     35  C   UNL A   1      36.633  30.002  27.432  1.00  0.00     0.016 A 
ATOM     36  C   UNL A   1      37.393  29.402  29.916  1.00  0.00     0.010 A 
ATOM     37  C   UNL A   1      37.957  29.797  27.738  1.00  0.00     0.010 A 
ATOM     38  C   UNL A   1      38.337  29.408  28.992  1.00  0.00    -0.014 A 
BRANCH  38  39
ATOM     39  C   UNL A   1      39.768  29.004  29.306  1.00  0.00     0.031 A 
ATOM     40  C   UNL A   1      40.568  30.001  29.866  1.00  0.00     0.074 A 
ATOM     41  C   UNL A   1      40.242  27.768  28.901  1.00  0.00     0.049 A 
ATOM     42  N   UNL A   1      41.873  29.941  30.135  1.00  0.00    -0.248 NA
ATOM     43  C   UNL A   1      40.073  31.327  30.266  1.00  0.00     0.031 C 
ATOM     44  C   UNL A   1      39.439  26.753  28.343  1.00  0.00     0.029 A 
ATOM     45  N   UNL A   1      41.536  27.299  28.956  1.00  0.00    -0.354 N 
ATOM     46  C   UNL A   1      42.283  31.086  30.687  1.00  0.00     0.074 A 
ATOM     47  C   UNL A   1      41.132  31.996  30.773  1.00  0.00     0.031 C 
ATOM     48  C   UNL A   1      40.240  25.694  28.056  1.00  0.00     0.029 A 
ATOM     49  C   UNL A   1      41.555  26.026  28.430  1.00  0.00     0.049 A 
ATOM     50  H   UNL A   1      42.312  27.789  29.311  1.00  0.00     0.167 HD
ATOM     51  C   UNL A   1      43.569  31.406  31.122  1.00  0.00     0.031 A 
ATOM     52  C   UNL A   1      42.648  25.188  28.275  1.00  0.00     0.031 A 
ATOM     53  C   UNL A   1      44.655  30.552  31.006  1.00  0.00     0.049 A 
ATOM     54  C   UNL A   1      43.947  25.531  28.657  1.00  0.00     0.074 A 
ATOM     55  C   UNL A   1      45.957  30.855  31.447  1.00  0.00     0.029 A 
ATOM     56  N   UNL A   1      44.679  29.288  30.457  1.00  0.00    -0.354 N 
ATOM     57  N   UNL A   1      44.349  26.660  29.243  1.00  0.00    -0.248 NA
ATOM     58  C   UNL A   1      45.119  24.664  28.468  1.00  0.00     0.031 C 
ATOM     59  C   UNL A   1      46.758  29.794  31.160  1.00  0.00     0.029 A 
ATOM     60  C   UNL A   1      45.968  28.810  30.534  1.00  0.00     0.049 A 
ATOM     61  H   UNL A   1      43.908  28.810  30.076  1.00  0.00     0.167 HD
ATOM     62  C   UNL A   1      45.663  26.615  29.475  1.00  0.00     0.074 A 
ATOM     63  C   UNL A   1      46.178  25.335  28.972  1.00  0.00     0.031 C 
ATOM     64  C   UNL A   1      46.452  27.589  30.088  1.00  0.00     0.031 A 
BRANCH  51  65
ATOM     65  C   UNL A   1      43.794  32.768  31.759  1.00  0.00    -0.014 A 
ATOM     66  C   UNL A   1      44.243  33.835  31.000  1.00  0.00     0.010 A 
ATOM     67  C   UNL A   1      43.709  32.850  33.081  1.00  0.00     0.010 A 
ATOM     68  C   UNL A   1      44.857  34.859  31.758  1.00  0.00     0.020 A 
ATOM     69  C   UNL A   1      44.210  33.942  33.747  1.00  0.00     0.020 A 
ATOM     70  C   UNL A   1      44.723  35.009  33.063  1.00  0.00     0.054 A 
BRANCH  70  71
ATOM     71  S   UNL A   1      45.192  36.543  33.901  1.00  0.00     0.124 S 
ATOM     72  O   UNL A   1      46.423  36.292  34.774  1.00  0.00    -0.237 OA
ATOM     73  O   UNL A   1      45.516  37.615  32.858  1.00  0.00    -0.237 OA
ATOM     74  O   UNL A   1      43.897  37.076  34.881  1.00  0.00    -0.744 OA
ENDBRANCH  70  71
ENDBRANCH  51  65
BRANCH  52  75
ATOM     75  C   UNL A   1      42.421  23.821  27.652  1.00  0.00    -0.014 A 
ATOM     76  C   UNL A   1      42.465  23.595  26.287  1.00  0.00     0.010 A 
ATOM     77  C   UNL A   1      42.326  22.815  28.514  1.00  0.00     0.010 A 
ATOM     78  C   UNL A   1      42.109  22.278  25.911  1.00  0.00     0.020 A 
ATOM     79  C   UNL A   1      42.114  21.532  28.071  1.00  0.00     0.020 A 
ATOM     80  C   UNL A   1      42.086  21.244  26.734  1.00  0.00     0.054 A 
BRANCH  80  81
ATOM     81  S   UNL A   1      42.022  19.542  26.124  1.00  0.00     0.124 S 
ATOM     82  O   UNL A   1      42.489  18.588  27.225  1.00  0.00    -0.237 OA
ATOM     83  O   UNL A   1      40.585  19.197  25.725  1.00  0.00    -0.237 OA
ATOM     84  O   UNL A   1      43.045  19.386  24.762  1.00  0.00    -0.744 OA
ENDBRANCH  80  81
ENDBRANCH  52  75
BRANCH  64  85
ATOM     85  C   UNL A   1      47.930  27.295  30.279  1.00  0.00    -0.014 A 
ATOM     86  C   UNL A   1      48.400  26.446  31.267  1.00  0.00     0.010 A 
ATOM     87  C   UNL A   1      48.755  27.842  29.392  1.00  0.00     0.010 A 
ATOM     88  C   UNL A   1      49.806  26.463  31.417  1.00  0.00     0.020 A 
ATOM     89  C   UNL A   1      50.115  27.704  29.524  1.00  0.00     0.020 A 
ATOM     90  C   UNL A   1      50.651  26.928  30.513  1.00  0.00     0.054 A 
BRANCH  90  91
ATOM     91  S   UNL A   1      52.421  26.558  30.582  1.00  0.00     0.124 S 
ATOM     92  O   UNL A   1      53.182  27.794  31.068  1.00  0.00    -0.237 OA
ATOM     93  O   UNL A   1      52.662  25.397  31.549  1.00  0.00    -0.237 OA
ATOM     94  O   UNL A   1      52.973  26.125  29.022  1.00  0.00    -0.744 OA
ENDBRANCH  90  91
ENDBRANCH  64  85
ENDBRANCH  38  39
ENDBRANCH  31  33
ENDBRANCH  30  31
ENDBRANCH  29  30
ENDBRANCH   1  29
TORSDOF 19
ENDMDL
