MODEL 1
REMARK VINA RESULT:      -9.1      0.000      0.000
REMARK SMILES CCC(CC)Nc1cc(C)c(N)c(C(=O)OCCOCCOC(=O)c2ccc(-c3c4nc(c(-c5ccc(S(=O)(=O)[O-])cc5)c5ccc([nH]5)c(-c5ccc(S(=O)(=O)[O-])cc5)c5nc(c(-c6ccc(S(=O)(=O)[O-])cc6)c6ccc3[nH]6)C=C5)C=C4)cc2)c1
REMARK SMILES IDX 19 1 18 2 17 3 16 4 14 5 15 6 13 7 7 8 8 9 85 10 9 11 10 12
REMARK SMILES IDX 11 13 6 14 3 16 2 17 1 18 4 19 5 20 12 21 20 24 21 25 22 26
REMARK SMILES IDX 23 27 24 28 25 29 26 30 84 31 27 32 83 33 28 34 29 35 30 36
REMARK SMILES IDX 77 37 31 38 82 39 76 40 78 41 32 42 81 43 75 44 74 45 33 47
REMARK SMILES IDX 63 48 44 49 62 50 45 51 48 52 61 53 79 54 46 55 47 56 60 58
REMARK SMILES IDX 80 59 49 60 34 61 35 62 43 63 36 64 42 65 37 66 38 67 39 68
REMARK SMILES IDX 40 69 41 70 64 71 65 72 73 73 66 74 72 75 67 76 68 77 69 78
REMARK SMILES IDX 70 79 71 80 50 81 51 82 59 83 52 84 58 85 53 86 54 87 55 88
REMARK SMILES IDX 56 89 57 90
REMARK H PARENT 6 15 12 22 12 23 78 46 48 57
REMARK Flexibility Score: inf
ROOT
ATOM      1  O   UNL A   1      31.244  28.707  25.114  1.00  0.00    -0.374 OA
ENDROOT
BRANCH   1   2
ATOM      2  C   UNL A   1      30.853  28.662  23.741  1.00  0.00     0.202 C 
BRANCH   2   3
ATOM      3  C   UNL A   1      31.955  28.288  22.743  1.00  0.00     0.261 C 
BRANCH   3   4
ATOM      4  O   UNL A   1      33.028  27.586  23.393  1.00  0.00    -0.460 OA
BRANCH   4   5
ATOM      5  C   UNL A   1      33.343  26.387  22.842  1.00  0.00     0.340 C 
ATOM      6  O   UNL A   1      33.703  26.196  21.689  1.00  0.00    -0.246 OA
BRANCH   5   7
ATOM      7  C   UNL A   1      33.366  25.325  23.882  1.00  0.00     0.085 A 
ATOM      8  C   UNL A   1      34.588  24.038  25.562  1.00  0.00     0.035 A 
ATOM      9  C   UNL A   1      33.401  23.346  25.822  1.00  0.00     0.031 A 
ATOM     10  C   UNL A   1      34.547  25.044  24.590  1.00  0.00     0.043 A 
ATOM     11  C   UNL A   1      32.203  23.609  25.126  1.00  0.00    -0.025 A 
ATOM     12  C   UNL A   1      30.980  22.797  25.455  1.00  0.00     0.047 C 
ATOM     13  C   UNL A   1      32.179  24.601  24.131  1.00  0.00     0.049 A 
BRANCH   8  14
ATOM     14  N   UNL A   1      35.793  23.733  26.166  1.00  0.00    -0.382 N 
ATOM     15  H   UNL A   1      35.764  23.453  27.108  1.00  0.00     0.160 HD
BRANCH  14  16
ATOM     16  C   UNL A   1      37.107  23.788  25.527  1.00  0.00     0.078 C 
BRANCH  16  17
ATOM     17  C   UNL A   1      38.178  23.839  26.633  1.00  0.00     0.021 C 
ATOM     18  C   UNL A   1      39.476  24.499  26.192  1.00  0.00     0.006 C 
ENDBRANCH  16  17
BRANCH  16  19
ATOM     19  C   UNL A   1      37.262  22.621  24.535  1.00  0.00     0.021 C 
ATOM     20  C   UNL A   1      37.184  21.232  25.155  1.00  0.00     0.006 C 
ENDBRANCH  16  19
ENDBRANCH  14  16
ENDBRANCH   8  14
BRANCH  13  21
ATOM     21  N   UNL A   1      31.067  24.722  23.291  1.00  0.00    -0.398 N 
ATOM     22  H   UNL A   1      31.047  24.246  22.429  1.00  0.00     0.156 HD
ATOM     23  H   UNL A   1      30.304  25.283  23.561  1.00  0.00     0.156 HD
ENDBRANCH  13  21
ENDBRANCH   5   7
ENDBRANCH   4   5
ENDBRANCH   3   4
ENDBRANCH   2   3
ENDBRANCH   1   2
BRANCH   1  24
ATOM     24  C   UNL A   1      31.741  29.959  25.597  1.00  0.00     0.202 C 
BRANCH  24  25
ATOM     25  C   UNL A   1      33.200  29.967  26.069  1.00  0.00     0.261 C 
BRANCH  25  26
ATOM     26  O   UNL A   1      33.308  30.254  27.476  1.00  0.00    -0.460 OA
BRANCH  26  27
ATOM     27  C   UNL A   1      34.020  31.363  27.784  1.00  0.00     0.338 C 
ATOM     28  O   UNL A   1      33.607  32.514  27.835  1.00  0.00    -0.246 OA
BRANCH  27  29
ATOM     29  C   UNL A   1      35.368  30.983  28.247  1.00  0.00     0.060 A 
ATOM     30  C   UNL A   1      35.508  29.742  28.883  1.00  0.00     0.016 A 
ATOM     31  C   UNL A   1      36.465  31.836  28.113  1.00  0.00     0.016 A 
ATOM     32  C   UNL A   1      36.737  29.368  29.426  1.00  0.00     0.010 A 
ATOM     33  C   UNL A   1      37.695  31.464  28.668  1.00  0.00     0.010 A 
ATOM     34  C   UNL A   1      37.830  30.242  29.353  1.00  0.00    -0.014 A 
BRANCH  34  35
ATOM     35  C   UNL A   1      39.074  29.928  30.097  1.00  0.00     0.031 A 
ATOM     36  C   UNL A   1      39.966  28.822  29.601  1.00  0.00     0.074 A 
ATOM     37  C   UNL A   1      39.412  30.630  31.195  1.00  0.00     0.049 A 
ATOM     38  N   UNL A   1      41.075  28.361  30.119  1.00  0.00    -0.248 NA
ATOM     39  C   UNL A   1      39.552  28.142  28.362  1.00  0.00     0.031 C 
ATOM     40  C   UNL A   1      38.646  31.741  31.759  1.00  0.00     0.029 A 
ATOM     41  N   UNL A   1      40.485  30.499  32.042  1.00  0.00    -0.354 N 
ATOM     42  C   UNL A   1      41.483  27.330  29.281  1.00  0.00     0.074 A 
ATOM     43  C   UNL A   1      40.496  27.221  28.229  1.00  0.00     0.031 C 
ATOM     44  C   UNL A   1      39.265  32.179  32.869  1.00  0.00     0.029 A 
ATOM     45  C   UNL A   1      40.452  31.361  33.112  1.00  0.00     0.049 A 
ATOM     46  H   UNL A   1      41.210  29.849  31.895  1.00  0.00     0.167 HD
ATOM     47  C   UNL A   1      42.583  26.546  29.379  1.00  0.00     0.031 A 
ATOM     48  C   UNL A   1      41.269  31.462  34.179  1.00  0.00     0.031 A 
ATOM     49  C   UNL A   1      43.566  26.658  30.423  1.00  0.00     0.049 A 
ATOM     50  C   UNL A   1      42.461  30.545  34.288  1.00  0.00     0.074 A 
ATOM     51  C   UNL A   1      44.738  25.937  30.579  1.00  0.00     0.029 A 
ATOM     52  N   UNL A   1      43.493  27.537  31.491  1.00  0.00    -0.354 N 
ATOM     53  N   UNL A   1      42.861  29.612  33.457  1.00  0.00    -0.248 NA
ATOM     54  C   UNL A   1      43.316  30.701  35.474  1.00  0.00     0.031 C 
ATOM     55  C   UNL A   1      45.343  26.339  31.773  1.00  0.00     0.029 A 
ATOM     56  C   UNL A   1      44.579  27.353  32.330  1.00  0.00     0.049 A 
ATOM     57  H   UNL A   1      42.773  28.196  31.633  1.00  0.00     0.167 HD
ATOM     58  C   UNL A   1      44.025  29.088  34.009  1.00  0.00     0.074 A 
ATOM     59  C   UNL A   1      44.275  29.818  35.234  1.00  0.00     0.031 C 
ATOM     60  C   UNL A   1      44.818  28.091  33.543  1.00  0.00     0.031 A 
BRANCH  47  61
ATOM     61  C   UNL A   1      42.775  25.467  28.348  1.00  0.00    -0.014 A 
ATOM     62  C   UNL A   1      43.498  25.706  27.166  1.00  0.00     0.010 A 
ATOM     63  C   UNL A   1      42.294  24.170  28.607  1.00  0.00     0.010 A 
ATOM     64  C   UNL A   1      43.725  24.671  26.256  1.00  0.00     0.020 A 
ATOM     65  C   UNL A   1      42.538  23.127  27.710  1.00  0.00     0.020 A 
ATOM     66  C   UNL A   1      43.245  23.387  26.535  1.00  0.00     0.054 A 
BRANCH  66  67
ATOM     67  S   UNL A   1      43.606  22.047  25.365  1.00  0.00     0.124 S 
ATOM     68  O   UNL A   1      44.943  21.634  25.786  1.00  0.00    -0.237 OA
ATOM     69  O   UNL A   1      42.538  21.089  25.637  1.00  0.00    -0.237 OA
ATOM     70  O   UNL A   1      43.539  22.698  24.059  1.00  0.00    -0.744 OA
ENDBRANCH  66  67
ENDBRANCH  47  61
BRANCH  48  71
ATOM     71  C   UNL A   1      40.969  32.440  35.262  1.00  0.00    -0.014 A 
ATOM     72  C   UNL A   1      40.129  32.099  36.335  1.00  0.00     0.010 A 
ATOM     73  C   UNL A   1      41.506  33.739  35.202  1.00  0.00     0.010 A 
ATOM     74  C   UNL A   1      39.806  33.047  37.311  1.00  0.00     0.020 A 
ATOM     75  C   UNL A   1      41.209  34.680  36.190  1.00  0.00     0.020 A 
ATOM     76  C   UNL A   1      40.347  34.333  37.230  1.00  0.00     0.054 A 
BRANCH  76  77
ATOM     77  S   UNL A   1      39.938  35.543  38.519  1.00  0.00     0.124 S 
ATOM     78  O   UNL A   1      41.159  35.558  39.319  1.00  0.00    -0.237 OA
ATOM     79  O   UNL A   1      39.671  36.753  37.746  1.00  0.00    -0.237 OA
ATOM     80  O   UNL A   1      38.768  34.960  39.172  1.00  0.00    -0.744 OA
ENDBRANCH  76  77
ENDBRANCH  48  71
BRANCH  60  81
ATOM     81  C   UNL A   1      46.049  27.749  34.339  1.00  0.00    -0.014 A 
ATOM     82  C   UNL A   1      47.272  28.402  34.106  1.00  0.00     0.010 A 
ATOM     83  C   UNL A   1      45.963  26.804  35.377  1.00  0.00     0.010 A 
ATOM     84  C   UNL A   1      48.396  28.093  34.879  1.00  0.00     0.020 A 
ATOM     85  C   UNL A   1      47.077  26.512  36.170  1.00  0.00     0.020 A 
ATOM     86  C   UNL A   1      48.290  27.150  35.907  1.00  0.00     0.054 A 
BRANCH  86  87
ATOM     87  S   UNL A   1      49.749  26.801  36.926  1.00  0.00     0.124 S 
ATOM     88  O   UNL A   1      49.361  27.365  38.216  1.00  0.00    -0.237 OA
ATOM     89  O   UNL A   1      49.836  25.344  36.878  1.00  0.00    -0.237 OA
ATOM     90  O   UNL A   1      50.829  27.507  36.239  1.00  0.00    -0.744 OA
ENDBRANCH  86  87
ENDBRANCH  60  81
ENDBRANCH  34  35
ENDBRANCH  27  29
ENDBRANCH  26  27
ENDBRANCH  25  26
ENDBRANCH  24  25
ENDBRANCH   1  24
TORSDOF 22
ENDMDL
MODEL 2
REMARK VINA RESULT:      -8.8      2.757      9.203
REMARK SMILES CCC(CC)Nc1cc(C)c(N)c(C(=O)OCCOCCOC(=O)c2ccc(-c3c4nc(c(-c5ccc(S(=O)(=O)[O-])cc5)c5ccc([nH]5)c(-c5ccc(S(=O)(=O)[O-])cc5)c5nc(c(-c6ccc(S(=O)(=O)[O-])cc6)c6ccc3[nH]6)C=C5)C=C4)cc2)c1
REMARK SMILES IDX 19 1 18 2 17 3 16 4 14 5 15 6 13 7 7 8 8 9 85 10 9 11 10 12
REMARK SMILES IDX 11 13 6 14 3 16 2 17 1 18 4 19 5 20 12 21 20 24 21 25 22 26
REMARK SMILES IDX 23 27 24 28 25 29 26 30 84 31 27 32 83 33 28 34 29 35 30 36
REMARK SMILES IDX 77 37 31 38 82 39 76 40 78 41 32 42 81 43 75 44 74 45 33 47
REMARK SMILES IDX 63 48 44 49 62 50 45 51 48 52 61 53 79 54 46 55 47 56 60 58
REMARK SMILES IDX 80 59 49 60 34 61 35 62 43 63 36 64 42 65 37 66 38 67 39 68
REMARK SMILES IDX 40 69 41 70 64 71 65 72 73 73 66 74 72 75 67 76 68 77 69 78
REMARK SMILES IDX 70 79 71 80 50 81 51 82 59 83 52 84 58 85 53 86 54 87 55 88
REMARK SMILES IDX 56 89 57 90
REMARK H PARENT 6 15 12 22 12 23 78 46 48 57
REMARK Flexibility Score: inf
ROOT
ATOM      1  O   UNL A   1      39.533  22.049  26.264  1.00  0.00    -0.374 OA
ENDROOT
BRANCH   1   2
ATOM      2  C   UNL A   1      38.776  23.233  26.516  1.00  0.00     0.202 C 
BRANCH   2   3
ATOM      3  C   UNL A   1      37.449  23.354  25.758  1.00  0.00     0.261 C 
BRANCH   3   4
ATOM      4  O   UNL A   1      37.250  22.235  24.879  1.00  0.00    -0.460 OA
BRANCH   4   5
ATOM      5  C   UNL A   1      36.363  22.448  23.874  1.00  0.00     0.340 C 
ATOM      6  O   UNL A   1      36.638  22.743  22.720  1.00  0.00    -0.246 OA
BRANCH   5   7
ATOM      7  C   UNL A   1      34.985  22.102  24.313  1.00  0.00     0.085 A 
ATOM      8  C   UNL A   1      32.662  22.758  24.696  1.00  0.00     0.035 A 
ATOM      9  C   UNL A   1      32.417  21.450  25.126  1.00  0.00     0.031 A 
ATOM     10  C   UNL A   1      33.961  23.064  24.275  1.00  0.00     0.043 A 
ATOM     11  C   UNL A   1      33.426  20.467  25.174  1.00  0.00    -0.025 A 
ATOM     12  C   UNL A   1      33.076  19.092  25.675  1.00  0.00     0.047 C 
ATOM     13  C   UNL A   1      34.733  20.791  24.776  1.00  0.00     0.049 A 
BRANCH   8  14
ATOM     14  N   UNL A   1      31.711  23.760  24.730  1.00  0.00    -0.382 N 
ATOM     15  H   UNL A   1      30.855  23.550  25.166  1.00  0.00     0.160 HD
BRANCH  14  16
ATOM     16  C   UNL A   1      31.867  25.105  24.178  1.00  0.00     0.078 C 
BRANCH  16  17
ATOM     17  C   UNL A   1      31.262  25.116  22.761  1.00  0.00     0.021 C 
ATOM     18  C   UNL A   1      31.832  26.206  21.866  1.00  0.00     0.006 C 
ENDBRANCH  16  17
BRANCH  16  19
ATOM     19  C   UNL A   1      31.267  26.145  25.141  1.00  0.00     0.021 C 
ATOM     20  C   UNL A   1      29.902  25.785  25.712  1.00  0.00     0.006 C 
ENDBRANCH  16  19
ENDBRANCH  14  16
ENDBRANCH   8  14
BRANCH  13  21
ATOM     21  N   UNL A   1      35.782  19.897  25.020  1.00  0.00    -0.398 N 
ATOM     22  H   UNL A   1      36.683  20.238  25.223  1.00  0.00     0.156 HD
ATOM     23  H   UNL A   1      35.618  18.926  24.990  1.00  0.00     0.156 HD
ENDBRANCH  13  21
ENDBRANCH   5   7
ENDBRANCH   4   5
ENDBRANCH   3   4
ENDBRANCH   2   3
ENDBRANCH   1   2
BRANCH   1  24
ATOM     24  C   UNL A   1      40.783  21.931  26.951  1.00  0.00     0.202 C 
BRANCH  24  25
ATOM     25  C   UNL A   1      41.987  22.601  26.277  1.00  0.00     0.261 C 
BRANCH  25  26
ATOM     26  O   UNL A   1      42.557  23.635  27.103  1.00  0.00    -0.460 OA
BRANCH  26  27
ATOM     27  C   UNL A   1      42.532  24.877  26.568  1.00  0.00     0.338 C 
ATOM     28  O   UNL A   1      42.728  25.180  25.398  1.00  0.00    -0.246 OA
BRANCH  27  29
ATOM     29  C   UNL A   1      42.045  25.846  27.567  1.00  0.00     0.060 A 
ATOM     30  C   UNL A   1      42.794  27.015  27.755  1.00  0.00     0.016 A 
ATOM     31  C   UNL A   1      40.910  25.601  28.345  1.00  0.00     0.016 A 
ATOM     32  C   UNL A   1      42.437  27.924  28.751  1.00  0.00     0.010 A 
ATOM     33  C   UNL A   1      40.560  26.510  29.351  1.00  0.00     0.010 A 
ATOM     34  C   UNL A   1      41.338  27.660  29.579  1.00  0.00    -0.014 A 
BRANCH  34  35
ATOM     35  C   UNL A   1      41.079  28.524  30.756  1.00  0.00     0.031 A 
ATOM     36  C   UNL A   1      39.962  29.531  30.694  1.00  0.00     0.074 A 
ATOM     37  C   UNL A   1      41.821  28.404  31.872  1.00  0.00     0.049 A 
ATOM     38  N   UNL A   1      39.590  30.406  31.592  1.00  0.00    -0.248 NA
ATOM     39  C   UNL A   1      39.162  29.559  29.459  1.00  0.00     0.031 C 
ATOM     40  C   UNL A   1      42.912  27.448  32.065  1.00  0.00     0.029 A 
ATOM     41  N   UNL A   1      41.777  29.104  33.053  1.00  0.00    -0.354 N 
ATOM     42  C   UNL A   1      38.526  31.099  31.026  1.00  0.00     0.074 A 
ATOM     43  C   UNL A   1      38.321  30.554  29.701  1.00  0.00     0.031 C 
ATOM     44  C   UNL A   1      43.446  27.635  33.285  1.00  0.00     0.029 A 
ATOM     45  C   UNL A   1      42.756  28.740  33.946  1.00  0.00     0.049 A 
ATOM     46  H   UNL A   1      41.106  29.799  33.241  1.00  0.00     0.167 HD
ATOM     47  C   UNL A   1      37.786  32.098  31.563  1.00  0.00     0.031 A 
ATOM     48  C   UNL A   1      43.078  29.259  35.149  1.00  0.00     0.031 A 
ATOM     49  C   UNL A   1      37.987  32.636  32.881  1.00  0.00     0.049 A 
ATOM     50  C   UNL A   1      42.267  30.402  35.703  1.00  0.00     0.074 A 
ATOM     51  C   UNL A   1      37.258  33.618  33.528  1.00  0.00     0.029 A 
ATOM     52  N   UNL A   1      38.993  32.248  33.751  1.00  0.00    -0.354 N 
ATOM     53  N   UNL A   1      41.229  31.008  35.176  1.00  0.00    -0.248 NA
ATOM     54  C   UNL A   1      42.665  30.925  37.018  1.00  0.00     0.031 C 
ATOM     55  C   UNL A   1      37.858  33.866  34.766  1.00  0.00     0.029 A 
ATOM     56  C   UNL A   1      38.926  32.995  34.914  1.00  0.00     0.049 A 
ATOM     57  H   UNL A   1      39.659  31.544  33.568  1.00  0.00     0.167 HD
ATOM     58  C   UNL A   1      40.838  31.966  36.105  1.00  0.00     0.074 A 
ATOM     59  C   UNL A   1      41.737  31.848  37.234  1.00  0.00     0.031 C 
ATOM     60  C   UNL A   1      39.824  32.864  36.032  1.00  0.00     0.031 A 
BRANCH  47  61
ATOM     61  C   UNL A   1      36.701  32.706  30.715  1.00  0.00    -0.014 A 
ATOM     62  C   UNL A   1      35.379  32.232  30.769  1.00  0.00     0.010 A 
ATOM     63  C   UNL A   1      36.996  33.826  29.915  1.00  0.00     0.010 A 
ATOM     64  C   UNL A   1      34.374  32.858  30.027  1.00  0.00     0.020 A 
ATOM     65  C   UNL A   1      35.990  34.469  29.190  1.00  0.00     0.020 A 
ATOM     66  C   UNL A   1      34.686  33.974  29.244  1.00  0.00     0.054 A 
BRANCH  66  67
ATOM     67  S   UNL A   1      33.350  34.805  28.339  1.00  0.00     0.124 S 
ATOM     68  O   UNL A   1      34.096  35.596  27.363  1.00  0.00    -0.237 OA
ATOM     69  O   UNL A   1      32.590  33.684  27.790  1.00  0.00    -0.237 OA
ATOM     70  O   UNL A   1      32.659  35.577  29.368  1.00  0.00    -0.744 OA
ENDBRANCH  66  67
ENDBRANCH  47  61
BRANCH  48  71
ATOM     71  C   UNL A   1      44.253  28.734  35.899  1.00  0.00    -0.014 A 
ATOM     72  C   UNL A   1      45.541  29.254  35.687  1.00  0.00     0.010 A 
ATOM     73  C   UNL A   1      44.084  27.680  36.817  1.00  0.00     0.010 A 
ATOM     74  C   UNL A   1      46.643  28.709  36.353  1.00  0.00     0.020 A 
ATOM     75  C   UNL A   1      45.179  27.152  37.506  1.00  0.00     0.020 A 
ATOM     76  C   UNL A   1      46.454  27.659  37.257  1.00  0.00     0.054 A 
BRANCH  76  77
ATOM     77  S   UNL A   1      47.893  26.981  38.131  1.00  0.00     0.124 S 
ATOM     78  O   UNL A   1      49.002  27.607  37.417  1.00  0.00    -0.237 OA
ATOM     79  O   UNL A   1      47.680  27.443  39.500  1.00  0.00    -0.237 OA
ATOM     80  O   UNL A   1      47.758  25.539  37.939  1.00  0.00    -0.744 OA
ENDBRANCH  76  77
ENDBRANCH  48  71
BRANCH  60  81
ATOM     81  C   UNL A   1      39.607  33.770  37.214  1.00  0.00    -0.014 A 
ATOM     82  C   UNL A   1      38.883  33.340  38.339  1.00  0.00     0.010 A 
ATOM     83  C   UNL A   1      40.193  35.050  37.223  1.00  0.00     0.010 A 
ATOM     84  C   UNL A   1      38.722  34.185  39.441  1.00  0.00     0.020 A 
ATOM     85  C   UNL A   1      40.057  35.887  38.334  1.00  0.00     0.020 A 
ATOM     86  C   UNL A   1      39.310  35.454  39.431  1.00  0.00     0.054 A 
BRANCH  86  87
ATOM     87  S   UNL A   1      39.127  36.515  40.891  1.00  0.00     0.124 S 
ATOM     88  O   UNL A   1      38.211  35.735  41.720  1.00  0.00    -0.237 OA
ATOM     89  O   UNL A   1      40.495  36.616  41.391  1.00  0.00    -0.237 OA
ATOM     90  O   UNL A   1      38.574  37.754  40.351  1.00  0.00    -0.744 OA
ENDBRANCH  86  87
ENDBRANCH  60  81
ENDBRANCH  34  35
ENDBRANCH  27  29
ENDBRANCH  26  27
ENDBRANCH  25  26
ENDBRANCH  24  25
ENDBRANCH   1  24
TORSDOF 22
ENDMDL
MODEL 3
REMARK VINA RESULT:      -8.5      2.322      8.938
REMARK SMILES CCC(CC)Nc1cc(C)c(N)c(C(=O)OCCOCCOC(=O)c2ccc(-c3c4nc(c(-c5ccc(S(=O)(=O)[O-])cc5)c5ccc([nH]5)c(-c5ccc(S(=O)(=O)[O-])cc5)c5nc(c(-c6ccc(S(=O)(=O)[O-])cc6)c6ccc3[nH]6)C=C5)C=C4)cc2)c1
REMARK SMILES IDX 19 1 18 2 17 3 16 4 14 5 15 6 13 7 7 8 8 9 85 10 9 11 10 12
REMARK SMILES IDX 11 13 6 14 3 16 2 17 1 18 4 19 5 20 12 21 20 24 21 25 22 26
REMARK SMILES IDX 23 27 24 28 25 29 26 30 84 31 27 32 83 33 28 34 29 35 30 36
REMARK SMILES IDX 77 37 31 38 82 39 76 40 78 41 32 42 81 43 75 44 74 45 33 47
REMARK SMILES IDX 63 48 44 49 62 50 45 51 48 52 61 53 79 54 46 55 47 56 60 58
REMARK SMILES IDX 80 59 49 60 34 61 35 62 43 63 36 64 42 65 37 66 38 67 39 68
REMARK SMILES IDX 40 69 41 70 64 71 65 72 73 73 66 74 72 75 67 76 68 77 69 78
REMARK SMILES IDX 70 79 71 80 50 81 51 82 59 83 52 84 58 85 53 86 54 87 55 88
REMARK SMILES IDX 56 89 57 90
REMARK H PARENT 6 15 12 22 12 23 78 46 48 57
REMARK Flexibility Score: inf
ROOT
ATOM      1  O   UNL A   1      34.115  31.284  28.059  1.00  0.00    -0.374 OA
ENDROOT
BRANCH   1   2
ATOM      2  C   UNL A   1      34.537  30.025  27.532  1.00  0.00     0.202 C 
BRANCH   2   3
ATOM      3  C   UNL A   1      33.419  29.059  27.128  1.00  0.00     0.261 C 
BRANCH   3   4
ATOM      4  O   UNL A   1      33.889  28.085  26.182  1.00  0.00    -0.460 OA
BRANCH   4   5
ATOM      5  C   UNL A   1      33.481  28.285  24.904  1.00  0.00     0.340 C 
ATOM      6  O   UNL A   1      33.271  29.367  24.375  1.00  0.00    -0.246 OA
BRANCH   5   7
ATOM      7  C   UNL A   1      33.485  27.004  24.148  1.00  0.00     0.085 A 
ATOM      8  C   UNL A   1      33.968  24.611  24.049  1.00  0.00     0.035 A 
ATOM      9  C   UNL A   1      33.486  24.620  22.737  1.00  0.00     0.031 A 
ATOM     10  C   UNL A   1      33.946  25.822  24.751  1.00  0.00     0.043 A 
ATOM     11  C   UNL A   1      33.019  25.792  22.109  1.00  0.00    -0.025 A 
ATOM     12  C   UNL A   1      32.542  25.712  20.685  1.00  0.00     0.047 C 
ATOM     13  C   UNL A   1      33.027  27.009  22.812  1.00  0.00     0.049 A 
BRANCH   8  14
ATOM     14  N   UNL A   1      34.517  23.494  24.650  1.00  0.00    -0.382 N 
ATOM     15  H   UNL A   1      34.467  22.647  24.151  1.00  0.00     0.160 HD
BRANCH  14  16
ATOM     16  C   UNL A   1      35.165  23.460  25.960  1.00  0.00     0.078 C 
BRANCH  16  17
ATOM     17  C   UNL A   1      34.306  22.592  26.899  1.00  0.00     0.021 C 
ATOM     18  C   UNL A   1      34.062  21.185  26.374  1.00  0.00     0.006 C 
ENDBRANCH  16  17
BRANCH  16  19
ATOM     19  C   UNL A   1      36.626  22.997  25.815  1.00  0.00     0.021 C 
ATOM     20  C   UNL A   1      36.945  22.263  24.519  1.00  0.00     0.006 C 
ENDBRANCH  16  19
ENDBRANCH  14  16
ENDBRANCH   8  14
BRANCH  13  21
ATOM     21  N   UNL A   1      32.773  28.209  22.138  1.00  0.00    -0.398 N 
ATOM     22  H   UNL A   1      31.849  28.540  22.056  1.00  0.00     0.156 HD
ATOM     23  H   UNL A   1      33.516  28.722  21.747  1.00  0.00     0.156 HD
ENDBRANCH  13  21
ENDBRANCH   5   7
ENDBRANCH   4   5
ENDBRANCH   3   4
ENDBRANCH   2   3
ENDBRANCH   1   2
BRANCH   1  24
ATOM     24  C   UNL A   1      32.937  31.855  27.483  1.00  0.00     0.202 C 
BRANCH  24  25
ATOM     25  C   UNL A   1      32.901  33.387  27.405  1.00  0.00     0.261 C 
BRANCH  25  26
ATOM     26  O   UNL A   1      32.407  33.975  28.623  1.00  0.00    -0.460 OA
BRANCH  26  27
ATOM     27  C   UNL A   1      33.131  35.017  29.094  1.00  0.00     0.338 C 
ATOM     28  O   UNL A   1      32.865  36.208  28.988  1.00  0.00    -0.246 OA
BRANCH  27  29
ATOM     29  C   UNL A   1      34.232  34.522  29.941  1.00  0.00     0.060 A 
ATOM     30  C   UNL A   1      35.532  34.600  29.424  1.00  0.00     0.016 A 
ATOM     31  C   UNL A   1      34.002  33.945  31.192  1.00  0.00     0.016 A 
ATOM     32  C   UNL A   1      36.603  34.061  30.137  1.00  0.00     0.010 A 
ATOM     33  C   UNL A   1      35.077  33.397  31.902  1.00  0.00     0.010 A 
ATOM     34  C   UNL A   1      36.378  33.425  31.365  1.00  0.00    -0.014 A 
BRANCH  34  35
ATOM     35  C   UNL A   1      37.482  32.686  32.024  1.00  0.00     0.031 A 
ATOM     36  C   UNL A   1      37.989  33.164  33.358  1.00  0.00     0.074 A 
ATOM     37  C   UNL A   1      38.017  31.594  31.448  1.00  0.00     0.049 A 
ATOM     38  N   UNL A   1      38.966  32.690  34.088  1.00  0.00    -0.248 NA
ATOM     39  C   UNL A   1      37.312  34.332  33.946  1.00  0.00     0.031 C 
ATOM     40  C   UNL A   1      37.594  31.017  30.172  1.00  0.00     0.029 A 
ATOM     41  N   UNL A   1      39.046  30.783  31.858  1.00  0.00    -0.354 N 
ATOM     42  C   UNL A   1      39.031  33.507  35.210  1.00  0.00     0.074 A 
ATOM     43  C   UNL A   1      38.006  34.518  35.060  1.00  0.00     0.031 C 
ATOM     44  C   UNL A   1      38.370  29.955  29.895  1.00  0.00     0.029 A 
ATOM     45  C   UNL A   1      39.362  29.795  30.956  1.00  0.00     0.049 A 
ATOM     46  H   UNL A   1      39.513  30.898  32.718  1.00  0.00     0.167 HD
ATOM     47  C   UNL A   1      39.868  33.422  36.271  1.00  0.00     0.031 A 
ATOM     48  C   UNL A   1      40.356  28.883  30.971  1.00  0.00     0.031 A 
ATOM     49  C   UNL A   1      40.883  32.415  36.422  1.00  0.00     0.049 A 
ATOM     50  C   UNL A   1      41.303  28.840  32.142  1.00  0.00     0.074 A 
ATOM     51  C   UNL A   1      41.749  32.221  37.484  1.00  0.00     0.029 A 
ATOM     52  N   UNL A   1      41.178  31.438  35.484  1.00  0.00    -0.354 N 
ATOM     53  N   UNL A   1      41.315  29.587  33.220  1.00  0.00    -0.248 NA
ATOM     54  C   UNL A   1      42.367  27.825  32.102  1.00  0.00     0.031 C 
ATOM     55  C   UNL A   1      42.606  31.165  37.164  1.00  0.00     0.029 A 
ATOM     56  C   UNL A   1      42.234  30.661  35.927  1.00  0.00     0.049 A 
ATOM     57  H   UNL A   1      40.704  31.315  34.628  1.00  0.00     0.167 HD
ATOM     58  C   UNL A   1      42.370  29.116  33.996  1.00  0.00     0.074 A 
ATOM     59  C   UNL A   1      42.961  28.010  33.273  1.00  0.00     0.031 C 
ATOM     60  C   UNL A   1      42.810  29.560  35.200  1.00  0.00     0.031 A 
BRANCH  47  61
ATOM     61  C   UNL A   1      39.750  34.466  37.348  1.00  0.00    -0.014 A 
ATOM     62  C   UNL A   1      39.018  34.224  38.523  1.00  0.00     0.010 A 
ATOM     63  C   UNL A   1      40.456  35.678  37.216  1.00  0.00     0.010 A 
ATOM     64  C   UNL A   1      38.982  35.180  39.541  1.00  0.00     0.020 A 
ATOM     65  C   UNL A   1      40.440  36.627  38.241  1.00  0.00     0.020 A 
ATOM     66  C   UNL A   1      39.695  36.375  39.395  1.00  0.00     0.054 A 
BRANCH  66  67
ATOM     67  S   UNL A   1      39.680  37.573  40.758  1.00  0.00     0.124 S 
ATOM     68  O   UNL A   1      41.106  37.822  40.954  1.00  0.00    -0.237 OA
ATOM     69  O   UNL A   1      38.919  38.687  40.196  1.00  0.00    -0.237 OA
ATOM     70  O   UNL A   1      39.018  36.855  41.845  1.00  0.00    -0.744 OA
ENDBRANCH  66  67
ENDBRANCH  47  61
BRANCH  48  71
ATOM     71  C   UNL A   1      40.540  27.959  29.817  1.00  0.00    -0.014 A 
ATOM     72  C   UNL A   1      41.513  28.209  28.835  1.00  0.00     0.010 A 
ATOM     73  C   UNL A   1      39.710  26.830  29.684  1.00  0.00     0.010 A 
ATOM     74  C   UNL A   1      41.632  27.366  27.726  1.00  0.00     0.020 A 
ATOM     75  C   UNL A   1      39.845  25.970  28.592  1.00  0.00     0.020 A 
ATOM     76  C   UNL A   1      40.794  26.252  27.611  1.00  0.00     0.054 A 
BRANCH  76  77
ATOM     77  S   UNL A   1      40.981  25.156  26.177  1.00  0.00     0.124 S 
ATOM     78  O   UNL A   1      41.388  26.091  25.132  1.00  0.00    -0.237 OA
ATOM     79  O   UNL A   1      42.008  24.219  26.625  1.00  0.00    -0.237 OA
ATOM     80  O   UNL A   1      39.648  24.578  26.016  1.00  0.00    -0.744 OA
ENDBRANCH  76  77
ENDBRANCH  48  71
BRANCH  60  81
ATOM     81  C   UNL A   1      43.966  28.832  35.832  1.00  0.00    -0.014 A 
ATOM     82  C   UNL A   1      43.760  27.706  36.647  1.00  0.00     0.010 A 
ATOM     83  C   UNL A   1      45.281  29.245  35.552  1.00  0.00     0.010 A 
ATOM     84  C   UNL A   1      44.849  27.023  37.197  1.00  0.00     0.020 A 
ATOM     85  C   UNL A   1      46.373  28.549  36.078  1.00  0.00     0.020 A 
ATOM     86  C   UNL A   1      46.149  27.450  36.908  1.00  0.00     0.054 A 
BRANCH  86  87
ATOM     87  S   UNL A   1      47.548  26.520  37.595  1.00  0.00     0.124 S 
ATOM     88  O   UNL A   1      48.581  26.736  36.586  1.00  0.00    -0.237 OA
ATOM     89  O   UNL A   1      47.774  27.180  38.878  1.00  0.00    -0.237 OA
ATOM     90  O   UNL A   1      47.042  25.152  37.686  1.00  0.00    -0.744 OA
ENDBRANCH  86  87
ENDBRANCH  60  81
ENDBRANCH  34  35
ENDBRANCH  27  29
ENDBRANCH  26  27
ENDBRANCH  25  26
ENDBRANCH  24  25
ENDBRANCH   1  24
TORSDOF 22
ENDMDL
