MODEL 1
REMARK VINA RESULT:     -10.5      0.000      0.000
REMARK SMILES C[C@H](C(=O)OCCOCCOC(=O)c1ccc(-c2c3nc(c(-c4ccc(S(=O)(=O)[O-])cc4)c4ccc([nH]4)c(-c4ccc(S(=O)(=O)[O-])cc4)c4nc(c(-c5ccc(S(=O)(=O)[O-])cc5)c5ccc2[nH]5)C=C4)C=C3)cc1)c1ccc2c(c1)[nH]c1ccc(Cl)cc12
REMARK SMILES IDX 9 1 8 2 7 3 6 4 5 5 3 6 4 7 2 8 1 9 74 10 75 11 79 12 76 13
REMARK SMILES IDX 78 14 77 15 80 16 87 17 81 18 86 20 82 21 84 22 83 23 85 24
REMARK SMILES IDX 10 25 11 26 12 27 13 28 14 29 15 30 73 31 16 32 72 33 17 34
REMARK SMILES IDX 18 35 19 36 66 37 20 38 71 39 65 40 67 41 21 42 70 43 64 44
REMARK SMILES IDX 63 45 22 47 52 48 33 49 51 50 34 51 37 52 50 53 68 54 35 55
REMARK SMILES IDX 36 56 49 58 69 59 38 60 23 61 24 62 32 63 25 64 31 65 26 66
REMARK SMILES IDX 27 67 28 68 29 69 30 70 53 71 54 72 62 73 55 74 61 75 56 76
REMARK SMILES IDX 57 77 58 78 59 79 60 80 39 81 40 82 48 83 41 84 47 85 42 86
REMARK SMILES IDX 43 87 44 88 45 89 46 90
REMARK H PARENT 80 19 67 46 37 57
REMARK Flexibility Score: inf
ROOT
ATOM      1  C   UNL A   1      45.487  24.502  25.126  1.00  0.00     0.202 C 
ENDROOT
BRANCH   1   2
ATOM      2  O   UNL A   1      45.607  23.597  24.030  1.00  0.00    -0.374 OA
BRANCH   2   3
ATOM      3  C   UNL A   1      44.593  22.594  23.925  1.00  0.00     0.202 C 
BRANCH   3   4
ATOM      4  C   UNL A   1      44.585  21.518  25.019  1.00  0.00     0.261 C 
BRANCH   4   5
ATOM      5  O   UNL A   1      43.691  21.865  26.099  1.00  0.00    -0.463 OA
BRANCH   5   6
ATOM      6  C   UNL A   1      42.546  21.137  26.166  1.00  0.00     0.313 C 
ATOM      7  O   UNL A   1      42.358  20.096  25.542  1.00  0.00    -0.252 OA
BRANCH   6   8
ATOM      8  C   UNL A   1      41.564  21.599  27.230  1.00  0.00     0.126 C 
ATOM      9  C   UNL A   1      42.335  22.483  28.233  1.00  0.00     0.025 C 
BRANCH   8  10
ATOM     10  C   UNL A   1      40.203  22.189  26.860  1.00  0.00    -0.032 A 
ATOM     11  C   UNL A   1      39.820  23.518  27.079  1.00  0.00     0.005 A 
ATOM     12  C   UNL A   1      39.319  21.360  26.138  1.00  0.00     0.031 A 
ATOM     13  C   UNL A   1      38.595  24.027  26.583  1.00  0.00     0.011 A 
ATOM     14  C   UNL A   1      38.090  21.858  25.709  1.00  0.00     0.047 A 
ATOM     15  C   UNL A   1      37.709  23.183  25.875  1.00  0.00     0.007 A 
ATOM     16  N   UNL A   1      37.067  21.203  25.076  1.00  0.00    -0.355 N 
ATOM     17  C   UNL A   1      36.438  23.331  25.215  1.00  0.00     0.009 A 
ATOM     18  C   UNL A   1      36.033  22.058  24.805  1.00  0.00     0.047 A 
ATOM     19  H   UNL A   1      37.074  20.245  24.849  1.00  0.00     0.167 HD
ATOM     20  C   UNL A   1      35.581  24.417  24.932  1.00  0.00     0.031 A 
ATOM     21  C   UNL A   1      34.792  21.789  24.219  1.00  0.00     0.028 A 
ATOM     22  C   UNL A   1      34.357  24.169  24.295  1.00  0.00     0.041 A 
ATOM     23  C   UNL A   1      33.953  22.875  23.971  1.00  0.00     0.022 A 
ATOM     24  Cl  UNL A   1      33.326  25.488  23.887  1.00  0.00    -0.084 Cl
ENDBRANCH   8  10
ENDBRANCH   6   8
ENDBRANCH   5   6
ENDBRANCH   4   5
ENDBRANCH   3   4
ENDBRANCH   2   3
ENDBRANCH   1   2
BRANCH   1  25
ATOM     25  C   UNL A   1      44.347  25.523  25.077  1.00  0.00     0.261 C 
BRANCH  25  26
ATOM     26  O   UNL A   1      43.280  25.175  25.970  1.00  0.00    -0.460 OA
BRANCH  26  27
ATOM     27  C   UNL A   1      42.287  26.090  26.032  1.00  0.00     0.338 C 
ATOM     28  O   UNL A   1      41.375  26.243  25.228  1.00  0.00    -0.246 OA
BRANCH  27  29
ATOM     29  C   UNL A   1      42.329  26.785  27.330  1.00  0.00     0.060 A 
ATOM     30  C   UNL A   1      41.646  26.190  28.398  1.00  0.00     0.016 A 
ATOM     31  C   UNL A   1      42.981  28.010  27.494  1.00  0.00     0.016 A 
ATOM     32  C   UNL A   1      41.553  26.850  29.618  1.00  0.00     0.010 A 
ATOM     33  C   UNL A   1      42.882  28.674  28.719  1.00  0.00     0.010 A 
ATOM     34  C   UNL A   1      42.131  28.116  29.770  1.00  0.00    -0.014 A 
BRANCH  34  35
ATOM     35  C   UNL A   1      41.814  28.919  30.973  1.00  0.00     0.031 A 
ATOM     36  C   UNL A   1      40.625  29.841  30.936  1.00  0.00     0.074 A 
ATOM     37  C   UNL A   1      42.550  28.800  32.092  1.00  0.00     0.049 A 
ATOM     38  N   UNL A   1      40.174  30.648  31.861  1.00  0.00    -0.248 NA
ATOM     39  C   UNL A   1      39.843  29.856  29.689  1.00  0.00     0.031 C 
ATOM     40  C   UNL A   1      43.697  27.907  32.257  1.00  0.00     0.029 A 
ATOM     41  N   UNL A   1      42.441  29.437  33.302  1.00  0.00    -0.354 N 
ATOM     42  C   UNL A   1      39.062  31.272  31.307  1.00  0.00     0.074 A 
ATOM     43  C   UNL A   1      38.928  30.776  29.954  1.00  0.00     0.031 C 
ATOM     44  C   UNL A   1      44.191  28.059  33.498  1.00  0.00     0.029 A 
ATOM     45  C   UNL A   1      43.420  29.082  34.199  1.00  0.00     0.049 A 
ATOM     46  H   UNL A   1      41.730  30.086  33.507  1.00  0.00     0.167 HD
ATOM     47  C   UNL A   1      38.224  32.171  31.876  1.00  0.00     0.031 A 
ATOM     48  C   UNL A   1      43.675  29.549  35.438  1.00  0.00     0.031 A 
ATOM     49  C   UNL A   1      38.376  32.669  33.217  1.00  0.00     0.049 A 
ATOM     50  C   UNL A   1      42.774  30.602  36.025  1.00  0.00     0.074 A 
ATOM     51  C   UNL A   1      37.578  33.575  33.894  1.00  0.00     0.029 A 
ATOM     52  N   UNL A   1      39.399  32.312  34.083  1.00  0.00    -0.354 N 
ATOM     53  N   UNL A   1      41.713  31.167  35.497  1.00  0.00    -0.248 NA
ATOM     54  C   UNL A   1      43.096  31.072  37.379  1.00  0.00     0.031 C 
ATOM     55  C   UNL A   1      38.153  33.810  35.146  1.00  0.00     0.029 A 
ATOM     56  C   UNL A   1      39.269  32.999  35.278  1.00  0.00     0.049 A 
ATOM     57  H   UNL A   1      40.113  31.665  33.878  1.00  0.00     0.167 HD
ATOM     58  C   UNL A   1      41.226  32.039  36.466  1.00  0.00     0.074 A 
ATOM     59  C   UNL A   1      42.100  31.914  37.615  1.00  0.00     0.031 C 
ATOM     60  C   UNL A   1      40.151  32.866  36.411  1.00  0.00     0.031 A 
BRANCH  47  61
ATOM     61  C   UNL A   1      37.089  32.695  31.034  1.00  0.00    -0.014 A 
ATOM     62  C   UNL A   1      37.310  33.641  30.017  1.00  0.00     0.010 A 
ATOM     63  C   UNL A   1      35.785  32.211  31.245  1.00  0.00     0.010 A 
ATOM     64  C   UNL A   1      36.241  34.124  29.256  1.00  0.00     0.020 A 
ATOM     65  C   UNL A   1      34.719  32.668  30.465  1.00  0.00     0.020 A 
ATOM     66  C   UNL A   1      34.952  33.636  29.486  1.00  0.00     0.054 A 
BRANCH  66  67
ATOM     67  S   UNL A   1      33.588  34.267  28.471  1.00  0.00     0.124 S 
ATOM     68  O   UNL A   1      34.250  35.309  27.688  1.00  0.00    -0.237 OA
ATOM     69  O   UNL A   1      33.175  33.085  27.718  1.00  0.00    -0.237 OA
ATOM     70  O   UNL A   1      32.618  34.748  29.451  1.00  0.00    -0.744 OA
ENDBRANCH  66  67
ENDBRANCH  47  61
BRANCH  48  71
ATOM     71  C   UNL A   1      44.850  29.034  36.193  1.00  0.00    -0.014 A 
ATOM     72  C   UNL A   1      46.109  29.648  36.076  1.00  0.00     0.010 A 
ATOM     73  C   UNL A   1      44.709  27.923  37.047  1.00  0.00     0.010 A 
ATOM     74  C   UNL A   1      47.206  29.156  36.791  1.00  0.00     0.020 A 
ATOM     75  C   UNL A   1      45.795  27.448  37.786  1.00  0.00     0.020 A 
ATOM     76  C   UNL A   1      47.040  28.061  37.646  1.00  0.00     0.054 A 
BRANCH  76  77
ATOM     77  S   UNL A   1      48.464  27.479  38.608  1.00  0.00     0.124 S 
ATOM     78  O   UNL A   1      49.528  28.360  38.140  1.00  0.00    -0.237 OA
ATOM     79  O   UNL A   1      48.022  27.693  39.983  1.00  0.00    -0.237 OA
ATOM     80  O   UNL A   1      48.591  26.077  38.214  1.00  0.00    -0.744 OA
ENDBRANCH  76  77
ENDBRANCH  48  71
BRANCH  60  81
ATOM     81  C   UNL A   1      39.835  33.677  37.640  1.00  0.00    -0.014 A 
ATOM     82  C   UNL A   1      39.013  33.169  38.663  1.00  0.00     0.010 A 
ATOM     83  C   UNL A   1      40.419  34.947  37.800  1.00  0.00     0.010 A 
ATOM     84  C   UNL A   1      38.754  33.931  39.805  1.00  0.00     0.020 A 
ATOM     85  C   UNL A   1      40.188  35.699  38.955  1.00  0.00     0.020 A 
ATOM     86  C   UNL A   1      39.345  35.191  39.945  1.00  0.00     0.054 A 
BRANCH  86  87
ATOM     87  S   UNL A   1      39.029  36.141  41.457  1.00  0.00     0.124 S 
ATOM     88  O   UNL A   1      37.781  35.549  41.932  1.00  0.00    -0.237 OA
ATOM     89  O   UNL A   1      40.209  35.853  42.268  1.00  0.00    -0.237 OA
ATOM     90  O   UNL A   1      38.924  37.520  40.987  1.00  0.00    -0.744 OA
ENDBRANCH  86  87
ENDBRANCH  60  81
ENDBRANCH  34  35
ENDBRANCH  27  29
ENDBRANCH  26  27
ENDBRANCH  25  26
ENDBRANCH   1  25
TORSDOF 18
ENDMDL
MODEL 2
REMARK VINA RESULT:     -10.4      4.285      9.970
REMARK SMILES C[C@H](C(=O)OCCOCCOC(=O)c1ccc(-c2c3nc(c(-c4ccc(S(=O)(=O)[O-])cc4)c4ccc([nH]4)c(-c4ccc(S(=O)(=O)[O-])cc4)c4nc(c(-c5ccc(S(=O)(=O)[O-])cc5)c5ccc2[nH]5)C=C4)C=C3)cc1)c1ccc2c(c1)[nH]c1ccc(Cl)cc12
REMARK SMILES IDX 9 1 8 2 7 3 6 4 5 5 3 6 4 7 2 8 1 9 74 10 75 11 79 12 76 13
REMARK SMILES IDX 78 14 77 15 80 16 87 17 81 18 86 20 82 21 84 22 83 23 85 24
REMARK SMILES IDX 10 25 11 26 12 27 13 28 14 29 15 30 73 31 16 32 72 33 17 34
REMARK SMILES IDX 18 35 19 36 66 37 20 38 71 39 65 40 67 41 21 42 70 43 64 44
REMARK SMILES IDX 63 45 22 47 52 48 33 49 51 50 34 51 37 52 50 53 68 54 35 55
REMARK SMILES IDX 36 56 49 58 69 59 38 60 23 61 24 62 32 63 25 64 31 65 26 66
REMARK SMILES IDX 27 67 28 68 29 69 30 70 53 71 54 72 62 73 55 74 61 75 56 76
REMARK SMILES IDX 57 77 58 78 59 79 60 80 39 81 40 82 48 83 41 84 47 85 42 86
REMARK SMILES IDX 43 87 44 88 45 89 46 90
REMARK H PARENT 80 19 67 46 37 57
REMARK Flexibility Score: inf
ROOT
ATOM      1  C   UNL A   1      40.268  20.185  26.249  1.00  0.00     0.202 C 
ENDROOT
BRANCH   1   2
ATOM      2  O   UNL A   1      41.572  19.811  26.688  1.00  0.00    -0.374 OA
BRANCH   2   3
ATOM      3  C   UNL A   1      42.662  20.255  25.875  1.00  0.00     0.202 C 
BRANCH   3   4
ATOM      4  C   UNL A   1      43.206  21.658  26.171  1.00  0.00     0.261 C 
BRANCH   4   5
ATOM      5  O   UNL A   1      43.081  22.529  25.026  1.00  0.00    -0.463 OA
BRANCH   5   6
ATOM      6  C   UNL A   1      44.183  22.621  24.239  1.00  0.00     0.313 C 
ATOM      7  O   UNL A   1      44.171  22.460  23.021  1.00  0.00    -0.252 OA
BRANCH   6   8
ATOM      8  C   UNL A   1      45.426  23.134  24.947  1.00  0.00     0.126 C 
ATOM      9  C   UNL A   1      46.627  22.930  23.999  1.00  0.00     0.025 C 
BRANCH   8  10
ATOM     10  C   UNL A   1      45.450  24.500  25.633  1.00  0.00    -0.032 A 
ATOM     11  C   UNL A   1      46.507  24.985  26.414  1.00  0.00     0.005 A 
ATOM     12  C   UNL A   1      44.380  25.376  25.355  1.00  0.00     0.031 A 
ATOM     13  C   UNL A   1      46.517  26.315  26.902  1.00  0.00     0.011 A 
ATOM     14  C   UNL A   1      44.375  26.662  25.893  1.00  0.00     0.047 A 
ATOM     15  C   UNL A   1      45.431  27.179  26.631  1.00  0.00     0.007 A 
ATOM     16  N   UNL A   1      43.405  27.625  25.816  1.00  0.00    -0.355 N 
ATOM     17  C   UNL A   1      45.101  28.552  26.915  1.00  0.00     0.009 A 
ATOM     18  C   UNL A   1      43.796  28.766  26.464  1.00  0.00     0.047 A 
ATOM     19  H   UNL A   1      42.541  27.513  25.357  1.00  0.00     0.167 HD
ATOM     20  C   UNL A   1      45.774  29.635  27.520  1.00  0.00     0.031 A 
ATOM     21  C   UNL A   1      43.091  29.957  26.663  1.00  0.00     0.028 A 
ATOM     22  C   UNL A   1      45.098  30.853  27.677  1.00  0.00     0.041 A 
ATOM     23  C   UNL A   1      43.769  31.005  27.285  1.00  0.00     0.022 A 
ATOM     24  Cl  UNL A   1      45.923  32.204  28.358  1.00  0.00    -0.084 Cl
ENDBRANCH   8  10
ENDBRANCH   6   8
ENDBRANCH   5   6
ENDBRANCH   4   5
ENDBRANCH   3   4
ENDBRANCH   2   3
ENDBRANCH   1   2
BRANCH   1  25
ATOM     25  C   UNL A   1      39.729  21.543  26.708  1.00  0.00     0.261 C 
BRANCH  25  26
ATOM     26  O   UNL A   1      39.007  22.210  25.664  1.00  0.00    -0.460 OA
BRANCH  26  27
ATOM     27  C   UNL A   1      38.182  23.190  26.098  1.00  0.00     0.338 C 
ATOM     28  O   UNL A   1      36.957  23.185  26.074  1.00  0.00    -0.246 OA
BRANCH  27  29
ATOM     29  C   UNL A   1      38.961  24.225  26.799  1.00  0.00     0.060 A 
ATOM     30  C   UNL A   1      38.661  24.447  28.150  1.00  0.00     0.016 A 
ATOM     31  C   UNL A   1      39.931  24.991  26.148  1.00  0.00     0.016 A 
ATOM     32  C   UNL A   1      39.280  25.484  28.838  1.00  0.00     0.010 A 
ATOM     33  C   UNL A   1      40.549  26.036  26.841  1.00  0.00     0.010 A 
ATOM     34  C   UNL A   1      40.193  26.313  28.173  1.00  0.00    -0.014 A 
BRANCH  34  35
ATOM     35  C   UNL A   1      40.651  27.560  28.828  1.00  0.00     0.031 A 
ATOM     36  C   UNL A   1      42.048  27.614  29.386  1.00  0.00     0.074 A 
ATOM     37  C   UNL A   1      39.848  28.637  28.890  1.00  0.00     0.049 A 
ATOM     38  N   UNL A   1      42.650  28.590  30.014  1.00  0.00    -0.248 NA
ATOM     39  C   UNL A   1      42.873  26.408  29.214  1.00  0.00     0.031 C 
ATOM     40  C   UNL A   1      38.493  28.712  28.345  1.00  0.00     0.029 A 
ATOM     41  N   UNL A   1      40.060  29.874  29.443  1.00  0.00    -0.354 N 
ATOM     42  C   UNL A   1      43.920  28.114  30.320  1.00  0.00     0.074 A 
ATOM     43  C   UNL A   1      43.989  26.752  29.838  1.00  0.00     0.031 C 
ATOM     44  C   UNL A   1      37.991  29.934  28.598  1.00  0.00     0.029 A 
ATOM     45  C   UNL A   1      38.973  30.709  29.351  1.00  0.00     0.049 A 
ATOM     46  H   UNL A   1      40.909  30.137  29.865  1.00  0.00     0.167 HD
ATOM     47  C   UNL A   1      44.939  28.757  30.937  1.00  0.00     0.031 A 
ATOM     48  C   UNL A   1      38.786  31.951  29.840  1.00  0.00     0.031 A 
ATOM     49  C   UNL A   1      44.855  30.107  31.426  1.00  0.00     0.049 A 
ATOM     50  C   UNL A   1      39.907  32.621  30.588  1.00  0.00     0.074 A 
ATOM     51  C   UNL A   1      45.832  30.856  32.060  1.00  0.00     0.029 A 
ATOM     52  N   UNL A   1      43.726  30.909  31.345  1.00  0.00    -0.354 N 
ATOM     53  N   UNL A   1      41.111  32.167  30.851  1.00  0.00    -0.248 NA
ATOM     54  C   UNL A   1      39.651  33.975  31.097  1.00  0.00     0.031 C 
ATOM     55  C   UNL A   1      45.274  32.088  32.414  1.00  0.00     0.029 A 
ATOM     56  C   UNL A   1      43.972  32.135  31.940  1.00  0.00     0.049 A 
ATOM     57  H   UNL A   1      42.875  30.646  30.926  1.00  0.00     0.167 HD
ATOM     58  C   UNL A   1      41.763  33.191  31.531  1.00  0.00     0.074 A 
ATOM     59  C   UNL A   1      40.826  34.291  31.625  1.00  0.00     0.031 C 
ATOM     60  C   UNL A   1      43.025  33.219  32.029  1.00  0.00     0.031 A 
BRANCH  47  61
ATOM     61  C   UNL A   1      46.220  27.991  31.148  1.00  0.00    -0.014 A 
ATOM     62  C   UNL A   1      47.256  28.022  30.197  1.00  0.00     0.010 A 
ATOM     63  C   UNL A   1      46.401  27.250  32.331  1.00  0.00     0.010 A 
ATOM     64  C   UNL A   1      48.431  27.294  30.406  1.00  0.00     0.020 A 
ATOM     65  C   UNL A   1      47.587  26.546  32.557  1.00  0.00     0.020 A 
ATOM     66  C   UNL A   1      48.589  26.559  31.585  1.00  0.00     0.054 A 
BRANCH  66  67
ATOM     67  S   UNL A   1      50.131  25.638  31.837  1.00  0.00     0.124 S 
ATOM     68  O   UNL A   1      49.775  24.749  32.940  1.00  0.00    -0.237 OA
ATOM     69  O   UNL A   1      50.329  24.986  30.544  1.00  0.00    -0.237 OA
ATOM     70  O   UNL A   1      51.106  26.676  32.163  1.00  0.00    -0.744 OA
ENDBRANCH  66  67
ENDBRANCH  47  61
BRANCH  48  71
ATOM     71  C   UNL A   1      37.474  32.629  29.652  1.00  0.00    -0.014 A 
ATOM     72  C   UNL A   1      36.640  32.905  30.749  1.00  0.00     0.010 A 
ATOM     73  C   UNL A   1      37.057  33.015  28.363  1.00  0.00     0.010 A 
ATOM     74  C   UNL A   1      35.409  33.543  30.561  1.00  0.00     0.020 A 
ATOM     75  C   UNL A   1      35.843  33.679  28.175  1.00  0.00     0.020 A 
ATOM     76  C   UNL A   1      35.021  33.931  29.274  1.00  0.00     0.054 A 
BRANCH  76  77
ATOM     77  S   UNL A   1      33.449  34.810  29.063  1.00  0.00     0.124 S 
ATOM     78  O   UNL A   1      32.887  34.758  30.409  1.00  0.00    -0.237 OA
ATOM     79  O   UNL A   1      33.885  36.128  28.608  1.00  0.00    -0.237 OA
ATOM     80  O   UNL A   1      32.745  34.015  28.059  1.00  0.00    -0.744 OA
ENDBRANCH  76  77
ENDBRANCH  48  71
BRANCH  60  81
ATOM     81  C   UNL A   1      43.482  34.492  32.691  1.00  0.00    -0.014 A 
ATOM     82  C   UNL A   1      43.357  34.683  34.079  1.00  0.00     0.010 A 
ATOM     83  C   UNL A   1      44.102  35.490  31.917  1.00  0.00     0.010 A 
ATOM     84  C   UNL A   1      43.812  35.863  34.674  1.00  0.00     0.020 A 
ATOM     85  C   UNL A   1      44.587  36.658  32.512  1.00  0.00     0.020 A 
ATOM     86  C   UNL A   1      44.425  36.843  33.886  1.00  0.00     0.054 A 
BRANCH  86  87
ATOM     87  S   UNL A   1      45.047  38.346  34.689  1.00  0.00     0.124 S 
ATOM     88  O   UNL A   1      45.972  37.800  35.680  1.00  0.00    -0.237 OA
ATOM     89  O   UNL A   1      45.667  39.067  33.582  1.00  0.00    -0.237 OA
ATOM     90  O   UNL A   1      43.845  38.970  35.238  1.00  0.00    -0.744 OA
ENDBRANCH  86  87
ENDBRANCH  60  81
ENDBRANCH  34  35
ENDBRANCH  27  29
ENDBRANCH  26  27
ENDBRANCH  25  26
ENDBRANCH   1  25
TORSDOF 18
ENDMDL
MODEL 3
REMARK VINA RESULT:     -10.4      0.820      8.222
REMARK SMILES C[C@H](C(=O)OCCOCCOC(=O)c1ccc(-c2c3nc(c(-c4ccc(S(=O)(=O)[O-])cc4)c4ccc([nH]4)c(-c4ccc(S(=O)(=O)[O-])cc4)c4nc(c(-c5ccc(S(=O)(=O)[O-])cc5)c5ccc2[nH]5)C=C4)C=C3)cc1)c1ccc2c(c1)[nH]c1ccc(Cl)cc12
REMARK SMILES IDX 9 1 8 2 7 3 6 4 5 5 3 6 4 7 2 8 1 9 74 10 75 11 79 12 76 13
REMARK SMILES IDX 78 14 77 15 80 16 87 17 81 18 86 20 82 21 84 22 83 23 85 24
REMARK SMILES IDX 10 25 11 26 12 27 13 28 14 29 15 30 73 31 16 32 72 33 17 34
REMARK SMILES IDX 18 35 19 36 66 37 20 38 71 39 65 40 67 41 21 42 70 43 64 44
REMARK SMILES IDX 63 45 22 47 52 48 33 49 51 50 34 51 37 52 50 53 68 54 35 55
REMARK SMILES IDX 36 56 49 58 69 59 38 60 23 61 24 62 32 63 25 64 31 65 26 66
REMARK SMILES IDX 27 67 28 68 29 69 30 70 53 71 54 72 62 73 55 74 61 75 56 76
REMARK SMILES IDX 57 77 58 78 59 79 60 80 39 81 40 82 48 83 41 84 47 85 42 86
REMARK SMILES IDX 43 87 44 88 45 89 46 90
REMARK H PARENT 80 19 67 46 37 57
REMARK Flexibility Score: inf
ROOT
ATOM      1  C   UNL A   1      45.400  24.049  25.128  1.00  0.00     0.202 C 
ENDROOT
BRANCH   1   2
ATOM      2  O   UNL A   1      45.416  23.345  23.888  1.00  0.00    -0.374 OA
BRANCH   2   3
ATOM      3  C   UNL A   1      44.756  22.076  23.874  1.00  0.00     0.202 C 
BRANCH   3   4
ATOM      4  C   UNL A   1      44.485  21.435  25.241  1.00  0.00     0.261 C 
BRANCH   4   5
ATOM      5  O   UNL A   1      43.087  21.511  25.596  1.00  0.00    -0.463 OA
BRANCH   5   6
ATOM      6  C   UNL A   1      42.421  20.327  25.605  1.00  0.00     0.313 C 
ATOM      7  O   UNL A   1      42.846  19.298  25.085  1.00  0.00    -0.252 OA
BRANCH   6   8
ATOM      8  C   UNL A   1      41.179  20.305  26.480  1.00  0.00     0.126 C 
ATOM      9  C   UNL A   1      41.487  21.114  27.757  1.00  0.00     0.025 C 
BRANCH   8  10
ATOM     10  C   UNL A   1      39.794  20.618  25.911  1.00  0.00    -0.032 A 
ATOM     11  C   UNL A   1      38.948  19.681  25.306  1.00  0.00     0.005 A 
ATOM     12  C   UNL A   1      39.293  21.919  26.123  1.00  0.00     0.031 A 
ATOM     13  C   UNL A   1      37.623  20.015  24.928  1.00  0.00     0.011 A 
ATOM     14  C   UNL A   1      38.010  22.249  25.691  1.00  0.00     0.047 A 
ATOM     15  C   UNL A   1      37.136  21.327  25.131  1.00  0.00     0.007 A 
ATOM     16  N   UNL A   1      37.374  23.462  25.723  1.00  0.00    -0.355 N 
ATOM     17  C   UNL A   1      35.891  22.016  24.917  1.00  0.00     0.009 A 
ATOM     18  C   UNL A   1      36.105  23.363  25.219  1.00  0.00     0.047 A 
ATOM     19  H   UNL A   1      37.777  24.294  26.063  1.00  0.00     0.167 HD
ATOM     20  C   UNL A   1      34.601  21.636  24.486  1.00  0.00     0.031 A 
ATOM     21  C   UNL A   1      35.148  24.364  25.029  1.00  0.00     0.028 A 
ATOM     22  C   UNL A   1      33.614  22.621  24.343  1.00  0.00     0.041 A 
ATOM     23  C   UNL A   1      33.889  23.967  24.580  1.00  0.00     0.022 A 
ATOM     24  Cl  UNL A   1      32.019  22.167  23.877  1.00  0.00    -0.084 Cl
ENDBRANCH   8  10
ENDBRANCH   6   8
ENDBRANCH   5   6
ENDBRANCH   4   5
ENDBRANCH   3   4
ENDBRANCH   2   3
ENDBRANCH   1   2
BRANCH   1  25
ATOM     25  C   UNL A   1      44.437  25.233  25.256  1.00  0.00     0.261 C 
BRANCH  25  26
ATOM     26  O   UNL A   1      43.192  24.845  25.854  1.00  0.00    -0.460 OA
BRANCH  26  27
ATOM     27  C   UNL A   1      42.241  25.806  25.829  1.00  0.00     0.338 C 
ATOM     28  O   UNL A   1      41.408  25.994  24.951  1.00  0.00    -0.246 OA
BRANCH  27  29
ATOM     29  C   UNL A   1      42.209  26.511  27.122  1.00  0.00     0.060 A 
ATOM     30  C   UNL A   1      41.247  26.098  28.053  1.00  0.00     0.016 A 
ATOM     31  C   UNL A   1      43.066  27.576  27.407  1.00  0.00     0.016 A 
ATOM     32  C   UNL A   1      41.090  26.794  29.246  1.00  0.00     0.010 A 
ATOM     33  C   UNL A   1      42.904  28.277  28.605  1.00  0.00     0.010 A 
ATOM     34  C   UNL A   1      41.887  27.915  29.507  1.00  0.00    -0.014 A 
BRANCH  34  35
ATOM     35  C   UNL A   1      41.547  28.797  30.647  1.00  0.00     0.031 A 
ATOM     36  C   UNL A   1      42.369  28.707  31.904  1.00  0.00     0.074 A 
ATOM     37  C   UNL A   1      40.545  29.690  30.549  1.00  0.00     0.049 A 
ATOM     38  N   UNL A   1      42.240  29.366  33.026  1.00  0.00    -0.248 NA
ATOM     39  C   UNL A   1      43.484  27.746  31.893  1.00  0.00     0.031 C 
ATOM     40  C   UNL A   1      39.710  29.895  29.366  1.00  0.00     0.029 A 
ATOM     41  N   UNL A   1      40.061  30.589  31.464  1.00  0.00    -0.354 N 
ATOM     42  C   UNL A   1      43.249  28.894  33.857  1.00  0.00     0.074 A 
ATOM     43  C   UNL A   1      43.960  27.870  33.123  1.00  0.00     0.031 C 
ATOM     44  C   UNL A   1      38.810  30.858  29.631  1.00  0.00     0.029 A 
ATOM     45  C   UNL A   1      38.982  31.308  31.010  1.00  0.00     0.049 A 
ATOM     46  H   UNL A   1      40.451  30.708  32.361  1.00  0.00     0.167 HD
ATOM     47  C   UNL A   1      43.561  29.284  35.116  1.00  0.00     0.031 A 
ATOM     48  C   UNL A   1      38.209  32.212  31.644  1.00  0.00     0.031 A 
ATOM     49  C   UNL A   1      42.838  30.293  35.844  1.00  0.00     0.049 A 
ATOM     50  C   UNL A   1      38.529  32.578  33.069  1.00  0.00     0.074 A 
ATOM     51  C   UNL A   1      43.076  30.769  37.122  1.00  0.00     0.029 A 
ATOM     52  N   UNL A   1      41.730  30.974  35.362  1.00  0.00    -0.354 N 
ATOM     53  N   UNL A   1      39.500  32.140  33.835  1.00  0.00    -0.248 NA
ATOM     54  C   UNL A   1      37.655  33.570  33.711  1.00  0.00     0.031 C 
ATOM     55  C   UNL A   1      42.076  31.695  37.434  1.00  0.00     0.029 A 
ATOM     56  C   UNL A   1      41.256  31.848  36.327  1.00  0.00     0.049 A 
ATOM     57  H   UNL A   1      41.338  30.854  34.467  1.00  0.00     0.167 HD
ATOM     58  C   UNL A   1      39.370  32.823  35.041  1.00  0.00     0.074 A 
ATOM     59  C   UNL A   1      38.237  33.714  34.894  1.00  0.00     0.031 C 
ATOM     60  C   UNL A   1      40.123  32.725  36.166  1.00  0.00     0.031 A 
BRANCH  47  61
ATOM     61  C   UNL A   1      44.715  28.591  35.795  1.00  0.00    -0.014 A 
ATOM     62  C   UNL A   1      44.551  27.343  36.423  1.00  0.00     0.010 A 
ATOM     63  C   UNL A   1      45.991  29.184  35.778  1.00  0.00     0.010 A 
ATOM     64  C   UNL A   1      45.631  26.723  37.058  1.00  0.00     0.020 A 
ATOM     65  C   UNL A   1      47.080  28.552  36.383  1.00  0.00     0.020 A 
ATOM     66  C   UNL A   1      46.889  27.332  37.035  1.00  0.00     0.054 A 
BRANCH  66  67
ATOM     67  S   UNL A   1      48.276  26.496  37.851  1.00  0.00     0.124 S 
ATOM     68  O   UNL A   1      48.821  27.561  38.690  1.00  0.00    -0.237 OA
ATOM     69  O   UNL A   1      47.616  25.408  38.569  1.00  0.00    -0.237 OA
ATOM     70  O   UNL A   1      49.131  26.078  36.743  1.00  0.00    -0.744 OA
ENDBRANCH  66  67
ENDBRANCH  47  61
BRANCH  48  71
ATOM     71  C   UNL A   1      37.046  32.814  30.937  1.00  0.00    -0.014 A 
ATOM     72  C   UNL A   1      35.742  32.335  31.154  1.00  0.00     0.010 A 
ATOM     73  C   UNL A   1      37.239  33.886  30.045  1.00  0.00     0.010 A 
ATOM     74  C   UNL A   1      34.656  32.909  30.485  1.00  0.00     0.020 A 
ATOM     75  C   UNL A   1      36.154  34.481  29.398  1.00  0.00     0.020 A 
ATOM     76  C   UNL A   1      34.869  33.983  29.615  1.00  0.00     0.054 A 
BRANCH  76  77
ATOM     77  S   UNL A   1      33.438  34.749  28.804  1.00  0.00     0.124 S 
ATOM     78  O   UNL A   1      32.537  34.976  29.929  1.00  0.00    -0.237 OA
ATOM     79  O   UNL A   1      34.021  35.947  28.206  1.00  0.00    -0.237 OA
ATOM     80  O   UNL A   1      33.004  33.733  27.847  1.00  0.00    -0.744 OA
ENDBRANCH  76  77
ENDBRANCH  48  71
BRANCH  60  81
ATOM     81  C   UNL A   1      39.770  33.628  37.319  1.00  0.00    -0.014 A 
ATOM     82  C   UNL A   1      39.048  33.153  38.428  1.00  0.00     0.010 A 
ATOM     83  C   UNL A   1      40.221  34.961  37.316  1.00  0.00     0.010 A 
ATOM     84  C   UNL A   1      38.755  34.003  39.497  1.00  0.00     0.020 A 
ATOM     85  C   UNL A   1      39.957  35.806  38.397  1.00  0.00     0.020 A 
ATOM     86  C   UNL A   1      39.213  35.325  39.475  1.00  0.00     0.054 A 
BRANCH  86  87
ATOM     87  S   UNL A   1      38.857  36.396  40.895  1.00  0.00     0.124 S 
ATOM     88  O   UNL A   1      37.797  35.656  41.576  1.00  0.00    -0.237 OA
ATOM     89  O   UNL A   1      40.140  36.440  41.593  1.00  0.00    -0.237 OA
ATOM     90  O   UNL A   1      38.442  37.657  40.285  1.00  0.00    -0.744 OA
ENDBRANCH  86  87
ENDBRANCH  60  81
ENDBRANCH  34  35
ENDBRANCH  27  29
ENDBRANCH  26  27
ENDBRANCH  25  26
ENDBRANCH   1  25
TORSDOF 18
ENDMDL
