MODEL 1
REMARK VINA RESULT:     -11.0      0.000      0.000
REMARK SMILES [NH3+][C@@]1(C(=O)OCCOCCOC(=O)c2ccc(-c3c4nc(c(-c5ccc(S(=O)(=O)[O-])cc5)c5ccc([nH]5)c(-c5ccc(S(=O)(=O)[O-])cc5)c5nc(c(-c6ccc(S(=O)(=O)[O-])cc6)c6ccc3[nH]6)C=C5)C=C4)cc2)CC[C@@H]([N@H+]2CC[C@H]([NH+]3CCOCC3)C2)C1
REMARK SMILES IDX 9 1 8 2 7 3 6 4 5 5 3 6 4 7 2 8 74 9 88 10 75 11 76 12 1 13
REMARK SMILES IDX 77 17 78 18 87 19 79 21 80 22 81 23 82 24 86 25 83 27 85 28
REMARK SMILES IDX 84 29 10 30 11 31 12 32 13 33 14 34 15 35 73 36 16 37 72 38
REMARK SMILES IDX 17 39 18 40 19 41 66 42 20 43 71 44 65 45 67 46 21 47 70 48
REMARK SMILES IDX 64 49 63 50 22 52 52 53 33 54 51 55 34 56 37 57 50 58 68 59
REMARK SMILES IDX 35 60 36 61 49 63 69 64 38 65 23 66 24 67 32 68 25 69 31 70
REMARK SMILES IDX 26 71 27 72 28 73 29 74 30 75 53 76 54 77 62 78 55 79 61 80
REMARK SMILES IDX 56 81 57 82 58 83 59 84 60 85 39 86 40 87 48 88 41 89 47 90
REMARK SMILES IDX 42 91 43 92 44 93 45 94 46 95
REMARK H PARENT 1 14 1 15 1 16 77 20 81 26 67 51 37 62
REMARK Flexibility Score: inf
ROOT
ATOM      1  C   UNL A   1      37.976  22.670  26.091  1.00  0.00     0.202 C 
ENDROOT
BRANCH   1   2
ATOM      2  O   UNL A   1      37.354  22.099  24.941  1.00  0.00    -0.374 OA
BRANCH   2   3
ATOM      3  C   UNL A   1      36.195  21.289  25.150  1.00  0.00     0.202 C 
BRANCH   3   4
ATOM      4  C   UNL A   1      34.899  21.765  24.485  1.00  0.00     0.261 C 
BRANCH   4   5
ATOM      5  O   UNL A   1      34.702  23.169  24.714  1.00  0.00    -0.459 OA
BRANCH   5   6
ATOM      6  C   UNL A   1      34.228  23.879  23.660  1.00  0.00     0.368 C 
ATOM      7  O   UNL A   1      34.409  23.595  22.479  1.00  0.00    -0.245 OA
BRANCH   6   8
ATOM      8  C   UNL A   1      33.347  25.080  24.098  1.00  0.00     0.198 C 
ATOM      9  C   UNL A   1      31.947  24.564  24.451  1.00  0.00     0.087 C 
ATOM     10  C   UNL A   1      33.149  26.172  23.019  1.00  0.00     0.145 C 
ATOM     11  C   UNL A   1      31.086  24.946  23.256  1.00  0.00     0.072 C 
ATOM     12  C   UNL A   1      31.639  26.286  22.755  1.00  0.00     0.191 C 
BRANCH   8  13
ATOM     13  N   UNL A   1      33.988  25.673  25.309  1.00  0.00    -0.343 N 
ATOM     14  H   UNL A   1      34.736  25.060  25.632  1.00  0.00     0.345 HD
ATOM     15  H   UNL A   1      33.291  25.776  26.047  1.00  0.00     0.345 HD
ATOM     16  H   UNL A   1      34.374  26.588  25.076  1.00  0.00     0.345 HD
ENDBRANCH   8  13
BRANCH  12  17
ATOM     17  N   UNL A   1      30.971  27.452  23.344  1.00  0.00    -0.327 N 
ATOM     18  C   UNL A   1      31.797  28.379  24.110  1.00  0.00     0.269 C 
ATOM     19  C   UNL A   1      30.247  28.267  22.357  1.00  0.00     0.328 C 
ATOM     20  H   UNL A   1      30.342  26.982  23.995  1.00  0.00     0.348 HD
ATOM     21  C   UNL A   1      30.871  29.558  24.324  1.00  0.00     0.132 C 
ATOM     22  C   UNL A   1      30.061  29.652  23.030  1.00  0.00     0.245 C 
BRANCH  22  23
ATOM     23  N   UNL A   1      28.695  30.193  23.097  1.00  0.00    -0.324 N 
ATOM     24  C   UNL A   1      27.977  30.185  21.810  1.00  0.00     0.291 C 
ATOM     25  C   UNL A   1      28.531  31.512  23.740  1.00  0.00     0.291 C 
ATOM     26  H   UNL A   1      28.264  29.518  23.728  1.00  0.00     0.348 HD
ATOM     27  C   UNL A   1      28.185  31.431  20.930  1.00  0.00     0.221 C 
ATOM     28  C   UNL A   1      28.734  32.729  22.827  1.00  0.00     0.221 C 
ATOM     29  O   UNL A   1      27.928  32.644  21.646  1.00  0.00    -0.370 OA
ENDBRANCH  22  23
ENDBRANCH  12  17
ENDBRANCH   6   8
ENDBRANCH   5   6
ENDBRANCH   4   5
ENDBRANCH   3   4
ENDBRANCH   2   3
ENDBRANCH   1   2
BRANCH   1  30
ATOM     30  C   UNL A   1      39.505  22.573  26.187  1.00  0.00     0.261 C 
BRANCH  30  31
ATOM     31  O   UNL A   1      40.044  23.365  27.261  1.00  0.00    -0.460 OA
BRANCH  31  32
ATOM     32  C   UNL A   1      40.760  24.445  26.864  1.00  0.00     0.338 C 
ATOM     33  O   UNL A   1      41.381  24.571  25.815  1.00  0.00    -0.246 OA
BRANCH  32  34
ATOM     34  C   UNL A   1      40.532  25.570  27.787  1.00  0.00     0.060 A 
ATOM     35  C   UNL A   1      41.489  26.594  27.806  1.00  0.00     0.016 A 
ATOM     36  C   UNL A   1      39.440  25.603  28.658  1.00  0.00     0.016 A 
ATOM     37  C   UNL A   1      41.371  27.643  28.714  1.00  0.00     0.010 A 
ATOM     38  C   UNL A   1      39.333  26.654  29.578  1.00  0.00     0.010 A 
ATOM     39  C   UNL A   1      40.309  27.667  29.625  1.00  0.00    -0.014 A 
BRANCH  39  40
ATOM     40  C   UNL A   1      40.272  28.706  30.684  1.00  0.00     0.031 A 
ATOM     41  C   UNL A   1      41.212  28.607  31.854  1.00  0.00     0.074 A 
ATOM     42  C   UNL A   1      39.423  29.747  30.586  1.00  0.00     0.049 A 
ATOM     43  N   UNL A   1      41.323  29.396  32.892  1.00  0.00    -0.248 NA
ATOM     44  C   UNL A   1      42.150  27.473  31.854  1.00  0.00     0.031 C 
ATOM     45  C   UNL A   1      38.496  29.978  29.479  1.00  0.00     0.029 A 
ATOM     46  N   UNL A   1      39.202  30.801  31.437  1.00  0.00    -0.354 N 
ATOM     47  C   UNL A   1      42.337  28.853  33.673  1.00  0.00     0.074 A 
ATOM     48  C   UNL A   1      42.793  27.655  32.999  1.00  0.00     0.031 C 
ATOM     49  C   UNL A   1      37.798  31.101  29.724  1.00  0.00     0.029 A 
ATOM     50  C   UNL A   1      38.202  31.646  31.019  1.00  0.00     0.049 A 
ATOM     51  H   UNL A   1      39.713  30.939  32.267  1.00  0.00     0.167 HD
ATOM     52  C   UNL A   1      42.843  29.312  34.843  1.00  0.00     0.031 A 
ATOM     53  C   UNL A   1      37.654  32.719  31.621  1.00  0.00     0.031 A 
ATOM     54  C   UNL A   1      42.377  30.494  35.519  1.00  0.00     0.049 A 
ATOM     55  C   UNL A   1      38.176  33.159  32.963  1.00  0.00     0.074 A 
ATOM     56  C   UNL A   1      42.844  31.051  36.697  1.00  0.00     0.029 A 
ATOM     57  N   UNL A   1      41.330  31.294  35.088  1.00  0.00    -0.354 N 
ATOM     58  N   UNL A   1      39.159  32.654  33.672  1.00  0.00    -0.248 NA
ATOM     59  C   UNL A   1      37.518  34.317  33.586  1.00  0.00     0.031 C 
ATOM     60  C   UNL A   1      42.038  32.150  37.011  1.00  0.00     0.029 A 
ATOM     61  C   UNL A   1      41.111  32.317  35.996  1.00  0.00     0.049 A 
ATOM     62  H   UNL A   1      40.818  31.156  34.259  1.00  0.00     0.167 HD
ATOM     63  C   UNL A   1      39.246  33.444  34.814  1.00  0.00     0.074 A 
ATOM     64  C   UNL A   1      38.233  34.471  34.692  1.00  0.00     0.031 C 
ATOM     65  C   UNL A   1      40.091  33.328  35.870  1.00  0.00     0.031 A 
BRANCH  52  66
ATOM     66  C   UNL A   1      43.940  28.509  35.492  1.00  0.00    -0.014 A 
ATOM     67  C   UNL A   1      45.295  28.765  35.212  1.00  0.00     0.010 A 
ATOM     68  C   UNL A   1      43.611  27.522  36.439  1.00  0.00     0.010 A 
ATOM     69  C   UNL A   1      46.298  28.025  35.845  1.00  0.00     0.020 A 
ATOM     70  C   UNL A   1      44.611  26.798  37.091  1.00  0.00     0.020 A 
ATOM     71  C   UNL A   1      45.949  27.045  36.780  1.00  0.00     0.054 A 
BRANCH  71  72
ATOM     72  S   UNL A   1      47.273  26.120  37.607  1.00  0.00     0.124 S 
ATOM     73  O   UNL A   1      46.565  24.928  38.069  1.00  0.00    -0.237 OA
ATOM     74  O   UNL A   1      48.233  25.902  36.528  1.00  0.00    -0.237 OA
ATOM     75  O   UNL A   1      47.721  27.024  38.663  1.00  0.00    -0.744 OA
ENDBRANCH  71  72
ENDBRANCH  52  66
BRANCH  53  76
ATOM     76  C   UNL A   1      36.517  33.432  30.977  1.00  0.00    -0.014 A 
ATOM     77  C   UNL A   1      35.362  33.756  31.708  1.00  0.00     0.010 A 
ATOM     78  C   UNL A   1      36.589  33.788  29.617  1.00  0.00     0.010 A 
ATOM     79  C   UNL A   1      34.293  34.410  31.088  1.00  0.00     0.020 A 
ATOM     80  C   UNL A   1      35.536  34.469  29.002  1.00  0.00     0.020 A 
ATOM     81  C   UNL A   1      34.389  34.766  29.739  1.00  0.00     0.054 A 
BRANCH  81  82
ATOM     82  S   UNL A   1      33.013  35.664  28.970  1.00  0.00     0.124 S 
ATOM     83  O   UNL A   1      32.471  34.664  28.055  1.00  0.00    -0.237 OA
ATOM     84  O   UNL A   1      32.173  35.996  30.118  1.00  0.00    -0.237 OA
ATOM     85  O   UNL A   1      33.666  36.807  28.335  1.00  0.00    -0.744 OA
ENDBRANCH  81  82
ENDBRANCH  53  76
BRANCH  65  86
ATOM     86  C   UNL A   1      39.969  34.347  36.972  1.00  0.00    -0.014 A 
ATOM     87  C   UNL A   1      40.555  35.620  36.854  1.00  0.00     0.010 A 
ATOM     88  C   UNL A   1      39.212  34.046  38.120  1.00  0.00     0.010 A 
ATOM     89  C   UNL A   1      40.414  36.561  37.878  1.00  0.00     0.020 A 
ATOM     90  C   UNL A   1      39.045  34.995  39.133  1.00  0.00     0.020 A 
ATOM     91  C   UNL A   1      39.659  36.243  39.010  1.00  0.00     0.054 A 
BRANCH  91  92
ATOM     92  S   UNL A   1      39.455  37.497  40.305  1.00  0.00     0.124 S 
ATOM     93  O   UNL A   1      38.589  38.474  39.649  1.00  0.00    -0.237 OA
ATOM     94  O   UNL A   1      38.838  36.740  41.392  1.00  0.00    -0.237 OA
ATOM     95  O   UNL A   1      40.819  37.951  40.566  1.00  0.00    -0.744 OA
ENDBRANCH  91  92
ENDBRANCH  65  86
ENDBRANCH  39  40
ENDBRANCH  32  34
ENDBRANCH  31  32
ENDBRANCH  30  31
ENDBRANCH   1  30
TORSDOF 20
ENDMDL
MODEL 2
REMARK VINA RESULT:     -10.7      6.619     12.480
REMARK SMILES [NH3+][C@@]1(C(=O)OCCOCCOC(=O)c2ccc(-c3c4nc(c(-c5ccc(S(=O)(=O)[O-])cc5)c5ccc([nH]5)c(-c5ccc(S(=O)(=O)[O-])cc5)c5nc(c(-c6ccc(S(=O)(=O)[O-])cc6)c6ccc3[nH]6)C=C5)C=C4)cc2)CC[C@@H]([N@H+]2CC[C@H]([NH+]3CCOCC3)C2)C1
REMARK SMILES IDX 9 1 8 2 7 3 6 4 5 5 3 6 4 7 2 8 74 9 88 10 75 11 76 12 1 13
REMARK SMILES IDX 77 17 78 18 87 19 79 21 80 22 81 23 82 24 86 25 83 27 85 28
REMARK SMILES IDX 84 29 10 30 11 31 12 32 13 33 14 34 15 35 73 36 16 37 72 38
REMARK SMILES IDX 17 39 18 40 19 41 66 42 20 43 71 44 65 45 67 46 21 47 70 48
REMARK SMILES IDX 64 49 63 50 22 52 52 53 33 54 51 55 34 56 37 57 50 58 68 59
REMARK SMILES IDX 35 60 36 61 49 63 69 64 38 65 23 66 24 67 32 68 25 69 31 70
REMARK SMILES IDX 26 71 27 72 28 73 29 74 30 75 53 76 54 77 62 78 55 79 61 80
REMARK SMILES IDX 56 81 57 82 58 83 59 84 60 85 39 86 40 87 48 88 41 89 47 90
REMARK SMILES IDX 42 91 43 92 44 93 45 94 46 95
REMARK H PARENT 1 14 1 15 1 16 77 20 81 26 67 51 37 62
REMARK Flexibility Score: inf
ROOT
ATOM      1  C   UNL A   1      33.285  31.290  27.643  1.00  0.00     0.202 C 
ENDROOT
BRANCH   1   2
ATOM      2  O   UNL A   1      32.599  30.356  26.810  1.00  0.00    -0.374 OA
BRANCH   2   3
ATOM      3  C   UNL A   1      33.350  29.719  25.774  1.00  0.00     0.202 C 
BRANCH   3   4
ATOM      4  C   UNL A   1      33.398  28.188  25.808  1.00  0.00     0.261 C 
BRANCH   4   5
ATOM      5  O   UNL A   1      32.155  27.634  25.352  1.00  0.00    -0.459 OA
BRANCH   5   6
ATOM      6  C   UNL A   1      31.640  26.633  26.109  1.00  0.00     0.368 C 
ATOM      7  O   UNL A   1      31.298  26.741  27.284  1.00  0.00    -0.245 OA
BRANCH   6   8
ATOM      8  C   UNL A   1      31.447  25.318  25.307  1.00  0.00     0.198 C 
ATOM      9  C   UNL A   1      30.302  24.517  25.938  1.00  0.00     0.087 C 
ATOM     10  C   UNL A   1      32.677  24.378  25.290  1.00  0.00     0.145 C 
ATOM     11  C   UNL A   1      30.993  23.411  26.721  1.00  0.00     0.072 C 
ATOM     12  C   UNL A   1      32.238  23.040  25.905  1.00  0.00     0.191 C 
BRANCH   8  13
ATOM     13  N   UNL A   1      31.084  25.706  23.912  1.00  0.00    -0.343 N 
ATOM     14  H   UNL A   1      30.569  26.587  23.928  1.00  0.00     0.345 HD
ATOM     15  H   UNL A   1      30.502  24.979  23.497  1.00  0.00     0.345 HD
ATOM     16  H   UNL A   1      31.934  25.818  23.359  1.00  0.00     0.345 HD
ENDBRANCH   8  13
BRANCH  12  17
ATOM     17  N   UNL A   1      32.011  21.942  24.959  1.00  0.00    -0.327 N 
ATOM     18  C   UNL A   1      32.317  22.196  23.555  1.00  0.00     0.269 C 
ATOM     19  C   UNL A   1      32.726  20.708  25.318  1.00  0.00     0.328 C 
ATOM     20  H   UNL A   1      31.000  21.842  25.046  1.00  0.00     0.348 HD
ATOM     21  C   UNL A   1      32.233  20.816  22.936  1.00  0.00     0.132 C 
ATOM     22  C   UNL A   1      32.789  19.878  24.009  1.00  0.00     0.245 C 
BRANCH  22  23
ATOM     23  N   UNL A   1      32.288  18.496  24.059  1.00  0.00    -0.324 N 
ATOM     24  C   UNL A   1      32.597  17.785  25.313  1.00  0.00     0.291 C 
ATOM     25  C   UNL A   1      32.613  17.627  22.911  1.00  0.00     0.291 C 
ATOM     26  H   UNL A   1      31.284  18.667  24.007  1.00  0.00     0.348 HD
ATOM     27  C   UNL A   1      33.952  17.055  25.339  1.00  0.00     0.221 C 
ATOM     28  C   UNL A   1      33.966  16.906  22.981  1.00  0.00     0.221 C 
ATOM     29  O   UNL A   1      34.120  16.189  24.212  1.00  0.00    -0.370 OA
ENDBRANCH  22  23
ENDBRANCH  12  17
ENDBRANCH   6   8
ENDBRANCH   5   6
ENDBRANCH   4   5
ENDBRANCH   3   4
ENDBRANCH   2   3
ENDBRANCH   1   2
BRANCH   1  30
ATOM     30  C   UNL A   1      34.818  31.251  27.633  1.00  0.00     0.261 C 
BRANCH  30  31
ATOM     31  O   UNL A   1      35.354  30.266  28.535  1.00  0.00    -0.460 OA
BRANCH  31  32
ATOM     32  C   UNL A   1      36.305  30.730  29.381  1.00  0.00     0.338 C 
ATOM     33  O   UNL A   1      36.132  31.436  30.368  1.00  0.00    -0.246 OA
BRANCH  32  34
ATOM     34  C   UNL A   1      37.602  30.099  29.079  1.00  0.00     0.060 A 
ATOM     35  C   UNL A   1      38.459  29.836  30.156  1.00  0.00     0.016 A 
ATOM     36  C   UNL A   1      38.003  29.821  27.770  1.00  0.00     0.016 A 
ATOM     37  C   UNL A   1      39.729  29.315  29.927  1.00  0.00     0.010 A 
ATOM     38  C   UNL A   1      39.287  29.310  27.543  1.00  0.00     0.010 A 
ATOM     39  C   UNL A   1      40.164  29.075  28.618  1.00  0.00    -0.014 A 
BRANCH  39  40
ATOM     40  C   UNL A   1      41.568  28.661  28.374  1.00  0.00     0.031 A 
ATOM     41  C   UNL A   1      42.665  29.689  28.431  1.00  0.00     0.074 A 
ATOM     42  C   UNL A   1      41.864  27.370  28.131  1.00  0.00     0.049 A 
ATOM     43  N   UNL A   1      43.948  29.538  28.227  1.00  0.00    -0.248 NA
ATOM     44  C   UNL A   1      42.264  31.065  28.765  1.00  0.00     0.031 C 
ATOM     45  C   UNL A   1      40.896  26.275  28.094  1.00  0.00     0.029 A 
ATOM     46  N   UNL A   1      43.067  26.766  27.862  1.00  0.00    -0.354 N 
ATOM     47  C   UNL A   1      44.510  30.797  28.399  1.00  0.00     0.074 A 
ATOM     48  C   UNL A   1      43.424  31.706  28.704  1.00  0.00     0.031 C 
ATOM     49  C   UNL A   1      41.544  25.132  27.810  1.00  0.00     0.029 A 
ATOM     50  C   UNL A   1      42.962  25.420  27.608  1.00  0.00     0.049 A 
ATOM     51  H   UNL A   1      43.923  27.252  27.855  1.00  0.00     0.167 HD
ATOM     52  C   UNL A   1      45.811  31.164  28.314  1.00  0.00     0.031 A 
ATOM     53  C   UNL A   1      43.896  24.526  27.229  1.00  0.00     0.031 A 
ATOM     54  C   UNL A   1      46.887  30.263  27.995  1.00  0.00     0.049 A 
ATOM     55  C   UNL A   1      45.323  24.976  27.057  1.00  0.00     0.074 A 
ATOM     56  C   UNL A   1      48.241  30.537  27.909  1.00  0.00     0.029 A 
ATOM     57  N   UNL A   1      46.734  28.918  27.696  1.00  0.00    -0.354 N 
ATOM     58  N   UNL A   1      45.843  26.164  27.257  1.00  0.00    -0.248 NA
ATOM     59  C   UNL A   1      46.290  23.963  26.610  1.00  0.00     0.031 C 
ATOM     60  C   UNL A   1      48.898  29.374  27.496  1.00  0.00     0.029 A 
ATOM     61  C   UNL A   1      47.963  28.357  27.388  1.00  0.00     0.049 A 
ATOM     62  H   UNL A   1      45.878  28.432  27.703  1.00  0.00     0.167 HD
ATOM     63  C   UNL A   1      47.200  26.036  26.978  1.00  0.00     0.074 A 
ATOM     64  C   UNL A   1      47.424  24.651  26.616  1.00  0.00     0.031 C 
ATOM     65  C   UNL A   1      48.173  26.981  27.018  1.00  0.00     0.031 A 
BRANCH  52  66
ATOM     66  C   UNL A   1      46.144  32.617  28.532  1.00  0.00    -0.014 A 
ATOM     67  C   UNL A   1      46.128  33.536  27.468  1.00  0.00     0.010 A 
ATOM     68  C   UNL A   1      46.422  33.079  29.832  1.00  0.00     0.010 A 
ATOM     69  C   UNL A   1      46.415  34.886  27.696  1.00  0.00     0.020 A 
ATOM     70  C   UNL A   1      46.685  34.430  30.067  1.00  0.00     0.020 A 
ATOM     71  C   UNL A   1      46.692  35.324  28.995  1.00  0.00     0.054 A 
BRANCH  71  72
ATOM     72  S   UNL A   1      47.032  37.085  29.266  1.00  0.00     0.124 S 
ATOM     73  O   UNL A   1      45.921  37.477  30.130  1.00  0.00    -0.237 OA
ATOM     74  O   UNL A   1      48.346  37.062  29.904  1.00  0.00    -0.237 OA
ATOM     75  O   UNL A   1      47.005  37.655  27.922  1.00  0.00    -0.744 OA
ENDBRANCH  71  72
ENDBRANCH  52  66
BRANCH  53  76
ATOM     76  C   UNL A   1      43.504  23.118  26.946  1.00  0.00    -0.014 A 
ATOM     77  C   UNL A   1      43.661  22.569  25.662  1.00  0.00     0.010 A 
ATOM     78  C   UNL A   1      42.964  22.318  27.970  1.00  0.00     0.010 A 
ATOM     79  C   UNL A   1      43.274  21.251  25.404  1.00  0.00     0.020 A 
ATOM     80  C   UNL A   1      42.604  20.991  27.724  1.00  0.00     0.020 A 
ATOM     81  C   UNL A   1      42.750  20.469  26.438  1.00  0.00     0.054 A 
BRANCH  81  82
ATOM     82  S   UNL A   1      42.305  18.744  26.094  1.00  0.00     0.124 S 
ATOM     83  O   UNL A   1      43.212  18.408  25.002  1.00  0.00    -0.237 OA
ATOM     84  O   UNL A   1      42.579  18.088  27.371  1.00  0.00    -0.237 OA
ATOM     85  O   UNL A   1      40.891  18.823  25.735  1.00  0.00    -0.744 OA
ENDBRANCH  81  82
ENDBRANCH  53  76
BRANCH  65  86
ATOM     86  C   UNL A   1      49.575  26.548  26.678  1.00  0.00    -0.014 A 
ATOM     87  C   UNL A   1      50.436  26.033  27.663  1.00  0.00     0.010 A 
ATOM     88  C   UNL A   1      50.019  26.608  25.344  1.00  0.00     0.010 A 
ATOM     89  C   UNL A   1      51.727  25.617  27.326  1.00  0.00     0.020 A 
ATOM     90  C   UNL A   1      51.300  26.166  24.998  1.00  0.00     0.020 A 
ATOM     91  C   UNL A   1      52.151  25.685  25.995  1.00  0.00     0.054 A 
BRANCH  91  92
ATOM     92  S   UNL A   1      53.816  25.098  25.577  1.00  0.00     0.124 S 
ATOM     93  O   UNL A   1      54.570  25.444  26.779  1.00  0.00    -0.237 OA
ATOM     94  O   UNL A   1      53.606  23.669  25.356  1.00  0.00    -0.237 OA
ATOM     95  O   UNL A   1      54.163  25.863  24.382  1.00  0.00    -0.744 OA
ENDBRANCH  91  92
ENDBRANCH  65  86
ENDBRANCH  39  40
ENDBRANCH  32  34
ENDBRANCH  31  32
ENDBRANCH  30  31
ENDBRANCH   1  30
TORSDOF 20
ENDMDL
MODEL 3
REMARK VINA RESULT:     -10.7      6.217     10.532
REMARK SMILES [NH3+][C@@]1(C(=O)OCCOCCOC(=O)c2ccc(-c3c4nc(c(-c5ccc(S(=O)(=O)[O-])cc5)c5ccc([nH]5)c(-c5ccc(S(=O)(=O)[O-])cc5)c5nc(c(-c6ccc(S(=O)(=O)[O-])cc6)c6ccc3[nH]6)C=C5)C=C4)cc2)CC[C@@H]([N@H+]2CC[C@H]([NH+]3CCOCC3)C2)C1
REMARK SMILES IDX 9 1 8 2 7 3 6 4 5 5 3 6 4 7 2 8 74 9 88 10 75 11 76 12 1 13
REMARK SMILES IDX 77 17 78 18 87 19 79 21 80 22 81 23 82 24 86 25 83 27 85 28
REMARK SMILES IDX 84 29 10 30 11 31 12 32 13 33 14 34 15 35 73 36 16 37 72 38
REMARK SMILES IDX 17 39 18 40 19 41 66 42 20 43 71 44 65 45 67 46 21 47 70 48
REMARK SMILES IDX 64 49 63 50 22 52 52 53 33 54 51 55 34 56 37 57 50 58 68 59
REMARK SMILES IDX 35 60 36 61 49 63 69 64 38 65 23 66 24 67 32 68 25 69 31 70
REMARK SMILES IDX 26 71 27 72 28 73 29 74 30 75 53 76 54 77 62 78 55 79 61 80
REMARK SMILES IDX 56 81 57 82 58 83 59 84 60 85 39 86 40 87 48 88 41 89 47 90
REMARK SMILES IDX 42 91 43 92 44 93 45 94 46 95
REMARK H PARENT 1 14 1 15 1 16 77 20 81 26 67 51 37 62
REMARK Flexibility Score: inf
ROOT
ATOM      1  C   UNL A   1      38.316  21.753  25.781  1.00  0.00     0.202 C 
ENDROOT
BRANCH   1   2
ATOM      2  O   UNL A   1      37.204  21.968  24.914  1.00  0.00    -0.374 OA
BRANCH   2   3
ATOM      3  C   UNL A   1      35.908  22.058  25.511  1.00  0.00     0.202 C 
BRANCH   3   4
ATOM      4  C   UNL A   1      34.738  22.349  24.566  1.00  0.00     0.261 C 
BRANCH   4   5
ATOM      5  O   UNL A   1      34.031  23.525  24.987  1.00  0.00    -0.459 OA
BRANCH   5   6
ATOM      6  C   UNL A   1      32.742  23.338  25.363  1.00  0.00     0.368 C 
ATOM      7  O   UNL A   1      32.255  22.263  25.703  1.00  0.00    -0.245 OA
BRANCH   6   8
ATOM      8  C   UNL A   1      31.931  24.662  25.396  1.00  0.00     0.198 C 
ATOM      9  C   UNL A   1      30.615  24.456  24.638  1.00  0.00     0.087 C 
ATOM     10  C   UNL A   1      32.631  25.872  24.731  1.00  0.00     0.145 C 
ATOM     11  C   UNL A   1      30.832  25.146  23.300  1.00  0.00     0.072 C 
ATOM     12  C   UNL A   1      31.717  26.363  23.597  1.00  0.00     0.191 C 
BRANCH   8  13
ATOM     13  N   UNL A   1      31.647  24.963  26.830  1.00  0.00    -0.343 N 
ATOM     14  H   UNL A   1      31.887  25.935  27.027  1.00  0.00     0.345 HD
ATOM     15  H   UNL A   1      32.204  24.349  27.424  1.00  0.00     0.345 HD
ATOM     16  H   UNL A   1      30.656  24.812  27.020  1.00  0.00     0.345 HD
ENDBRANCH   8  13
BRANCH  12  17
ATOM     17  N   UNL A   1      30.957  27.587  23.870  1.00  0.00    -0.327 N 
ATOM     18  C   UNL A   1      31.691  28.719  24.424  1.00  0.00     0.269 C 
ATOM     19  C   UNL A   1      30.240  28.101  22.692  1.00  0.00     0.328 C 
ATOM     20  H   UNL A   1      30.322  27.242  24.590  1.00  0.00     0.348 HD
ATOM     21  C   UNL A   1      30.692  29.853  24.320  1.00  0.00     0.132 C 
ATOM     22  C   UNL A   1      29.944  29.589  23.012  1.00  0.00     0.245 C 
BRANCH  22  23
ATOM     23  N   UNL A   1      28.549  30.041  22.900  1.00  0.00    -0.324 N 
ATOM     24  C   UNL A   1      28.072  30.193  21.513  1.00  0.00     0.291 C 
ATOM     25  C   UNL A   1      28.169  31.234  23.682  1.00  0.00     0.291 C 
ATOM     26  H   UNL A   1      28.069  29.254  23.336  1.00  0.00     0.348 HD
ATOM     27  C   UNL A   1      28.332  31.570  20.875  1.00  0.00     0.221 C 
ATOM     28  C   UNL A   1      28.432  32.586  23.006  1.00  0.00     0.221 C 
ATOM     29  O   UNL A   1      27.856  32.642  21.694  1.00  0.00    -0.370 OA
ENDBRANCH  22  23
ENDBRANCH  12  17
ENDBRANCH   6   8
ENDBRANCH   5   6
ENDBRANCH   4   5
ENDBRANCH   3   4
ENDBRANCH   2   3
ENDBRANCH   1   2
BRANCH   1  30
ATOM     30  C   UNL A   1      39.019  20.391  25.703  1.00  0.00     0.261 C 
BRANCH  30  31
ATOM     31  O   UNL A   1      39.927  20.172  26.798  1.00  0.00    -0.460 OA
BRANCH  31  32
ATOM     32  C   UNL A   1      41.212  19.947  26.431  1.00  0.00     0.338 C 
ATOM     33  O   UNL A   1      41.655  18.946  25.880  1.00  0.00    -0.246 OA
BRANCH  32  34
ATOM     34  C   UNL A   1      42.009  21.175  26.599  1.00  0.00     0.060 A 
ATOM     35  C   UNL A   1      42.304  21.578  27.908  1.00  0.00     0.016 A 
ATOM     36  C   UNL A   1      42.413  21.950  25.510  1.00  0.00     0.016 A 
ATOM     37  C   UNL A   1      42.984  22.772  28.135  1.00  0.00     0.010 A 
ATOM     38  C   UNL A   1      43.085  23.157  25.743  1.00  0.00     0.010 A 
ATOM     39  C   UNL A   1      43.355  23.584  27.056  1.00  0.00    -0.014 A 
BRANCH  39  40
ATOM     40  C   UNL A   1      43.945  24.921  27.312  1.00  0.00     0.031 A 
ATOM     41  C   UNL A   1      43.070  26.035  27.817  1.00  0.00     0.074 A 
ATOM     42  C   UNL A   1      45.262  25.131  27.120  1.00  0.00     0.049 A 
ATOM     43  N   UNL A   1      43.385  27.277  28.080  1.00  0.00    -0.248 NA
ATOM     44  C   UNL A   1      41.656  25.706  28.059  1.00  0.00     0.031 C 
ATOM     45  C   UNL A   1      46.222  24.120  26.677  1.00  0.00     0.029 A 
ATOM     46  N   UNL A   1      46.015  26.268  27.270  1.00  0.00    -0.354 N 
ATOM     47  C   UNL A   1      42.210  27.881  28.513  1.00  0.00     0.074 A 
ATOM     48  C   UNL A   1      41.171  26.875  28.455  1.00  0.00     0.031 C 
ATOM     49  C   UNL A   1      47.437  24.687  26.583  1.00  0.00     0.029 A 
ATOM     50  C   UNL A   1      47.334  26.105  26.922  1.00  0.00     0.049 A 
ATOM     51  H   UNL A   1      45.645  27.120  27.598  1.00  0.00     0.167 HD
ATOM     52  C   UNL A   1      42.016  29.158  28.923  1.00  0.00     0.031 A 
ATOM     53  C   UNL A   1      48.339  27.001  26.855  1.00  0.00     0.031 A 
ATOM     54  C   UNL A   1      43.046  30.162  28.963  1.00  0.00     0.049 A 
ATOM     55  C   UNL A   1      48.077  28.434  27.234  1.00  0.00     0.074 A 
ATOM     56  C   UNL A   1      42.950  31.476  29.385  1.00  0.00     0.029 A 
ATOM     57  N   UNL A   1      44.358  29.970  28.555  1.00  0.00    -0.354 N 
ATOM     58  N   UNL A   1      46.968  28.982  27.673  1.00  0.00    -0.248 NA
ATOM     59  C   UNL A   1      49.203  29.371  27.111  1.00  0.00     0.031 C 
ATOM     60  C   UNL A   1      44.185  32.097  29.173  1.00  0.00     0.029 A 
ATOM     61  C   UNL A   1      45.070  31.151  28.680  1.00  0.00     0.049 A 
ATOM     62  H   UNL A   1      44.728  29.120  28.226  1.00  0.00     0.167 HD
ATOM     63  C   UNL A   1      47.270  30.322  27.895  1.00  0.00     0.074 A 
ATOM     64  C   UNL A   1      48.668  30.497  27.562  1.00  0.00     0.031 C 
ATOM     65  C   UNL A   1      46.459  31.318  28.335  1.00  0.00     0.031 A 
BRANCH  52  66
ATOM     66  C   UNL A   1      40.620  29.557  29.325  1.00  0.00    -0.014 A 
ATOM     67  C   UNL A   1      40.301  29.839  30.666  1.00  0.00     0.010 A 
ATOM     68  C   UNL A   1      39.629  29.707  28.339  1.00  0.00     0.010 A 
ATOM     69  C   UNL A   1      39.005  30.233  31.016  1.00  0.00     0.020 A 
ATOM     70  C   UNL A   1      38.340  30.124  28.681  1.00  0.00     0.020 A 
ATOM     71  C   UNL A   1      38.033  30.371  30.020  1.00  0.00     0.054 A 
BRANCH  71  72
ATOM     72  S   UNL A   1      36.368  30.912  30.498  1.00  0.00     0.124 S 
ATOM     73  O   UNL A   1      35.671  30.913  29.214  1.00  0.00    -0.237 OA
ATOM     74  O   UNL A   1      35.952  29.873  31.437  1.00  0.00    -0.237 OA
ATOM     75  O   UNL A   1      36.587  32.230  31.088  1.00  0.00    -0.744 OA
ENDBRANCH  71  72
ENDBRANCH  52  66
BRANCH  53  76
ATOM     76  C   UNL A   1      49.682  26.575  26.373  1.00  0.00    -0.014 A 
ATOM     77  C   UNL A   1      50.597  25.960  27.243  1.00  0.00     0.010 A 
ATOM     78  C   UNL A   1      50.050  26.789  25.033  1.00  0.00     0.010 A 
ATOM     79  C   UNL A   1      51.862  25.579  26.784  1.00  0.00     0.020 A 
ATOM     80  C   UNL A   1      51.301  26.383  24.563  1.00  0.00     0.020 A 
ATOM     81  C   UNL A   1      52.204  25.790  25.446  1.00  0.00     0.054 A 
BRANCH  81  82
ATOM     82  S   UNL A   1      53.831  25.238  24.859  1.00  0.00     0.124 S 
ATOM     83  O   UNL A   1      54.720  25.760  25.891  1.00  0.00    -0.237 OA
ATOM     84  O   UNL A   1      53.677  23.786  24.827  1.00  0.00    -0.237 OA
ATOM     85  O   UNL A   1      53.952  25.872  23.547  1.00  0.00    -0.744 OA
ENDBRANCH  81  82
ENDBRANCH  53  76
BRANCH  65  86
ATOM     86  C   UNL A   1      47.068  32.686  28.499  1.00  0.00    -0.014 A 
ATOM     87  C   UNL A   1      47.054  33.619  27.447  1.00  0.00     0.010 A 
ATOM     88  C   UNL A   1      47.614  33.062  29.740  1.00  0.00     0.010 A 
ATOM     89  C   UNL A   1      47.604  34.892  27.624  1.00  0.00     0.020 A 
ATOM     90  C   UNL A   1      48.139  34.344  29.929  1.00  0.00     0.020 A 
ATOM     91  C   UNL A   1      48.142  35.247  28.864  1.00  0.00     0.054 A 
BRANCH  91  92
ATOM     92  S   UNL A   1      48.811  36.919  29.080  1.00  0.00     0.124 S 
ATOM     93  O   UNL A   1      49.550  37.114  27.835  1.00  0.00    -0.237 OA
ATOM     94  O   UNL A   1      47.605  37.731  29.229  1.00  0.00    -0.237 OA
ATOM     95  O   UNL A   1      49.635  36.811  30.282  1.00  0.00    -0.744 OA
ENDBRANCH  91  92
ENDBRANCH  65  86
ENDBRANCH  39  40
ENDBRANCH  32  34
ENDBRANCH  31  32
ENDBRANCH  30  31
ENDBRANCH   1  30
TORSDOF 20
ENDMDL
