MODEL 1
REMARK VINA RESULT:     -11.5      0.000      0.000
REMARK SMILES O=C(OCCOCCOC(=O)c1ccc(-c2c3nc(c(-c4ccc(S(=O)(=O)[O-])cc4)c4ccc([nH]4)c(-c4ccc(S(=O)(=O)[O-])cc4)c4nc(c(-c5ccc(S(=O)(=O)[O-])cc5)c5ccc2[nH]5)C=C4)C=C3)cc1)C1=Cc2cc(Cl)cc(-c3ccccc3)c2O[C@@H]1C(F)(F)F
REMARK SMILES IDX 7 1 6 2 5 3 4 4 3 5 2 6 1 7 72 8 73 9 88 10 74 11 87 12
REMARK SMILES IDX 75 13 86 14 76 15 79 16 77 17 78 18 89 19 90 20 91 21 92 22
REMARK SMILES IDX 80 23 81 24 85 25 82 26 84 27 83 28 8 29 9 30 10 31 11 32
REMARK SMILES IDX 12 33 13 34 71 35 14 36 70 37 15 38 16 39 17 40 64 41 18 42
REMARK SMILES IDX 69 43 63 44 65 45 19 46 68 47 62 48 61 49 20 51 50 52 31 53
REMARK SMILES IDX 49 54 32 55 35 56 48 57 66 58 33 59 34 60 47 62 67 63 36 64
REMARK SMILES IDX 21 65 22 66 30 67 23 68 29 69 24 70 25 71 26 72 27 73 28 74
REMARK SMILES IDX 51 75 52 76 60 77 53 78 59 79 54 80 55 81 56 82 57 83 58 84
REMARK SMILES IDX 37 85 38 86 46 87 39 88 45 89 40 90 41 91 42 92 43 93 44 94
REMARK H PARENT 65 50 35 61
REMARK Flexibility Score: inf
ROOT
ATOM      1  C   UNL A   1      48.605  22.787  37.788  1.00  0.00     0.202 C 
ENDROOT
BRANCH   1   2
ATOM      2  O   UNL A   1      47.210  22.401  37.967  1.00  0.00    -0.374 OA
BRANCH   2   3
ATOM      3  C   UNL A   1      46.466  21.275  38.937  1.00  0.00     0.202 C 
BRANCH   3   4
ATOM      4  C   UNL A   1      45.283  21.600  40.735  1.00  0.00     0.261 C 
BRANCH   4   5
ATOM      5  O   UNL A   1      45.378  20.737  42.050  1.00  0.00    -0.460 OA
BRANCH   5   6
ATOM      6  C   UNL A   1      44.546  19.689  42.066  1.00  0.00     0.338 C 
ATOM      7  O   UNL A   1      43.344  19.632  42.088  1.00  0.00    -0.246 OA
BRANCH   6   8
ATOM      8  C   UNL A   1      45.567  18.738  42.419  1.00  0.00     0.087 C 
ATOM      9  C   UNL A   1      45.792  18.706  43.863  1.00  0.00     0.027 C 
ATOM     10  C   UNL A   1      44.899  17.259  41.367  1.00  0.00     0.316 C 
ATOM     11  C   UNL A   1      45.277  17.341  44.918  1.00  0.00     0.019 A 
ATOM     12  O   UNL A   1      44.311  15.779  42.502  1.00  0.00    -0.475 OA
ATOM     13  C   UNL A   1      45.375  17.584  46.263  1.00  0.00     0.032 A 
ATOM     14  C   UNL A   1      44.476  15.901  44.329  1.00  0.00     0.135 A 
ATOM     15  C   UNL A   1      44.753  16.643  47.077  1.00  0.00     0.042 A 
ATOM     16  C   UNL A   1      43.953  14.954  45.267  1.00  0.00     0.026 A 
ATOM     17  Cl  UNL A   1      44.823  16.918  48.786  1.00  0.00    -0.084 Cl
ATOM     18  C   UNL A   1      44.068  15.457  46.612  1.00  0.00     0.033 A 
BRANCH  10  19
ATOM     19  C   UNL A   1      46.031  17.427  40.215  1.00  0.00     0.430 C 
ATOM     20  F   UNL A   1      47.199  17.959  40.632  1.00  0.00    -0.167 F 
ATOM     21  F   UNL A   1      46.380  16.180  39.775  1.00  0.00    -0.167 F 
ATOM     22  F   UNL A   1      45.632  18.074  39.095  1.00  0.00    -0.167 F 
ENDBRANCH  10  19
BRANCH  16  23
ATOM     23  C   UNL A   1      43.268  13.501  45.094  1.00  0.00    -0.015 A 
ATOM     24  C   UNL A   1      41.995  13.776  43.833  1.00  0.00     0.009 A 
ATOM     25  C   UNL A   1      43.751  11.560  45.462  1.00  0.00     0.009 A 
ATOM     26  C   UNL A   1      41.308  12.394  42.989  1.00  0.00     0.001 A 
ATOM     27  C   UNL A   1      42.968  10.256  44.498  1.00  0.00     0.001 A 
ATOM     28  C   UNL A   1      41.781  10.715  43.302  1.00  0.00     0.000 A 
ENDBRANCH  16  23
ENDBRANCH   6   8
ENDBRANCH   5   6
ENDBRANCH   4   5
ENDBRANCH   3   4
ENDBRANCH   2   3
ENDBRANCH   1   2
BRANCH   1  29
ATOM     29  C   UNL A   1      48.983  23.606  36.550  1.00  0.00     0.261 C 
BRANCH  29  30
ATOM     30  O   UNL A   1      48.060  24.649  36.399  1.00  0.00    -0.460 OA
BRANCH  30  31
ATOM     31  C   UNL A   1      48.311  25.613  37.300  1.00  0.00     0.338 C 
ATOM     32  O   UNL A   1      49.257  25.753  38.050  1.00  0.00    -0.246 OA
BRANCH  31  33
ATOM     33  C   UNL A   1      47.232  26.545  37.149  1.00  0.00     0.060 A 
ATOM     34  C   UNL A   1      45.580  25.948  37.422  1.00  0.00     0.016 A 
ATOM     35  C   UNL A   1      47.465  28.133  36.300  1.00  0.00     0.016 A 
ATOM     36  C   UNL A   1      44.138  26.815  36.841  1.00  0.00     0.010 A 
ATOM     37  C   UNL A   1      45.787  29.068  35.675  1.00  0.00     0.010 A 
ATOM     38  C   UNL A   1      44.195  28.325  35.962  1.00  0.00    -0.014 A 
BRANCH  38  39
ATOM     39  C   UNL A   1      43.079  28.897  35.156  1.00  0.00     0.031 A 
ATOM     40  C   UNL A   1      42.872  28.538  33.693  1.00  0.00     0.074 A 
ATOM     41  C   UNL A   1      42.457  29.981  35.650  1.00  0.00     0.049 A 
ATOM     42  N   UNL A   1      42.047  29.055  32.810  1.00  0.00    -0.248 NA
ATOM     43  C   UNL A   1      43.749  27.508  33.122  1.00  0.00     0.031 C 
ATOM     44  C   UNL A   1      42.714  30.566  36.963  1.00  0.00     0.029 A 
ATOM     45  N   UNL A   1      41.531  30.817  35.083  1.00  0.00    -0.354 N 
ATOM     46  C   UNL A   1      42.315  28.414  31.598  1.00  0.00     0.074 A 
ATOM     47  C   UNL A   1      43.443  27.544  31.832  1.00  0.00     0.031 C 
ATOM     48  C   UNL A   1      41.972  31.674  37.102  1.00  0.00     0.029 A 
ATOM     49  C   UNL A   1      41.187  31.874  35.889  1.00  0.00     0.049 A 
ATOM     50  H   UNL A   1      41.151  30.673  34.186  1.00  0.00     0.167 HD
ATOM     51  C   UNL A   1      41.658  28.494  30.410  1.00  0.00     0.031 A 
ATOM     52  C   UNL A   1      40.321  32.883  35.681  1.00  0.00     0.031 A 
ATOM     53  C   UNL A   1      40.537  29.371  30.187  1.00  0.00     0.049 A 
ATOM     54  C   UNL A   1      39.526  32.906  34.406  1.00  0.00     0.074 A 
ATOM     55  C   UNL A   1      39.696  29.449  29.090  1.00  0.00     0.029 A 
ATOM     56  N   UNL A   1      40.106  30.334  31.086  1.00  0.00    -0.354 N 
ATOM     57  N   UNL A   1      39.640  32.140  33.346  1.00  0.00    -0.248 NA
ATOM     58  C   UNL A   1      38.441  33.891  34.327  1.00  0.00     0.031 C 
ATOM     59  C   UNL A   1      38.789  30.492  29.305  1.00  0.00     0.029 A 
ATOM     60  C   UNL A   1      39.023  31.021  30.565  1.00  0.00     0.049 A 
ATOM     61  H   UNL A   1      40.511  30.505  31.967  1.00  0.00     0.167 HD
ATOM     62  C   UNL A   1      38.616  32.529  32.489  1.00  0.00     0.074 A 
ATOM     63  C   UNL A   1      37.876  33.572  33.172  1.00  0.00     0.031 C 
ATOM     64  C   UNL A   1      38.309  32.068  31.250  1.00  0.00     0.031 A 
BRANCH  51  65
ATOM     65  C   UNL A   1      42.064  27.557  29.287  1.00  0.00    -0.014 A 
ATOM     66  C   UNL A   1      43.145  27.884  28.446  1.00  0.00     0.010 A 
ATOM     67  C   UNL A   1      41.455  26.296  29.130  1.00  0.00     0.010 A 
ATOM     68  C   UNL A   1      43.586  26.997  27.460  1.00  0.00     0.020 A 
ATOM     69  C   UNL A   1      41.915  25.388  28.164  1.00  0.00     0.020 A 
ATOM     70  C   UNL A   1      42.974  25.751  27.328  1.00  0.00     0.054 A 
BRANCH  70  71
ATOM     71  S   UNL A   1      43.621  24.600  26.081  1.00  0.00     0.124 S 
ATOM     72  O   UNL A   1      42.766  24.886  24.932  1.00  0.00    -0.237 OA
ATOM     73  O   UNL A   1      45.012  25.025  25.949  1.00  0.00    -0.237 OA
ATOM     74  O   UNL A   1      43.429  23.284  26.686  1.00  0.00    -0.744 OA
ENDBRANCH  70  71
ENDBRANCH  51  65
BRANCH  52  75
ATOM     75  C   UNL A   1      40.087  33.881  36.757  1.00  0.00    -0.014 A 
ATOM     76  C   UNL A   1      39.258  33.555  37.846  1.00  0.00     0.010 A 
ATOM     77  C   UNL A   1      40.706  35.143  36.720  1.00  0.00     0.010 A 
ATOM     78  C   UNL A   1      39.014  34.489  38.854  1.00  0.00     0.020 A 
ATOM     79  C   UNL A   1      40.492  36.067  37.746  1.00  0.00     0.020 A 
ATOM     80  C   UNL A   1      39.631  35.741  38.797  1.00  0.00     0.054 A 
BRANCH  80  81
ATOM     81  S   UNL A   1      39.311  36.925  40.132  1.00  0.00     0.124 S 
ATOM     82  O   UNL A   1      38.293  36.231  40.915  1.00  0.00    -0.237 OA
ATOM     83  O   UNL A   1      40.622  37.047  40.763  1.00  0.00    -0.237 OA
ATOM     84  O   UNL A   1      38.852  38.120  39.427  1.00  0.00    -0.744 OA
ENDBRANCH  80  81
ENDBRANCH  52  75
BRANCH  64  85
ATOM     85  C   UNL A   1      37.109  32.675  30.572  1.00  0.00    -0.014 A 
ATOM     86  C   UNL A   1      37.245  33.738  29.661  1.00  0.00     0.010 A 
ATOM     87  C   UNL A   1      35.825  32.172  30.851  1.00  0.00     0.010 A 
ATOM     88  C   UNL A   1      36.114  34.332  29.096  1.00  0.00     0.020 A 
ATOM     89  C   UNL A   1      34.695  32.736  30.255  1.00  0.00     0.020 A 
ATOM     90  C   UNL A   1      34.846  33.831  29.401  1.00  0.00     0.054 A 
BRANCH  90  91
ATOM     91  S   UNL A   1      33.397  34.623  28.656  1.00  0.00     0.124 S 
ATOM     92  O   UNL A   1      33.999  35.745  27.941  1.00  0.00    -0.237 OA
ATOM     93  O   UNL A   1      32.851  33.562  27.814  1.00  0.00    -0.237 OA
ATOM     94  O   UNL A   1      32.571  34.988  29.804  1.00  0.00    -0.744 OA
ENDBRANCH  90  91
ENDBRANCH  64  85
ENDBRANCH  38  39
ENDBRANCH  31  33
ENDBRANCH  30  31
ENDBRANCH  29  30
ENDBRANCH   1  29
TORSDOF 19
ENDMDL
MODEL 2
REMARK VINA RESULT:     -11.4     10.815     16.070
REMARK SMILES O=C(OCCOCCOC(=O)c1ccc(-c2c3nc(c(-c4ccc(S(=O)(=O)[O-])cc4)c4ccc([nH]4)c(-c4ccc(S(=O)(=O)[O-])cc4)c4nc(c(-c5ccc(S(=O)(=O)[O-])cc5)c5ccc2[nH]5)C=C4)C=C3)cc1)C1=Cc2cc(Cl)cc(-c3ccccc3)c2O[C@@H]1C(F)(F)F
REMARK SMILES IDX 7 1 6 2 5 3 4 4 3 5 2 6 1 7 72 8 73 9 88 10 74 11 87 12
REMARK SMILES IDX 75 13 86 14 76 15 79 16 77 17 78 18 89 19 90 20 91 21 92 22
REMARK SMILES IDX 80 23 81 24 85 25 82 26 84 27 83 28 8 29 9 30 10 31 11 32
REMARK SMILES IDX 12 33 13 34 71 35 14 36 70 37 15 38 16 39 17 40 64 41 18 42
REMARK SMILES IDX 69 43 63 44 65 45 19 46 68 47 62 48 61 49 20 51 50 52 31 53
REMARK SMILES IDX 49 54 32 55 35 56 48 57 66 58 33 59 34 60 47 62 67 63 36 64
REMARK SMILES IDX 21 65 22 66 30 67 23 68 29 69 24 70 25 71 26 72 27 73 28 74
REMARK SMILES IDX 51 75 52 76 60 77 53 78 59 79 54 80 55 81 56 82 57 83 58 84
REMARK SMILES IDX 37 85 38 86 46 87 39 88 45 89 40 90 41 91 42 92 43 93 44 94
REMARK H PARENT 65 50 35 61
REMARK Flexibility Score: inf
ROOT
ATOM      1  C   UNL A   1      37.245  32.255  36.893  1.00  0.00     0.202 C 
ENDROOT
BRANCH   1   2
ATOM      2  O   UNL A   1      36.628  33.452  36.335  1.00  0.00    -0.374 OA
BRANCH   2   3
ATOM      3  C   UNL A   1      36.125  33.853  34.802  1.00  0.00     0.202 C 
BRANCH   3   4
ATOM      4  C   UNL A   1      35.812  32.546  33.090  1.00  0.00     0.261 C 
BRANCH   4   5
ATOM      5  O   UNL A   1      35.824  33.009  31.584  1.00  0.00    -0.460 OA
BRANCH   5   6
ATOM      6  C   UNL A   1      35.311  34.230  31.392  1.00  0.00     0.338 C 
ATOM      7  O   UNL A   1      34.599  34.908  32.087  1.00  0.00    -0.246 OA
BRANCH   6   8
ATOM      8  C   UNL A   1      35.594  34.252  29.981  1.00  0.00     0.087 C 
ATOM      9  C   UNL A   1      36.665  33.319  29.637  1.00  0.00     0.027 C 
ATOM     10  C   UNL A   1      33.766  34.122  29.363  1.00  0.00     0.316 C 
ATOM     11  C   UNL A   1      36.390  31.779  28.745  1.00  0.00     0.019 A 
ATOM     12  O   UNL A   1      33.447  32.441  28.416  1.00  0.00    -0.475 OA
ATOM     13  C   UNL A   1      37.470  30.936  28.706  1.00  0.00     0.032 A 
ATOM     14  C   UNL A   1      34.823  31.245  28.180  1.00  0.00     0.135 A 
ATOM     15  C   UNL A   1      37.198  29.653  28.243  1.00  0.00     0.042 A 
ATOM     16  C   UNL A   1      34.683  29.928  27.636  1.00  0.00     0.026 A 
ATOM     17  Cl  UNL A   1      38.524  28.539  28.199  1.00  0.00    -0.084 Cl
ATOM     18  C   UNL A   1      35.907  29.184  27.789  1.00  0.00     0.033 A 
BRANCH  10  19
ATOM     19  C   UNL A   1      33.681  35.691  28.953  1.00  0.00     0.430 C 
ATOM     20  F   UNL A   1      34.583  36.095  28.035  1.00  0.00    -0.167 F 
ATOM     21  F   UNL A   1      32.476  35.907  28.340  1.00  0.00    -0.167 F 
ATOM     22  F   UNL A   1      33.687  36.565  29.986  1.00  0.00    -0.167 F 
ENDBRANCH  10  19
BRANCH  16  23
ATOM     23  C   UNL A   1      33.449  29.155  26.936  1.00  0.00    -0.015 A 
ATOM     24  C   UNL A   1      34.029  28.869  25.242  1.00  0.00     0.009 A 
ATOM     25  C   UNL A   1      31.836  28.063  27.520  1.00  0.00     0.009 A 
ATOM     26  C   UNL A   1      33.221  27.663  24.249  1.00  0.00     0.001 A 
ATOM     27  C   UNL A   1      31.131  26.853  26.388  1.00  0.00     0.001 A 
ATOM     28  C   UNL A   1      31.844  26.695  24.801  1.00  0.00     0.000 A 
ENDBRANCH  16  23
ENDBRANCH   6   8
ENDBRANCH   5   6
ENDBRANCH   4   5
ENDBRANCH   3   4
ENDBRANCH   2   3
ENDBRANCH   1   2
BRANCH   1  29
ATOM     29  C   UNL A   1      38.651  31.871  36.422  1.00  0.00     0.261 C 
BRANCH  29  30
ATOM     30  O   UNL A   1      38.580  31.445  35.090  1.00  0.00    -0.460 OA
BRANCH  30  31
ATOM     31  C   UNL A   1      39.323  32.252  34.314  1.00  0.00     0.338 C 
ATOM     32  O   UNL A   1      39.567  33.437  34.430  1.00  0.00    -0.246 OA
BRANCH  31  33
ATOM     33  C   UNL A   1      39.871  31.391  33.307  1.00  0.00     0.060 A 
ATOM     34  C   UNL A   1      41.175  30.282  33.789  1.00  0.00     0.016 A 
ATOM     35  C   UNL A   1      39.584  31.697  31.540  1.00  0.00     0.016 A 
ATOM     36  C   UNL A   1      42.256  29.502  32.610  1.00  0.00     0.010 A 
ATOM     37  C   UNL A   1      40.842  30.774  30.257  1.00  0.00     0.010 A 
ATOM     38  C   UNL A   1      42.145  29.736  30.881  1.00  0.00    -0.014 A 
BRANCH  38  39
ATOM     39  C   UNL A   1      43.215  29.410  29.896  1.00  0.00     0.031 A 
ATOM     40  C   UNL A   1      43.299  28.054  29.212  1.00  0.00     0.074 A 
ATOM     41  C   UNL A   1      44.290  30.215  29.866  1.00  0.00     0.049 A 
ATOM     42  N   UNL A   1      44.244  27.556  28.446  1.00  0.00    -0.248 NA
ATOM     43  C   UNL A   1      42.212  27.102  29.470  1.00  0.00     0.031 C 
ATOM     44  C   UNL A   1      44.434  31.445  30.640  1.00  0.00     0.029 A 
ATOM     45  N   UNL A   1      45.485  30.090  29.207  1.00  0.00    -0.354 N 
ATOM     46  C   UNL A   1      43.858  26.247  28.145  1.00  0.00     0.074 A 
ATOM     47  C   UNL A   1      42.648  25.993  28.888  1.00  0.00     0.031 C 
ATOM     48  C   UNL A   1      45.653  31.959  30.423  1.00  0.00     0.029 A 
ATOM     49  C   UNL A   1      46.373  31.097  29.493  1.00  0.00     0.049 A 
ATOM     50  H   UNL A   1      45.687  29.349  28.591  1.00  0.00     0.167 HD
ATOM     51  C   UNL A   1      44.422  25.352  27.291  1.00  0.00     0.031 A 
ATOM     52  C   UNL A   1      47.623  31.311  29.044  1.00  0.00     0.031 A 
ATOM     53  C   UNL A   1      45.635  25.615  26.560  1.00  0.00     0.049 A 
ATOM     54  C   UNL A   1      48.198  30.370  28.023  1.00  0.00     0.074 A 
ATOM     55  C   UNL A   1      46.233  24.863  25.563  1.00  0.00     0.029 A 
ATOM     56  N   UNL A   1      46.442  26.725  26.757  1.00  0.00    -0.354 N 
ATOM     57  N   UNL A   1      47.711  29.236  27.576  1.00  0.00    -0.248 NA
ATOM     58  C   UNL A   1      49.465  30.772  27.400  1.00  0.00     0.031 C 
ATOM     59  C   UNL A   1      47.427  25.493  25.194  1.00  0.00     0.029 A 
ATOM     60  C   UNL A   1      47.539  26.672  25.914  1.00  0.00     0.049 A 
ATOM     61  H   UNL A   1      46.262  27.446  27.402  1.00  0.00     0.167 HD
ATOM     62  C   UNL A   1      48.596  28.808  26.591  1.00  0.00     0.074 A 
ATOM     63  C   UNL A   1      49.625  29.824  26.488  1.00  0.00     0.031 C 
ATOM     64  C   UNL A   1      48.563  27.681  25.836  1.00  0.00     0.031 A 
BRANCH  51  65
ATOM     65  C   UNL A   1      43.700  24.043  27.026  1.00  0.00    -0.014 A 
ATOM     66  C   UNL A   1      43.552  23.093  28.054  1.00  0.00     0.010 A 
ATOM     67  C   UNL A   1      43.063  23.796  25.793  1.00  0.00     0.010 A 
ATOM     68  C   UNL A   1      42.820  21.919  27.853  1.00  0.00     0.020 A 
ATOM     69  C   UNL A   1      42.299  22.636  25.596  1.00  0.00     0.020 A 
ATOM     70  C   UNL A   1      42.191  21.700  26.627  1.00  0.00     0.054 A 
BRANCH  70  71
ATOM     71  S   UNL A   1      41.192  20.196  26.428  1.00  0.00     0.124 S 
ATOM     72  O   UNL A   1      39.882  20.745  26.090  1.00  0.00    -0.237 OA
ATOM     73  O   UNL A   1      41.879  19.500  25.344  1.00  0.00    -0.237 OA
ATOM     74  O   UNL A   1      41.275  19.547  27.734  1.00  0.00    -0.744 OA
ENDBRANCH  70  71
ENDBRANCH  51  65
BRANCH  52  75
ATOM     75  C   UNL A   1      48.358  32.529  29.474  1.00  0.00    -0.014 A 
ATOM     76  C   UNL A   1      49.385  32.427  30.430  1.00  0.00     0.010 A 
ATOM     77  C   UNL A   1      48.063  33.786  28.917  1.00  0.00     0.010 A 
ATOM     78  C   UNL A   1      50.070  33.564  30.857  1.00  0.00     0.020 A 
ATOM     79  C   UNL A   1      48.772  34.922  29.316  1.00  0.00     0.020 A 
ATOM     80  C   UNL A   1      49.759  34.806  30.298  1.00  0.00     0.054 A 
BRANCH  80  81
ATOM     81  S   UNL A   1      50.681  36.263  30.859  1.00  0.00     0.124 S 
ATOM     82  O   UNL A   1      49.636  37.281  30.914  1.00  0.00    -0.237 OA
ATOM     83  O   UNL A   1      51.206  35.823  32.150  1.00  0.00    -0.237 OA
ATOM     84  O   UNL A   1      51.688  36.453  29.817  1.00  0.00    -0.744 OA
ENDBRANCH  80  81
ENDBRANCH  52  75
BRANCH  64  85
ATOM     85  C   UNL A   1      49.661  27.506  24.820  1.00  0.00    -0.014 A 
ATOM     86  C   UNL A   1      49.432  27.734  23.451  1.00  0.00     0.010 A 
ATOM     87  C   UNL A   1      50.942  27.109  25.243  1.00  0.00     0.010 A 
ATOM     88  C   UNL A   1      50.444  27.499  22.518  1.00  0.00     0.020 A 
ATOM     89  C   UNL A   1      51.969  26.913  24.317  1.00  0.00     0.020 A 
ATOM     90  C   UNL A   1      51.705  27.084  22.956  1.00  0.00     0.054 A 
BRANCH  90  91
ATOM     91  S   UNL A   1      52.998  26.785  21.723  1.00  0.00     0.124 S 
ATOM     92  O   UNL A   1      52.311  25.923  20.766  1.00  0.00    -0.237 OA
ATOM     93  O   UNL A   1      53.303  28.132  21.248  1.00  0.00    -0.237 OA
ATOM     94  O   UNL A   1      54.065  26.142  22.486  1.00  0.00    -0.744 OA
ENDBRANCH  90  91
ENDBRANCH  64  85
ENDBRANCH  38  39
ENDBRANCH  31  33
ENDBRANCH  30  31
ENDBRANCH  29  30
ENDBRANCH   1  29
TORSDOF 19
ENDMDL
MODEL 3
REMARK VINA RESULT:     -11.4      1.770      2.632
REMARK SMILES O=C(OCCOCCOC(=O)c1ccc(-c2c3nc(c(-c4ccc(S(=O)(=O)[O-])cc4)c4ccc([nH]4)c(-c4ccc(S(=O)(=O)[O-])cc4)c4nc(c(-c5ccc(S(=O)(=O)[O-])cc5)c5ccc2[nH]5)C=C4)C=C3)cc1)C1=Cc2cc(Cl)cc(-c3ccccc3)c2O[C@@H]1C(F)(F)F
REMARK SMILES IDX 7 1 6 2 5 3 4 4 3 5 2 6 1 7 72 8 73 9 88 10 74 11 87 12
REMARK SMILES IDX 75 13 86 14 76 15 79 16 77 17 78 18 89 19 90 20 91 21 92 22
REMARK SMILES IDX 80 23 81 24 85 25 82 26 84 27 83 28 8 29 9 30 10 31 11 32
REMARK SMILES IDX 12 33 13 34 71 35 14 36 70 37 15 38 16 39 17 40 64 41 18 42
REMARK SMILES IDX 69 43 63 44 65 45 19 46 68 47 62 48 61 49 20 51 50 52 31 53
REMARK SMILES IDX 49 54 32 55 35 56 48 57 66 58 33 59 34 60 47 62 67 63 36 64
REMARK SMILES IDX 21 65 22 66 30 67 23 68 29 69 24 70 25 71 26 72 27 73 28 74
REMARK SMILES IDX 51 75 52 76 60 77 53 78 59 79 54 80 55 81 56 82 57 83 58 84
REMARK SMILES IDX 37 85 38 86 46 87 39 88 45 89 40 90 41 91 42 92 43 93 44 94
REMARK H PARENT 65 50 35 61
REMARK Flexibility Score: inf
ROOT
ATOM      1  C   UNL A   1      48.079  22.558  38.073  1.00  0.00     0.202 C 
ENDROOT
BRANCH   1   2
ATOM      2  O   UNL A   1      47.146  21.471  37.801  1.00  0.00    -0.374 OA
BRANCH   2   3
ATOM      3  C   UNL A   1      47.190  19.840  38.116  1.00  0.00     0.202 C 
BRANCH   3   4
ATOM      4  C   UNL A   1      45.655  18.342  37.741  1.00  0.00     0.261 C 
BRANCH   4   5
ATOM      5  O   UNL A   1      44.901  17.520  38.854  1.00  0.00    -0.460 OA
BRANCH   5   6
ATOM      6  C   UNL A   1      45.639  17.290  39.946  1.00  0.00     0.338 C 
ATOM      7  O   UNL A   1      46.717  16.771  40.078  1.00  0.00    -0.246 OA
BRANCH   6   8
ATOM      8  C   UNL A   1      44.559  17.529  40.866  1.00  0.00     0.087 C 
ATOM      9  C   UNL A   1      43.365  16.771  40.497  1.00  0.00     0.027 C 
ATOM     10  C   UNL A   1      45.569  17.285  42.498  1.00  0.00     0.316 C 
ATOM     11  C   UNL A   1      42.774  15.340  41.418  1.00  0.00     0.019 A 
ATOM     12  O   UNL A   1      44.954  15.719  43.494  1.00  0.00    -0.475 OA
ATOM     13  C   UNL A   1      41.776  14.632  40.802  1.00  0.00     0.032 A 
ATOM     14  C   UNL A   1      43.548  14.720  42.859  1.00  0.00     0.135 A 
ATOM     15  C   UNL A   1      41.488  13.399  41.378  1.00  0.00     0.042 A 
ATOM     16  C   UNL A   1      43.103  13.478  43.417  1.00  0.00     0.026 A 
ATOM     17  Cl  UNL A   1      40.251  12.451  40.621  1.00  0.00    -0.084 Cl
ATOM     18  C   UNL A   1      42.127  12.857  42.557  1.00  0.00     0.033 A 
BRANCH  10  19
ATOM     19  C   UNL A   1      45.645  18.876  42.815  1.00  0.00     0.430 C 
ATOM     20  F   UNL A   1      45.475  19.212  44.110  1.00  0.00    -0.167 F 
ATOM     21  F   UNL A   1      46.912  19.307  42.530  1.00  0.00    -0.167 F 
ATOM     22  F   UNL A   1      44.849  19.660  42.052  1.00  0.00    -0.167 F 
ENDBRANCH  10  19
BRANCH  16  23
ATOM     23  C   UNL A   1      43.496  12.676  44.762  1.00  0.00    -0.015 A 
ATOM     24  C   UNL A   1      44.471  11.273  44.153  1.00  0.00     0.009 A 
ATOM     25  C   UNL A   1      43.642  13.062  46.753  1.00  0.00     0.009 A 
ATOM     26  C   UNL A   1      45.496  10.387  45.276  1.00  0.00     0.001 A 
ATOM     27  C   UNL A   1      44.751  12.071  47.768  1.00  0.00     0.001 A 
ATOM     28  C   UNL A   1      45.635  10.776  46.999  1.00  0.00     0.000 A 
ENDBRANCH  16  23
ENDBRANCH   6   8
ENDBRANCH   5   6
ENDBRANCH   4   5
ENDBRANCH   3   4
ENDBRANCH   2   3
ENDBRANCH   1   2
BRANCH   1  29
ATOM     29  C   UNL A   1      48.475  23.487  36.921  1.00  0.00     0.261 C 
BRANCH  29  30
ATOM     30  O   UNL A   1      47.543  24.529  36.839  1.00  0.00    -0.460 OA
BRANCH  30  31
ATOM     31  C   UNL A   1      47.912  25.534  37.650  1.00  0.00     0.338 C 
ATOM     32  O   UNL A   1      48.903  25.653  38.344  1.00  0.00    -0.246 OA
BRANCH  31  33
ATOM     33  C   UNL A   1      46.900  26.535  37.477  1.00  0.00     0.060 A 
ATOM     34  C   UNL A   1      45.222  26.089  37.862  1.00  0.00     0.016 A 
ATOM     35  C   UNL A   1      47.211  28.036  36.504  1.00  0.00     0.016 A 
ATOM     36  C   UNL A   1      43.824  27.023  37.281  1.00  0.00     0.010 A 
ATOM     37  C   UNL A   1      45.579  29.053  35.884  1.00  0.00     0.010 A 
ATOM     38  C   UNL A   1      43.952  28.459  36.292  1.00  0.00    -0.014 A 
BRANCH  38  39
ATOM     39  C   UNL A   1      42.845  29.059  35.494  1.00  0.00     0.031 A 
ATOM     40  C   UNL A   1      42.593  28.674  34.044  1.00  0.00     0.074 A 
ATOM     41  C   UNL A   1      42.280  30.179  35.972  1.00  0.00     0.049 A 
ATOM     42  N   UNL A   1      41.773  29.204  33.164  1.00  0.00    -0.248 NA
ATOM     43  C   UNL A   1      43.413  27.594  33.481  1.00  0.00     0.031 C 
ATOM     44  C   UNL A   1      42.587  30.784  37.265  1.00  0.00     0.029 A 
ATOM     45  N   UNL A   1      41.378  31.040  35.403  1.00  0.00    -0.354 N 
ATOM     46  C   UNL A   1      41.989  28.523  31.964  1.00  0.00     0.074 A 
ATOM     47  C   UNL A   1      43.083  27.613  32.197  1.00  0.00     0.031 C 
ATOM     48  C   UNL A   1      41.895  31.925  37.391  1.00  0.00     0.029 A 
ATOM     49  C   UNL A   1      41.095  32.130  36.189  1.00  0.00     0.049 A 
ATOM     50  H   UNL A   1      40.974  30.892  34.517  1.00  0.00     0.167 HD
ATOM     51  C   UNL A   1      41.312  28.604  30.787  1.00  0.00     0.031 A 
ATOM     52  C   UNL A   1      40.269  33.170  35.973  1.00  0.00     0.031 A 
ATOM     53  C   UNL A   1      40.224  29.522  30.564  1.00  0.00     0.049 A 
ATOM     54  C   UNL A   1      39.449  33.196  34.714  1.00  0.00     0.074 A 
ATOM     55  C   UNL A   1      39.365  29.609  29.482  1.00  0.00     0.029 A 
ATOM     56  N   UNL A   1      39.853  30.523  31.448  1.00  0.00    -0.354 N 
ATOM     57  N   UNL A   1      39.509  32.402  33.670  1.00  0.00    -0.248 NA
ATOM     58  C   UNL A   1      38.405  34.225  34.632  1.00  0.00     0.031 C 
ATOM     59  C   UNL A   1      38.507  30.695  29.689  1.00  0.00     0.029 A 
ATOM     60  C   UNL A   1      38.789  31.243  30.931  1.00  0.00     0.049 A 
ATOM     61  H   UNL A   1      40.282  30.698  32.316  1.00  0.00     0.167 HD
ATOM     62  C   UNL A   1      38.485  32.813  32.824  1.00  0.00     0.074 A 
ATOM     63  C   UNL A   1      37.805  33.903  33.496  1.00  0.00     0.031 C 
ATOM     64  C   UNL A   1      38.134  32.336  31.603  1.00  0.00     0.031 A 
BRANCH  51  65
ATOM     65  C   UNL A   1      41.655  27.624  29.680  1.00  0.00    -0.014 A 
ATOM     66  C   UNL A   1      40.780  26.562  29.376  1.00  0.00     0.010 A 
ATOM     67  C   UNL A   1      42.784  27.814  28.859  1.00  0.00     0.010 A 
ATOM     68  C   UNL A   1      41.038  25.699  28.307  1.00  0.00     0.020 A 
ATOM     69  C   UNL A   1      43.030  26.971  27.765  1.00  0.00     0.020 A 
ATOM     70  C   UNL A   1      42.158  25.912  27.502  1.00  0.00     0.054 A 
BRANCH  70  71
ATOM     71  S   UNL A   1      42.419  24.810  26.082  1.00  0.00     0.124 S 
ATOM     72  O   UNL A   1      43.763  24.299  26.339  1.00  0.00    -0.237 OA
ATOM     73  O   UNL A   1      41.340  23.838  26.232  1.00  0.00    -0.237 OA
ATOM     74  O   UNL A   1      42.302  25.696  24.926  1.00  0.00    -0.744 OA
ENDBRANCH  70  71
ENDBRANCH  51  65
BRANCH  52  75
ATOM     75  C   UNL A   1      40.099  34.203  37.029  1.00  0.00    -0.014 A 
ATOM     76  C   UNL A   1      39.302  33.928  38.155  1.00  0.00     0.010 A 
ATOM     77  C   UNL A   1      40.748  35.446  36.934  1.00  0.00     0.010 A 
ATOM     78  C   UNL A   1      39.118  34.895  39.144  1.00  0.00     0.020 A 
ATOM     79  C   UNL A   1      40.594  36.403  37.941  1.00  0.00     0.020 A 
ATOM     80  C   UNL A   1      39.764  36.128  39.030  1.00  0.00     0.054 A 
BRANCH  80  81
ATOM     81  S   UNL A   1      39.522  37.356  40.342  1.00  0.00     0.124 S 
ATOM     82  O   UNL A   1      38.545  36.693  41.201  1.00  0.00    -0.237 OA
ATOM     83  O   UNL A   1      40.866  37.489  40.898  1.00  0.00    -0.237 OA
ATOM     84  O   UNL A   1      39.032  38.531  39.625  1.00  0.00    -0.744 OA
ENDBRANCH  80  81
ENDBRANCH  52  75
BRANCH  64  85
ATOM     85  C   UNL A   1      36.947  32.977  30.934  1.00  0.00    -0.014 A 
ATOM     86  C   UNL A   1      35.650  32.847  31.464  1.00  0.00     0.010 A 
ATOM     87  C   UNL A   1      37.133  33.722  29.755  1.00  0.00     0.010 A 
ATOM     88  C   UNL A   1      34.555  33.391  30.790  1.00  0.00     0.020 A 
ATOM     89  C   UNL A   1      36.045  34.303  29.100  1.00  0.00     0.020 A 
ATOM     90  C   UNL A   1      34.759  34.110  29.609  1.00  0.00     0.054 A 
BRANCH  90  91
ATOM     91  S   UNL A   1      33.318  34.802  28.755  1.00  0.00     0.124 S 
ATOM     92  O   UNL A   1      32.364  34.960  29.848  1.00  0.00    -0.237 OA
ATOM     93  O   UNL A   1      33.845  36.045  28.197  1.00  0.00    -0.237 OA
ATOM     94  O   UNL A   1      32.974  33.780  27.770  1.00  0.00    -0.744 OA
ENDBRANCH  90  91
ENDBRANCH  64  85
ENDBRANCH  38  39
ENDBRANCH  31  33
ENDBRANCH  30  31
ENDBRANCH  29  30
ENDBRANCH   1  29
TORSDOF 19
ENDMDL
