MODEL 1
REMARK VINA RESULT:      -9.4      0.000      0.000
REMARK SMILES C[C@H](CNC(=O)c1ccc(Br)nc1)C(=O)OCCOCCOC(=O)c1ccc(-c2c3nc(c(-c4ccc(S(=O)(=O)[O-])cc4)c4ccc([nH]4)c(-c4ccc(S(=O)(=O)[O-])cc4)c4nc(c(-c5ccc(S(=O)(=O)[O-])cc5)c5ccc2[nH]5)C=C4)C=C3)cc1
REMARK SMILES IDX 19 1 18 2 17 3 16 4 14 5 15 6 2 7 1 8 3 9 4 10 5 11 6 13
REMARK SMILES IDX 7 14 8 15 13 16 9 17 12 18 10 19 11 20 20 21 21 22 22 23
REMARK SMILES IDX 23 24 24 25 25 26 26 27 84 28 27 29 83 30 28 31 29 32 30 33
REMARK SMILES IDX 77 34 31 35 82 36 76 37 78 38 32 39 81 40 75 41 74 42 33 44
REMARK SMILES IDX 63 45 44 46 62 47 45 48 48 49 61 50 79 51 46 52 47 53 60 55
REMARK SMILES IDX 80 56 49 57 34 58 35 59 43 60 36 61 42 62 37 63 38 64 39 65
REMARK SMILES IDX 40 66 41 67 64 68 65 69 73 70 66 71 72 72 67 73 68 74 69 75
REMARK SMILES IDX 70 76 71 77 50 78 51 79 59 80 52 81 58 82 53 83 54 84 55 85
REMARK SMILES IDX 56 86 57 87
REMARK H PARENT 4 12 78 43 48 54
REMARK Flexibility Score: inf
ROOT
ATOM      1  O   UNL A   1      37.063  21.848  25.485  1.00  0.00    -0.374 OA
ENDROOT
BRANCH   1   2
ATOM      2  C   UNL A   1      36.326  20.725  24.998  1.00  0.00     0.202 C 
BRANCH   2   3
ATOM      3  C   UNL A   1      34.804  20.807  25.139  1.00  0.00     0.261 C 
BRANCH   3   4
ATOM      4  O   UNL A   1      34.245  21.745  24.196  1.00  0.00    -0.463 OA
BRANCH   4   5
ATOM      5  C   UNL A   1      32.893  21.735  24.068  1.00  0.00     0.310 C 
ATOM      6  O   UNL A   1      32.143  20.916  24.586  1.00  0.00    -0.252 OA
BRANCH   5   7
ATOM      7  C   UNL A   1      32.371  22.852  23.183  1.00  0.00     0.115 C 
ATOM      8  C   UNL A   1      33.426  23.939  23.042  1.00  0.00     0.022 C 
BRANCH   7   9
ATOM      9  C   UNL A   1      30.984  23.400  23.533  1.00  0.00     0.131 C 
BRANCH   9  10
ATOM     10  N   UNL A   1      30.760  23.681  24.943  1.00  0.00    -0.351 N 
ATOM     11  C   UNL A   1      30.439  24.859  25.566  1.00  0.00     0.252 C 
ATOM     12  H   UNL A   1      30.853  22.905  25.542  1.00  0.00     0.163 HD
ATOM     13  O   UNL A   1      30.361  24.925  26.787  1.00  0.00    -0.269 OA
BRANCH  11  14
ATOM     14  C   UNL A   1      30.212  26.067  24.766  1.00  0.00     0.058 A 
ATOM     15  C   UNL A   1      28.992  26.329  24.145  1.00  0.00     0.018 A 
ATOM     16  C   UNL A   1      31.239  26.988  24.633  1.00  0.00     0.126 A 
ATOM     17  C   UNL A   1      28.868  27.472  23.359  1.00  0.00     0.037 A 
ATOM     18  N   UNL A   1      31.147  28.101  23.865  1.00  0.00    -0.249 NA
ATOM     19  C   UNL A   1      29.966  28.318  23.243  1.00  0.00     0.106 A 
ATOM     20  Br  UNL A   1      29.824  29.850  22.135  1.00  0.00    -0.029 Br
ENDBRANCH  11  14
ENDBRANCH   9  10
ENDBRANCH   7   9
ENDBRANCH   5   7
ENDBRANCH   4   5
ENDBRANCH   3   4
ENDBRANCH   2   3
ENDBRANCH   1   2
BRANCH   1  21
ATOM     21  C   UNL A   1      38.455  21.665  25.728  1.00  0.00     0.202 C 
BRANCH  21  22
ATOM     22  C   UNL A   1      38.980  20.224  25.698  1.00  0.00     0.261 C 
BRANCH  22  23
ATOM     23  O   UNL A   1      40.416  20.154  25.726  1.00  0.00    -0.460 OA
BRANCH  23  24
ATOM     24  C   UNL A   1      40.945  20.262  26.970  1.00  0.00     0.338 C 
ATOM     25  O   UNL A   1      40.808  19.469  27.893  1.00  0.00    -0.246 OA
BRANCH  24  26
ATOM     26  C   UNL A   1      41.877  21.401  27.061  1.00  0.00     0.060 A 
ATOM     27  C   UNL A   1      42.330  21.743  28.341  1.00  0.00     0.016 A 
ATOM     28  C   UNL A   1      42.211  22.190  25.958  1.00  0.00     0.016 A 
ATOM     29  C   UNL A   1      43.046  22.921  28.536  1.00  0.00     0.010 A 
ATOM     30  C   UNL A   1      42.928  23.378  26.157  1.00  0.00     0.010 A 
ATOM     31  C   UNL A   1      43.300  23.775  27.455  1.00  0.00    -0.014 A 
BRANCH  31  32
ATOM     32  C   UNL A   1      43.786  25.148  27.739  1.00  0.00     0.031 A 
ATOM     33  C   UNL A   1      45.216  25.496  27.415  1.00  0.00     0.074 A 
ATOM     34  C   UNL A   1      42.947  26.099  28.186  1.00  0.00     0.049 A 
ATOM     35  N   UNL A   1      45.822  26.653  27.479  1.00  0.00    -0.248 NA
ATOM     36  C   UNL A   1      46.074  24.393  26.949  1.00  0.00     0.031 C 
ATOM     37  C   UNL A   1      41.531  25.901  28.495  1.00  0.00     0.029 A 
ATOM     38  N   UNL A   1      43.164  27.431  28.440  1.00  0.00    -0.354 N 
ATOM     39  C   UNL A   1      47.131  26.419  27.069  1.00  0.00     0.074 A 
ATOM     40  C   UNL A   1      47.238  25.005  26.786  1.00  0.00     0.031 C 
ATOM     41  C   UNL A   1      41.003  27.075  28.884  1.00  0.00     0.029 A 
ATOM     42  C   UNL A   1      42.045  28.100  28.870  1.00  0.00     0.049 A 
ATOM     43  H   UNL A   1      44.040  27.865  28.324  1.00  0.00     0.167 HD
ATOM     44  C   UNL A   1      48.151  27.300  26.932  1.00  0.00     0.031 A 
ATOM     45  C   UNL A   1      41.879  29.393  29.213  1.00  0.00     0.031 A 
ATOM     46  C   UNL A   1      48.050  28.705  27.222  1.00  0.00     0.049 A 
ATOM     47  C   UNL A   1      43.043  30.342  29.108  1.00  0.00     0.074 A 
ATOM     48  C   UNL A   1      49.020  29.683  27.094  1.00  0.00     0.029 A 
ATOM     49  N   UNL A   1      46.913  29.332  27.709  1.00  0.00    -0.354 N 
ATOM     50  N   UNL A   1      44.261  30.112  28.681  1.00  0.00    -0.248 NA
ATOM     51  C   UNL A   1      42.802  31.734  29.518  1.00  0.00     0.031 C 
ATOM     52  C   UNL A   1      48.486  30.892  27.553  1.00  0.00     0.029 A 
ATOM     53  C   UNL A   1      47.165  30.678  27.913  1.00  0.00     0.049 A 
ATOM     54  H   UNL A   1      46.053  28.885  27.884  1.00  0.00     0.167 HD
ATOM     55  C   UNL A   1      44.923  31.334  28.742  1.00  0.00     0.074 A 
ATOM     56  C   UNL A   1      43.966  32.304  29.237  1.00  0.00     0.031 C 
ATOM     57  C   UNL A   1      46.204  31.631  28.409  1.00  0.00     0.031 A 
BRANCH  44  58
ATOM     58  C   UNL A   1      49.481  26.754  26.483  1.00  0.00    -0.014 A 
ATOM     59  C   UNL A   1      50.361  26.134  27.390  1.00  0.00     0.010 A 
ATOM     60  C   UNL A   1      49.848  26.845  25.129  1.00  0.00     0.010 A 
ATOM     61  C   UNL A   1      51.601  25.658  26.957  1.00  0.00     0.020 A 
ATOM     62  C   UNL A   1      51.076  26.347  24.688  1.00  0.00     0.020 A 
ATOM     63  C   UNL A   1      51.955  25.774  25.610  1.00  0.00     0.054 A 
BRANCH  63  64
ATOM     64  S   UNL A   1      53.568  25.144  25.072  1.00  0.00     0.124 S 
ATOM     65  O   UNL A   1      53.396  23.703  25.232  1.00  0.00    -0.237 OA
ATOM     66  O   UNL A   1      53.655  25.616  23.692  1.00  0.00    -0.237 OA
ATOM     67  O   UNL A   1      54.511  25.765  25.999  1.00  0.00    -0.744 OA
ENDBRANCH  63  64
ENDBRANCH  44  58
BRANCH  45  68
ATOM     68  C   UNL A   1      40.549  29.872  29.683  1.00  0.00    -0.014 A 
ATOM     69  C   UNL A   1      40.324  30.145  31.043  1.00  0.00     0.010 A 
ATOM     70  C   UNL A   1      39.500  30.058  28.765  1.00  0.00     0.010 A 
ATOM     71  C   UNL A   1      39.071  30.581  31.480  1.00  0.00     0.020 A 
ATOM     72  C   UNL A   1      38.251  30.518  29.194  1.00  0.00     0.020 A 
ATOM     73  C   UNL A   1      38.042  30.767  30.551  1.00  0.00     0.054 A 
BRANCH  73  74
ATOM     74  S   UNL A   1      36.438  31.387  31.132  1.00  0.00     0.124 S 
ATOM     75  O   UNL A   1      36.021  30.335  32.053  1.00  0.00    -0.237 OA
ATOM     76  O   UNL A   1      36.796  32.663  31.747  1.00  0.00    -0.237 OA
ATOM     77  O   UNL A   1      35.651  31.496  29.906  1.00  0.00    -0.744 OA
ENDBRANCH  73  74
ENDBRANCH  45  68
BRANCH  57  78
ATOM     78  C   UNL A   1      46.637  33.067  28.533  1.00  0.00    -0.014 A 
ATOM     79  C   UNL A   1      47.213  33.560  29.717  1.00  0.00     0.010 A 
ATOM     80  C   UNL A   1      46.498  33.929  27.428  1.00  0.00     0.010 A 
ATOM     81  C   UNL A   1      47.604  34.900  29.808  1.00  0.00     0.020 A 
ATOM     82  C   UNL A   1      46.912  35.261  27.507  1.00  0.00     0.020 A 
ATOM     83  C   UNL A   1      47.446  35.743  28.704  1.00  0.00     0.054 A 
BRANCH  83  84
ATOM     84  S   UNL A   1      47.982  37.471  28.836  1.00  0.00     0.124 S 
ATOM     85  O   UNL A   1      46.750  38.142  29.237  1.00  0.00    -0.237 OA
ATOM     86  O   UNL A   1      49.025  37.409  29.857  1.00  0.00    -0.237 OA
ATOM     87  O   UNL A   1      48.456  37.790  27.491  1.00  0.00    -0.744 OA
ENDBRANCH  83  84
ENDBRANCH  57  78
ENDBRANCH  31  32
ENDBRANCH  24  26
ENDBRANCH  23  24
ENDBRANCH  22  23
ENDBRANCH  21  22
ENDBRANCH   1  21
TORSDOF 20
ENDMDL
MODEL 2
REMARK VINA RESULT:      -9.4      2.255      3.233
REMARK SMILES C[C@H](CNC(=O)c1ccc(Br)nc1)C(=O)OCCOCCOC(=O)c1ccc(-c2c3nc(c(-c4ccc(S(=O)(=O)[O-])cc4)c4ccc([nH]4)c(-c4ccc(S(=O)(=O)[O-])cc4)c4nc(c(-c5ccc(S(=O)(=O)[O-])cc5)c5ccc2[nH]5)C=C4)C=C3)cc1
REMARK SMILES IDX 19 1 18 2 17 3 16 4 14 5 15 6 2 7 1 8 3 9 4 10 5 11 6 13
REMARK SMILES IDX 7 14 8 15 13 16 9 17 12 18 10 19 11 20 20 21 21 22 22 23
REMARK SMILES IDX 23 24 24 25 25 26 26 27 84 28 27 29 83 30 28 31 29 32 30 33
REMARK SMILES IDX 77 34 31 35 82 36 76 37 78 38 32 39 81 40 75 41 74 42 33 44
REMARK SMILES IDX 63 45 44 46 62 47 45 48 48 49 61 50 79 51 46 52 47 53 60 55
REMARK SMILES IDX 80 56 49 57 34 58 35 59 43 60 36 61 42 62 37 63 38 64 39 65
REMARK SMILES IDX 40 66 41 67 64 68 65 69 73 70 66 71 72 72 67 73 68 74 69 75
REMARK SMILES IDX 70 76 71 77 50 78 51 79 59 80 52 81 58 82 53 83 54 84 55 85
REMARK SMILES IDX 56 86 57 87
REMARK H PARENT 4 12 78 43 48 54
REMARK Flexibility Score: inf
ROOT
ATOM      1  O   UNL A   1      35.224  20.340  25.434  1.00  0.00    -0.374 OA
ENDROOT
BRANCH   1   2
ATOM      2  C   UNL A   1      34.152  19.957  24.570  1.00  0.00     0.202 C 
BRANCH   2   3
ATOM      3  C   UNL A   1      32.738  20.204  25.102  1.00  0.00     0.261 C 
BRANCH   3   4
ATOM      4  O   UNL A   1      32.718  21.309  26.029  1.00  0.00    -0.463 OA
BRANCH   4   5
ATOM      5  C   UNL A   1      31.947  22.372  25.681  1.00  0.00     0.310 C 
ATOM      6  O   UNL A   1      30.748  22.477  25.911  1.00  0.00    -0.252 OA
BRANCH   5   7
ATOM      7  C   UNL A   1      32.718  23.449  24.940  1.00  0.00     0.115 C 
ATOM      8  C   UNL A   1      33.575  24.240  25.916  1.00  0.00     0.022 C 
BRANCH   7   9
ATOM      9  C   UNL A   1      31.901  24.338  23.997  1.00  0.00     0.131 C 
BRANCH   9  10
ATOM     10  N   UNL A   1      32.602  24.800  22.809  1.00  0.00    -0.351 N 
ATOM     11  C   UNL A   1      33.046  26.053  22.478  1.00  0.00     0.252 C 
ATOM     12  H   UNL A   1      32.787  24.103  22.138  1.00  0.00     0.163 HD
ATOM     13  O   UNL A   1      33.557  26.274  21.388  1.00  0.00    -0.269 OA
BRANCH  11  14
ATOM     14  C   UNL A   1      32.882  27.157  23.431  1.00  0.00     0.058 A 
ATOM     15  C   UNL A   1      33.868  27.492  24.357  1.00  0.00     0.018 A 
ATOM     16  C   UNL A   1      31.714  27.902  23.402  1.00  0.00     0.126 A 
ATOM     17  C   UNL A   1      33.619  28.520  25.264  1.00  0.00     0.037 A 
ATOM     18  N   UNL A   1      31.444  28.899  24.280  1.00  0.00    -0.249 NA
ATOM     19  C   UNL A   1      32.399  29.185  25.192  1.00  0.00     0.106 A 
ATOM     20  Br  UNL A   1      32.031  30.551  26.454  1.00  0.00    -0.029 Br
ENDBRANCH  11  14
ENDBRANCH   9  10
ENDBRANCH   7   9
ENDBRANCH   5   7
ENDBRANCH   4   5
ENDBRANCH   3   4
ENDBRANCH   2   3
ENDBRANCH   1   2
BRANCH   1  21
ATOM     21  C   UNL A   1      35.969  21.502  25.080  1.00  0.00     0.202 C 
BRANCH  21  22
ATOM     22  C   UNL A   1      37.491  21.345  24.979  1.00  0.00     0.261 C 
BRANCH  22  23
ATOM     23  O   UNL A   1      38.202  22.506  25.442  1.00  0.00    -0.460 OA
BRANCH  23  24
ATOM     24  C   UNL A   1      39.275  22.216  26.219  1.00  0.00     0.338 C 
ATOM     25  O   UNL A   1      39.947  21.192  26.184  1.00  0.00    -0.246 OA
BRANCH  24  26
ATOM     26  C   UNL A   1      39.672  23.373  27.042  1.00  0.00     0.060 A 
ATOM     27  C   UNL A   1      38.969  24.566  26.832  1.00  0.00     0.016 A 
ATOM     28  C   UNL A   1      40.769  23.342  27.907  1.00  0.00     0.016 A 
ATOM     29  C   UNL A   1      39.411  25.749  27.418  1.00  0.00     0.010 A 
ATOM     30  C   UNL A   1      41.215  24.535  28.491  1.00  0.00     0.010 A 
ATOM     31  C   UNL A   1      40.570  25.752  28.204  1.00  0.00    -0.014 A 
BRANCH  31  32
ATOM     32  C   UNL A   1      41.182  27.058  28.556  1.00  0.00     0.031 A 
ATOM     33  C   UNL A   1      42.653  27.264  28.302  1.00  0.00     0.074 A 
ATOM     34  C   UNL A   1      40.427  28.076  29.003  1.00  0.00     0.049 A 
ATOM     35  N   UNL A   1      43.372  28.349  28.431  1.00  0.00    -0.248 NA
ATOM     36  C   UNL A   1      43.412  26.093  27.832  1.00  0.00     0.031 C 
ATOM     37  C   UNL A   1      38.986  28.018  29.248  1.00  0.00     0.029 A 
ATOM     38  N   UNL A   1      40.769  29.369  29.312  1.00  0.00    -0.354 N 
ATOM     39  C   UNL A   1      44.666  27.993  28.065  1.00  0.00     0.074 A 
ATOM     40  C   UNL A   1      44.639  26.584  27.736  1.00  0.00     0.031 C 
ATOM     41  C   UNL A   1      38.565  29.227  29.657  1.00  0.00     0.029 A 
ATOM     42  C   UNL A   1      39.707  30.138  29.721  1.00  0.00     0.049 A 
ATOM     43  H   UNL A   1      41.689  29.714  29.246  1.00  0.00     0.167 HD
ATOM     44  C   UNL A   1      45.776  28.767  27.999  1.00  0.00     0.031 A 
ATOM     45  C   UNL A   1      39.660  31.430  30.103  1.00  0.00     0.031 A 
ATOM     46  C   UNL A   1      45.808  30.164  28.335  1.00  0.00     0.049 A 
ATOM     47  C   UNL A   1      40.919  32.256  30.078  1.00  0.00     0.074 A 
ATOM     48  C   UNL A   1      46.878  31.040  28.280  1.00  0.00     0.029 A 
ATOM     49  N   UNL A   1      44.721  30.891  28.799  1.00  0.00    -0.354 N 
ATOM     50  N   UNL A   1      42.125  31.913  29.692  1.00  0.00    -0.248 NA
ATOM     51  C   UNL A   1      40.805  33.651  30.527  1.00  0.00     0.031 C 
ATOM     52  C   UNL A   1      46.452  32.283  28.760  1.00  0.00     0.029 A 
ATOM     53  C   UNL A   1      45.102  32.196  29.060  1.00  0.00     0.049 A 
ATOM     54  H   UNL A   1      43.814  30.531  28.924  1.00  0.00     0.167 HD
ATOM     55  C   UNL A   1      42.906  33.057  29.822  1.00  0.00     0.074 A 
ATOM     56  C   UNL A   1      42.033  34.105  30.312  1.00  0.00     0.031 C 
ATOM     57  C   UNL A   1      44.223  33.229  29.551  1.00  0.00     0.031 A 
BRANCH  44  58
ATOM     58  C   UNL A   1      47.061  28.099  27.585  1.00  0.00    -0.014 A 
ATOM     59  C   UNL A   1      47.414  27.969  26.229  1.00  0.00     0.010 A 
ATOM     60  C   UNL A   1      47.939  27.612  28.570  1.00  0.00     0.010 A 
ATOM     61  C   UNL A   1      48.599  27.323  25.866  1.00  0.00     0.020 A 
ATOM     62  C   UNL A   1      49.137  26.988  28.212  1.00  0.00     0.020 A 
ATOM     63  C   UNL A   1      49.449  26.829  26.860  1.00  0.00     0.054 A 
BRANCH  63  64
ATOM     64  S   UNL A   1      50.984  25.999  26.364  1.00  0.00     0.124 S 
ATOM     65  O   UNL A   1      50.853  25.969  24.910  1.00  0.00    -0.237 OA
ATOM     66  O   UNL A   1      52.017  26.892  26.883  1.00  0.00    -0.237 OA
ATOM     67  O   UNL A   1      50.903  24.697  27.023  1.00  0.00    -0.744 OA
ENDBRANCH  63  64
ENDBRANCH  44  58
BRANCH  45  68
ATOM     68  C   UNL A   1      38.368  32.030  30.536  1.00  0.00    -0.014 A 
ATOM     69  C   UNL A   1      37.950  31.944  31.875  1.00  0.00     0.010 A 
ATOM     70  C   UNL A   1      37.548  32.693  29.604  1.00  0.00     0.010 A 
ATOM     71  C   UNL A   1      36.730  32.498  32.273  1.00  0.00     0.020 A 
ATOM     72  C   UNL A   1      36.339  33.270  30.003  1.00  0.00     0.020 A 
ATOM     73  C   UNL A   1      35.932  33.159  31.334  1.00  0.00     0.054 A 
BRANCH  73  74
ATOM     74  S   UNL A   1      34.378  33.919  31.883  1.00  0.00     0.124 S 
ATOM     75  O   UNL A   1      33.739  34.254  30.614  1.00  0.00    -0.237 OA
ATOM     76  O   UNL A   1      33.750  32.840  32.642  1.00  0.00    -0.237 OA
ATOM     77  O   UNL A   1      34.820  35.058  32.684  1.00  0.00    -0.744 OA
ENDBRANCH  73  74
ENDBRANCH  45  68
BRANCH  57  78
ATOM     78  C   UNL A   1      44.796  34.608  29.742  1.00  0.00    -0.014 A 
ATOM     79  C   UNL A   1      45.348  35.008  30.972  1.00  0.00     0.010 A 
ATOM     80  C   UNL A   1      44.814  35.506  28.659  1.00  0.00     0.010 A 
ATOM     81  C   UNL A   1      45.871  36.296  31.126  1.00  0.00     0.020 A 
ATOM     82  C   UNL A   1      45.360  36.784  28.801  1.00  0.00     0.020 A 
ATOM     83  C   UNL A   1      45.869  37.178  30.040  1.00  0.00     0.054 A 
BRANCH  83  84
ATOM     84  S   UNL A   1      46.574  38.835  30.254  1.00  0.00     0.124 S 
ATOM     85  O   UNL A   1      45.750  39.379  31.330  1.00  0.00    -0.237 OA
ATOM     86  O   UNL A   1      47.964  38.552  30.609  1.00  0.00    -0.237 OA
ATOM     87  O   UNL A   1      46.388  39.462  28.948  1.00  0.00    -0.744 OA
ENDBRANCH  83  84
ENDBRANCH  57  78
ENDBRANCH  31  32
ENDBRANCH  24  26
ENDBRANCH  23  24
ENDBRANCH  22  23
ENDBRANCH  21  22
ENDBRANCH   1  21
TORSDOF 20
ENDMDL
MODEL 3
REMARK VINA RESULT:      -9.4      6.480     11.871
REMARK SMILES C[C@H](CNC(=O)c1ccc(Br)nc1)C(=O)OCCOCCOC(=O)c1ccc(-c2c3nc(c(-c4ccc(S(=O)(=O)[O-])cc4)c4ccc([nH]4)c(-c4ccc(S(=O)(=O)[O-])cc4)c4nc(c(-c5ccc(S(=O)(=O)[O-])cc5)c5ccc2[nH]5)C=C4)C=C3)cc1
REMARK SMILES IDX 19 1 18 2 17 3 16 4 14 5 15 6 2 7 1 8 3 9 4 10 5 11 6 13
REMARK SMILES IDX 7 14 8 15 13 16 9 17 12 18 10 19 11 20 20 21 21 22 22 23
REMARK SMILES IDX 23 24 24 25 25 26 26 27 84 28 27 29 83 30 28 31 29 32 30 33
REMARK SMILES IDX 77 34 31 35 82 36 76 37 78 38 32 39 81 40 75 41 74 42 33 44
REMARK SMILES IDX 63 45 44 46 62 47 45 48 48 49 61 50 79 51 46 52 47 53 60 55
REMARK SMILES IDX 80 56 49 57 34 58 35 59 43 60 36 61 42 62 37 63 38 64 39 65
REMARK SMILES IDX 40 66 41 67 64 68 65 69 73 70 66 71 72 72 67 73 68 74 69 75
REMARK SMILES IDX 70 76 71 77 50 78 51 79 59 80 52 81 58 82 53 83 54 84 55 85
REMARK SMILES IDX 56 86 57 87
REMARK H PARENT 4 12 78 43 48 54
REMARK Flexibility Score: inf
ROOT
ATOM      1  O   UNL A   1      35.396  31.352  27.667  1.00  0.00    -0.374 OA
ENDROOT
BRANCH   1   2
ATOM      2  C   UNL A   1      35.786  30.057  27.205  1.00  0.00     0.202 C 
BRANCH   2   3
ATOM      3  C   UNL A   1      34.752  28.942  27.377  1.00  0.00     0.261 C 
BRANCH   3   4
ATOM      4  O   UNL A   1      34.196  28.548  26.106  1.00  0.00    -0.463 OA
BRANCH   4   5
ATOM      5  C   UNL A   1      33.410  27.440  26.111  1.00  0.00     0.310 C 
ATOM      6  O   UNL A   1      33.820  26.287  26.057  1.00  0.00    -0.252 OA
BRANCH   5   7
ATOM      7  C   UNL A   1      31.928  27.762  26.171  1.00  0.00     0.115 C 
ATOM      8  C   UNL A   1      31.654  28.740  27.303  1.00  0.00     0.022 C 
BRANCH   7   9
ATOM      9  C   UNL A   1      30.975  26.563  26.165  1.00  0.00     0.131 C 
BRANCH   9  10
ATOM     10  N   UNL A   1      31.139  25.639  25.053  1.00  0.00    -0.351 N 
ATOM     11  C   UNL A   1      30.728  25.746  23.750  1.00  0.00     0.252 C 
ATOM     12  H   UNL A   1      31.621  24.808  25.271  1.00  0.00     0.163 HD
ATOM     13  O   UNL A   1      30.891  24.824  22.960  1.00  0.00    -0.269 OA
BRANCH  11  14
ATOM     14  C   UNL A   1      30.057  26.970  23.297  1.00  0.00     0.058 A 
ATOM     15  C   UNL A   1      28.723  27.239  23.598  1.00  0.00     0.018 A 
ATOM     16  C   UNL A   1      30.775  27.896  22.558  1.00  0.00     0.126 A 
ATOM     17  C   UNL A   1      28.139  28.398  23.089  1.00  0.00     0.037 A 
ATOM     18  N   UNL A   1      30.227  29.024  22.044  1.00  0.00    -0.249 NA
ATOM     19  C   UNL A   1      28.922  29.249  22.317  1.00  0.00     0.106 A 
ATOM     20  Br  UNL A   1      28.124  30.802  21.579  1.00  0.00    -0.029 Br
ENDBRANCH  11  14
ENDBRANCH   9  10
ENDBRANCH   7   9
ENDBRANCH   5   7
ENDBRANCH   4   5
ENDBRANCH   3   4
ENDBRANCH   2   3
ENDBRANCH   1   2
BRANCH   1  21
ATOM     21  C   UNL A   1      34.032  31.535  28.032  1.00  0.00     0.202 C 
BRANCH  21  22
ATOM     22  C   UNL A   1      33.339  32.801  27.513  1.00  0.00     0.261 C 
BRANCH  22  23
ATOM     23  O   UNL A   1      32.630  33.510  28.543  1.00  0.00    -0.460 OA
BRANCH  23  24
ATOM     24  C   UNL A   1      33.224  34.669  28.920  1.00  0.00     0.338 C 
ATOM     25  O   UNL A   1      32.828  35.804  28.681  1.00  0.00    -0.246 OA
BRANCH  24  26
ATOM     26  C   UNL A   1      34.362  34.422  29.823  1.00  0.00     0.060 A 
ATOM     27  C   UNL A   1      35.643  34.598  29.285  1.00  0.00     0.016 A 
ATOM     28  C   UNL A   1      34.201  33.924  31.118  1.00  0.00     0.016 A 
ATOM     29  C   UNL A   1      36.764  34.193  30.005  1.00  0.00     0.010 A 
ATOM     30  C   UNL A   1      35.331  33.512  31.839  1.00  0.00     0.010 A 
ATOM     31  C   UNL A   1      36.611  33.595  31.262  1.00  0.00    -0.014 A 
BRANCH  31  32
ATOM     32  C   UNL A   1      37.780  32.904  31.862  1.00  0.00     0.031 A 
ATOM     33  C   UNL A   1      38.277  33.353  33.212  1.00  0.00     0.074 A 
ATOM     34  C   UNL A   1      38.331  31.834  31.264  1.00  0.00     0.049 A 
ATOM     35  N   UNL A   1      39.208  32.830  33.969  1.00  0.00    -0.248 NA
ATOM     36  C   UNL A   1      37.633  34.545  33.789  1.00  0.00     0.031 C 
ATOM     37  C   UNL A   1      37.914  31.274  29.979  1.00  0.00     0.029 A 
ATOM     38  N   UNL A   1      39.353  31.013  31.673  1.00  0.00    -0.354 N 
ATOM     39  C   UNL A   1      39.266  33.629  35.106  1.00  0.00     0.074 A 
ATOM     40  C   UNL A   1      38.297  34.688  34.927  1.00  0.00     0.031 C 
ATOM     41  C   UNL A   1      38.665  30.192  29.711  1.00  0.00     0.029 A 
ATOM     42  C   UNL A   1      39.627  29.994  30.794  1.00  0.00     0.049 A 
ATOM     43  H   UNL A   1      39.843  31.143  32.517  1.00  0.00     0.167 HD
ATOM     44  C   UNL A   1      40.048  33.492  36.204  1.00  0.00     0.031 A 
ATOM     45  C   UNL A   1      40.549  29.012  30.855  1.00  0.00     0.031 A 
ATOM     46  C   UNL A   1      41.018  32.446  36.379  1.00  0.00     0.049 A 
ATOM     47  C   UNL A   1      41.447  28.914  32.060  1.00  0.00     0.074 A 
ATOM     48  C   UNL A   1      41.843  32.209  37.465  1.00  0.00     0.029 A 
ATOM     49  N   UNL A   1      41.303  31.466  35.440  1.00  0.00    -0.354 N 
ATOM     50  N   UNL A   1      41.461  29.655  33.143  1.00  0.00    -0.248 NA
ATOM     51  C   UNL A   1      42.445  27.834  32.056  1.00  0.00     0.031 C 
ATOM     52  C   UNL A   1      42.663  31.117  37.161  1.00  0.00     0.029 A 
ATOM     53  C   UNL A   1      42.309  30.639  35.909  1.00  0.00     0.049 A 
ATOM     54  H   UNL A   1      40.856  31.373  34.568  1.00  0.00     0.167 HD
ATOM     55  C   UNL A   1      42.447  29.112  33.962  1.00  0.00     0.074 A 
ATOM     56  C   UNL A   1      42.999  27.975  33.253  1.00  0.00     0.031 C 
ATOM     57  C   UNL A   1      42.852  29.512  35.192  1.00  0.00     0.031 A 
BRANCH  44  58
ATOM     58  C   UNL A   1      39.909  34.531  37.285  1.00  0.00    -0.014 A 
ATOM     59  C   UNL A   1      40.579  35.766  37.203  1.00  0.00     0.010 A 
ATOM     60  C   UNL A   1      39.081  34.275  38.392  1.00  0.00     0.010 A 
ATOM     61  C   UNL A   1      40.457  36.706  38.231  1.00  0.00     0.020 A 
ATOM     62  C   UNL A   1      38.936  35.222  39.409  1.00  0.00     0.020 A 
ATOM     63  C   UNL A   1      39.642  36.424  39.331  1.00  0.00     0.054 A 
BRANCH  63  64
ATOM     64  S   UNL A   1      39.496  37.661  40.650  1.00  0.00     0.124 S 
ATOM     65  O   UNL A   1      38.382  38.477  40.175  1.00  0.00    -0.237 OA
ATOM     66  O   UNL A   1      39.218  36.845  41.829  1.00  0.00    -0.237 OA
ATOM     67  O   UNL A   1      40.798  38.325  40.649  1.00  0.00    -0.744 OA
ENDBRANCH  63  64
ENDBRANCH  44  58
BRANCH  45  68
ATOM     68  C   UNL A   1      40.665  28.031  29.741  1.00  0.00    -0.014 A 
ATOM     69  C   UNL A   1      41.682  28.155  28.779  1.00  0.00     0.010 A 
ATOM     70  C   UNL A   1      39.753  26.965  29.640  1.00  0.00     0.010 A 
ATOM     71  C   UNL A   1      41.778  27.239  27.728  1.00  0.00     0.020 A 
ATOM     72  C   UNL A   1      39.860  26.032  28.604  1.00  0.00     0.020 A 
ATOM     73  C   UNL A   1      40.867  26.181  27.648  1.00  0.00     0.054 A 
BRANCH  73  74
ATOM     74  S   UNL A   1      41.042  24.972  26.307  1.00  0.00     0.124 S 
ATOM     75  O   UNL A   1      39.783  24.240  26.391  1.00  0.00    -0.237 OA
ATOM     76  O   UNL A   1      41.202  25.824  25.131  1.00  0.00    -0.237 OA
ATOM     77  O   UNL A   1      42.234  24.216  26.684  1.00  0.00    -0.744 OA
ENDBRANCH  73  74
ENDBRANCH  45  68
BRANCH  57  78
ATOM     78  C   UNL A   1      43.919  28.695  35.870  1.00  0.00    -0.014 A 
ATOM     79  C   UNL A   1      45.283  29.009  35.731  1.00  0.00     0.010 A 
ATOM     80  C   UNL A   1      43.545  27.614  36.691  1.00  0.00     0.010 A 
ATOM     81  C   UNL A   1      46.255  28.232  36.368  1.00  0.00     0.020 A 
ATOM     82  C   UNL A   1      44.513  26.852  37.350  1.00  0.00     0.020 A 
ATOM     83  C   UNL A   1      45.864  27.155  37.170  1.00  0.00     0.054 A 
BRANCH  83  84
ATOM     84  S   UNL A   1      47.141  26.175  38.007  1.00  0.00     0.124 S 
ATOM     85  O   UNL A   1      48.363  26.865  37.609  1.00  0.00    -0.237 OA
ATOM     86  O   UNL A   1      46.775  26.304  39.416  1.00  0.00    -0.237 OA
ATOM     87  O   UNL A   1      46.971  24.836  37.448  1.00  0.00    -0.744 OA
ENDBRANCH  83  84
ENDBRANCH  57  78
ENDBRANCH  31  32
ENDBRANCH  24  26
ENDBRANCH  23  24
ENDBRANCH  22  23
ENDBRANCH  21  22
ENDBRANCH   1  21
TORSDOF 20
ENDMDL
