MODEL 1
REMARK VINA RESULT:      -8.1      0.000      0.000
REMARK SMILES O=C(COC[C@@H]1CCCCO1)OCCOCCOC(=O)c1ccc(-c2c3nc(c(-c4ccc(S(=O)(=O)[O-])cc4)c4ccc([nH]4)c(-c4ccc(S(=O)(=O)[O-])cc4)c4nc(c(-c5ccc(S(=O)(=O)[O-])cc5)c5ccc2[nH]5)C=C4)C=C3)cc1
REMARK SMILES IDX 15 1 14 2 13 3 12 4 2 5 1 6 3 7 4 8 5 9 6 10 7 11 11 12 8 13
REMARK SMILES IDX 10 14 9 15 16 16 17 17 18 18 19 19 20 20 21 21 22 22 80 23
REMARK SMILES IDX 23 24 79 25 24 26 25 27 26 28 73 29 27 30 78 31 72 32 74 33
REMARK SMILES IDX 28 34 77 35 71 36 70 37 29 39 59 40 40 41 58 42 41 43 44 44
REMARK SMILES IDX 57 45 75 46 42 47 43 48 56 50 76 51 45 52 30 53 31 54 39 55
REMARK SMILES IDX 32 56 38 57 33 58 34 59 35 60 36 61 37 62 60 63 61 64 69 65
REMARK SMILES IDX 62 66 68 67 63 68 64 69 65 70 66 71 67 72 46 73 47 74 55 75
REMARK SMILES IDX 48 76 54 77 49 78 50 79 51 80 52 81 53 82
REMARK H PARENT 74 38 44 49
REMARK Flexibility Score: inf
ROOT
ATOM      1  O   UNL A   1      41.894  19.274  25.469  1.00  0.00    -0.374 OA
ENDROOT
BRANCH   1   2
ATOM      2  C   UNL A   1      43.161  18.678  25.748  1.00  0.00     0.202 C 
BRANCH   2   3
ATOM      3  C   UNL A   1      44.279  18.900  24.733  1.00  0.00     0.261 C 
BRANCH   3   4
ATOM      4  O   UNL A   1      45.210  19.909  25.172  1.00  0.00    -0.462 OA
BRANCH   4   5
ATOM      5  C   UNL A   1      45.092  21.219  24.857  1.00  0.00     0.332 C 
ATOM      6  O   UNL A   1      44.508  21.572  23.834  1.00  0.00    -0.250 OA
BRANCH   5   7
ATOM      7  C   UNL A   1      45.758  22.236  25.764  1.00  0.00     0.282 C 
BRANCH   7   8
ATOM      8  O   UNL A   1      46.649  23.126  25.129  1.00  0.00    -0.367 OA
BRANCH   8   9
ATOM      9  C   UNL A   1      46.150  24.450  25.033  1.00  0.00     0.193 C 
BRANCH   9  10
ATOM     10  C   UNL A   1      45.251  24.820  26.233  1.00  0.00     0.144 C 
ATOM     11  C   UNL A   1      43.940  25.541  25.877  1.00  0.00     0.034 C 
ATOM     12  O   UNL A   1      45.970  25.571  27.219  1.00  0.00    -0.376 OA
ATOM     13  C   UNL A   1      44.209  26.954  25.387  1.00  0.00     0.005 C 
ATOM     14  C   UNL A   1      46.280  26.908  26.819  1.00  0.00     0.160 C 
ATOM     15  C   UNL A   1      45.037  27.696  26.425  1.00  0.00     0.029 C 
ENDBRANCH   9  10
ENDBRANCH   8   9
ENDBRANCH   7   8
ENDBRANCH   5   7
ENDBRANCH   4   5
ENDBRANCH   3   4
ENDBRANCH   2   3
ENDBRANCH   1   2
BRANCH   1  16
ATOM     16  C   UNL A   1      41.273  20.015  26.526  1.00  0.00     0.202 C 
BRANCH  16  17
ATOM     17  C   UNL A   1      40.036  20.845  26.178  1.00  0.00     0.261 C 
BRANCH  17  18
ATOM     18  O   UNL A   1      40.306  22.249  26.273  1.00  0.00    -0.460 OA
BRANCH  18  19
ATOM     19  C   UNL A   1      39.223  23.045  26.118  1.00  0.00     0.338 C 
ATOM     20  O   UNL A   1      38.137  22.730  25.658  1.00  0.00    -0.246 OA
BRANCH  19  21
ATOM     21  C   UNL A   1      39.468  24.310  26.837  1.00  0.00     0.060 A 
ATOM     22  C   UNL A   1      40.201  25.305  26.173  1.00  0.00     0.016 A 
ATOM     23  C   UNL A   1      38.967  24.526  28.122  1.00  0.00     0.016 A 
ATOM     24  C   UNL A   1      40.497  26.498  26.819  1.00  0.00     0.010 A 
ATOM     25  C   UNL A   1      39.277  25.716  28.776  1.00  0.00     0.010 A 
ATOM     26  C   UNL A   1      40.083  26.679  28.142  1.00  0.00    -0.014 A 
BRANCH  26  27
ATOM     27  C   UNL A   1      40.677  27.762  28.949  1.00  0.00     0.031 A 
ATOM     28  C   UNL A   1      39.838  28.981  29.206  1.00  0.00     0.074 A 
ATOM     29  C   UNL A   1      41.927  27.661  29.429  1.00  0.00     0.049 A 
ATOM     30  N   UNL A   1      40.161  30.100  29.797  1.00  0.00    -0.248 NA
ATOM     31  C   UNL A   1      38.448  28.937  28.717  1.00  0.00     0.031 C 
ATOM     32  C   UNL A   1      42.803  26.501  29.270  1.00  0.00     0.029 A 
ATOM     33  N   UNL A   1      42.680  28.563  30.133  1.00  0.00    -0.354 N 
ATOM     34  C   UNL A   1      39.027  30.900  29.728  1.00  0.00     0.074 A 
ATOM     35  C   UNL A   1      38.015  30.151  29.017  1.00  0.00     0.031 C 
ATOM     36  C   UNL A   1      43.988  26.773  29.842  1.00  0.00     0.029 A 
ATOM     37  C   UNL A   1      43.963  28.137  30.368  1.00  0.00     0.049 A 
ATOM     38  H   UNL A   1      42.334  29.432  30.441  1.00  0.00     0.167 HD
ATOM     39  C   UNL A   1      38.847  32.149  30.215  1.00  0.00     0.031 A 
ATOM     40  C   UNL A   1      45.007  28.792  30.912  1.00  0.00     0.031 A 
ATOM     41  C   UNL A   1      39.873  32.882  30.907  1.00  0.00     0.049 A 
ATOM     42  C   UNL A   1      44.806  30.205  31.393  1.00  0.00     0.074 A 
ATOM     43  C   UNL A   1      39.798  34.143  31.467  1.00  0.00     0.029 A 
ATOM     44  N   UNL A   1      41.165  32.422  31.118  1.00  0.00    -0.354 N 
ATOM     45  N   UNL A   1      43.719  30.942  31.356  1.00  0.00    -0.248 NA
ATOM     46  C   UNL A   1      45.967  30.874  31.995  1.00  0.00     0.031 C 
ATOM     47  C   UNL A   1      41.066  34.473  31.958  1.00  0.00     0.029 A 
ATOM     48  C   UNL A   1      41.909  33.386  31.772  1.00  0.00     0.049 A 
ATOM     49  H   UNL A   1      41.502  31.538  30.844  1.00  0.00     0.167 HD
ATOM     50  C   UNL A   1      44.058  32.151  31.956  1.00  0.00     0.074 A 
ATOM     51  C   UNL A   1      45.446  32.039  32.358  1.00  0.00     0.031 C 
ATOM     52  C   UNL A   1      43.291  33.251  32.162  1.00  0.00     0.031 A 
BRANCH  39  53
ATOM     53  C   UNL A   1      37.517  32.810  29.970  1.00  0.00    -0.014 A 
ATOM     54  C   UNL A   1      36.468  32.724  30.904  1.00  0.00     0.010 A 
ATOM     55  C   UNL A   1      37.319  33.546  28.787  1.00  0.00     0.010 A 
ATOM     56  C   UNL A   1      35.234  33.326  30.639  1.00  0.00     0.020 A 
ATOM     57  C   UNL A   1      36.097  34.176  28.534  1.00  0.00     0.020 A 
ATOM     58  C   UNL A   1      35.056  34.047  29.454  1.00  0.00     0.054 A 
BRANCH  58  59
ATOM     59  S   UNL A   1      33.450  34.830  29.146  1.00  0.00     0.124 S 
ATOM     60  O   UNL A   1      32.849  34.821  30.477  1.00  0.00    -0.237 OA
ATOM     61  O   UNL A   1      33.830  36.146  28.637  1.00  0.00    -0.237 OA
ATOM     62  O   UNL A   1      32.814  33.948  28.170  1.00  0.00    -0.744 OA
ENDBRANCH  58  59
ENDBRANCH  39  53
BRANCH  40  63
ATOM     63  C   UNL A   1      46.332  28.122  31.003  1.00  0.00    -0.014 A 
ATOM     64  C   UNL A   1      47.338  28.383  30.056  1.00  0.00     0.010 A 
ATOM     65  C   UNL A   1      46.605  27.234  32.060  1.00  0.00     0.010 A 
ATOM     66  C   UNL A   1      48.587  27.762  30.161  1.00  0.00     0.020 A 
ATOM     67  C   UNL A   1      47.861  26.635  32.186  1.00  0.00     0.020 A 
ATOM     68  C   UNL A   1      48.842  26.897  31.228  1.00  0.00     0.054 A 
BRANCH  68  69
ATOM     69  S   UNL A   1      50.492  26.155  31.374  1.00  0.00     0.124 S 
ATOM     70  O   UNL A   1      51.081  26.467  30.077  1.00  0.00    -0.237 OA
ATOM     71  O   UNL A   1      51.056  26.868  32.517  1.00  0.00    -0.237 OA
ATOM     72  O   UNL A   1      50.211  24.740  31.610  1.00  0.00    -0.744 OA
ENDBRANCH  68  69
ENDBRANCH  40  63
BRANCH  52  73
ATOM     73  C   UNL A   1      43.919  34.411  32.888  1.00  0.00    -0.014 A 
ATOM     74  C   UNL A   1      44.567  35.447  32.195  1.00  0.00     0.010 A 
ATOM     75  C   UNL A   1      43.784  34.500  34.288  1.00  0.00     0.010 A 
ATOM     76  C   UNL A   1      45.091  36.540  32.891  1.00  0.00     0.020 A 
ATOM     77  C   UNL A   1      44.277  35.606  34.982  1.00  0.00     0.020 A 
ATOM     78  C   UNL A   1      44.938  36.614  34.279  1.00  0.00     0.054 A 
BRANCH  78  79
ATOM     79  S   UNL A   1      45.575  38.073  35.148  1.00  0.00     0.124 S 
ATOM     80  O   UNL A   1      45.475  39.106  34.121  1.00  0.00    -0.237 OA
ATOM     81  O   UNL A   1      44.648  38.207  36.268  1.00  0.00    -0.237 OA
ATOM     82  O   UNL A   1      46.937  37.691  35.517  1.00  0.00    -0.744 OA
ENDBRANCH  78  79
ENDBRANCH  52  73
ENDBRANCH  26  27
ENDBRANCH  19  21
ENDBRANCH  18  19
ENDBRANCH  17  18
ENDBRANCH  16  17
ENDBRANCH   1  16
TORSDOF 20
ENDMDL
MODEL 2
REMARK VINA RESULT:      -8.0      4.618     11.064
REMARK SMILES O=C(COC[C@@H]1CCCCO1)OCCOCCOC(=O)c1ccc(-c2c3nc(c(-c4ccc(S(=O)(=O)[O-])cc4)c4ccc([nH]4)c(-c4ccc(S(=O)(=O)[O-])cc4)c4nc(c(-c5ccc(S(=O)(=O)[O-])cc5)c5ccc2[nH]5)C=C4)C=C3)cc1
REMARK SMILES IDX 15 1 14 2 13 3 12 4 2 5 1 6 3 7 4 8 5 9 6 10 7 11 11 12 8 13
REMARK SMILES IDX 10 14 9 15 16 16 17 17 18 18 19 19 20 20 21 21 22 22 80 23
REMARK SMILES IDX 23 24 79 25 24 26 25 27 26 28 73 29 27 30 78 31 72 32 74 33
REMARK SMILES IDX 28 34 77 35 71 36 70 37 29 39 59 40 40 41 58 42 41 43 44 44
REMARK SMILES IDX 57 45 75 46 42 47 43 48 56 50 76 51 45 52 30 53 31 54 39 55
REMARK SMILES IDX 32 56 38 57 33 58 34 59 35 60 36 61 37 62 60 63 61 64 69 65
REMARK SMILES IDX 62 66 68 67 63 68 64 69 65 70 66 71 67 72 46 73 47 74 55 75
REMARK SMILES IDX 48 76 54 77 49 78 50 79 51 80 52 81 53 82
REMARK H PARENT 74 38 44 49
REMARK Flexibility Score: inf
ROOT
ATOM      1  O   UNL A   1      37.865  22.068  24.920  1.00  0.00    -0.374 OA
ENDROOT
BRANCH   1   2
ATOM      2  C   UNL A   1      36.731  22.179  24.060  1.00  0.00     0.202 C 
BRANCH   2   3
ATOM      3  C   UNL A   1      35.386  22.495  24.709  1.00  0.00     0.261 C 
BRANCH   3   4
ATOM      4  O   UNL A   1      34.281  22.146  23.853  1.00  0.00    -0.462 OA
BRANCH   4   5
ATOM      5  C   UNL A   1      32.988  22.386  24.172  1.00  0.00     0.332 C 
ATOM      6  O   UNL A   1      32.615  23.513  24.488  1.00  0.00    -0.250 OA
BRANCH   5   7
ATOM      7  C   UNL A   1      32.028  21.212  24.193  1.00  0.00     0.282 C 
BRANCH   7   8
ATOM      8  O   UNL A   1      32.185  20.278  23.148  1.00  0.00    -0.367 OA
BRANCH   8   9
ATOM      9  C   UNL A   1      32.235  18.933  23.597  1.00  0.00     0.193 C 
BRANCH   9  10
ATOM     10  C   UNL A   1      33.238  18.745  24.756  1.00  0.00     0.144 C 
ATOM     11  C   UNL A   1      34.585  18.116  24.367  1.00  0.00     0.034 C 
ATOM     12  O   UNL A   1      32.655  18.018  25.845  1.00  0.00    -0.376 OA
ATOM     13  C   UNL A   1      34.420  16.648  24.007  1.00  0.00     0.005 C 
ATOM     14  C   UNL A   1      32.447  16.631  25.573  1.00  0.00     0.160 C 
ATOM     15  C   UNL A   1      33.731  15.925  25.155  1.00  0.00     0.029 C 
ENDBRANCH   9  10
ENDBRANCH   8   9
ENDBRANCH   7   8
ENDBRANCH   5   7
ENDBRANCH   4   5
ENDBRANCH   3   4
ENDBRANCH   2   3
ENDBRANCH   1   2
BRANCH   1  16
ATOM     16  C   UNL A   1      37.999  23.050  25.954  1.00  0.00     0.202 C 
BRANCH  16  17
ATOM     17  C   UNL A   1      39.403  23.309  26.506  1.00  0.00     0.261 C 
BRANCH  17  18
ATOM     18  O   UNL A   1      39.396  24.365  27.473  1.00  0.00    -0.460 OA
BRANCH  18  19
ATOM     19  C   UNL A   1      40.004  25.505  27.071  1.00  0.00     0.338 C 
ATOM     20  O   UNL A   1      40.438  25.755  25.956  1.00  0.00    -0.246 OA
BRANCH  19  21
ATOM     21  C   UNL A   1      39.834  26.523  28.125  1.00  0.00     0.060 A 
ATOM     22  C   UNL A   1      40.440  27.772  27.928  1.00  0.00     0.016 A 
ATOM     23  C   UNL A   1      39.075  26.267  29.269  1.00  0.00     0.016 A 
ATOM     24  C   UNL A   1      40.348  28.752  28.908  1.00  0.00     0.010 A 
ATOM     25  C   UNL A   1      38.995  27.243  30.258  1.00  0.00     0.010 A 
ATOM     26  C   UNL A   1      39.673  28.465  30.099  1.00  0.00    -0.014 A 
BRANCH  26  27
ATOM     27  C   UNL A   1      39.862  29.341  31.271  1.00  0.00     0.031 A 
ATOM     28  C   UNL A   1      41.024  29.052  32.179  1.00  0.00     0.074 A 
ATOM     29  C   UNL A   1      39.017  30.355  31.520  1.00  0.00     0.049 A 
ATOM     30  N   UNL A   1      41.345  29.608  33.316  1.00  0.00    -0.248 NA
ATOM     31  C   UNL A   1      41.940  27.980  31.750  1.00  0.00     0.031 C 
ATOM     32  C   UNL A   1      37.887  30.741  30.675  1.00  0.00     0.029 A 
ATOM     33  N   UNL A   1      38.974  31.233  32.571  1.00  0.00    -0.354 N 
ATOM     34  C   UNL A   1      42.482  28.938  33.750  1.00  0.00     0.074 A 
ATOM     35  C   UNL A   1      42.781  27.918  32.771  1.00  0.00     0.031 C 
ATOM     36  C   UNL A   1      37.245  31.768  31.257  1.00  0.00     0.029 A 
ATOM     37  C   UNL A   1      37.894  32.079  32.529  1.00  0.00     0.049 A 
ATOM     38  H   UNL A   1      39.650  31.254  33.285  1.00  0.00     0.167 HD
ATOM     39  C   UNL A   1      43.211  29.155  34.870  1.00  0.00     0.031 A 
ATOM     40  C   UNL A   1      37.462  32.977  33.436  1.00  0.00     0.031 A 
ATOM     41  C   UNL A   1      42.886  30.166  35.840  1.00  0.00     0.049 A 
ATOM     42  C   UNL A   1      38.252  33.162  34.705  1.00  0.00     0.074 A 
ATOM     43  C   UNL A   1      43.565  30.496  36.997  1.00  0.00     0.029 A 
ATOM     44  N   UNL A   1      41.779  31.000  35.769  1.00  0.00    -0.354 N 
ATOM     45  N   UNL A   1      39.346  32.549  35.093  1.00  0.00    -0.248 NA
ATOM     46  C   UNL A   1      37.754  34.164  35.657  1.00  0.00     0.031 C 
ATOM     47  C   UNL A   1      42.830  31.483  37.662  1.00  0.00     0.029 A 
ATOM     48  C   UNL A   1      41.736  31.823  36.879  1.00  0.00     0.049 A 
ATOM     49  H   UNL A   1      41.122  31.006  35.036  1.00  0.00     0.167 HD
ATOM     50  C   UNL A   1      39.685  33.111  36.319  1.00  0.00     0.074 A 
ATOM     51  C   UNL A   1      38.685  34.121  36.601  1.00  0.00     0.031 C 
ATOM     52  C   UNL A   1      40.729  32.823  37.137  1.00  0.00     0.031 A 
BRANCH  39  53
ATOM     53  C   UNL A   1      44.389  28.253  35.122  1.00  0.00    -0.014 A 
ATOM     54  C   UNL A   1      45.677  28.575  34.655  1.00  0.00     0.010 A 
ATOM     55  C   UNL A   1      44.206  27.067  35.856  1.00  0.00     0.010 A 
ATOM     56  C   UNL A   1      46.749  27.707  34.881  1.00  0.00     0.020 A 
ATOM     57  C   UNL A   1      45.282  26.212  36.112  1.00  0.00     0.020 A 
ATOM     58  C   UNL A   1      46.544  26.529  35.607  1.00  0.00     0.054 A 
BRANCH  58  59
ATOM     59  S   UNL A   1      47.956  25.430  35.899  1.00  0.00     0.124 S 
ATOM     60  O   UNL A   1      47.464  24.587  36.985  1.00  0.00    -0.237 OA
ATOM     61  O   UNL A   1      48.113  24.764  34.608  1.00  0.00    -0.237 OA
ATOM     62  O   UNL A   1      49.038  26.343  36.262  1.00  0.00    -0.744 OA
ENDBRANCH  58  59
ENDBRANCH  39  53
BRANCH  40  63
ATOM     63  C   UNL A   1      36.212  33.742  33.180  1.00  0.00    -0.014 A 
ATOM     64  C   UNL A   1      36.240  34.946  32.454  1.00  0.00     0.010 A 
ATOM     65  C   UNL A   1      34.977  33.253  33.643  1.00  0.00     0.010 A 
ATOM     66  C   UNL A   1      35.057  35.648  32.204  1.00  0.00     0.020 A 
ATOM     67  C   UNL A   1      33.788  33.935  33.369  1.00  0.00     0.020 A 
ATOM     68  C   UNL A   1      33.838  35.135  32.658  1.00  0.00     0.054 A 
BRANCH  68  69
ATOM     69  S   UNL A   1      32.312  36.034  32.264  1.00  0.00     0.124 S 
ATOM     70  O   UNL A   1      32.507  36.361  30.855  1.00  0.00    -0.237 OA
ATOM     71  O   UNL A   1      31.280  35.040  32.547  1.00  0.00    -0.237 OA
ATOM     72  O   UNL A   1      32.339  37.172  33.181  1.00  0.00    -0.744 OA
ENDBRANCH  68  69
ENDBRANCH  40  63
BRANCH  52  73
ATOM     73  C   UNL A   1      40.872  33.636  38.397  1.00  0.00    -0.014 A 
ATOM     74  C   UNL A   1      40.225  33.264  39.587  1.00  0.00     0.010 A 
ATOM     75  C   UNL A   1      41.736  34.748  38.403  1.00  0.00     0.010 A 
ATOM     76  C   UNL A   1      40.420  34.005  40.756  1.00  0.00     0.020 A 
ATOM     77  C   UNL A   1      41.959  35.470  39.576  1.00  0.00     0.020 A 
ATOM     78  C   UNL A   1      41.290  35.100  40.743  1.00  0.00     0.054 A 
BRANCH  78  79
ATOM     79  S   UNL A   1      41.572  36.006  42.289  1.00  0.00     0.124 S 
ATOM     80  O   UNL A   1      40.590  37.083  42.193  1.00  0.00    -0.237 OA
ATOM     81  O   UNL A   1      41.299  34.994  43.306  1.00  0.00    -0.237 OA
ATOM     82  O   UNL A   1      42.968  36.426  42.196  1.00  0.00    -0.744 OA
ENDBRANCH  78  79
ENDBRANCH  52  73
ENDBRANCH  26  27
ENDBRANCH  19  21
ENDBRANCH  18  19
ENDBRANCH  17  18
ENDBRANCH  16  17
ENDBRANCH   1  16
TORSDOF 20
ENDMDL
MODEL 3
REMARK VINA RESULT:      -7.9      4.633      7.754
REMARK SMILES O=C(COC[C@@H]1CCCCO1)OCCOCCOC(=O)c1ccc(-c2c3nc(c(-c4ccc(S(=O)(=O)[O-])cc4)c4ccc([nH]4)c(-c4ccc(S(=O)(=O)[O-])cc4)c4nc(c(-c5ccc(S(=O)(=O)[O-])cc5)c5ccc2[nH]5)C=C4)C=C3)cc1
REMARK SMILES IDX 15 1 14 2 13 3 12 4 2 5 1 6 3 7 4 8 5 9 6 10 7 11 11 12 8 13
REMARK SMILES IDX 10 14 9 15 16 16 17 17 18 18 19 19 20 20 21 21 22 22 80 23
REMARK SMILES IDX 23 24 79 25 24 26 25 27 26 28 73 29 27 30 78 31 72 32 74 33
REMARK SMILES IDX 28 34 77 35 71 36 70 37 29 39 59 40 40 41 58 42 41 43 44 44
REMARK SMILES IDX 57 45 75 46 42 47 43 48 56 50 76 51 45 52 30 53 31 54 39 55
REMARK SMILES IDX 32 56 38 57 33 58 34 59 35 60 36 61 37 62 60 63 61 64 69 65
REMARK SMILES IDX 62 66 68 67 63 68 64 69 65 70 66 71 67 72 46 73 47 74 55 75
REMARK SMILES IDX 48 76 54 77 49 78 50 79 51 80 52 81 53 82
REMARK H PARENT 74 38 44 49
REMARK Flexibility Score: inf
ROOT
ATOM      1  O   UNL A   1      37.128  21.398  24.615  1.00  0.00    -0.374 OA
ENDROOT
BRANCH   1   2
ATOM      2  C   UNL A   1      35.825  21.523  25.185  1.00  0.00     0.202 C 
BRANCH   2   3
ATOM      3  C   UNL A   1      35.032  22.784  24.850  1.00  0.00     0.261 C 
BRANCH   3   4
ATOM      4  O   UNL A   1      33.826  22.885  25.633  1.00  0.00    -0.462 OA
BRANCH   4   5
ATOM      5  C   UNL A   1      32.585  22.790  25.105  1.00  0.00     0.332 C 
ATOM      6  O   UNL A   1      31.929  23.798  24.849  1.00  0.00    -0.250 OA
BRANCH   5   7
ATOM      7  C   UNL A   1      31.999  21.407  24.901  1.00  0.00     0.282 C 
BRANCH   7   8
ATOM      8  O   UNL A   1      32.502  20.690  23.794  1.00  0.00    -0.367 OA
BRANCH   8   9
ATOM      9  C   UNL A   1      32.395  19.283  23.939  1.00  0.00     0.193 C 
BRANCH   9  10
ATOM     10  C   UNL A   1      33.440  18.719  24.926  1.00  0.00     0.144 C 
ATOM     11  C   UNL A   1      34.615  17.966  24.283  1.00  0.00     0.034 C 
ATOM     12  O   UNL A   1      32.829  17.904  25.933  1.00  0.00    -0.376 OA
ATOM     13  C   UNL A   1      34.160  16.640  23.697  1.00  0.00     0.005 C 
ATOM     14  C   UNL A   1      32.353  16.645  25.451  1.00  0.00     0.160 C 
ATOM     15  C   UNL A   1      33.450  15.833  24.774  1.00  0.00     0.029 C 
ENDBRANCH   9  10
ENDBRANCH   8   9
ENDBRANCH   7   8
ENDBRANCH   5   7
ENDBRANCH   4   5
ENDBRANCH   3   4
ENDBRANCH   2   3
ENDBRANCH   1   2
BRANCH   1  16
ATOM     16  C   UNL A   1      38.243  21.472  25.511  1.00  0.00     0.202 C 
BRANCH  16  17
ATOM     17  C   UNL A   1      39.208  20.285  25.541  1.00  0.00     0.261 C 
BRANCH  17  18
ATOM     18  O   UNL A   1      40.176  20.425  26.587  1.00  0.00    -0.460 OA
BRANCH  18  19
ATOM     19  C   UNL A   1      41.435  20.067  26.245  1.00  0.00     0.338 C 
ATOM     20  O   UNL A   1      41.778  19.054  25.654  1.00  0.00    -0.246 OA
BRANCH  19  21
ATOM     21  C   UNL A   1      42.325  21.222  26.467  1.00  0.00     0.060 A 
ATOM     22  C   UNL A   1      42.606  21.582  27.794  1.00  0.00     0.016 A 
ATOM     23  C   UNL A   1      42.893  21.920  25.400  1.00  0.00     0.016 A 
ATOM     24  C   UNL A   1      43.404  22.687  28.059  1.00  0.00     0.010 A 
ATOM     25  C   UNL A   1      43.681  23.037  25.666  1.00  0.00     0.010 A 
ATOM     26  C   UNL A   1      43.894  23.448  26.994  1.00  0.00    -0.014 A 
BRANCH  26  27
ATOM     27  C   UNL A   1      44.433  24.798  27.250  1.00  0.00     0.031 A 
ATOM     28  C   UNL A   1      43.468  25.863  27.689  1.00  0.00     0.074 A 
ATOM     29  C   UNL A   1      45.739  25.062  27.090  1.00  0.00     0.049 A 
ATOM     30  N   UNL A   1      43.673  27.138  27.880  1.00  0.00    -0.248 NA
ATOM     31  C   UNL A   1      42.079  25.432  27.930  1.00  0.00     0.031 C 
ATOM     32  C   UNL A   1      46.760  24.085  26.710  1.00  0.00     0.029 A 
ATOM     33  N   UNL A   1      46.424  26.242  27.208  1.00  0.00    -0.354 N 
ATOM     34  C   UNL A   1      42.439  27.665  28.238  1.00  0.00     0.074 A 
ATOM     35  C   UNL A   1      41.484  26.580  28.213  1.00  0.00     0.031 C 
ATOM     36  C   UNL A   1      47.942  24.715  26.604  1.00  0.00     0.029 A 
ATOM     37  C   UNL A   1      47.750  26.140  26.867  1.00  0.00     0.049 A 
ATOM     38  H   UNL A   1      46.007  27.081  27.509  1.00  0.00     0.167 HD
ATOM     39  C   UNL A   1      42.130  28.943  28.558  1.00  0.00     0.031 A 
ATOM     40  C   UNL A   1      48.689  27.098  26.746  1.00  0.00     0.031 A 
ATOM     41  C   UNL A   1      43.094  30.011  28.562  1.00  0.00     0.049 A 
ATOM     42  C   UNL A   1      48.312  28.525  27.047  1.00  0.00     0.074 A 
ATOM     43  C   UNL A   1      42.903  31.339  28.895  1.00  0.00     0.029 A 
ATOM     44  N   UNL A   1      44.426  29.872  28.202  1.00  0.00    -0.354 N 
ATOM     45  N   UNL A   1      47.150  29.010  27.419  1.00  0.00    -0.248 NA
ATOM     46  C   UNL A   1      49.372  29.534  26.919  1.00  0.00     0.031 C 
ATOM     47  C   UNL A   1      44.105  32.017  28.670  1.00  0.00     0.029 A 
ATOM     48  C   UNL A   1      45.064  31.096  28.272  1.00  0.00     0.049 A 
ATOM     49  H   UNL A   1      44.855  29.026  27.937  1.00  0.00     0.167 HD
ATOM     50  C   UNL A   1      47.346  30.376  27.598  1.00  0.00     0.074 A 
ATOM     51  C   UNL A   1      48.742  30.635  27.305  1.00  0.00     0.031 C 
ATOM     52  C   UNL A   1      46.457  31.329  27.975  1.00  0.00     0.031 A 
BRANCH  39  53
ATOM     53  C   UNL A   1      40.692  29.256  28.877  1.00  0.00    -0.014 A 
ATOM     54  C   UNL A   1      40.252  29.428  30.202  1.00  0.00     0.010 A 
ATOM     55  C   UNL A   1      39.767  29.396  27.826  1.00  0.00     0.010 A 
ATOM     56  C   UNL A   1      38.906  29.692  30.472  1.00  0.00     0.020 A 
ATOM     57  C   UNL A   1      38.427  29.692  28.090  1.00  0.00     0.020 A 
ATOM     58  C   UNL A   1      38.001  29.820  29.413  1.00  0.00     0.054 A 
BRANCH  58  59
ATOM     59  S   UNL A   1      36.265  30.179  29.793  1.00  0.00     0.124 S 
ATOM     60  O   UNL A   1      36.234  31.637  29.716  1.00  0.00    -0.237 OA
ATOM     61  O   UNL A   1      35.554  29.480  28.724  1.00  0.00    -0.237 OA
ATOM     62  O   UNL A   1      36.079  29.622  31.130  1.00  0.00    -0.744 OA
ENDBRANCH  58  59
ENDBRANCH  39  53
BRANCH  40  63
ATOM     63  C   UNL A   1      50.060  26.735  26.297  1.00  0.00    -0.014 A 
ATOM     64  C   UNL A   1      50.430  26.850  24.946  1.00  0.00     0.010 A 
ATOM     65  C   UNL A   1      51.017  26.295  27.231  1.00  0.00     0.010 A 
ATOM     66  C   UNL A   1      51.726  26.524  24.536  1.00  0.00     0.020 A 
ATOM     67  C   UNL A   1      52.323  25.998  26.831  1.00  0.00     0.020 A 
ATOM     68  C   UNL A   1      52.666  26.106  25.483  1.00  0.00     0.054 A 
BRANCH  68  69
ATOM     69  S   UNL A   1      54.359  25.750  24.934  1.00  0.00     0.124 S 
ATOM     70  O   UNL A   1      54.303  26.115  23.522  1.00  0.00    -0.237 OA
ATOM     71  O   UNL A   1      55.156  26.628  25.786  1.00  0.00    -0.237 OA
ATOM     72  O   UNL A   1      54.514  24.322  25.206  1.00  0.00    -0.744 OA
ENDBRANCH  68  69
ENDBRANCH  40  63
BRANCH  52  73
ATOM     73  C   UNL A   1      46.970  32.736  28.134  1.00  0.00    -0.014 A 
ATOM     74  C   UNL A   1      47.629  33.149  29.303  1.00  0.00     0.010 A 
ATOM     75  C   UNL A   1      46.857  33.635  27.055  1.00  0.00     0.010 A 
ATOM     76  C   UNL A   1      48.145  34.444  29.401  1.00  0.00     0.020 A 
ATOM     77  C   UNL A   1      47.400  34.918  27.137  1.00  0.00     0.020 A 
ATOM     78  C   UNL A   1      48.031  35.318  28.315  1.00  0.00     0.054 A 
BRANCH  78  79
ATOM     79  S   UNL A   1      48.763  36.972  28.448  1.00  0.00     0.124 S 
ATOM     80  O   UNL A   1      50.188  36.686  28.299  1.00  0.00    -0.237 OA
ATOM     81  O   UNL A   1      48.144  37.686  27.335  1.00  0.00    -0.237 OA
ATOM     82  O   UNL A   1      48.355  37.426  29.776  1.00  0.00    -0.744 OA
ENDBRANCH  78  79
ENDBRANCH  52  73
ENDBRANCH  26  27
ENDBRANCH  19  21
ENDBRANCH  18  19
ENDBRANCH  17  18
ENDBRANCH  16  17
ENDBRANCH   1  16
TORSDOF 20
ENDMDL
