MODEL 1
REMARK VINA RESULT:      -9.0      0.000      0.000
REMARK SMILES CC(C)(C[N@@H+](CC(N)=O)C1CCCC1)C(=O)OCCOCCOC(=O)c1ccc(-c2c3nc(c(-c4ccc(S(=O)(=O)[O-])cc4)c4ccc([nH]4)c(-c4ccc(S(=O)(=O)[O-])cc4)c4nc(c(-c5ccc(S(=O)(=O)[O-])cc5)c5ccc2[nH]5)C=C4)C=C3)cc1
REMARK SMILES IDX 19 1 18 2 17 3 15 4 16 5 2 6 1 7 3 8 4 9 5 10 6 12 7 13 8 14
REMARK SMILES IDX 9 15 10 18 11 19 14 20 12 21 13 22 20 23 21 24 22 25 23 26
REMARK SMILES IDX 24 27 25 28 26 29 27 30 85 31 28 32 84 33 29 34 30 35 31 36
REMARK SMILES IDX 78 37 32 38 83 39 77 40 79 41 33 42 82 43 76 44 75 45 34 47
REMARK SMILES IDX 64 48 45 49 63 50 46 51 49 52 62 53 80 54 47 55 48 56 61 58
REMARK SMILES IDX 81 59 50 60 35 61 36 62 44 63 37 64 43 65 38 66 39 67 40 68
REMARK SMILES IDX 41 69 42 70 65 71 66 72 74 73 67 74 73 75 68 76 69 77 70 78
REMARK SMILES IDX 71 79 72 80 51 81 52 82 60 83 53 84 59 85 54 86 55 87 56 88
REMARK SMILES IDX 57 89 58 90
REMARK H PARENT 5 11 8 16 8 17 79 46 49 57
REMARK Flexibility Score: inf
ROOT
ATOM      1  C   UNL A   1      35.369  23.828  24.446  1.00  0.00     0.202 C 
ENDROOT
BRANCH   1   2
ATOM      2  C   UNL A   1      34.621  25.012  25.079  1.00  0.00     0.261 C 
BRANCH   2   3
ATOM      3  O   UNL A   1      33.754  25.752  24.200  1.00  0.00    -0.463 OA
BRANCH   3   4
ATOM      4  C   UNL A   1      32.428  25.643  24.505  1.00  0.00     0.317 C 
ATOM      5  O   UNL A   1      31.950  25.985  25.584  1.00  0.00    -0.251 OA
BRANCH   4   6
ATOM      6  C   UNL A   1      31.607  24.929  23.426  1.00  0.00     0.111 C 
ATOM      7  C   UNL A   1      32.088  25.444  22.057  1.00  0.00     0.029 C 
ATOM      8  C   UNL A   1      30.151  25.447  23.578  1.00  0.00     0.029 C 
BRANCH   6   9
ATOM      9  C   UNL A   1      31.543  23.361  23.502  1.00  0.00     0.281 C 
BRANCH   9  10
ATOM     10  N   UNL A   1      32.035  22.503  24.617  1.00  0.00    -0.324 N 
ATOM     11  H   UNL A   1      32.791  23.050  25.032  1.00  0.00     0.348 HD
BRANCH  10  12
ATOM     12  C   UNL A   1      30.871  22.232  25.542  1.00  0.00     0.363 C 
BRANCH  12  13
ATOM     13  C   UNL A   1      30.856  23.132  26.794  1.00  0.00     0.272 C 
ATOM     14  N   UNL A   1      29.759  23.933  26.945  1.00  0.00    -0.365 N 
ATOM     15  O   UNL A   1      31.765  23.188  27.618  1.00  0.00    -0.269 OA
ATOM     16  H   UNL A   1      29.027  23.893  26.288  1.00  0.00     0.159 HD
ATOM     17  H   UNL A   1      29.701  24.550  27.709  1.00  0.00     0.159 HD
ENDBRANCH  12  13
ENDBRANCH  10  12
BRANCH  10  18
ATOM     18  C   UNL A   1      32.703  21.226  24.292  1.00  0.00     0.184 C 
ATOM     19  C   UNL A   1      32.526  20.033  25.226  1.00  0.00     0.065 C 
ATOM     20  C   UNL A   1      32.194  20.639  22.945  1.00  0.00     0.065 C 
ATOM     21  C   UNL A   1      32.956  18.846  24.375  1.00  0.00     0.006 C 
ATOM     22  C   UNL A   1      32.303  19.118  23.037  1.00  0.00     0.006 C 
ENDBRANCH  10  18
ENDBRANCH   9  10
ENDBRANCH   6   9
ENDBRANCH   4   6
ENDBRANCH   3   4
ENDBRANCH   2   3
ENDBRANCH   1   2
BRANCH   1  23
ATOM     23  O   UNL A   1      36.601  23.416  25.026  1.00  0.00    -0.374 OA
BRANCH  23  24
ATOM     24  C   UNL A   1      36.640  22.108  25.598  1.00  0.00     0.202 C 
BRANCH  24  25
ATOM     25  C   UNL A   1      37.948  21.329  25.437  1.00  0.00     0.261 C 
BRANCH  25  26
ATOM     26  O   UNL A   1      39.088  22.209  25.423  1.00  0.00    -0.460 OA
BRANCH  26  27
ATOM     27  C   UNL A   1      39.913  22.066  26.487  1.00  0.00     0.338 C 
ATOM     28  O   UNL A   1      40.500  21.058  26.839  1.00  0.00    -0.246 OA
BRANCH  27  29
ATOM     29  C   UNL A   1      40.169  23.384  27.090  1.00  0.00     0.060 A 
ATOM     30  C   UNL A   1      39.692  24.511  26.408  1.00  0.00     0.016 A 
ATOM     31  C   UNL A   1      40.942  23.517  28.244  1.00  0.00     0.016 A 
ATOM     32  C   UNL A   1      40.037  25.785  26.848  1.00  0.00     0.010 A 
ATOM     33  C   UNL A   1      41.298  24.797  28.677  1.00  0.00     0.010 A 
ATOM     34  C   UNL A   1      40.881  25.932  27.956  1.00  0.00    -0.014 A 
BRANCH  34  35
ATOM     35  C   UNL A   1      41.470  27.258  28.253  1.00  0.00     0.031 A 
ATOM     36  C   UNL A   1      42.952  27.443  28.073  1.00  0.00     0.074 A 
ATOM     37  C   UNL A   1      40.696  28.282  28.652  1.00  0.00     0.049 A 
ATOM     38  N   UNL A   1      43.691  28.493  28.317  1.00  0.00    -0.248 NA
ATOM     39  C   UNL A   1      43.700  26.288  27.546  1.00  0.00     0.031 C 
ATOM     40  C   UNL A   1      39.241  28.232  28.807  1.00  0.00     0.029 A 
ATOM     41  N   UNL A   1      41.029  29.564  29.005  1.00  0.00    -0.354 N 
ATOM     42  C   UNL A   1      44.990  28.125  27.987  1.00  0.00     0.074 A 
ATOM     43  C   UNL A   1      44.943  26.748  27.544  1.00  0.00     0.031 C 
ATOM     44  C   UNL A   1      38.810  29.429  29.239  1.00  0.00     0.029 A 
ATOM     45  C   UNL A   1      39.958  30.316  29.424  1.00  0.00     0.049 A 
ATOM     46  H   UNL A   1      41.949  29.913  28.964  1.00  0.00     0.167 HD
ATOM     47  C   UNL A   1      46.120  28.867  28.048  1.00  0.00     0.031 A 
ATOM     48  C   UNL A   1      39.914  31.566  29.925  1.00  0.00     0.031 A 
ATOM     49  C   UNL A   1      46.159  30.230  28.504  1.00  0.00     0.049 A 
ATOM     50  C   UNL A   1      41.194  32.349  30.055  1.00  0.00     0.074 A 
ATOM     51  C   UNL A   1      47.250  31.074  28.600  1.00  0.00     0.029 A 
ATOM     52  N   UNL A   1      45.057  30.944  28.949  1.00  0.00    -0.354 N 
ATOM     53  N   UNL A   1      42.413  31.992  29.725  1.00  0.00    -0.248 NA
ATOM     54  C   UNL A   1      41.095  33.701  30.622  1.00  0.00     0.031 C 
ATOM     55  C   UNL A   1      46.816  32.284  29.150  1.00  0.00     0.029 A 
ATOM     56  C   UNL A   1      45.444  32.212  29.344  1.00  0.00     0.049 A 
ATOM     57  H   UNL A   1      44.135  30.600  28.979  1.00  0.00     0.167 HD
ATOM     58  C   UNL A   1      43.221  33.086  30.019  1.00  0.00     0.074 A 
ATOM     59  C   UNL A   1      42.352  34.118  30.548  1.00  0.00     0.031 C 
ATOM     60  C   UNL A   1      44.560  33.226  29.860  1.00  0.00     0.031 A 
BRANCH  47  61
ATOM     61  C   UNL A   1      47.411  28.203  27.651  1.00  0.00    -0.014 A 
ATOM     62  C   UNL A   1      48.214  27.542  28.598  1.00  0.00     0.010 A 
ATOM     63  C   UNL A   1      47.812  28.218  26.303  1.00  0.00     0.010 A 
ATOM     64  C   UNL A   1      49.414  26.941  28.208  1.00  0.00     0.020 A 
ATOM     65  C   UNL A   1      49.000  27.596  25.906  1.00  0.00     0.020 A 
ATOM     66  C   UNL A   1      49.803  26.976  26.866  1.00  0.00     0.054 A 
BRANCH  66  67
ATOM     67  S   UNL A   1      51.357  26.176  26.384  1.00  0.00     0.124 S 
ATOM     68  O   UNL A   1      52.349  27.020  27.049  1.00  0.00    -0.237 OA
ATOM     69  O   UNL A   1      51.210  24.830  26.933  1.00  0.00    -0.237 OA
ATOM     70  O   UNL A   1      51.353  26.255  24.925  1.00  0.00    -0.744 OA
ENDBRANCH  66  67
ENDBRANCH  47  61
BRANCH  48  71
ATOM     71  C   UNL A   1      38.614  32.142  30.364  1.00  0.00    -0.014 A 
ATOM     72  C   UNL A   1      37.838  32.919  29.487  1.00  0.00     0.010 A 
ATOM     73  C   UNL A   1      38.138  31.900  31.666  1.00  0.00     0.010 A 
ATOM     74  C   UNL A   1      36.615  33.452  29.907  1.00  0.00     0.020 A 
ATOM     75  C   UNL A   1      36.905  32.409  32.081  1.00  0.00     0.020 A 
ATOM     76  C   UNL A   1      36.155  33.191  31.202  1.00  0.00     0.054 A 
BRANCH  76  77
ATOM     77  S   UNL A   1      34.538  33.842  31.706  1.00  0.00     0.124 S 
ATOM     78  O   UNL A   1      33.799  33.829  30.446  1.00  0.00    -0.237 OA
ATOM     79  O   UNL A   1      34.103  32.871  32.706  1.00  0.00    -0.237 OA
ATOM     80  O   UNL A   1      34.854  35.168  32.234  1.00  0.00    -0.744 OA
ENDBRANCH  76  77
ENDBRANCH  48  71
BRANCH  60  81
ATOM     81  C   UNL A   1      45.173  34.551  30.223  1.00  0.00    -0.014 A 
ATOM     82  C   UNL A   1      45.253  35.597  29.288  1.00  0.00     0.010 A 
ATOM     83  C   UNL A   1      45.588  34.780  31.549  1.00  0.00     0.010 A 
ATOM     84  C   UNL A   1      45.748  36.847  29.669  1.00  0.00     0.020 A 
ATOM     85  C   UNL A   1      46.060  36.034  31.939  1.00  0.00     0.020 A 
ATOM     86  C   UNL A   1      46.144  37.059  30.994  1.00  0.00     0.054 A 
BRANCH  86  87
ATOM     87  S   UNL A   1      46.709  38.712  31.483  1.00  0.00     0.124 S 
ATOM     88  O   UNL A   1      48.097  38.704  31.031  1.00  0.00    -0.237 OA
ATOM     89  O   UNL A   1      45.810  39.592  30.739  1.00  0.00    -0.237 OA
ATOM     90  O   UNL A   1      46.525  38.726  32.933  1.00  0.00    -0.744 OA
ENDBRANCH  86  87
ENDBRANCH  60  81
ENDBRANCH  34  35
ENDBRANCH  27  29
ENDBRANCH  26  27
ENDBRANCH  25  26
ENDBRANCH  24  25
ENDBRANCH  23  24
ENDBRANCH   1  23
TORSDOF 22
ENDMDL
MODEL 2
REMARK VINA RESULT:      -8.8      5.569     10.306
REMARK SMILES CC(C)(C[N@@H+](CC(N)=O)C1CCCC1)C(=O)OCCOCCOC(=O)c1ccc(-c2c3nc(c(-c4ccc(S(=O)(=O)[O-])cc4)c4ccc([nH]4)c(-c4ccc(S(=O)(=O)[O-])cc4)c4nc(c(-c5ccc(S(=O)(=O)[O-])cc5)c5ccc2[nH]5)C=C4)C=C3)cc1
REMARK SMILES IDX 19 1 18 2 17 3 15 4 16 5 2 6 1 7 3 8 4 9 5 10 6 12 7 13 8 14
REMARK SMILES IDX 9 15 10 18 11 19 14 20 12 21 13 22 20 23 21 24 22 25 23 26
REMARK SMILES IDX 24 27 25 28 26 29 27 30 85 31 28 32 84 33 29 34 30 35 31 36
REMARK SMILES IDX 78 37 32 38 83 39 77 40 79 41 33 42 82 43 76 44 75 45 34 47
REMARK SMILES IDX 64 48 45 49 63 50 46 51 49 52 62 53 80 54 47 55 48 56 61 58
REMARK SMILES IDX 81 59 50 60 35 61 36 62 44 63 37 64 43 65 38 66 39 67 40 68
REMARK SMILES IDX 41 69 42 70 65 71 66 72 74 73 67 74 73 75 68 76 69 77 70 78
REMARK SMILES IDX 71 79 72 80 51 81 52 82 60 83 53 84 59 85 54 86 55 87 56 88
REMARK SMILES IDX 57 89 58 90
REMARK H PARENT 5 11 8 16 8 17 79 46 49 57
REMARK Flexibility Score: inf
ROOT
ATOM      1  C   UNL A   1      37.762  21.878  24.910  1.00  0.00     0.202 C 
ENDROOT
BRANCH   1   2
ATOM      2  C   UNL A   1      36.288  22.154  25.244  1.00  0.00     0.261 C 
BRANCH   2   3
ATOM      3  O   UNL A   1      35.420  22.389  24.120  1.00  0.00    -0.463 OA
BRANCH   3   4
ATOM      4  C   UNL A   1      34.098  22.176  24.383  1.00  0.00     0.317 C 
ATOM      5  O   UNL A   1      33.688  21.279  25.114  1.00  0.00    -0.251 OA
BRANCH   4   6
ATOM      6  C   UNL A   1      33.159  23.077  23.574  1.00  0.00     0.111 C 
ATOM      7  C   UNL A   1      31.932  22.237  23.179  1.00  0.00     0.029 C 
ATOM      8  C   UNL A   1      33.897  23.387  22.243  1.00  0.00     0.029 C 
BRANCH   6   9
ATOM      9  C   UNL A   1      32.775  24.460  24.213  1.00  0.00     0.281 C 
BRANCH   9  10
ATOM     10  N   UNL A   1      31.479  24.813  24.860  1.00  0.00    -0.324 N 
ATOM     11  H   UNL A   1      30.796  24.230  24.375  1.00  0.00     0.348 HD
BRANCH  10  12
ATOM     12  C   UNL A   1      31.609  24.535  26.340  1.00  0.00     0.363 C 
BRANCH  12  13
ATOM     13  C   UNL A   1      30.745  23.353  26.823  1.00  0.00     0.272 C 
ATOM     14  N   UNL A   1      31.252  22.105  26.592  1.00  0.00    -0.365 N 
ATOM     15  O   UNL A   1      29.646  23.471  27.357  1.00  0.00    -0.269 OA
ATOM     16  H   UNL A   1      32.134  22.003  26.165  1.00  0.00     0.159 HD
ATOM     17  H   UNL A   1      30.737  21.308  26.853  1.00  0.00     0.159 HD
ENDBRANCH  12  13
ENDBRANCH  10  12
BRANCH  10  18
ATOM     18  C   UNL A   1      30.934  26.173  24.669  1.00  0.00     0.184 C 
ATOM     19  C   UNL A   1      31.429  27.019  23.501  1.00  0.00     0.065 C 
ATOM     20  C   UNL A   1      29.403  26.145  24.401  1.00  0.00     0.065 C 
ATOM     21  C   UNL A   1      30.372  28.106  23.372  1.00  0.00     0.006 C 
ATOM     22  C   UNL A   1      29.069  27.349  23.521  1.00  0.00     0.006 C 
ENDBRANCH  10  18
ENDBRANCH   9  10
ENDBRANCH   6   9
ENDBRANCH   4   6
ENDBRANCH   3   4
ENDBRANCH   2   3
ENDBRANCH   1   2
BRANCH   1  23
ATOM     23  O   UNL A   1      38.645  21.535  25.972  1.00  0.00    -0.374 OA
BRANCH  23  24
ATOM     24  C   UNL A   1      39.205  22.616  26.719  1.00  0.00     0.202 C 
BRANCH  24  25
ATOM     25  C   UNL A   1      39.113  24.007  26.086  1.00  0.00     0.261 C 
BRANCH  25  26
ATOM     26  O   UNL A   1      38.969  25.033  27.086  1.00  0.00    -0.460 OA
BRANCH  26  27
ATOM     27  C   UNL A   1      39.989  25.923  27.118  1.00  0.00     0.338 C 
ATOM     28  O   UNL A   1      40.860  26.082  26.281  1.00  0.00    -0.246 OA
BRANCH  27  29
ATOM     29  C   UNL A   1      39.804  26.839  28.255  1.00  0.00     0.060 A 
ATOM     30  C   UNL A   1      40.539  28.032  28.249  1.00  0.00     0.016 A 
ATOM     31  C   UNL A   1      39.006  26.493  29.345  1.00  0.00     0.016 A 
ATOM     32  C   UNL A   1      40.521  28.862  29.366  1.00  0.00     0.010 A 
ATOM     33  C   UNL A   1      39.001  27.321  30.471  1.00  0.00     0.010 A 
ATOM     34  C   UNL A   1      39.791  28.485  30.500  1.00  0.00    -0.014 A 
BRANCH  34  35
ATOM     35  C   UNL A   1      39.994  29.213  31.773  1.00  0.00     0.031 A 
ATOM     36  C   UNL A   1      39.019  30.296  32.146  1.00  0.00     0.074 A 
ATOM     37  C   UNL A   1      41.013  28.899  32.592  1.00  0.00     0.049 A 
ATOM     38  N   UNL A   1      39.024  31.095  33.180  1.00  0.00    -0.248 NA
ATOM     39  C   UNL A   1      37.885  30.505  31.229  1.00  0.00     0.031 C 
ATOM     40  C   UNL A   1      41.986  27.831  32.359  1.00  0.00     0.029 A 
ATOM     41  N   UNL A   1      41.401  29.455  33.783  1.00  0.00    -0.354 N 
ATOM     42  C   UNL A   1      37.907  31.909  33.034  1.00  0.00     0.074 A 
ATOM     43  C   UNL A   1      37.256  31.521  31.801  1.00  0.00     0.031 C 
ATOM     44  C   UNL A   1      42.870  27.820  33.371  1.00  0.00     0.029 A 
ATOM     45  C   UNL A   1      42.546  28.899  34.303  1.00  0.00     0.049 A 
ATOM     46  H   UNL A   1      40.907  30.184  34.224  1.00  0.00     0.167 HD
ATOM     47  C   UNL A   1      37.464  32.891  33.853  1.00  0.00     0.031 A 
ATOM     48  C   UNL A   1      43.263  29.242  35.391  1.00  0.00     0.031 A 
ATOM     49  C   UNL A   1      38.126  33.280  35.069  1.00  0.00     0.049 A 
ATOM     50  C   UNL A   1      42.794  30.388  36.248  1.00  0.00     0.074 A 
ATOM     51  C   UNL A   1      37.757  34.257  35.974  1.00  0.00     0.029 A 
ATOM     52  N   UNL A   1      39.299  32.713  35.542  1.00  0.00    -0.354 N 
ATOM     53  N   UNL A   1      41.727  31.138  36.105  1.00  0.00    -0.248 NA
ATOM     54  C   UNL A   1      43.621  30.732  37.413  1.00  0.00     0.031 C 
ATOM     55  C   UNL A   1      38.736  34.316  36.971  1.00  0.00     0.029 A 
ATOM     56  C   UNL A   1      39.683  33.337  36.716  1.00  0.00     0.049 A 
ATOM     57  H   UNL A   1      39.786  31.976  35.109  1.00  0.00     0.167 HD
ATOM     58  C   UNL A   1      41.740  32.025  37.177  1.00  0.00     0.074 A 
ATOM     59  C   UNL A   1      42.917  31.714  37.962  1.00  0.00     0.031 C 
ATOM     60  C   UNL A   1      40.855  33.004  37.486  1.00  0.00     0.031 A 
BRANCH  47  61
ATOM     61  C   UNL A   1      36.226  33.640  33.436  1.00  0.00    -0.014 A 
ATOM     62  C   UNL A   1      34.942  33.126  33.690  1.00  0.00     0.010 A 
ATOM     63  C   UNL A   1      36.352  34.891  32.805  1.00  0.00     0.010 A 
ATOM     64  C   UNL A   1      33.806  33.834  33.285  1.00  0.00     0.020 A 
ATOM     65  C   UNL A   1      35.218  35.612  32.421  1.00  0.00     0.020 A 
ATOM     66  C   UNL A   1      33.951  35.070  32.648  1.00  0.00     0.054 A 
BRANCH  66  67
ATOM     67  S   UNL A   1      32.461  35.975  32.147  1.00  0.00     0.124 S 
ATOM     68  O   UNL A   1      32.622  37.239  32.863  1.00  0.00    -0.237 OA
ATOM     69  O   UNL A   1      32.605  36.053  30.695  1.00  0.00    -0.237 OA
ATOM     70  O   UNL A   1      31.366  35.130  32.617  1.00  0.00    -0.744 OA
ENDBRANCH  66  67
ENDBRANCH  47  61
BRANCH  48  71
ATOM     71  C   UNL A   1      44.516  28.506  35.712  1.00  0.00    -0.014 A 
ATOM     72  C   UNL A   1      45.732  28.853  35.099  1.00  0.00     0.010 A 
ATOM     73  C   UNL A   1      44.499  27.458  36.651  1.00  0.00     0.010 A 
ATOM     74  C   UNL A   1      46.906  28.159  35.411  1.00  0.00     0.020 A 
ATOM     75  C   UNL A   1      45.674  26.779  36.984  1.00  0.00     0.020 A 
ATOM     76  C   UNL A   1      46.870  27.128  36.355  1.00  0.00     0.054 A 
BRANCH  76  77
ATOM     77  S   UNL A   1      48.415  26.281  36.788  1.00  0.00     0.124 S 
ATOM     78  O   UNL A   1      49.413  27.107  36.115  1.00  0.00    -0.237 OA
ATOM     79  O   UNL A   1      48.415  26.349  38.247  1.00  0.00    -0.237 OA
ATOM     80  O   UNL A   1      48.235  24.940  36.236  1.00  0.00    -0.744 OA
ENDBRANCH  76  77
ENDBRANCH  48  71
BRANCH  60  81
ATOM     81  C   UNL A   1      41.094  33.792  38.746  1.00  0.00    -0.014 A 
ATOM     82  C   UNL A   1      40.638  33.329  39.991  1.00  0.00     0.010 A 
ATOM     83  C   UNL A   1      41.871  34.965  38.689  1.00  0.00     0.010 A 
ATOM     84  C   UNL A   1      40.945  34.031  41.160  1.00  0.00     0.020 A 
ATOM     85  C   UNL A   1      42.199  35.656  39.857  1.00  0.00     0.020 A 
ATOM     86  C   UNL A   1      41.728  35.189  41.085  1.00  0.00     0.054 A 
BRANCH  86  87
ATOM     87  S   UNL A   1      42.178  36.039  42.623  1.00  0.00     0.124 S 
ATOM     88  O   UNL A   1      42.254  34.932  43.571  1.00  0.00    -0.237 OA
ATOM     89  O   UNL A   1      43.454  36.665  42.283  1.00  0.00    -0.237 OA
ATOM     90  O   UNL A   1      41.073  36.971  42.839  1.00  0.00    -0.744 OA
ENDBRANCH  86  87
ENDBRANCH  60  81
ENDBRANCH  34  35
ENDBRANCH  27  29
ENDBRANCH  26  27
ENDBRANCH  25  26
ENDBRANCH  24  25
ENDBRANCH  23  24
ENDBRANCH   1  23
TORSDOF 22
ENDMDL
MODEL 3
REMARK VINA RESULT:      -8.8      5.073      6.354
REMARK SMILES CC(C)(C[N@@H+](CC(N)=O)C1CCCC1)C(=O)OCCOCCOC(=O)c1ccc(-c2c3nc(c(-c4ccc(S(=O)(=O)[O-])cc4)c4ccc([nH]4)c(-c4ccc(S(=O)(=O)[O-])cc4)c4nc(c(-c5ccc(S(=O)(=O)[O-])cc5)c5ccc2[nH]5)C=C4)C=C3)cc1
REMARK SMILES IDX 19 1 18 2 17 3 15 4 16 5 2 6 1 7 3 8 4 9 5 10 6 12 7 13 8 14
REMARK SMILES IDX 9 15 10 18 11 19 14 20 12 21 13 22 20 23 21 24 22 25 23 26
REMARK SMILES IDX 24 27 25 28 26 29 27 30 85 31 28 32 84 33 29 34 30 35 31 36
REMARK SMILES IDX 78 37 32 38 83 39 77 40 79 41 33 42 82 43 76 44 75 45 34 47
REMARK SMILES IDX 64 48 45 49 63 50 46 51 49 52 62 53 80 54 47 55 48 56 61 58
REMARK SMILES IDX 81 59 50 60 35 61 36 62 44 63 37 64 43 65 38 66 39 67 40 68
REMARK SMILES IDX 41 69 42 70 65 71 66 72 74 73 67 74 73 75 68 76 69 77 70 78
REMARK SMILES IDX 71 79 72 80 51 81 52 82 60 83 53 84 59 85 54 86 55 87 56 88
REMARK SMILES IDX 57 89 58 90
REMARK H PARENT 5 11 8 16 8 17 79 46 49 57
REMARK Flexibility Score: inf
ROOT
ATOM      1  C   UNL A   1      38.169  21.847  25.352  1.00  0.00     0.202 C 
ENDROOT
BRANCH   1   2
ATOM      2  C   UNL A   1      36.664  22.145  25.436  1.00  0.00     0.261 C 
BRANCH   2   3
ATOM      3  O   UNL A   1      36.240  23.407  24.888  1.00  0.00    -0.463 OA
BRANCH   3   4
ATOM      4  C   UNL A   1      35.636  23.308  23.668  1.00  0.00     0.317 C 
ATOM      5  O   UNL A   1      36.231  22.997  22.639  1.00  0.00    -0.251 OA
BRANCH   4   6
ATOM      6  C   UNL A   1      34.169  23.753  23.672  1.00  0.00     0.111 C 
ATOM      7  C   UNL A   1      33.670  23.729  22.217  1.00  0.00     0.029 C 
ATOM      8  C   UNL A   1      34.172  25.249  24.088  1.00  0.00     0.029 C 
BRANCH   6   9
ATOM      9  C   UNL A   1      33.203  23.008  24.662  1.00  0.00     0.281 C 
BRANCH   9  10
ATOM     10  N   UNL A   1      33.548  21.857  25.545  1.00  0.00    -0.324 N 
ATOM     11  H   UNL A   1      34.539  21.992  25.748  1.00  0.00     0.348 HD
BRANCH  10  12
ATOM     12  C   UNL A   1      32.643  21.914  26.755  1.00  0.00     0.363 C 
BRANCH  12  13
ATOM     13  C   UNL A   1      31.320  22.665  26.500  1.00  0.00     0.272 C 
ATOM     14  N   UNL A   1      31.261  23.951  26.959  1.00  0.00    -0.365 N 
ATOM     15  O   UNL A   1      30.338  22.171  25.953  1.00  0.00    -0.269 OA
ATOM     16  H   UNL A   1      32.046  24.353  27.398  1.00  0.00     0.159 HD
ATOM     17  H   UNL A   1      30.435  24.475  26.851  1.00  0.00     0.159 HD
ENDBRANCH  12  13
ENDBRANCH  10  12
BRANCH  10  18
ATOM     18  C   UNL A   1      33.516  20.492  24.982  1.00  0.00     0.184 C 
ATOM     19  C   UNL A   1      32.875  19.367  25.787  1.00  0.00     0.065 C 
ATOM     20  C   UNL A   1      32.692  20.434  23.664  1.00  0.00     0.065 C 
ATOM     21  C   UNL A   1      32.637  18.276  24.752  1.00  0.00     0.006 C 
ATOM     22  C   UNL A   1      32.086  19.035  23.563  1.00  0.00     0.006 C 
ENDBRANCH  10  18
ENDBRANCH   9  10
ENDBRANCH   6   9
ENDBRANCH   4   6
ENDBRANCH   3   4
ENDBRANCH   2   3
ENDBRANCH   1   2
BRANCH   1  23
ATOM     23  O   UNL A   1      38.934  21.880  26.551  1.00  0.00    -0.374 OA
BRANCH  23  24
ATOM     24  C   UNL A   1      40.352  21.766  26.414  1.00  0.00     0.202 C 
BRANCH  24  25
ATOM     25  C   UNL A   1      41.151  23.071  26.458  1.00  0.00     0.261 C 
BRANCH  25  26
ATOM     26  O   UNL A   1      40.285  24.221  26.430  1.00  0.00    -0.460 OA
BRANCH  26  27
ATOM     27  C   UNL A   1      40.925  25.393  26.203  1.00  0.00     0.338 C 
ATOM     28  O   UNL A   1      41.226  25.876  25.126  1.00  0.00    -0.246 OA
BRANCH  27  29
ATOM     29  C   UNL A   1      41.059  26.132  27.469  1.00  0.00     0.060 A 
ATOM     30  C   UNL A   1      40.014  26.021  28.396  1.00  0.00     0.016 A 
ATOM     31  C   UNL A   1      42.135  26.990  27.699  1.00  0.00     0.016 A 
ATOM     32  C   UNL A   1      40.014  26.815  29.538  1.00  0.00     0.010 A 
ATOM     33  C   UNL A   1      42.126  27.796  28.841  1.00  0.00     0.010 A 
ATOM     34  C   UNL A   1      41.046  27.741  29.741  1.00  0.00    -0.014 A 
BRANCH  34  35
ATOM     35  C   UNL A   1      40.904  28.771  30.795  1.00  0.00     0.031 A 
ATOM     36  C   UNL A   1      41.828  28.717  31.982  1.00  0.00     0.074 A 
ATOM     37  C   UNL A   1      39.988  29.748  30.686  1.00  0.00     0.049 A 
ATOM     38  N   UNL A   1      41.856  29.477  33.044  1.00  0.00    -0.248 NA
ATOM     39  C   UNL A   1      42.857  27.663  31.967  1.00  0.00     0.031 C 
ATOM     40  C   UNL A   1      39.078  29.930  29.554  1.00  0.00     0.029 A 
ATOM     41  N   UNL A   1      39.667  30.768  31.544  1.00  0.00    -0.354 N 
ATOM     42  C   UNL A   1      42.894  28.990  33.830  1.00  0.00     0.074 A 
ATOM     43  C   UNL A   1      43.459  27.855  33.132  1.00  0.00     0.031 C 
ATOM     44  C   UNL A   1      38.291  30.992  29.796  1.00  0.00     0.029 A 
ATOM     45  C   UNL A   1      38.617  31.541  31.112  1.00  0.00     0.049 A 
ATOM     46  H   UNL A   1      40.144  30.930  32.390  1.00  0.00     0.167 HD
ATOM     47  C   UNL A   1      43.335  29.446  35.025  1.00  0.00     0.031 A 
ATOM     48  C   UNL A   1      37.976  32.558  31.721  1.00  0.00     0.031 A 
ATOM     49  C   UNL A   1      42.758  30.566  35.718  1.00  0.00     0.049 A 
ATOM     50  C   UNL A   1      38.436  33.002  33.085  1.00  0.00     0.074 A 
ATOM     51  C   UNL A   1      43.133  31.114  36.930  1.00  0.00     0.029 A 
ATOM     52  N   UNL A   1      41.676  31.302  35.260  1.00  0.00    -0.354 N 
ATOM     53  N   UNL A   1      39.428  32.541  33.809  1.00  0.00    -0.248 NA
ATOM     54  C   UNL A   1      37.693  34.104  33.713  1.00  0.00     0.031 C 
ATOM     55  C   UNL A   1      42.246  32.152  37.230  1.00  0.00     0.029 A 
ATOM     56  C   UNL A   1      41.353  32.286  36.178  1.00  0.00     0.049 A 
ATOM     57  H   UNL A   1      41.207  31.148  34.409  1.00  0.00     0.167 HD
ATOM     58  C   UNL A   1      39.446  33.314  34.965  1.00  0.00     0.074 A 
ATOM     59  C   UNL A   1      38.369  34.275  34.842  1.00  0.00     0.031 C 
ATOM     60  C   UNL A   1      40.282  33.238  36.030  1.00  0.00     0.031 A 
BRANCH  47  61
ATOM     61  C   UNL A   1      44.473  28.706  35.676  1.00  0.00    -0.014 A 
ATOM     62  C   UNL A   1      44.245  27.562  36.461  1.00  0.00     0.010 A 
ATOM     63  C   UNL A   1      45.793  29.147  35.474  1.00  0.00     0.010 A 
ATOM     64  C   UNL A   1      45.316  26.895  37.064  1.00  0.00     0.020 A 
ATOM     65  C   UNL A   1      46.868  28.468  36.056  1.00  0.00     0.020 A 
ATOM     66  C   UNL A   1      46.620  27.355  36.862  1.00  0.00     0.054 A 
BRANCH  66  67
ATOM     67  S   UNL A   1      47.993  26.464  37.644  1.00  0.00     0.124 S 
ATOM     68  O   UNL A   1      49.074  26.674  36.683  1.00  0.00    -0.237 OA
ATOM     69  O   UNL A   1      48.144  27.159  38.920  1.00  0.00    -0.237 OA
ATOM     70  O   UNL A   1      47.506  25.090  37.740  1.00  0.00    -0.744 OA
ENDBRANCH  66  67
ENDBRANCH  47  61
BRANCH  48  71
ATOM     71  C   UNL A   1      36.814  33.205  31.055  1.00  0.00    -0.014 A 
ATOM     72  C   UNL A   1      36.966  33.864  29.823  1.00  0.00     0.010 A 
ATOM     73  C   UNL A   1      35.539  33.151  31.648  1.00  0.00     0.010 A 
ATOM     74  C   UNL A   1      35.867  34.466  29.201  1.00  0.00     0.020 A 
ATOM     75  C   UNL A   1      34.433  33.728  31.017  1.00  0.00     0.020 A 
ATOM     76  C   UNL A   1      34.606  34.390  29.801  1.00  0.00     0.054 A 
BRANCH  76  77
ATOM     77  S   UNL A   1      33.183  35.125  28.948  1.00  0.00     0.124 S 
ATOM     78  O   UNL A   1      33.775  36.313  28.340  1.00  0.00    -0.237 OA
ATOM     79  O   UNL A   1      32.788  34.068  28.022  1.00  0.00    -0.237 OA
ATOM     80  O   UNL A   1      32.233  35.382  30.029  1.00  0.00    -0.744 OA
ENDBRANCH  76  77
ENDBRANCH  48  71
BRANCH  60  81
ATOM     81  C   UNL A   1      40.099  34.242  37.136  1.00  0.00    -0.014 A 
ATOM     82  C   UNL A   1      40.545  35.567  36.997  1.00  0.00     0.010 A 
ATOM     83  C   UNL A   1      39.384  33.874  38.292  1.00  0.00     0.010 A 
ATOM     84  C   UNL A   1      40.289  36.505  38.000  1.00  0.00     0.020 A 
ATOM     85  C   UNL A   1      39.107  34.814  39.285  1.00  0.00     0.020 A 
ATOM     86  C   UNL A   1      39.567  36.124  39.137  1.00  0.00     0.054 A 
BRANCH  86  87
ATOM     87  S   UNL A   1      39.180  37.379  40.388  1.00  0.00     0.124 S 
ATOM     88  O   UNL A   1      38.339  38.306  39.638  1.00  0.00    -0.237 OA
ATOM     89  O   UNL A   1      38.496  36.603  41.421  1.00  0.00    -0.237 OA
ATOM     90  O   UNL A   1      40.491  37.897  40.774  1.00  0.00    -0.744 OA
ENDBRANCH  86  87
ENDBRANCH  60  81
ENDBRANCH  34  35
ENDBRANCH  27  29
ENDBRANCH  26  27
ENDBRANCH  25  26
ENDBRANCH  24  25
ENDBRANCH  23  24
ENDBRANCH   1  23
TORSDOF 22
ENDMDL
