MODEL 1
REMARK VINA RESULT:      -9.9      0.000      0.000
REMARK SMILES CC(C)[C@H](NC(=O)OCc1ccccc1)C(=O)NCC(=O)OCCOCCOC(=O)c1ccc(-c2c3nc(c(-c4ccc(S(=O)(=O)[O-])cc4)c4ccc([nH]4)c(-c4ccc(S(=O)(=O)[O-])cc4)c4nc(c(-c5ccc(S(=O)(=O)[O-])cc5)c5ccc2[nH]5)C=C4)C=C3)cc1
REMARK SMILES IDX 23 1 22 2 20 3 21 4 19 5 18 6 16 7 17 8 4 10 2 11 1 12 3 13
REMARK SMILES IDX 5 14 6 15 7 17 8 18 9 19 10 20 11 21 15 22 12 23 14 24 13 25
REMARK SMILES IDX 24 26 25 27 26 28 27 29 28 30 29 31 30 32 31 33 32 34 90 35
REMARK SMILES IDX 33 36 89 37 34 38 35 39 36 40 83 41 37 42 88 43 82 44 84 45
REMARK SMILES IDX 38 46 87 47 81 48 80 49 39 51 69 52 50 53 68 54 51 55 54 56
REMARK SMILES IDX 67 57 85 58 52 59 53 60 66 62 86 63 55 64 40 65 41 66 49 67
REMARK SMILES IDX 42 68 48 69 43 70 44 71 45 72 46 73 47 74 70 75 71 76 79 77
REMARK SMILES IDX 72 78 78 79 73 80 74 81 75 82 76 83 77 84 56 85 57 86 65 87
REMARK SMILES IDX 58 88 64 89 59 90 60 91 61 92 62 93 63 94
REMARK H PARENT 18 9 5 16 84 50 54 61
REMARK Flexibility Score: inf
ROOT
ATOM      1  C   UNL A   1      39.557  21.604  26.243  1.00  0.00     0.261 C 
ENDROOT
BRANCH   1   2
ATOM      2  O   UNL A   1      38.367  22.248  25.762  1.00  0.00    -0.462 OA
BRANCH   2   3
ATOM      3  C   UNL A   1      37.577  21.480  24.969  1.00  0.00     0.325 C 
ATOM      4  O   UNL A   1      37.675  20.261  24.859  1.00  0.00    -0.250 OA
BRANCH   3   5
ATOM      5  C   UNL A   1      36.507  22.263  24.214  1.00  0.00     0.238 C 
BRANCH   5   6
ATOM      6  N   UNL A   1      36.091  23.543  24.753  1.00  0.00    -0.343 N 
ATOM      7  C   UNL A   1      34.866  24.121  24.851  1.00  0.00     0.243 C 
ATOM      8  O   UNL A   1      34.820  25.204  25.447  1.00  0.00    -0.273 OA
ATOM      9  H   UNL A   1      36.826  24.090  25.112  1.00  0.00     0.164 HD
BRANCH   7  10
ATOM     10  C   UNL A   1      33.571  23.519  24.238  1.00  0.00     0.177 C 
BRANCH  10  11
ATOM     11  C   UNL A   1      33.233  24.033  22.807  1.00  0.00     0.015 C 
ATOM     12  C   UNL A   1      32.990  22.822  21.880  1.00  0.00     0.010 C 
ATOM     13  C   UNL A   1      32.029  24.964  22.660  1.00  0.00     0.010 C 
ENDBRANCH  10  11
BRANCH  10  14
ATOM     14  N   UNL A   1      32.560  23.342  25.281  1.00  0.00    -0.309 N 
ATOM     15  C   UNL A   1      31.629  22.389  25.534  1.00  0.00     0.408 C 
ATOM     16  H   UNL A   1      32.554  24.072  25.941  1.00  0.00     0.167 HD
ATOM     17  O   UNL A   1      30.700  22.609  26.298  1.00  0.00    -0.225 OA
BRANCH  15  18
ATOM     18  O   UNL A   1      31.821  21.244  24.854  1.00  0.00    -0.445 OA
BRANCH  18  19
ATOM     19  C   UNL A   1      32.791  20.340  25.390  1.00  0.00     0.270 C 
BRANCH  19  20
ATOM     20  C   UNL A   1      33.072  19.132  24.548  1.00  0.00    -0.011 A 
ATOM     21  C   UNL A   1      32.296  18.888  23.407  1.00  0.00     0.007 A 
ATOM     22  C   UNL A   1      34.167  18.311  24.829  1.00  0.00     0.007 A 
ATOM     23  C   UNL A   1      32.640  17.864  22.531  1.00  0.00     0.000 A 
ATOM     24  C   UNL A   1      34.511  17.286  23.950  1.00  0.00     0.000 A 
ATOM     25  C   UNL A   1      33.754  17.071  22.798  1.00  0.00     0.000 A 
ENDBRANCH  19  20
ENDBRANCH  18  19
ENDBRANCH  15  18
ENDBRANCH  10  14
ENDBRANCH   7  10
ENDBRANCH   5   6
ENDBRANCH   3   5
ENDBRANCH   2   3
ENDBRANCH   1   2
BRANCH   1  26
ATOM     26  C   UNL A   1      40.402  22.340  27.285  1.00  0.00     0.202 C 
BRANCH  26  27
ATOM     27  O   UNL A   1      41.771  22.033  27.467  1.00  0.00    -0.374 OA
BRANCH  27  28
ATOM     28  C   UNL A   1      42.703  22.201  26.414  1.00  0.00     0.202 C 
BRANCH  28  29
ATOM     29  C   UNL A   1      42.661  23.393  25.440  1.00  0.00     0.261 C 
BRANCH  29  30
ATOM     30  O   UNL A   1      43.062  24.667  25.952  1.00  0.00    -0.460 OA
BRANCH  30  31
ATOM     31  C   UNL A   1      42.039  25.550  26.071  1.00  0.00     0.338 C 
ATOM     32  O   UNL A   1      41.171  25.776  25.244  1.00  0.00    -0.246 OA
BRANCH  31  33
ATOM     33  C   UNL A   1      41.998  26.113  27.433  1.00  0.00     0.060 A 
ATOM     34  C   UNL A   1      40.803  25.972  28.150  1.00  0.00     0.016 A 
ATOM     35  C   UNL A   1      43.053  26.869  27.945  1.00  0.00     0.016 A 
ATOM     36  C   UNL A   1      40.633  26.648  29.351  1.00  0.00     0.010 A 
ATOM     37  C   UNL A   1      42.873  27.562  29.148  1.00  0.00     0.010 A 
ATOM     38  C   UNL A   1      41.644  27.492  29.827  1.00  0.00    -0.014 A 
BRANCH  38  39
ATOM     39  C   UNL A   1      41.318  28.420  30.936  1.00  0.00     0.031 A 
ATOM     40  C   UNL A   1      42.145  28.368  32.194  1.00  0.00     0.074 A 
ATOM     41  C   UNL A   1      40.359  29.351  30.784  1.00  0.00     0.049 A 
ATOM     42  N   UNL A   1      42.085  29.133  33.253  1.00  0.00    -0.248 NA
ATOM     43  C   UNL A   1      43.180  27.323  32.268  1.00  0.00     0.031 C 
ATOM     44  C   UNL A   1      39.522  29.518  29.596  1.00  0.00     0.029 A 
ATOM     45  N   UNL A   1      39.937  30.342  31.634  1.00  0.00    -0.354 N 
ATOM     46  C   UNL A   1      43.062  28.657  34.120  1.00  0.00     0.074 A 
ATOM     47  C   UNL A   1      43.691  27.526  33.474  1.00  0.00     0.031 C 
ATOM     48  C   UNL A   1      38.681  30.548  29.795  1.00  0.00     0.029 A 
ATOM     49  C   UNL A   1      38.906  31.097  31.131  1.00  0.00     0.049 A 
ATOM     50  H   UNL A   1      40.335  30.496  32.522  1.00  0.00     0.167 HD
ATOM     51  C   UNL A   1      43.405  29.122  35.344  1.00  0.00     0.031 A 
ATOM     52  C   UNL A   1      38.211  32.106  31.692  1.00  0.00     0.031 A 
ATOM     53  C   UNL A   1      42.781  30.254  35.978  1.00  0.00     0.049 A 
ATOM     54  C   UNL A   1      38.589  32.577  33.072  1.00  0.00     0.074 A 
ATOM     55  C   UNL A   1      43.089  30.831  37.198  1.00  0.00     0.029 A 
ATOM     56  N   UNL A   1      41.719  30.971  35.451  1.00  0.00    -0.354 N 
ATOM     57  N   UNL A   1      39.554  32.151  33.854  1.00  0.00    -0.248 NA
ATOM     58  C   UNL A   1      37.793  33.672  33.641  1.00  0.00     0.031 C 
ATOM     59  C   UNL A   1      42.169  31.857  37.438  1.00  0.00     0.029 A 
ATOM     60  C   UNL A   1      41.332  31.960  36.339  1.00  0.00     0.049 A 
ATOM     61  H   UNL A   1      41.302  30.802  34.575  1.00  0.00     0.167 HD
ATOM     62  C   UNL A   1      39.492  32.941  34.997  1.00  0.00     0.074 A 
ATOM     63  C   UNL A   1      38.414  33.887  34.793  1.00  0.00     0.031 C 
ATOM     64  C   UNL A   1      40.252  32.888  36.119  1.00  0.00     0.031 A 
BRANCH  51  65
ATOM     65  C   UNL A   1      44.480  28.395  36.107  1.00  0.00    -0.014 A 
ATOM     66  C   UNL A   1      45.827  28.790  36.034  1.00  0.00     0.010 A 
ATOM     67  C   UNL A   1      44.117  27.356  36.984  1.00  0.00     0.010 A 
ATOM     68  C   UNL A   1      46.793  28.153  36.821  1.00  0.00     0.020 A 
ATOM     69  C   UNL A   1      45.074  26.733  37.787  1.00  0.00     0.020 A 
ATOM     70  C   UNL A   1      46.408  27.133  37.698  1.00  0.00     0.054 A 
BRANCH  70  71
ATOM     71  S   UNL A   1      47.668  26.375  38.761  1.00  0.00     0.124 S 
ATOM     72  O   UNL A   1      48.802  27.278  38.576  1.00  0.00    -0.237 OA
ATOM     73  O   UNL A   1      47.041  26.417  40.079  1.00  0.00    -0.237 OA
ATOM     74  O   UNL A   1      47.840  25.038  38.199  1.00  0.00    -0.744 OA
ENDBRANCH  70  71
ENDBRANCH  51  65
BRANCH  52  75
ATOM     75  C   UNL A   1      37.054  32.711  30.973  1.00  0.00    -0.014 A 
ATOM     76  C   UNL A   1      35.738  32.285  31.218  1.00  0.00     0.010 A 
ATOM     77  C   UNL A   1      37.279  33.703  30.000  1.00  0.00     0.010 A 
ATOM     78  C   UNL A   1      34.673  32.812  30.479  1.00  0.00     0.020 A 
ATOM     79  C   UNL A   1      36.216  34.255  29.282  1.00  0.00     0.020 A 
ATOM     80  C   UNL A   1      34.921  33.790  29.512  1.00  0.00     0.054 A 
BRANCH  80  81
ATOM     81  S   UNL A   1      33.527  34.469  28.569  1.00  0.00     0.124 S 
ATOM     82  O   UNL A   1      33.117  33.322  27.767  1.00  0.00    -0.237 OA
ATOM     83  O   UNL A   1      32.598  34.871  29.622  1.00  0.00    -0.237 OA
ATOM     84  O   UNL A   1      34.127  35.574  27.823  1.00  0.00    -0.744 OA
ENDBRANCH  80  81
ENDBRANCH  52  75
BRANCH  64  85
ATOM     85  C   UNL A   1      39.958  33.895  37.199  1.00  0.00    -0.014 A 
ATOM     86  C   UNL A   1      40.515  35.186  37.160  1.00  0.00     0.010 A 
ATOM     87  C   UNL A   1      39.086  33.555  38.249  1.00  0.00     0.010 A 
ATOM     88  C   UNL A   1      40.245  36.101  38.180  1.00  0.00     0.020 A 
ATOM     89  C   UNL A   1      38.788  34.480  39.254  1.00  0.00     0.020 A 
ATOM     90  C   UNL A   1      39.387  35.740  39.224  1.00  0.00     0.054 A 
BRANCH  90  91
ATOM     91  S   UNL A   1      39.040  36.950  40.528  1.00  0.00     0.124 S 
ATOM     92  O   UNL A   1      38.432  38.043  39.775  1.00  0.00    -0.237 OA
ATOM     93  O   UNL A   1      38.135  36.219  41.414  1.00  0.00    -0.237 OA
ATOM     94  O   UNL A   1      40.356  37.238  41.094  1.00  0.00    -0.744 OA
ENDBRANCH  90  91
ENDBRANCH  64  85
ENDBRANCH  38  39
ENDBRANCH  31  33
ENDBRANCH  30  31
ENDBRANCH  29  30
ENDBRANCH  28  29
ENDBRANCH  27  28
ENDBRANCH  26  27
ENDBRANCH   1  26
TORSDOF 24
ENDMDL
MODEL 2
REMARK VINA RESULT:      -8.7      6.065      8.732
REMARK SMILES CC(C)[C@H](NC(=O)OCc1ccccc1)C(=O)NCC(=O)OCCOCCOC(=O)c1ccc(-c2c3nc(c(-c4ccc(S(=O)(=O)[O-])cc4)c4ccc([nH]4)c(-c4ccc(S(=O)(=O)[O-])cc4)c4nc(c(-c5ccc(S(=O)(=O)[O-])cc5)c5ccc2[nH]5)C=C4)C=C3)cc1
REMARK SMILES IDX 23 1 22 2 20 3 21 4 19 5 18 6 16 7 17 8 4 10 2 11 1 12 3 13
REMARK SMILES IDX 5 14 6 15 7 17 8 18 9 19 10 20 11 21 15 22 12 23 14 24 13 25
REMARK SMILES IDX 24 26 25 27 26 28 27 29 28 30 29 31 30 32 31 33 32 34 90 35
REMARK SMILES IDX 33 36 89 37 34 38 35 39 36 40 83 41 37 42 88 43 82 44 84 45
REMARK SMILES IDX 38 46 87 47 81 48 80 49 39 51 69 52 50 53 68 54 51 55 54 56
REMARK SMILES IDX 67 57 85 58 52 59 53 60 66 62 86 63 55 64 40 65 41 66 49 67
REMARK SMILES IDX 42 68 48 69 43 70 44 71 45 72 46 73 47 74 70 75 71 76 79 77
REMARK SMILES IDX 72 78 78 79 73 80 74 81 75 82 76 83 77 84 56 85 57 86 65 87
REMARK SMILES IDX 58 88 64 89 59 90 60 91 61 92 62 93 63 94
REMARK H PARENT 18 9 5 16 84 50 54 61
REMARK Flexibility Score: inf
ROOT
ATOM      1  C   UNL A   1      40.010  20.774  26.246  1.00  0.00     0.261 C 
ENDROOT
BRANCH   1   2
ATOM      2  O   UNL A   1      39.076  21.849  26.062  1.00  0.00    -0.462 OA
BRANCH   2   3
ATOM      3  C   UNL A   1      37.896  21.495  25.492  1.00  0.00     0.325 C 
ATOM      4  O   UNL A   1      37.778  20.682  24.581  1.00  0.00    -0.250 OA
BRANCH   3   5
ATOM      5  C   UNL A   1      36.681  22.190  26.099  1.00  0.00     0.238 C 
BRANCH   5   6
ATOM      6  N   UNL A   1      36.212  23.413  25.475  1.00  0.00    -0.343 N 
ATOM      7  C   UNL A   1      35.018  23.733  24.915  1.00  0.00     0.243 C 
ATOM      8  O   UNL A   1      34.890  24.903  24.535  1.00  0.00    -0.273 OA
ATOM      9  H   UNL A   1      36.876  24.138  25.455  1.00  0.00     0.164 HD
BRANCH   7  10
ATOM     10  C   UNL A   1      33.858  22.720  24.705  1.00  0.00     0.177 C 
BRANCH  10  11
ATOM     11  C   UNL A   1      33.347  22.617  23.237  1.00  0.00     0.015 C 
ATOM     12  C   UNL A   1      32.225  21.559  23.167  1.00  0.00     0.010 C 
ATOM     13  C   UNL A   1      32.807  23.892  22.588  1.00  0.00     0.010 C 
ENDBRANCH  10  11
BRANCH  10  14
ATOM     14  N   UNL A   1      32.961  22.741  25.861  1.00  0.00    -0.309 N 
ATOM     15  C   UNL A   1      32.097  23.659  26.362  1.00  0.00     0.408 C 
ATOM     16  H   UNL A   1      32.991  21.911  26.388  1.00  0.00     0.167 HD
ATOM     17  O   UNL A   1      31.678  23.564  27.507  1.00  0.00    -0.225 OA
BRANCH  15  18
ATOM     18  O   UNL A   1      31.799  24.653  25.506  1.00  0.00    -0.445 OA
BRANCH  18  19
ATOM     19  C   UNL A   1      30.484  25.209  25.609  1.00  0.00     0.270 C 
BRANCH  19  20
ATOM     20  C   UNL A   1      30.192  26.335  24.665  1.00  0.00    -0.011 A 
ATOM     21  C   UNL A   1      28.922  26.439  24.084  1.00  0.00     0.007 A 
ATOM     22  C   UNL A   1      31.139  27.339  24.444  1.00  0.00     0.007 A 
ATOM     23  C   UNL A   1      28.584  27.560  23.331  1.00  0.00     0.000 A 
ATOM     24  C   UNL A   1      30.800  28.460  23.690  1.00  0.00     0.000 A 
ATOM     25  C   UNL A   1      29.522  28.574  23.144  1.00  0.00     0.000 A 
ENDBRANCH  19  20
ENDBRANCH  18  19
ENDBRANCH  15  18
ENDBRANCH  10  14
ENDBRANCH   7  10
ENDBRANCH   5   6
ENDBRANCH   3   5
ENDBRANCH   2   3
ENDBRANCH   1   2
BRANCH   1  26
ATOM     26  C   UNL A   1      40.844  20.757  27.529  1.00  0.00     0.202 C 
BRANCH  26  27
ATOM     27  O   UNL A   1      42.040  20.007  27.615  1.00  0.00    -0.374 OA
BRANCH  27  28
ATOM     28  C   UNL A   1      42.253  18.875  26.791  1.00  0.00     0.202 C 
BRANCH  28  29
ATOM     29  C   UNL A   1      42.788  18.976  25.350  1.00  0.00     0.261 C 
BRANCH  29  30
ATOM     30  O   UNL A   1      44.205  19.089  25.188  1.00  0.00    -0.460 OA
BRANCH  30  31
ATOM     31  C   UNL A   1      44.578  20.118  24.387  1.00  0.00     0.338 C 
ATOM     32  O   UNL A   1      44.871  20.052  23.205  1.00  0.00    -0.246 OA
BRANCH  31  33
ATOM     33  C   UNL A   1      44.427  21.403  25.094  1.00  0.00     0.060 A 
ATOM     34  C   UNL A   1      44.067  22.519  24.327  1.00  0.00     0.016 A 
ATOM     35  C   UNL A   1      44.755  21.541  26.443  1.00  0.00     0.016 A 
ATOM     36  C   UNL A   1      44.104  23.788  24.890  1.00  0.00     0.010 A 
ATOM     37  C   UNL A   1      44.806  22.822  27.005  1.00  0.00     0.010 A 
ATOM     38  C   UNL A   1      44.529  23.951  26.215  1.00  0.00    -0.014 A 
BRANCH  38  39
ATOM     39  C   UNL A   1      44.843  25.321  26.685  1.00  0.00     0.031 A 
ATOM     40  C   UNL A   1      46.227  25.869  26.452  1.00  0.00     0.074 A 
ATOM     41  C   UNL A   1      43.884  26.092  27.227  1.00  0.00     0.049 A 
ATOM     42  N   UNL A   1      46.697  27.063  26.711  1.00  0.00    -0.248 NA
ATOM     43  C   UNL A   1      47.211  24.958  25.842  1.00  0.00     0.031 C 
ATOM     44  C   UNL A   1      42.501  25.679  27.465  1.00  0.00     0.029 A 
ATOM     45  N   UNL A   1      43.926  27.391  27.666  1.00  0.00    -0.354 N 
ATOM     46  C   UNL A   1      48.027  27.041  26.307  1.00  0.00     0.074 A 
ATOM     47  C   UNL A   1      48.299  25.714  25.802  1.00  0.00     0.031 C 
ATOM     48  C   UNL A   1      41.826  26.706  28.012  1.00  0.00     0.029 A 
ATOM     49  C   UNL A   1      42.735  27.837  28.183  1.00  0.00     0.049 A 
ATOM     50  H   UNL A   1      44.735  27.950  27.615  1.00  0.00     0.167 HD
ATOM     51  C   UNL A   1      48.940  28.041  26.353  1.00  0.00     0.031 A 
ATOM     52  C   UNL A   1      42.418  29.020  28.747  1.00  0.00     0.031 A 
ATOM     53  C   UNL A   1      48.661  29.362  26.850  1.00  0.00     0.049 A 
ATOM     54  C   UNL A   1      43.466  30.100  28.820  1.00  0.00     0.074 A 
ATOM     55  C   UNL A   1      49.506  30.457  26.895  1.00  0.00     0.029 A 
ATOM     56  N   UNL A   1      47.452  29.764  27.395  1.00  0.00    -0.354 N 
ATOM     57  N   UNL A   1      44.703  30.081  28.381  1.00  0.00    -0.248 NA
ATOM     58  C   UNL A   1      43.072  31.366  29.452  1.00  0.00     0.031 C 
ATOM     59  C   UNL A   1      48.828  31.504  27.528  1.00  0.00     0.029 A 
ATOM     60  C   UNL A   1      47.541  31.080  27.817  1.00  0.00     0.049 A 
ATOM     61  H   UNL A   1      46.649  29.199  27.471  1.00  0.00     0.167 HD
ATOM     62  C   UNL A   1      45.226  31.337  28.668  1.00  0.00     0.074 A 
ATOM     63  C   UNL A   1      44.164  32.099  29.291  1.00  0.00     0.031 C 
ATOM     64  C   UNL A   1      46.474  31.819  28.442  1.00  0.00     0.031 A 
BRANCH  51  65
ATOM     65  C   UNL A   1      50.341  27.746  25.889  1.00  0.00    -0.014 A 
ATOM     66  C   UNL A   1      51.298  27.183  26.751  1.00  0.00     0.010 A 
ATOM     67  C   UNL A   1      50.674  27.952  24.537  1.00  0.00     0.010 A 
ATOM     68  C   UNL A   1      52.565  26.838  26.270  1.00  0.00     0.020 A 
ATOM     69  C   UNL A   1      51.930  27.589  24.048  1.00  0.00     0.020 A 
ATOM     70  C   UNL A   1      52.871  27.037  24.919  1.00  0.00     0.054 A 
BRANCH  70  71
ATOM     71  S   UNL A   1      54.496  26.511  24.306  1.00  0.00     0.124 S 
ATOM     72  O   UNL A   1      55.375  27.536  24.863  1.00  0.00    -0.237 OA
ATOM     73  O   UNL A   1      54.639  25.178  24.885  1.00  0.00    -0.237 OA
ATOM     74  O   UNL A   1      54.346  26.542  22.853  1.00  0.00    -0.744 OA
ENDBRANCH  70  71
ENDBRANCH  51  65
BRANCH  52  75
ATOM     75  C   UNL A   1      41.064  29.233  29.332  1.00  0.00    -0.014 A 
ATOM     76  C   UNL A   1      39.982  29.649  28.537  1.00  0.00     0.010 A 
ATOM     77  C   UNL A   1      40.865  29.052  30.713  1.00  0.00     0.010 A 
ATOM     78  C   UNL A   1      38.738  29.917  29.119  1.00  0.00     0.020 A 
ATOM     79  C   UNL A   1      39.616  29.287  31.293  1.00  0.00     0.020 A 
ATOM     80  C   UNL A   1      38.565  29.739  30.493  1.00  0.00     0.054 A 
BRANCH  80  81
ATOM     81  S   UNL A   1      36.942  30.081  31.230  1.00  0.00     0.124 S 
ATOM     82  O   UNL A   1      37.042  31.504  31.532  1.00  0.00    -0.237 OA
ATOM     83  O   UNL A   1      36.024  29.724  30.151  1.00  0.00    -0.237 OA
ATOM     84  O   UNL A   1      36.901  29.194  32.391  1.00  0.00    -0.744 OA
ENDBRANCH  80  81
ENDBRANCH  52  75
BRANCH  64  85
ATOM     85  C   UNL A   1      46.747  33.242  28.851  1.00  0.00    -0.014 A 
ATOM     86  C   UNL A   1      47.258  33.547  30.125  1.00  0.00     0.010 A 
ATOM     87  C   UNL A   1      46.521  34.285  27.935  1.00  0.00     0.010 A 
ATOM     88  C   UNL A   1      47.490  34.874  30.493  1.00  0.00     0.020 A 
ATOM     89  C   UNL A   1      46.781  35.612  28.288  1.00  0.00     0.020 A 
ATOM     90  C   UNL A   1      47.244  35.899  29.573  1.00  0.00     0.054 A 
BRANCH  90  91
ATOM     91  S   UNL A   1      47.565  37.614  30.068  1.00  0.00     0.124 S 
ATOM     92  O   UNL A   1      47.918  37.462  31.476  1.00  0.00    -0.237 OA
ATOM     93  O   UNL A   1      48.662  38.004  29.184  1.00  0.00    -0.237 OA
ATOM     94  O   UNL A   1      46.297  38.292  29.812  1.00  0.00    -0.744 OA
ENDBRANCH  90  91
ENDBRANCH  64  85
ENDBRANCH  38  39
ENDBRANCH  31  33
ENDBRANCH  30  31
ENDBRANCH  29  30
ENDBRANCH  28  29
ENDBRANCH  27  28
ENDBRANCH  26  27
ENDBRANCH   1  26
TORSDOF 24
ENDMDL
MODEL 3
REMARK VINA RESULT:      -8.7      3.096     10.011
REMARK SMILES CC(C)[C@H](NC(=O)OCc1ccccc1)C(=O)NCC(=O)OCCOCCOC(=O)c1ccc(-c2c3nc(c(-c4ccc(S(=O)(=O)[O-])cc4)c4ccc([nH]4)c(-c4ccc(S(=O)(=O)[O-])cc4)c4nc(c(-c5ccc(S(=O)(=O)[O-])cc5)c5ccc2[nH]5)C=C4)C=C3)cc1
REMARK SMILES IDX 23 1 22 2 20 3 21 4 19 5 18 6 16 7 17 8 4 10 2 11 1 12 3 13
REMARK SMILES IDX 5 14 6 15 7 17 8 18 9 19 10 20 11 21 15 22 12 23 14 24 13 25
REMARK SMILES IDX 24 26 25 27 26 28 27 29 28 30 29 31 30 32 31 33 32 34 90 35
REMARK SMILES IDX 33 36 89 37 34 38 35 39 36 40 83 41 37 42 88 43 82 44 84 45
REMARK SMILES IDX 38 46 87 47 81 48 80 49 39 51 69 52 50 53 68 54 51 55 54 56
REMARK SMILES IDX 67 57 85 58 52 59 53 60 66 62 86 63 55 64 40 65 41 66 49 67
REMARK SMILES IDX 42 68 48 69 43 70 44 71 45 72 46 73 47 74 70 75 71 76 79 77
REMARK SMILES IDX 72 78 78 79 73 80 74 81 75 82 76 83 77 84 56 85 57 86 65 87
REMARK SMILES IDX 58 88 64 89 59 90 60 91 61 92 62 93 63 94
REMARK H PARENT 18 9 5 16 84 50 54 61
REMARK Flexibility Score: inf
ROOT
ATOM      1  C   UNL A   1      33.585  32.092  27.585  1.00  0.00     0.261 C 
ENDROOT
BRANCH   1   2
ATOM      2  O   UNL A   1      34.167  30.849  27.164  1.00  0.00    -0.462 OA
BRANCH   2   3
ATOM      3  C   UNL A   1      33.296  29.813  27.052  1.00  0.00     0.325 C 
ATOM      4  O   UNL A   1      32.105  29.870  27.342  1.00  0.00    -0.250 OA
BRANCH   3   5
ATOM      5  C   UNL A   1      33.920  28.534  26.502  1.00  0.00     0.238 C 
BRANCH   5   6
ATOM      6  N   UNL A   1      33.868  28.311  25.070  1.00  0.00    -0.343 N 
ATOM      7  C   UNL A   1      33.757  27.170  24.343  1.00  0.00     0.243 C 
ATOM      8  O   UNL A   1      33.653  27.311  23.119  1.00  0.00    -0.273 OA
ATOM      9  H   UNL A   1      33.924  29.131  24.529  1.00  0.00     0.164 HD
BRANCH   7  10
ATOM     10  C   UNL A   1      33.790  25.743  24.957  1.00  0.00     0.177 C 
BRANCH  10  11
ATOM     11  C   UNL A   1      34.372  24.646  24.017  1.00  0.00     0.015 C 
ATOM     12  C   UNL A   1      35.322  23.738  24.828  1.00  0.00     0.010 C 
ATOM     13  C   UNL A   1      33.377  23.734  23.299  1.00  0.00     0.010 C 
ENDBRANCH  10  11
BRANCH  10  14
ATOM     14  N   UNL A   1      32.605  25.531  25.791  1.00  0.00    -0.309 N 
ATOM     15  C   UNL A   1      31.281  25.763  25.616  1.00  0.00     0.408 C 
ATOM     16  H   UNL A   1      32.815  25.134  26.667  1.00  0.00     0.167 HD
ATOM     17  O   UNL A   1      30.517  25.777  26.570  1.00  0.00    -0.225 OA
BRANCH  15  18
ATOM     18  O   UNL A   1      30.932  25.998  24.338  1.00  0.00    -0.445 OA
BRANCH  18  19
ATOM     19  C   UNL A   1      29.543  26.236  24.091  1.00  0.00     0.270 C 
BRANCH  19  20
ATOM     20  C   UNL A   1      29.235  27.496  23.340  1.00  0.00    -0.011 A 
ATOM     21  C   UNL A   1      27.943  28.035  23.391  1.00  0.00     0.007 A 
ATOM     22  C   UNL A   1      30.251  28.194  22.680  1.00  0.00     0.007 A 
ATOM     23  C   UNL A   1      27.680  29.281  22.831  1.00  0.00     0.000 A 
ATOM     24  C   UNL A   1      29.986  29.441  22.119  1.00  0.00     0.000 A 
ATOM     25  C   UNL A   1      28.705  29.988  22.205  1.00  0.00     0.000 A 
ENDBRANCH  19  20
ENDBRANCH  18  19
ENDBRANCH  15  18
ENDBRANCH  10  14
ENDBRANCH   7  10
ENDBRANCH   5   6
ENDBRANCH   3   5
ENDBRANCH   2   3
ENDBRANCH   1   2
BRANCH   1  26
ATOM     26  C   UNL A   1      34.346  32.931  28.613  1.00  0.00     0.202 C 
BRANCH  26  27
ATOM     27  O   UNL A   1      33.660  33.722  29.564  1.00  0.00    -0.374 OA
BRANCH  27  28
ATOM     28  C   UNL A   1      33.369  35.084  29.307  1.00  0.00     0.202 C 
BRANCH  28  29
ATOM     29  C   UNL A   1      32.696  36.007  30.340  1.00  0.00     0.261 C 
BRANCH  29  30
ATOM     30  O   UNL A   1      33.389  36.219  31.573  1.00  0.00    -0.460 OA
BRANCH  30  31
ATOM     31  C   UNL A   1      33.355  35.148  32.405  1.00  0.00     0.338 C 
ATOM     32  O   UNL A   1      32.372  34.688  32.961  1.00  0.00    -0.246 OA
BRANCH  31  33
ATOM     33  C   UNL A   1      34.667  34.476  32.437  1.00  0.00     0.060 A 
ATOM     34  C   UNL A   1      34.698  33.150  32.885  1.00  0.00     0.016 A 
ATOM     35  C   UNL A   1      35.850  35.164  32.159  1.00  0.00     0.016 A 
ATOM     36  C   UNL A   1      35.918  32.529  33.127  1.00  0.00     0.010 A 
ATOM     37  C   UNL A   1      37.077  34.542  32.418  1.00  0.00     0.010 A 
ATOM     38  C   UNL A   1      37.111  33.241  32.950  1.00  0.00    -0.014 A 
BRANCH  38  39
ATOM     39  C   UNL A   1      38.360  32.661  33.498  1.00  0.00     0.031 A 
ATOM     40  C   UNL A   1      39.232  31.829  32.594  1.00  0.00     0.074 A 
ATOM     41  C   UNL A   1      38.751  32.947  34.752  1.00  0.00     0.049 A 
ATOM     42  N   UNL A   1      40.399  31.290  32.839  1.00  0.00    -0.248 NA
ATOM     43  C   UNL A   1      38.730  31.576  31.232  1.00  0.00     0.031 C 
ATOM     44  C   UNL A   1      38.005  33.772  35.702  1.00  0.00     0.029 A 
ATOM     45  N   UNL A   1      39.882  32.584  35.438  1.00  0.00    -0.354 N 
ATOM     46  C   UNL A   1      40.763  30.628  31.672  1.00  0.00     0.074 A 
ATOM     47  C   UNL A   1      39.689  30.816  30.722  1.00  0.00     0.031 C 
ATOM     48  C   UNL A   1      38.697  33.848  36.853  1.00  0.00     0.029 A 
ATOM     49  C   UNL A   1      39.921  33.059  36.726  1.00  0.00     0.049 A 
ATOM     50  H   UNL A   1      40.597  32.034  35.044  1.00  0.00     0.167 HD
ATOM     51  C   UNL A   1      41.893  29.928  31.416  1.00  0.00     0.031 A 
ATOM     52  C   UNL A   1      40.835  32.867  37.698  1.00  0.00     0.031 A 
ATOM     53  C   UNL A   1      42.962  29.752  32.363  1.00  0.00     0.049 A 
ATOM     54  C   UNL A   1      42.064  32.049  37.396  1.00  0.00     0.074 A 
ATOM     55  C   UNL A   1      44.169  29.099  32.183  1.00  0.00     0.029 A 
ATOM     56  N   UNL A   1      42.950  30.221  33.667  1.00  0.00    -0.354 N 
ATOM     57  N   UNL A   1      42.419  31.478  36.268  1.00  0.00    -0.248 NA
ATOM     58  C   UNL A   1      43.022  31.861  38.493  1.00  0.00     0.031 C 
ATOM     59  C   UNL A   1      44.859  29.115  33.399  1.00  0.00     0.029 A 
ATOM     60  C   UNL A   1      44.111  29.836  34.316  1.00  0.00     0.049 A 
ATOM     61  H   UNL A   1      42.224  30.750  34.071  1.00  0.00     0.167 HD
ATOM     62  C   UNL A   1      43.650  30.880  36.517  1.00  0.00     0.074 A 
ATOM     63  C   UNL A   1      43.990  31.183  37.892  1.00  0.00     0.031 C 
ATOM     64  C   UNL A   1      44.428  30.142  35.688  1.00  0.00     0.031 A 
BRANCH  51  65
ATOM     65  C   UNL A   1      42.029  29.263  30.072  1.00  0.00    -0.014 A 
ATOM     66  C   UNL A   1      41.605  27.939  29.861  1.00  0.00     0.010 A 
ATOM     67  C   UNL A   1      42.504  30.013  28.980  1.00  0.00     0.010 A 
ATOM     68  C   UNL A   1      41.661  27.376  28.582  1.00  0.00     0.020 A 
ATOM     69  C   UNL A   1      42.541  29.461  27.698  1.00  0.00     0.020 A 
ATOM     70  C   UNL A   1      42.123  28.143  27.507  1.00  0.00     0.054 A 
BRANCH  70  71
ATOM     71  S   UNL A   1      42.114  27.412  25.846  1.00  0.00     0.124 S 
ATOM     72  O   UNL A   1      43.386  26.694  25.826  1.00  0.00    -0.237 OA
ATOM     73  O   UNL A   1      40.919  26.573  25.873  1.00  0.00    -0.237 OA
ATOM     74  O   UNL A   1      42.039  28.569  24.957  1.00  0.00    -0.744 OA
ENDBRANCH  70  71
ENDBRANCH  51  65
BRANCH  52  75
ATOM     75  C   UNL A   1      40.603  33.414  39.064  1.00  0.00    -0.014 A 
ATOM     76  C   UNL A   1      39.828  32.719  40.008  1.00  0.00     0.010 A 
ATOM     77  C   UNL A   1      41.138  34.669  39.412  1.00  0.00     0.010 A 
ATOM     78  C   UNL A   1      39.560  33.286  41.259  1.00  0.00     0.020 A 
ATOM     79  C   UNL A   1      40.899  35.224  40.672  1.00  0.00     0.020 A 
ATOM     80  C   UNL A   1      40.093  34.536  41.580  1.00  0.00     0.054 A 
BRANCH  80  81
ATOM     81  S   UNL A   1      39.743  35.252  43.211  1.00  0.00     0.124 S 
ATOM     82  O   UNL A   1      38.369  35.713  43.051  1.00  0.00    -0.237 OA
ATOM     83  O   UNL A   1      39.929  34.110  44.104  1.00  0.00    -0.237 OA
ATOM     84  O   UNL A   1      40.747  36.306  43.343  1.00  0.00    -0.744 OA
ENDBRANCH  80  81
ENDBRANCH  52  75
BRANCH  64  85
ATOM     85  C   UNL A   1      45.733  29.633  36.239  1.00  0.00    -0.014 A 
ATOM     86  C   UNL A   1      45.830  28.353  36.814  1.00  0.00     0.010 A 
ATOM     87  C   UNL A   1      46.886  30.434  36.150  1.00  0.00     0.010 A 
ATOM     88  C   UNL A   1      47.046  27.905  37.336  1.00  0.00     0.020 A 
ATOM     89  C   UNL A   1      48.111  29.976  36.643  1.00  0.00     0.020 A 
ATOM     90  C   UNL A   1      48.178  28.722  37.252  1.00  0.00     0.054 A 
BRANCH  90  91
ATOM     91  S   UNL A   1      49.748  28.113  37.924  1.00  0.00     0.124 S 
ATOM     92  O   UNL A   1      49.317  27.456  39.154  1.00  0.00    -0.237 OA
ATOM     93  O   UNL A   1      50.225  27.220  36.870  1.00  0.00    -0.237 OA
ATOM     94  O   UNL A   1      50.540  29.326  38.108  1.00  0.00    -0.744 OA
ENDBRANCH  90  91
ENDBRANCH  64  85
ENDBRANCH  38  39
ENDBRANCH  31  33
ENDBRANCH  30  31
ENDBRANCH  29  30
ENDBRANCH  28  29
ENDBRANCH  27  28
ENDBRANCH  26  27
ENDBRANCH   1  26
TORSDOF 24
ENDMDL
