MODEL 1
REMARK VINA RESULT:     -11.8      0.000      0.000
REMARK SMILES Cc1ccc(C(=O)OCCOCCOC(=O)c2ccc(-c3c4nc(c(-c5ccc(S(=O)(=O)[O-])cc5)c5ccc([nH]5)c(-c5ccc(S(=O)(=O)[O-])cc5)c5nc(c(-c6ccc(S(=O)(=O)[O-])cc6)c6ccc3[nH]6)C=C5)C=C4)cc2)cc1NC(=O)N1C[C@@H](C)[C@H](C)C1
REMARK SMILES IDX 12 1 11 2 10 3 9 4 8 5 6 6 7 7 5 8 1 9 2 10 3 11 78 12 4 13
REMARK SMILES IDX 77 14 79 15 80 16 81 18 82 19 83 20 88 21 84 22 86 23 85 24
REMARK SMILES IDX 87 25 13 26 14 27 15 28 16 29 17 30 18 31 76 32 19 33 75 34
REMARK SMILES IDX 20 35 21 36 22 37 69 38 23 39 74 40 68 41 70 42 24 43 73 44
REMARK SMILES IDX 67 45 66 46 25 48 55 49 36 50 54 51 37 52 40 53 53 54 71 55
REMARK SMILES IDX 38 56 39 57 52 59 72 60 41 61 26 62 27 63 35 64 28 65 34 66
REMARK SMILES IDX 29 67 30 68 31 69 32 70 33 71 56 72 57 73 65 74 58 75 64 76
REMARK SMILES IDX 59 77 60 78 61 79 62 80 63 81 42 82 43 83 51 84 44 85 50 86
REMARK SMILES IDX 45 87 46 88 47 89 48 90 49 91
REMARK H PARENT 79 17 70 47 40 58
REMARK Flexibility Score: inf
ROOT
ATOM      1  C   UNL A   1      33.522  28.136  25.029  1.00  0.00     0.202 C 
ENDROOT
BRANCH   1   2
ATOM      2  O   UNL A   1      33.363  29.060  23.969  1.00  0.00    -0.374 OA
BRANCH   2   3
ATOM      3  C   UNL A   1      33.725  28.531  22.721  1.00  0.00     0.202 C 
BRANCH   3   4
ATOM      4  C   UNL A   1      33.431  27.066  22.674  1.00  0.00     0.261 C 
BRANCH   4   5
ATOM      5  O   UNL A   1      32.393  26.458  21.934  1.00  0.00    -0.460 OA
BRANCH   5   6
ATOM      6  C   UNL A   1      31.130  26.728  22.305  1.00  0.00     0.338 C 
ATOM      7  O   UNL A   1      30.553  27.766  22.078  1.00  0.00    -0.246 OA
BRANCH   6   8
ATOM      8  C   UNL A   1      30.786  25.773  23.389  1.00  0.00     0.062 A 
ATOM      9  C   UNL A   1      30.648  23.322  26.871  1.00  0.00     0.046 C 
ATOM     10  C   UNL A   1      30.755  24.110  25.597  1.00  0.00    -0.027 A 
ATOM     11  C   UNL A   1      30.465  25.489  25.722  1.00  0.00     0.006 A 
ATOM     12  C   UNL A   1      31.067  23.553  24.336  1.00  0.00     0.046 A 
ATOM     13  C   UNL A   1      30.541  26.332  24.630  1.00  0.00     0.016 A 
ATOM     14  C   UNL A   1      30.903  24.375  23.239  1.00  0.00     0.042 A 
BRANCH  12  15
ATOM     15  N   UNL A   1      31.497  22.214  24.244  1.00  0.00    -0.308 N 
ATOM     16  C   UNL A   1      32.584  21.426  24.339  1.00  0.00     0.321 C 
ATOM     17  H   UNL A   1      30.719  21.649  24.033  1.00  0.00     0.171 HD
ATOM     18  O   UNL A   1      32.395  20.284  23.887  1.00  0.00    -0.248 OA
ATOM     19  N   UNL A   1      33.779  21.712  24.891  1.00  0.00    -0.324 N 
ATOM     20  C   UNL A   1      34.878  20.751  24.680  1.00  0.00     0.125 C 
ATOM     21  C   UNL A   1      34.335  22.839  25.629  1.00  0.00     0.125 C 
ATOM     22  C   UNL A   1      36.067  21.350  25.430  1.00  0.00     0.010 C 
ATOM     23  C   UNL A   1      35.770  22.818  25.061  1.00  0.00     0.010 C 
ATOM     24  C   UNL A   1      37.385  20.689  25.088  1.00  0.00     0.010 C 
ATOM     25  C   UNL A   1      36.812  23.817  25.429  1.00  0.00     0.010 C 
ENDBRANCH  12  15
ENDBRANCH   6   8
ENDBRANCH   5   6
ENDBRANCH   4   5
ENDBRANCH   3   4
ENDBRANCH   2   3
ENDBRANCH   1   2
BRANCH   1  26
ATOM     26  C   UNL A   1      33.498  28.781  26.427  1.00  0.00     0.261 C 
BRANCH  26  27
ATOM     27  O   UNL A   1      33.908  30.166  26.357  1.00  0.00    -0.460 OA
BRANCH  27  28
ATOM     28  C   UNL A   1      34.325  30.768  27.514  1.00  0.00     0.338 C 
ATOM     29  O   UNL A   1      33.669  31.609  28.100  1.00  0.00    -0.246 OA
BRANCH  28  30
ATOM     30  C   UNL A   1      35.568  30.139  28.040  1.00  0.00     0.060 A 
ATOM     31  C   UNL A   1      35.684  29.710  29.372  1.00  0.00     0.016 A 
ATOM     32  C   UNL A   1      36.675  30.078  27.202  1.00  0.00     0.016 A 
ATOM     33  C   UNL A   1      36.931  29.331  29.885  1.00  0.00     0.010 A 
ATOM     34  C   UNL A   1      37.916  29.842  27.744  1.00  0.00     0.010 A 
ATOM     35  C   UNL A   1      38.055  29.452  29.084  1.00  0.00    -0.014 A 
BRANCH  35  36
ATOM     36  C   UNL A   1      39.436  29.255  29.526  1.00  0.00     0.031 A 
ATOM     37  C   UNL A   1      39.974  27.900  29.269  1.00  0.00     0.074 A 
ATOM     38  C   UNL A   1      40.147  30.319  29.976  1.00  0.00     0.049 A 
ATOM     39  N   UNL A   1      40.963  27.366  29.889  1.00  0.00    -0.248 NA
ATOM     40  C   UNL A   1      39.318  26.931  28.365  1.00  0.00     0.031 C 
ATOM     41  C   UNL A   1      41.583  30.572  30.082  1.00  0.00     0.029 A 
ATOM     42  N   UNL A   1      39.606  31.491  30.536  1.00  0.00    -0.354 N 
ATOM     43  C   UNL A   1      41.333  26.289  29.107  1.00  0.00     0.074 A 
ATOM     44  C   UNL A   1      40.148  25.893  28.414  1.00  0.00     0.031 C 
ATOM     45  C   UNL A   1      41.782  31.589  30.955  1.00  0.00     0.029 A 
ATOM     46  C   UNL A   1      40.472  31.917  31.547  1.00  0.00     0.049 A 
ATOM     47  H   UNL A   1      38.769  31.932  30.265  1.00  0.00     0.167 HD
ATOM     48  C   UNL A   1      42.657  26.095  28.854  1.00  0.00     0.031 A 
ATOM     49  C   UNL A   1      40.129  31.924  32.876  1.00  0.00     0.031 A 
ATOM     50  C   UNL A   1      43.460  27.039  29.647  1.00  0.00     0.049 A 
ATOM     51  C   UNL A   1      41.135  31.011  33.497  1.00  0.00     0.074 A 
ATOM     52  C   UNL A   1      44.279  28.104  29.319  1.00  0.00     0.029 A 
ATOM     53  N   UNL A   1      43.187  27.171  31.009  1.00  0.00    -0.354 N 
ATOM     54  N   UNL A   1      41.464  29.861  32.964  1.00  0.00    -0.248 NA
ATOM     55  C   UNL A   1      42.034  31.473  34.547  1.00  0.00     0.031 C 
ATOM     56  C   UNL A   1      44.440  28.908  30.490  1.00  0.00     0.029 A 
ATOM     57  C   UNL A   1      43.678  28.356  31.513  1.00  0.00     0.049 A 
ATOM     58  H   UNL A   1      42.702  26.500  31.545  1.00  0.00     0.167 HD
ATOM     59  C   UNL A   1      42.697  29.535  33.450  1.00  0.00     0.074 A 
ATOM     60  C   UNL A   1      42.979  30.523  34.489  1.00  0.00     0.031 C 
ATOM     61  C   UNL A   1      43.565  28.623  32.936  1.00  0.00     0.031 A 
BRANCH  48  62
ATOM     62  C   UNL A   1      43.187  25.296  27.670  1.00  0.00    -0.014 A 
ATOM     63  C   UNL A   1      43.744  24.024  27.898  1.00  0.00     0.010 A 
ATOM     64  C   UNL A   1      43.201  25.727  26.322  1.00  0.00     0.010 A 
ATOM     65  C   UNL A   1      44.290  23.244  26.865  1.00  0.00     0.020 A 
ATOM     66  C   UNL A   1      43.745  24.962  25.277  1.00  0.00     0.020 A 
ATOM     67  C   UNL A   1      44.281  23.716  25.556  1.00  0.00     0.054 A 
BRANCH  67  68
ATOM     68  S   UNL A   1      44.922  22.664  24.229  1.00  0.00     0.124 S 
ATOM     69  O   UNL A   1      46.085  23.417  23.763  1.00  0.00    -0.237 OA
ATOM     70  O   UNL A   1      45.217  21.420  24.933  1.00  0.00    -0.237 OA
ATOM     71  O   UNL A   1      43.817  22.587  23.276  1.00  0.00    -0.744 OA
ENDBRANCH  67  68
ENDBRANCH  48  62
BRANCH  49  72
ATOM     72  C   UNL A   1      38.691  32.113  33.334  1.00  0.00    -0.014 A 
ATOM     73  C   UNL A   1      38.237  33.393  33.735  1.00  0.00     0.010 A 
ATOM     74  C   UNL A   1      37.691  31.175  33.053  1.00  0.00     0.010 A 
ATOM     75  C   UNL A   1      36.899  33.815  33.502  1.00  0.00     0.020 A 
ATOM     76  C   UNL A   1      36.347  31.577  32.847  1.00  0.00     0.020 A 
ATOM     77  C   UNL A   1      36.000  32.924  32.926  1.00  0.00     0.054 A 
BRANCH  77  78
ATOM     78  S   UNL A   1      34.519  33.559  32.035  1.00  0.00     0.124 S 
ATOM     79  O   UNL A   1      34.444  32.696  30.860  1.00  0.00    -0.237 OA
ATOM     80  O   UNL A   1      33.449  33.363  33.015  1.00  0.00    -0.237 OA
ATOM     81  O   UNL A   1      34.861  34.952  31.771  1.00  0.00    -0.744 OA
ENDBRANCH  77  78
ENDBRANCH  49  72
BRANCH  61  82
ATOM     82  C   UNL A   1      44.346  27.765  33.878  1.00  0.00    -0.014 A 
ATOM     83  C   UNL A   1      45.690  28.024  34.190  1.00  0.00     0.010 A 
ATOM     84  C   UNL A   1      43.653  26.812  34.654  1.00  0.00     0.010 A 
ATOM     85  C   UNL A   1      46.339  27.303  35.180  1.00  0.00     0.020 A 
ATOM     86  C   UNL A   1      44.276  26.138  35.694  1.00  0.00     0.020 A 
ATOM     87  C   UNL A   1      45.628  26.361  35.919  1.00  0.00     0.054 A 
BRANCH  87  88
ATOM     88  S   UNL A   1      46.493  25.432  37.191  1.00  0.00     0.124 S 
ATOM     89  O   UNL A   1      46.867  26.497  38.117  1.00  0.00    -0.237 OA
ATOM     90  O   UNL A   1      45.466  24.512  37.673  1.00  0.00    -0.237 OA
ATOM     91  O   UNL A   1      47.598  24.807  36.470  1.00  0.00    -0.744 OA
ENDBRANCH  87  88
ENDBRANCH  61  82
ENDBRANCH  35  36
ENDBRANCH  28  30
ENDBRANCH  27  28
ENDBRANCH  26  27
ENDBRANCH   1  26
TORSDOF 18
ENDMDL
MODEL 2
REMARK VINA RESULT:     -11.5      3.563      9.267
REMARK SMILES Cc1ccc(C(=O)OCCOCCOC(=O)c2ccc(-c3c4nc(c(-c5ccc(S(=O)(=O)[O-])cc5)c5ccc([nH]5)c(-c5ccc(S(=O)(=O)[O-])cc5)c5nc(c(-c6ccc(S(=O)(=O)[O-])cc6)c6ccc3[nH]6)C=C5)C=C4)cc2)cc1NC(=O)N1C[C@@H](C)[C@H](C)C1
REMARK SMILES IDX 12 1 11 2 10 3 9 4 8 5 6 6 7 7 5 8 1 9 2 10 3 11 78 12 4 13
REMARK SMILES IDX 77 14 79 15 80 16 81 18 82 19 83 20 88 21 84 22 86 23 85 24
REMARK SMILES IDX 87 25 13 26 14 27 15 28 16 29 17 30 18 31 76 32 19 33 75 34
REMARK SMILES IDX 20 35 21 36 22 37 69 38 23 39 74 40 68 41 70 42 24 43 73 44
REMARK SMILES IDX 67 45 66 46 25 48 55 49 36 50 54 51 37 52 40 53 53 54 71 55
REMARK SMILES IDX 38 56 39 57 52 59 72 60 41 61 26 62 27 63 35 64 28 65 34 66
REMARK SMILES IDX 29 67 30 68 31 69 32 70 33 71 56 72 57 73 65 74 58 75 64 76
REMARK SMILES IDX 59 77 60 78 61 79 62 80 63 81 42 82 43 83 51 84 44 85 50 86
REMARK SMILES IDX 45 87 46 88 47 89 48 90 49 91
REMARK H PARENT 79 17 70 47 40 58
REMARK Flexibility Score: inf
ROOT
ATOM      1  C   UNL A   1      41.159  24.454  26.772  1.00  0.00     0.202 C 
ENDROOT
BRANCH   1   2
ATOM      2  O   UNL A   1      41.732  23.164  26.871  1.00  0.00    -0.374 OA
BRANCH   2   3
ATOM      3  C   UNL A   1      41.040  22.197  26.126  1.00  0.00     0.202 C 
BRANCH   3   4
ATOM      4  C   UNL A   1      39.611  22.133  26.564  1.00  0.00     0.261 C 
BRANCH   4   5
ATOM      5  O   UNL A   1      38.507  21.843  25.732  1.00  0.00    -0.460 OA
BRANCH   5   6
ATOM      6  C   UNL A   1      37.481  22.710  25.744  1.00  0.00     0.338 C 
ATOM      7  O   UNL A   1      37.574  23.883  26.026  1.00  0.00    -0.246 OA
BRANCH   6   8
ATOM      8  C   UNL A   1      36.236  21.905  25.820  1.00  0.00     0.062 A 
ATOM      9  C   UNL A   1      32.542  19.900  25.122  1.00  0.00     0.046 C 
ATOM     10  C   UNL A   1      33.789  20.694  25.394  1.00  0.00    -0.027 A 
ATOM     11  C   UNL A   1      34.972  20.153  24.839  1.00  0.00     0.006 A 
ATOM     12  C   UNL A   1      33.834  21.868  26.180  1.00  0.00     0.046 A 
ATOM     13  C   UNL A   1      36.186  20.793  25.000  1.00  0.00     0.016 A 
ATOM     14  C   UNL A   1      35.087  22.342  26.512  1.00  0.00     0.042 A 
BRANCH  12  15
ATOM     15  N   UNL A   1      32.636  22.479  26.604  1.00  0.00    -0.308 N 
ATOM     16  C   UNL A   1      31.795  23.493  26.334  1.00  0.00     0.321 C 
ATOM     17  H   UNL A   1      32.289  21.982  27.380  1.00  0.00     0.171 HD
ATOM     18  O   UNL A   1      30.984  23.707  27.251  1.00  0.00    -0.248 OA
ATOM     19  N   UNL A   1      31.707  24.232  25.211  1.00  0.00    -0.324 N 
ATOM     20  C   UNL A   1      30.842  25.427  25.244  1.00  0.00     0.125 C 
ATOM     21  C   UNL A   1      32.348  24.206  23.903  1.00  0.00     0.125 C 
ATOM     22  C   UNL A   1      30.950  26.022  23.840  1.00  0.00     0.010 C 
ATOM     23  C   UNL A   1      32.452  25.725  23.652  1.00  0.00     0.010 C 
ATOM     24  C   UNL A   1      30.392  27.426  23.741  1.00  0.00     0.010 C 
ATOM     25  C   UNL A   1      33.097  26.315  22.445  1.00  0.00     0.010 C 
ENDBRANCH  12  15
ENDBRANCH   6   8
ENDBRANCH   5   6
ENDBRANCH   4   5
ENDBRANCH   3   4
ENDBRANCH   2   3
ENDBRANCH   1   2
BRANCH   1  26
ATOM     26  C   UNL A   1      41.838  25.360  25.728  1.00  0.00     0.261 C 
BRANCH  26  27
ATOM     27  O   UNL A   1      41.087  26.583  25.548  1.00  0.00    -0.460 OA
BRANCH  27  28
ATOM     28  C   UNL A   1      41.777  27.764  25.561  1.00  0.00     0.338 C 
ATOM     29  O   UNL A   1      42.459  28.147  24.628  1.00  0.00    -0.246 OA
BRANCH  28  30
ATOM     30  C   UNL A   1      41.442  28.580  26.761  1.00  0.00     0.060 A 
ATOM     31  C   UNL A   1      42.404  29.352  27.433  1.00  0.00     0.016 A 
ATOM     32  C   UNL A   1      40.158  28.481  27.281  1.00  0.00     0.016 A 
ATOM     33  C   UNL A   1      42.106  29.924  28.677  1.00  0.00     0.010 A 
ATOM     34  C   UNL A   1      39.915  28.924  28.560  1.00  0.00     0.010 A 
ATOM     35  C   UNL A   1      40.878  29.661  29.263  1.00  0.00    -0.014 A 
BRANCH  35  36
ATOM     36  C   UNL A   1      40.488  30.047  30.620  1.00  0.00     0.031 A 
ATOM     37  C   UNL A   1      39.873  31.389  30.721  1.00  0.00     0.074 A 
ATOM     38  C   UNL A   1      40.566  29.132  31.619  1.00  0.00     0.049 A 
ATOM     39  N   UNL A   1      39.816  32.099  31.789  1.00  0.00    -0.248 NA
ATOM     40  C   UNL A   1      39.392  32.147  29.545  1.00  0.00     0.031 C 
ATOM     41  C   UNL A   1      39.899  29.030  32.915  1.00  0.00     0.029 A 
ATOM     42  N   UNL A   1      41.421  28.015  31.644  1.00  0.00    -0.354 N 
ATOM     43  C   UNL A   1      38.874  33.074  31.519  1.00  0.00     0.074 A 
ATOM     44  C   UNL A   1      38.902  33.250  30.101  1.00  0.00     0.031 C 
ATOM     45  C   UNL A   1      40.604  28.180  33.700  1.00  0.00     0.029 A 
ATOM     46  C   UNL A   1      41.835  27.828  32.967  1.00  0.00     0.049 A 
ATOM     47  H   UNL A   1      41.681  27.465  30.871  1.00  0.00     0.167 HD
ATOM     48  C   UNL A   1      37.932  33.346  32.463  1.00  0.00     0.031 A 
ATOM     49  C   UNL A   1      43.134  27.993  33.378  1.00  0.00     0.031 A 
ATOM     50  C   UNL A   1      38.238  32.610  33.700  1.00  0.00     0.049 A 
ATOM     51  C   UNL A   1      43.038  29.077  34.400  1.00  0.00     0.074 A 
ATOM     52  C   UNL A   1      37.606  31.586  34.382  1.00  0.00     0.029 A 
ATOM     53  N   UNL A   1      39.538  32.663  34.206  1.00  0.00    -0.354 N 
ATOM     54  N   UNL A   1      42.321  30.158  34.215  1.00  0.00    -0.248 NA
ATOM     55  C   UNL A   1      43.468  28.863  35.776  1.00  0.00     0.031 C 
ATOM     56  C   UNL A   1      38.565  30.987  35.257  1.00  0.00     0.029 A 
ATOM     57  C   UNL A   1      39.789  31.618  35.069  1.00  0.00     0.049 A 
ATOM     58  H   UNL A   1      40.195  33.361  33.976  1.00  0.00     0.167 HD
ATOM     59  C   UNL A   1      42.037  30.664  35.450  1.00  0.00     0.074 A 
ATOM     60  C   UNL A   1      42.834  29.875  36.386  1.00  0.00     0.031 C 
ATOM     61  C   UNL A   1      41.064  31.561  35.762  1.00  0.00     0.031 A 
BRANCH  48  62
ATOM     62  C   UNL A   1      36.590  33.999  32.159  1.00  0.00    -0.014 A 
ATOM     63  C   UNL A   1      36.087  34.971  33.044  1.00  0.00     0.010 A 
ATOM     64  C   UNL A   1      35.755  33.700  31.057  1.00  0.00     0.010 A 
ATOM     65  C   UNL A   1      34.839  35.589  32.856  1.00  0.00     0.020 A 
ATOM     66  C   UNL A   1      34.504  34.306  30.853  1.00  0.00     0.020 A 
ATOM     67  C   UNL A   1      34.056  35.257  31.755  1.00  0.00     0.054 A 
BRANCH  67  68
ATOM     68  S   UNL A   1      32.486  36.118  31.490  1.00  0.00     0.124 S 
ATOM     69  O   UNL A   1      32.326  36.045  30.039  1.00  0.00    -0.237 OA
ATOM     70  O   UNL A   1      31.553  35.310  32.268  1.00  0.00    -0.237 OA
ATOM     71  O   UNL A   1      32.728  37.460  32.016  1.00  0.00    -0.744 OA
ENDBRANCH  67  68
ENDBRANCH  48  62
BRANCH  49  72
ATOM     72  C   UNL A   1      44.309  27.746  32.444  1.00  0.00    -0.014 A 
ATOM     73  C   UNL A   1      44.688  26.422  32.115  1.00  0.00     0.010 A 
ATOM     74  C   UNL A   1      44.822  28.749  31.612  1.00  0.00     0.010 A 
ATOM     75  C   UNL A   1      45.218  26.096  30.836  1.00  0.00     0.020 A 
ATOM     76  C   UNL A   1      45.381  28.436  30.348  1.00  0.00     0.020 A 
ATOM     77  C   UNL A   1      45.430  27.114  29.912  1.00  0.00     0.054 A 
BRANCH  77  78
ATOM     78  S   UNL A   1      45.487  26.725  28.113  1.00  0.00     0.124 S 
ATOM     79  O   UNL A   1      46.517  25.693  28.030  1.00  0.00    -0.237 OA
ATOM     80  O   UNL A   1      44.125  26.263  27.844  1.00  0.00    -0.237 OA
ATOM     81  O   UNL A   1      45.832  28.007  27.507  1.00  0.00    -0.744 OA
ENDBRANCH  77  78
ENDBRANCH  49  72
BRANCH  61  82
ATOM     82  C   UNL A   1      41.363  32.620  36.774  1.00  0.00    -0.014 A 
ATOM     83  C   UNL A   1      42.308  33.633  36.543  1.00  0.00     0.010 A 
ATOM     84  C   UNL A   1      40.513  32.744  37.893  1.00  0.00     0.010 A 
ATOM     85  C   UNL A   1      42.452  34.683  37.436  1.00  0.00     0.020 A 
ATOM     86  C   UNL A   1      40.602  33.830  38.751  1.00  0.00     0.020 A 
ATOM     87  C   UNL A   1      41.602  34.769  38.536  1.00  0.00     0.054 A 
BRANCH  87  88
ATOM     88  S   UNL A   1      41.815  36.135  39.684  1.00  0.00     0.124 S 
ATOM     89  O   UNL A   1      42.949  35.668  40.477  1.00  0.00    -0.237 OA
ATOM     90  O   UNL A   1      42.093  37.262  38.795  1.00  0.00    -0.237 OA
ATOM     91  O   UNL A   1      40.538  36.198  40.386  1.00  0.00    -0.744 OA
ENDBRANCH  87  88
ENDBRANCH  61  82
ENDBRANCH  35  36
ENDBRANCH  28  30
ENDBRANCH  27  28
ENDBRANCH  26  27
ENDBRANCH   1  26
TORSDOF 18
ENDMDL
MODEL 3
REMARK VINA RESULT:     -11.3      5.007     11.209
REMARK SMILES Cc1ccc(C(=O)OCCOCCOC(=O)c2ccc(-c3c4nc(c(-c5ccc(S(=O)(=O)[O-])cc5)c5ccc([nH]5)c(-c5ccc(S(=O)(=O)[O-])cc5)c5nc(c(-c6ccc(S(=O)(=O)[O-])cc6)c6ccc3[nH]6)C=C5)C=C4)cc2)cc1NC(=O)N1C[C@@H](C)[C@H](C)C1
REMARK SMILES IDX 12 1 11 2 10 3 9 4 8 5 6 6 7 7 5 8 1 9 2 10 3 11 78 12 4 13
REMARK SMILES IDX 77 14 79 15 80 16 81 18 82 19 83 20 88 21 84 22 86 23 85 24
REMARK SMILES IDX 87 25 13 26 14 27 15 28 16 29 17 30 18 31 76 32 19 33 75 34
REMARK SMILES IDX 20 35 21 36 22 37 69 38 23 39 74 40 68 41 70 42 24 43 73 44
REMARK SMILES IDX 67 45 66 46 25 48 55 49 36 50 54 51 37 52 40 53 53 54 71 55
REMARK SMILES IDX 38 56 39 57 52 59 72 60 41 61 26 62 27 63 35 64 28 65 34 66
REMARK SMILES IDX 29 67 30 68 31 69 32 70 33 71 56 72 57 73 65 74 58 75 64 76
REMARK SMILES IDX 59 77 60 78 61 79 62 80 63 81 42 82 43 83 51 84 44 85 50 86
REMARK SMILES IDX 45 87 46 88 47 89 48 90 49 91
REMARK H PARENT 79 17 70 47 40 58
REMARK Flexibility Score: inf
ROOT
ATOM      1  C   UNL A   1      45.800  18.307  25.627  1.00  0.00     0.202 C 
ENDROOT
BRANCH   1   2
ATOM      2  O   UNL A   1      44.445  18.145  25.255  1.00  0.00    -0.374 OA
BRANCH   2   3
ATOM      3  C   UNL A   1      43.561  18.253  26.339  1.00  0.00     0.202 C 
BRANCH   3   4
ATOM      4  C   UNL A   1      42.307  18.950  25.916  1.00  0.00     0.261 C 
BRANCH   4   5
ATOM      5  O   UNL A   1      41.432  19.660  26.767  1.00  0.00    -0.460 OA
BRANCH   5   6
ATOM      6  C   UNL A   1      40.217  19.970  26.282  1.00  0.00     0.338 C 
ATOM      7  O   UNL A   1      39.573  19.266  25.539  1.00  0.00    -0.246 OA
BRANCH   6   8
ATOM      8  C   UNL A   1      40.055  21.438  26.431  1.00  0.00     0.062 A 
ATOM      9  C   UNL A   1      39.273  25.415  27.746  1.00  0.00     0.046 C 
ATOM     10  C   UNL A   1      39.447  24.005  27.255  1.00  0.00    -0.027 A 
ATOM     11  C   UNL A   1      40.611  23.350  27.720  1.00  0.00     0.006 A 
ATOM     12  C   UNL A   1      38.568  23.357  26.357  1.00  0.00     0.046 A 
ATOM     13  C   UNL A   1      40.883  22.046  27.357  1.00  0.00     0.016 A 
ATOM     14  C   UNL A   1      38.993  22.152  25.837  1.00  0.00     0.042 A 
BRANCH  12  15
ATOM     15  N   UNL A   1      37.339  23.959  26.016  1.00  0.00    -0.308 N 
ATOM     16  C   UNL A   1      36.102  23.690  25.562  1.00  0.00     0.321 C 
ATOM     17  H   UNL A   1      37.414  24.929  26.164  1.00  0.00     0.171 HD
ATOM     18  O   UNL A   1      35.488  24.707  25.198  1.00  0.00    -0.248 OA
ATOM     19  N   UNL A   1      35.469  22.502  25.510  1.00  0.00    -0.324 N 
ATOM     20  C   UNL A   1      34.194  22.437  24.770  1.00  0.00     0.125 C 
ATOM     21  C   UNL A   1      35.772  21.148  25.955  1.00  0.00     0.125 C 
ATOM     22  C   UNL A   1      33.738  20.985  24.910  1.00  0.00     0.010 C 
ATOM     23  C   UNL A   1      35.143  20.360  24.787  1.00  0.00     0.010 C 
ATOM     24  C   UNL A   1      32.612  20.618  23.967  1.00  0.00     0.010 C 
ATOM     25  C   UNL A   1      35.199  18.876  24.675  1.00  0.00     0.010 C 
ENDBRANCH  12  15
ENDBRANCH   6   8
ENDBRANCH   5   6
ENDBRANCH   4   5
ENDBRANCH   3   4
ENDBRANCH   2   3
ENDBRANCH   1   2
BRANCH   1  26
ATOM     26  C   UNL A   1      46.500  19.489  24.932  1.00  0.00     0.261 C 
BRANCH  26  27
ATOM     27  O   UNL A   1      46.029  20.748  25.466  1.00  0.00    -0.460 OA
BRANCH  27  28
ATOM     28  C   UNL A   1      45.153  21.476  24.707  1.00  0.00     0.338 C 
ATOM     29  O   UNL A   1      44.512  20.999  23.789  1.00  0.00    -0.246 OA
BRANCH  28  30
ATOM     30  C   UNL A   1      44.960  22.846  25.259  1.00  0.00     0.060 A 
ATOM     31  C   UNL A   1      45.150  24.000  24.480  1.00  0.00     0.016 A 
ATOM     32  C   UNL A   1      44.687  22.972  26.615  1.00  0.00     0.016 A 
ATOM     33  C   UNL A   1      45.176  25.262  25.086  1.00  0.00     0.010 A 
ATOM     34  C   UNL A   1      44.853  24.193  27.224  1.00  0.00     0.010 A 
ATOM     35  C   UNL A   1      45.084  25.351  26.466  1.00  0.00    -0.014 A 
BRANCH  35  36
ATOM     36  C   UNL A   1      45.260  26.574  27.251  1.00  0.00     0.031 A 
ATOM     37  C   UNL A   1      44.030  27.380  27.412  1.00  0.00     0.074 A 
ATOM     38  C   UNL A   1      46.442  26.794  27.878  1.00  0.00     0.049 A 
ATOM     39  N   UNL A   1      43.997  28.633  27.692  1.00  0.00    -0.248 NA
ATOM     40  C   UNL A   1      42.680  26.862  27.102  1.00  0.00     0.031 C 
ATOM     41  C   UNL A   1      46.810  27.627  29.022  1.00  0.00     0.029 A 
ATOM     42  N   UNL A   1      47.687  26.263  27.496  1.00  0.00    -0.354 N 
ATOM     43  C   UNL A   1      42.696  28.874  28.090  1.00  0.00     0.074 A 
ATOM     44  C   UNL A   1      41.902  27.893  27.420  1.00  0.00     0.031 C 
ATOM     45  C   UNL A   1      48.151  27.822  29.005  1.00  0.00     0.029 A 
ATOM     46  C   UNL A   1      48.660  27.234  27.751  1.00  0.00     0.049 A 
ATOM     47  H   UNL A   1      47.846  25.368  27.117  1.00  0.00     0.167 HD
ATOM     48  C   UNL A   1      42.487  29.621  29.209  1.00  0.00     0.031 A 
ATOM     49  C   UNL A   1      49.375  27.859  26.760  1.00  0.00     0.031 A 
ATOM     50  C   UNL A   1      43.765  30.172  29.687  1.00  0.00     0.049 A 
ATOM     51  C   UNL A   1      49.029  29.301  26.940  1.00  0.00     0.074 A 
ATOM     52  C   UNL A   1      44.526  29.968  30.823  1.00  0.00     0.029 A 
ATOM     53  N   UNL A   1      44.607  30.802  28.769  1.00  0.00    -0.354 N 
ATOM     54  N   UNL A   1      47.802  29.709  27.149  1.00  0.00    -0.248 NA
ATOM     55  C   UNL A   1      50.055  30.300  27.212  1.00  0.00     0.031 C 
ATOM     56  C   UNL A   1      45.852  30.428  30.549  1.00  0.00     0.029 A 
ATOM     57  C   UNL A   1      45.905  30.865  29.231  1.00  0.00     0.049 A 
ATOM     58  H   UNL A   1      44.312  31.158  27.898  1.00  0.00     0.167 HD
ATOM     59  C   UNL A   1      47.885  30.929  27.755  1.00  0.00     0.074 A 
ATOM     60  C   UNL A   1      49.299  31.292  27.703  1.00  0.00     0.031 C 
ATOM     61  C   UNL A   1      46.904  31.567  28.447  1.00  0.00     0.031 A 
BRANCH  48  62
ATOM     62  C   UNL A   1      41.207  29.575  30.033  1.00  0.00    -0.014 A 
ATOM     63  C   UNL A   1      40.388  30.719  30.086  1.00  0.00     0.010 A 
ATOM     64  C   UNL A   1      40.754  28.475  30.797  1.00  0.00     0.010 A 
ATOM     65  C   UNL A   1      39.214  30.770  30.857  1.00  0.00     0.020 A 
ATOM     66  C   UNL A   1      39.585  28.508  31.575  1.00  0.00     0.020 A 
ATOM     67  C   UNL A   1      38.814  29.658  31.593  1.00  0.00     0.054 A 
BRANCH  67  68
ATOM     68  S   UNL A   1      37.259  29.719  32.519  1.00  0.00     0.124 S 
ATOM     69  O   UNL A   1      37.326  28.504  33.327  1.00  0.00    -0.237 OA
ATOM     70  O   UNL A   1      37.385  30.973  33.254  1.00  0.00    -0.237 OA
ATOM     71  O   UNL A   1      36.231  29.713  31.480  1.00  0.00    -0.744 OA
ENDBRANCH  67  68
ENDBRANCH  48  62
BRANCH  49  72
ATOM     72  C   UNL A   1      49.685  27.173  25.438  1.00  0.00    -0.014 A 
ATOM     73  C   UNL A   1      48.632  26.683  24.629  1.00  0.00     0.010 A 
ATOM     74  C   UNL A   1      50.926  27.308  24.803  1.00  0.00     0.010 A 
ATOM     75  C   UNL A   1      48.717  26.692  23.210  1.00  0.00     0.020 A 
ATOM     76  C   UNL A   1      51.031  27.288  23.390  1.00  0.00     0.020 A 
ATOM     77  C   UNL A   1      49.889  27.132  22.605  1.00  0.00     0.054 A 
BRANCH  77  78
ATOM     78  S   UNL A   1      49.852  27.763  20.876  1.00  0.00     0.124 S 
ATOM     79  O   UNL A   1      48.655  27.136  20.321  1.00  0.00    -0.237 OA
ATOM     80  O   UNL A   1      49.759  29.211  21.067  1.00  0.00    -0.237 OA
ATOM     81  O   UNL A   1      51.119  27.296  20.324  1.00  0.00    -0.744 OA
ENDBRANCH  77  78
ENDBRANCH  49  72
BRANCH  61  82
ATOM     82  C   UNL A   1      46.765  33.048  28.292  1.00  0.00    -0.014 A 
ATOM     83  C   UNL A   1      47.201  33.949  29.276  1.00  0.00     0.010 A 
ATOM     84  C   UNL A   1      46.404  33.563  27.029  1.00  0.00     0.010 A 
ATOM     85  C   UNL A   1      47.197  35.315  29.038  1.00  0.00     0.020 A 
ATOM     86  C   UNL A   1      46.467  34.923  26.760  1.00  0.00     0.020 A 
ATOM     87  C   UNL A   1      46.823  35.790  27.783  1.00  0.00     0.054 A 
BRANCH  87  88
ATOM     88  S   UNL A   1      46.818  37.564  27.502  1.00  0.00     0.124 S 
ATOM     89  O   UNL A   1      46.681  38.070  28.865  1.00  0.00    -0.237 OA
ATOM     90  O   UNL A   1      48.117  37.795  26.874  1.00  0.00    -0.237 OA
ATOM     91  O   UNL A   1      45.663  37.773  26.634  1.00  0.00    -0.744 OA
ENDBRANCH  87  88
ENDBRANCH  61  82
ENDBRANCH  35  36
ENDBRANCH  28  30
ENDBRANCH  27  28
ENDBRANCH  26  27
ENDBRANCH   1  26
TORSDOF 18
ENDMDL
