MODEL 1
REMARK VINA RESULT:     -10.1      0.000      0.000
REMARK SMILES COc1ccc(S(=O)(=O)N2CCC[C@H](C(=O)N3CCC[C@H](C(=O)OCCOCCOC(=O)c4ccc(-c5c6nc(c(-c7ccc(S(=O)(=O)[O-])cc7)c7ccc([nH]7)c(-c7ccc(S(=O)(=O)[O-])cc7)c7nc(c(-c8ccc(S(=O)(=O)[O-])cc8)c8ccc5[nH]8)C=C7)C=C6)cc4)C3)C2)cc1
REMARK SMILES IDX 26 1 25 2 24 3 22 4 23 5 21 6 17 7 18 8 93 9 19 10 20 11
REMARK SMILES IDX 15 12 16 13 14 14 10 15 11 16 94 17 12 18 13 19 7 20 8 21
REMARK SMILES IDX 9 22 6 23 3 24 4 25 96 26 5 27 95 28 2 29 1 30 27 31 28 32
REMARK SMILES IDX 29 33 30 34 31 35 32 36 33 37 34 38 92 39 35 40 91 41 36 42
REMARK SMILES IDX 37 43 38 44 85 45 39 46 90 47 84 48 86 49 40 50 89 51 83 52
REMARK SMILES IDX 82 53 41 55 71 56 52 57 70 58 53 59 56 60 69 61 87 62 54 63
REMARK SMILES IDX 55 64 68 66 88 67 57 68 42 69 43 70 51 71 44 72 50 73 45 74
REMARK SMILES IDX 46 75 47 76 48 77 49 78 72 79 73 80 81 81 74 82 80 83 75 84
REMARK SMILES IDX 76 85 77 86 78 87 79 88 58 89 59 90 67 91 60 92 66 93 61 94
REMARK SMILES IDX 62 95 63 96 64 97 65 98
REMARK H PARENT 86 54 56 65
REMARK Flexibility Score: inf
ROOT
ATOM      1  C   UNL A   1      33.129  28.588  27.391  1.00  0.00     0.202 C 
ENDROOT
BRANCH   1   2
ATOM      2  C   UNL A   1      31.819  28.024  26.838  1.00  0.00     0.261 C 
BRANCH   2   3
ATOM      3  O   UNL A   1      32.005  27.537  25.499  1.00  0.00    -0.463 OA
BRANCH   3   4
ATOM      4  C   UNL A   1      31.027  26.758  24.985  1.00  0.00     0.310 C 
ATOM      5  O   UNL A   1      30.283  26.032  25.638  1.00  0.00    -0.252 OA
BRANCH   4   6
ATOM      6  C   UNL A   1      30.950  26.828  23.469  1.00  0.00     0.119 C 
ATOM      7  N   UNL A   1      32.205  24.784  22.945  1.00  0.00    -0.342 N 
ATOM      8  C   UNL A   1      33.203  25.488  22.148  1.00  0.00     0.119 C 
ATOM      9  C   UNL A   1      30.887  25.399  22.938  1.00  0.00     0.134 C 
ATOM     10  C   UNL A   1      33.374  26.926  22.616  1.00  0.00     0.022 C 
ATOM     11  C   UNL A   1      32.028  27.646  22.746  1.00  0.00     0.019 C 
BRANCH   7  12
ATOM     12  C   UNL A   1      32.640  23.876  23.892  1.00  0.00     0.227 C 
ATOM     13  O   UNL A   1      32.249  22.705  23.867  1.00  0.00    -0.275 OA
BRANCH  12  14
ATOM     14  C   UNL A   1      33.476  24.353  25.086  1.00  0.00     0.094 C 
ATOM     15  N   UNL A   1      35.332  22.705  25.153  1.00  0.00    -0.197 NA
ATOM     16  C   UNL A   1      34.836  22.078  26.386  1.00  0.00     0.102 C 
ATOM     17  C   UNL A   1      34.953  24.093  24.830  1.00  0.00     0.116 C 
ATOM     18  C   UNL A   1      33.905  22.950  27.218  1.00  0.00     0.018 C 
ATOM     19  C   UNL A   1      33.033  23.976  26.492  1.00  0.00     0.016 C 
BRANCH  15  20
ATOM     20  S   UNL A   1      36.772  22.094  24.494  1.00  0.00     0.243 S 
ATOM     21  O   UNL A   1      37.103  22.849  23.308  1.00  0.00    -0.207 OA
ATOM     22  O   UNL A   1      36.633  20.651  24.456  1.00  0.00    -0.207 OA
BRANCH  20  23
ATOM     23  C   UNL A   1      38.042  22.432  25.698  1.00  0.00     0.082 A 
ATOM     24  C   UNL A   1      40.141  23.155  27.393  1.00  0.00     0.118 A 
ATOM     25  C   UNL A   1      39.122  24.067  27.112  1.00  0.00     0.048 A 
ATOM     26  C   UNL A   1      40.073  21.861  26.881  1.00  0.00     0.048 A 
ATOM     27  C   UNL A   1      38.076  23.714  26.256  1.00  0.00     0.025 A 
ATOM     28  C   UNL A   1      39.027  21.500  26.029  1.00  0.00     0.025 A 
BRANCH  24  29
ATOM     29  O   UNL A   1      41.154  23.613  28.191  1.00  0.00    -0.497 OA
ATOM     30  C   UNL A   1      42.127  22.629  28.531  1.00  0.00     0.278 C 
ENDBRANCH  24  29
ENDBRANCH  20  23
ENDBRANCH  15  20
ENDBRANCH  12  14
ENDBRANCH   7  12
ENDBRANCH   4   6
ENDBRANCH   3   4
ENDBRANCH   2   3
ENDBRANCH   1   2
BRANCH   1  31
ATOM     31  O   UNL A   1      33.458  29.916  26.979  1.00  0.00    -0.374 OA
BRANCH  31  32
ATOM     32  C   UNL A   1      34.252  30.707  27.861  1.00  0.00     0.202 C 
BRANCH  32  33
ATOM     33  C   UNL A   1      35.771  30.659  27.652  1.00  0.00     0.261 C 
BRANCH  33  34
ATOM     34  O   UNL A   1      36.357  29.408  28.056  1.00  0.00    -0.460 OA
BRANCH  34  35
ATOM     35  C   UNL A   1      37.258  29.512  29.065  1.00  0.00     0.338 C 
ATOM     36  O   UNL A   1      37.022  29.777  30.233  1.00  0.00    -0.246 OA
BRANCH  35  37
ATOM     37  C   UNL A   1      38.605  29.108  28.616  1.00  0.00     0.060 A 
ATOM     38  C   UNL A   1      39.493  28.643  29.595  1.00  0.00     0.016 A 
ATOM     39  C   UNL A   1      39.036  29.295  27.301  1.00  0.00     0.016 A 
ATOM     40  C   UNL A   1      40.832  28.422  29.278  1.00  0.00     0.010 A 
ATOM     41  C   UNL A   1      40.385  29.081  26.987  1.00  0.00     0.010 A 
ATOM     42  C   UNL A   1      41.296  28.685  27.983  1.00  0.00    -0.014 A 
BRANCH  42  43
ATOM     43  C   UNL A   1      42.758  28.699  27.728  1.00  0.00     0.031 A 
ATOM     44  C   UNL A   1      43.415  27.462  27.177  1.00  0.00     0.074 A 
ATOM     45  C   UNL A   1      43.484  29.813  27.934  1.00  0.00     0.049 A 
ATOM     46  N   UNL A   1      44.671  27.255  26.871  1.00  0.00    -0.248 NA
ATOM     47  C   UNL A   1      42.539  26.303  26.932  1.00  0.00     0.031 C 
ATOM     48  C   UNL A   1      42.960  31.088  28.420  1.00  0.00     0.029 A 
ATOM     49  N   UNL A   1      44.825  30.046  27.754  1.00  0.00    -0.354 N 
ATOM     50  C   UNL A   1      44.738  25.947  26.406  1.00  0.00     0.074 A 
ATOM     51  C   UNL A   1      43.402  25.399  26.490  1.00  0.00     0.031 C 
ATOM     52  C   UNL A   1      43.970  31.971  28.502  1.00  0.00     0.029 A 
ATOM     53  C   UNL A   1      45.215  31.316  28.103  1.00  0.00     0.049 A 
ATOM     54  H   UNL A   1      45.449  29.367  27.406  1.00  0.00     0.167 HD
ATOM     55  C   UNL A   1      45.813  25.264  25.945  1.00  0.00     0.031 A 
ATOM     56  C   UNL A   1      46.439  31.881  28.118  1.00  0.00     0.031 A 
ATOM     57  C   UNL A   1      47.145  25.802  25.872  1.00  0.00     0.049 A 
ATOM     58  C   UNL A   1      47.631  31.077  27.672  1.00  0.00     0.074 A 
ATOM     59  C   UNL A   1      48.296  25.191  25.406  1.00  0.00     0.029 A 
ATOM     60  N   UNL A   1      47.506  27.076  26.282  1.00  0.00    -0.354 N 
ATOM     61  N   UNL A   1      47.674  29.847  27.214  1.00  0.00    -0.248 NA
ATOM     62  C   UNL A   1      48.943  31.738  27.744  1.00  0.00     0.031 C 
ATOM     63  C   UNL A   1      49.363  26.079  25.581  1.00  0.00     0.029 A 
ATOM     64  C   UNL A   1      48.867  27.260  26.110  1.00  0.00     0.049 A 
ATOM     65  H   UNL A   1      46.886  27.749  26.645  1.00  0.00     0.167 HD
ATOM     66  C   UNL A   1      49.012  29.596  26.928  1.00  0.00     0.074 A 
ATOM     67  C   UNL A   1      49.744  30.803  27.249  1.00  0.00     0.031 C 
ATOM     68  C   UNL A   1      49.583  28.465  26.442  1.00  0.00     0.031 A 
BRANCH  55  69
ATOM     69  C   UNL A   1      45.592  23.839  25.514  1.00  0.00    -0.014 A 
ATOM     70  C   UNL A   1      45.429  23.506  24.158  1.00  0.00     0.010 A 
ATOM     71  C   UNL A   1      45.572  22.816  26.479  1.00  0.00     0.010 A 
ATOM     72  C   UNL A   1      45.211  22.178  23.778  1.00  0.00     0.020 A 
ATOM     73  C   UNL A   1      45.377  21.484  26.102  1.00  0.00     0.020 A 
ATOM     74  C   UNL A   1      45.180  21.177  24.754  1.00  0.00     0.054 A 
BRANCH  74  75
ATOM     75  S   UNL A   1      44.906  19.460  24.235  1.00  0.00     0.124 S 
ATOM     76  O   UNL A   1      43.959  18.988  25.243  1.00  0.00    -0.237 OA
ATOM     77  O   UNL A   1      44.364  19.613  22.887  1.00  0.00    -0.237 OA
ATOM     78  O   UNL A   1      46.237  18.861  24.303  1.00  0.00    -0.744 OA
ENDBRANCH  74  75
ENDBRANCH  55  69
BRANCH  56  79
ATOM     79  C   UNL A   1      46.603  33.280  28.595  1.00  0.00    -0.014 A 
ATOM     80  C   UNL A   1      46.938  34.310  27.701  1.00  0.00     0.010 A 
ATOM     81  C   UNL A   1      46.418  33.587  29.957  1.00  0.00     0.010 A 
ATOM     82  C   UNL A   1      47.096  35.622  28.160  1.00  0.00     0.020 A 
ATOM     83  C   UNL A   1      46.551  34.902  30.414  1.00  0.00     0.020 A 
ATOM     84  C   UNL A   1      46.898  35.910  29.515  1.00  0.00     0.054 A 
BRANCH  84  85
ATOM     85  S   UNL A   1      47.045  37.628  30.079  1.00  0.00     0.124 S 
ATOM     86  O   UNL A   1      48.391  37.649  30.644  1.00  0.00    -0.237 OA
ATOM     87  O   UNL A   1      46.866  38.387  28.843  1.00  0.00    -0.237 OA
ATOM     88  O   UNL A   1      45.956  37.765  31.045  1.00  0.00    -0.744 OA
ENDBRANCH  84  85
ENDBRANCH  56  79
BRANCH  68  89
ATOM     89  C   UNL A   1      51.070  28.483  26.211  1.00  0.00    -0.014 A 
ATOM     90  C   UNL A   1      51.958  27.960  27.167  1.00  0.00     0.010 A 
ATOM     91  C   UNL A   1      51.582  28.978  24.997  1.00  0.00     0.010 A 
ATOM     92  C   UNL A   1      53.334  27.956  26.925  1.00  0.00     0.020 A 
ATOM     93  C   UNL A   1      52.955  28.954  24.742  1.00  0.00     0.020 A 
ATOM     94  C   UNL A   1      53.825  28.456  25.714  1.00  0.00     0.054 A 
BRANCH  94  95
ATOM     95  S   UNL A   1      55.612  28.400  25.402  1.00  0.00     0.124 S 
ATOM     96  O   UNL A   1      55.754  27.138  24.682  1.00  0.00    -0.237 OA
ATOM     97  O   UNL A   1      55.840  29.605  24.609  1.00  0.00    -0.237 OA
ATOM     98  O   UNL A   1      56.197  28.423  26.740  1.00  0.00    -0.744 OA
ENDBRANCH  94  95
ENDBRANCH  68  89
ENDBRANCH  42  43
ENDBRANCH  35  37
ENDBRANCH  34  35
ENDBRANCH  33  34
ENDBRANCH  32  33
ENDBRANCH  31  32
ENDBRANCH   1  31
TORSDOF 22
ENDMDL
MODEL 2
REMARK VINA RESULT:     -10.0      1.243      2.016
REMARK SMILES COc1ccc(S(=O)(=O)N2CCC[C@H](C(=O)N3CCC[C@H](C(=O)OCCOCCOC(=O)c4ccc(-c5c6nc(c(-c7ccc(S(=O)(=O)[O-])cc7)c7ccc([nH]7)c(-c7ccc(S(=O)(=O)[O-])cc7)c7nc(c(-c8ccc(S(=O)(=O)[O-])cc8)c8ccc5[nH]8)C=C7)C=C6)cc4)C3)C2)cc1
REMARK SMILES IDX 26 1 25 2 24 3 22 4 23 5 21 6 17 7 18 8 93 9 19 10 20 11
REMARK SMILES IDX 15 12 16 13 14 14 10 15 11 16 94 17 12 18 13 19 7 20 8 21
REMARK SMILES IDX 9 22 6 23 3 24 4 25 96 26 5 27 95 28 2 29 1 30 27 31 28 32
REMARK SMILES IDX 29 33 30 34 31 35 32 36 33 37 34 38 92 39 35 40 91 41 36 42
REMARK SMILES IDX 37 43 38 44 85 45 39 46 90 47 84 48 86 49 40 50 89 51 83 52
REMARK SMILES IDX 82 53 41 55 71 56 52 57 70 58 53 59 56 60 69 61 87 62 54 63
REMARK SMILES IDX 55 64 68 66 88 67 57 68 42 69 43 70 51 71 44 72 50 73 45 74
REMARK SMILES IDX 46 75 47 76 48 77 49 78 72 79 73 80 81 81 74 82 80 83 75 84
REMARK SMILES IDX 76 85 77 86 78 87 79 88 58 89 59 90 67 91 60 92 66 93 61 94
REMARK SMILES IDX 62 95 63 96 64 97 65 98
REMARK H PARENT 86 54 56 65
REMARK Flexibility Score: inf
ROOT
ATOM      1  C   UNL A   1      35.175  30.245  27.283  1.00  0.00     0.202 C 
ENDROOT
BRANCH   1   2
ATOM      2  C   UNL A   1      33.718  29.905  27.599  1.00  0.00     0.261 C 
BRANCH   2   3
ATOM      3  O   UNL A   1      33.431  28.540  27.251  1.00  0.00    -0.463 OA
BRANCH   3   4
ATOM      4  C   UNL A   1      32.156  28.246  26.909  1.00  0.00     0.310 C 
ATOM      5  O   UNL A   1      31.322  27.743  27.655  1.00  0.00    -0.252 OA
BRANCH   4   6
ATOM      6  C   UNL A   1      31.845  28.563  25.456  1.00  0.00     0.119 C 
ATOM      7  N   UNL A   1      31.924  26.280  24.559  1.00  0.00    -0.342 N 
ATOM      8  C   UNL A   1      32.968  26.594  23.591  1.00  0.00     0.119 C 
ATOM      9  C   UNL A   1      31.048  27.394  24.884  1.00  0.00     0.134 C 
ATOM     10  C   UNL A   1      33.852  27.734  24.079  1.00  0.00     0.022 C 
ATOM     11  C   UNL A   1      33.024  28.934  24.548  1.00  0.00     0.019 C 
BRANCH   7  12
ATOM     12  C   UNL A   1      32.066  25.144  25.335  1.00  0.00     0.227 C 
ATOM     13  O   UNL A   1      32.931  25.089  26.215  1.00  0.00    -0.275 OA
BRANCH  12  14
ATOM     14  C   UNL A   1      31.269  23.879  24.997  1.00  0.00     0.094 C 
ATOM     15  N   UNL A   1      33.033  22.136  24.863  1.00  0.00    -0.197 NA
ATOM     16  C   UNL A   1      32.905  22.007  23.405  1.00  0.00     0.102 C 
ATOM     17  C   UNL A   1      31.908  22.665  25.656  1.00  0.00     0.116 C 
ATOM     18  C   UNL A   1      31.581  22.496  22.833  1.00  0.00     0.018 C 
ATOM     19  C   UNL A   1      30.856  23.633  23.555  1.00  0.00     0.016 C 
BRANCH  15  20
ATOM     20  S   UNL A   1      34.154  21.124  25.638  1.00  0.00     0.243 S 
ATOM     21  O   UNL A   1      34.393  19.967  24.807  1.00  0.00    -0.207 OA
ATOM     22  O   UNL A   1      33.714  20.989  27.013  1.00  0.00    -0.207 OA
BRANCH  20  23
ATOM     23  C   UNL A   1      35.680  22.044  25.701  1.00  0.00     0.082 A 
ATOM     24  C   UNL A   1      38.129  23.341  26.047  1.00  0.00     0.118 A 
ATOM     25  C   UNL A   1      38.094  21.980  25.739  1.00  0.00     0.048 A 
ATOM     26  C   UNL A   1      36.941  24.066  26.113  1.00  0.00     0.048 A 
ATOM     27  C   UNL A   1      36.871  21.324  25.576  1.00  0.00     0.025 A 
ATOM     28  C   UNL A   1      35.716  23.418  25.946  1.00  0.00     0.025 A 
BRANCH  24  29
ATOM     29  O   UNL A   1      39.370  23.879  26.249  1.00  0.00    -0.497 OA
ATOM     30  C   UNL A   1      40.182  23.159  27.174  1.00  0.00     0.278 C 
ENDBRANCH  24  29
ENDBRANCH  20  23
ENDBRANCH  15  20
ENDBRANCH  12  14
ENDBRANCH   7  12
ENDBRANCH   4   6
ENDBRANCH   3   4
ENDBRANCH   2   3
ENDBRANCH   1   2
BRANCH   1  31
ATOM     31  O   UNL A   1      35.653  31.484  27.809  1.00  0.00    -0.374 OA
BRANCH  31  32
ATOM     32  C   UNL A   1      35.164  31.896  29.083  1.00  0.00     0.202 C 
BRANCH  32  33
ATOM     33  C   UNL A   1      36.016  31.526  30.304  1.00  0.00     0.261 C 
BRANCH  33  34
ATOM     34  O   UNL A   1      37.327  31.045  29.951  1.00  0.00    -0.460 OA
BRANCH  34  35
ATOM     35  C   UNL A   1      37.486  29.704  30.091  1.00  0.00     0.338 C 
ATOM     36  O   UNL A   1      36.661  28.909  30.510  1.00  0.00    -0.246 OA
BRANCH  35  37
ATOM     37  C   UNL A   1      38.771  29.261  29.517  1.00  0.00     0.060 A 
ATOM     38  C   UNL A   1      39.746  28.798  30.411  1.00  0.00     0.016 A 
ATOM     39  C   UNL A   1      39.069  29.410  28.161  1.00  0.00     0.016 A 
ATOM     40  C   UNL A   1      41.040  28.541  29.965  1.00  0.00     0.010 A 
ATOM     41  C   UNL A   1      40.374  29.159  27.716  1.00  0.00     0.010 A 
ATOM     42  C   UNL A   1      41.375  28.765  28.623  1.00  0.00    -0.014 A 
BRANCH  42  43
ATOM     43  C   UNL A   1      42.803  28.741  28.220  1.00  0.00     0.031 A 
ATOM     44  C   UNL A   1      43.364  27.494  27.592  1.00  0.00     0.074 A 
ATOM     45  C   UNL A   1      43.579  29.832  28.362  1.00  0.00     0.049 A 
ATOM     46  N   UNL A   1      44.575  27.256  27.158  1.00  0.00    -0.248 NA
ATOM     47  C   UNL A   1      42.434  26.363  27.426  1.00  0.00     0.031 C 
ATOM     48  C   UNL A   1      43.144  31.114  28.913  1.00  0.00     0.029 A 
ATOM     49  N   UNL A   1      44.900  30.029  28.049  1.00  0.00    -0.354 N 
ATOM     50  C   UNL A   1      44.557  25.952  26.675  1.00  0.00     0.074 A 
ATOM     51  C   UNL A   1      43.220  25.442  26.889  1.00  0.00     0.031 C 
ATOM     52  C   UNL A   1      44.183  31.967  28.901  1.00  0.00     0.029 A 
ATOM     53  C   UNL A   1      45.361  31.283  28.370  1.00  0.00     0.049 A 
ATOM     54  H   UNL A   1      45.465  29.337  27.633  1.00  0.00     0.167 HD
ATOM     55  C   UNL A   1      45.558  25.245  26.099  1.00  0.00     0.031 A 
ATOM     56  C   UNL A   1      46.596  31.813  28.265  1.00  0.00     0.031 A 
ATOM     57  C   UNL A   1      46.890  25.747  25.896  1.00  0.00     0.049 A 
ATOM     58  C   UNL A   1      47.713  30.981  27.691  1.00  0.00     0.074 A 
ATOM     59  C   UNL A   1      47.970  25.110  25.309  1.00  0.00     0.029 A 
ATOM     60  N   UNL A   1      47.329  27.004  26.281  1.00  0.00    -0.354 N 
ATOM     61  N   UNL A   1      47.673  29.757  27.219  1.00  0.00    -0.248 NA
ATOM     62  C   UNL A   1      49.043  31.604  27.636  1.00  0.00     0.031 C 
ATOM     63  C   UNL A   1      49.075  25.965  25.383  1.00  0.00     0.029 A 
ATOM     64  C   UNL A   1      48.671  27.153  25.972  1.00  0.00     0.049 A 
ATOM     65  H   UNL A   1      46.769  27.690  26.712  1.00  0.00     0.167 HD
ATOM     66  C   UNL A   1      48.967  29.472  26.796  1.00  0.00     0.074 A 
ATOM     67  C   UNL A   1      49.763  30.654  27.052  1.00  0.00     0.031 C 
ATOM     68  C   UNL A   1      49.452  28.332  26.242  1.00  0.00     0.031 A 
BRANCH  55  69
ATOM     69  C   UNL A   1      45.252  23.833  25.679  1.00  0.00    -0.014 A 
ATOM     70  C   UNL A   1      44.638  23.558  24.444  1.00  0.00     0.010 A 
ATOM     71  C   UNL A   1      45.609  22.764  26.521  1.00  0.00     0.010 A 
ATOM     72  C   UNL A   1      44.350  22.241  24.077  1.00  0.00     0.020 A 
ATOM     73  C   UNL A   1      45.343  21.444  26.147  1.00  0.00     0.020 A 
ATOM     74  C   UNL A   1      44.698  21.192  24.934  1.00  0.00     0.054 A 
BRANCH  74  75
ATOM     75  S   UNL A   1      44.323  19.490  24.430  1.00  0.00     0.124 S 
ATOM     76  O   UNL A   1      42.961  19.321  24.931  1.00  0.00    -0.237 OA
ATOM     77  O   UNL A   1      44.454  19.548  22.976  1.00  0.00    -0.237 OA
ATOM     78  O   UNL A   1      45.341  18.695  25.112  1.00  0.00    -0.744 OA
ENDBRANCH  74  75
ENDBRANCH  55  69
BRANCH  56  79
ATOM     79  C   UNL A   1      46.849  33.200  28.738  1.00  0.00    -0.014 A 
ATOM     80  C   UNL A   1      47.426  33.437  29.997  1.00  0.00     0.010 A 
ATOM     81  C   UNL A   1      46.512  34.296  27.922  1.00  0.00     0.010 A 
ATOM     82  C   UNL A   1      47.654  34.746  30.436  1.00  0.00     0.020 A 
ATOM     83  C   UNL A   1      46.761  35.604  28.347  1.00  0.00     0.020 A 
ATOM     84  C   UNL A   1      47.322  35.822  29.606  1.00  0.00     0.054 A 
BRANCH  84  85
ATOM     85  S   UNL A   1      47.685  37.509  30.167  1.00  0.00     0.124 S 
ATOM     86  O   UNL A   1      47.762  38.239  28.905  1.00  0.00    -0.237 OA
ATOM     87  O   UNL A   1      46.532  37.821  31.008  1.00  0.00    -0.237 OA
ATOM     88  O   UNL A   1      48.949  37.365  30.887  1.00  0.00    -0.744 OA
ENDBRANCH  84  85
ENDBRANCH  56  79
BRANCH  68  89
ATOM     89  C   UNL A   1      50.907  28.312  25.860  1.00  0.00    -0.014 A 
ATOM     90  C   UNL A   1      51.324  28.702  24.576  1.00  0.00     0.010 A 
ATOM     91  C   UNL A   1      51.875  27.951  26.816  1.00  0.00     0.010 A 
ATOM     92  C   UNL A   1      52.682  28.707  24.244  1.00  0.00     0.020 A 
ATOM     93  C   UNL A   1      53.235  27.977  26.495  1.00  0.00     0.020 A 
ATOM     94  C   UNL A   1      53.629  28.342  25.207  1.00  0.00     0.054 A 
BRANCH  94  95
ATOM     95  S   UNL A   1      55.389  28.398  24.769  1.00  0.00     0.124 S 
ATOM     96  O   UNL A   1      55.362  29.112  23.495  1.00  0.00    -0.237 OA
ATOM     97  O   UNL A   1      55.977  29.131  25.887  1.00  0.00    -0.237 OA
ATOM     98  O   UNL A   1      55.770  26.990  24.686  1.00  0.00    -0.744 OA
ENDBRANCH  94  95
ENDBRANCH  68  89
ENDBRANCH  42  43
ENDBRANCH  35  37
ENDBRANCH  34  35
ENDBRANCH  33  34
ENDBRANCH  32  33
ENDBRANCH  31  32
ENDBRANCH   1  31
TORSDOF 22
ENDMDL
MODEL 3
REMARK VINA RESULT:     -10.0      2.264      3.607
REMARK SMILES COc1ccc(S(=O)(=O)N2CCC[C@H](C(=O)N3CCC[C@H](C(=O)OCCOCCOC(=O)c4ccc(-c5c6nc(c(-c7ccc(S(=O)(=O)[O-])cc7)c7ccc([nH]7)c(-c7ccc(S(=O)(=O)[O-])cc7)c7nc(c(-c8ccc(S(=O)(=O)[O-])cc8)c8ccc5[nH]8)C=C7)C=C6)cc4)C3)C2)cc1
REMARK SMILES IDX 26 1 25 2 24 3 22 4 23 5 21 6 17 7 18 8 93 9 19 10 20 11
REMARK SMILES IDX 15 12 16 13 14 14 10 15 11 16 94 17 12 18 13 19 7 20 8 21
REMARK SMILES IDX 9 22 6 23 3 24 4 25 96 26 5 27 95 28 2 29 1 30 27 31 28 32
REMARK SMILES IDX 29 33 30 34 31 35 32 36 33 37 34 38 92 39 35 40 91 41 36 42
REMARK SMILES IDX 37 43 38 44 85 45 39 46 90 47 84 48 86 49 40 50 89 51 83 52
REMARK SMILES IDX 82 53 41 55 71 56 52 57 70 58 53 59 56 60 69 61 87 62 54 63
REMARK SMILES IDX 55 64 68 66 88 67 57 68 42 69 43 70 51 71 44 72 50 73 45 74
REMARK SMILES IDX 46 75 47 76 48 77 49 78 72 79 73 80 81 81 74 82 80 83 75 84
REMARK SMILES IDX 76 85 77 86 78 87 79 88 58 89 59 90 67 91 60 92 66 93 61 94
REMARK SMILES IDX 62 95 63 96 64 97 65 98
REMARK H PARENT 86 54 56 65
REMARK Flexibility Score: inf
ROOT
ATOM      1  C   UNL A   1      35.223  30.893  27.496  1.00  0.00     0.202 C 
ENDROOT
BRANCH   1   2
ATOM      2  C   UNL A   1      33.754  30.499  27.659  1.00  0.00     0.261 C 
BRANCH   2   3
ATOM      3  O   UNL A   1      33.509  29.213  27.066  1.00  0.00    -0.463 OA
BRANCH   3   4
ATOM      4  C   UNL A   1      32.223  28.893  26.797  1.00  0.00     0.310 C 
ATOM      5  O   UNL A   1      31.410  28.481  27.618  1.00  0.00    -0.252 OA
BRANCH   4   6
ATOM      6  C   UNL A   1      31.868  29.053  25.328  1.00  0.00     0.119 C 
ATOM      7  N   UNL A   1      31.965  26.690  24.670  1.00  0.00    -0.342 N 
ATOM      8  C   UNL A   1      32.978  26.918  23.646  1.00  0.00     0.119 C 
ATOM      9  C   UNL A   1      31.078  27.819  24.901  1.00  0.00     0.134 C 
ATOM     10  C   UNL A   1      33.853  28.116  23.988  1.00  0.00     0.022 C 
ATOM     11  C   UNL A   1      33.016  29.346  24.353  1.00  0.00     0.019 C 
BRANCH   7  12
ATOM     12  C   UNL A   1      32.148  25.644  25.555  1.00  0.00     0.227 C 
ATOM     13  O   UNL A   1      32.948  25.745  26.490  1.00  0.00    -0.275 OA
BRANCH  12  14
ATOM     14  C   UNL A   1      31.491  24.285  25.283  1.00  0.00     0.094 C 
ATOM     15  N   UNL A   1      33.418  22.861  24.633  1.00  0.00    -0.197 NA
ATOM     16  C   UNL A   1      32.993  22.789  23.229  1.00  0.00     0.102 C 
ATOM     17  C   UNL A   1      32.431  23.159  25.687  1.00  0.00     0.116 C 
ATOM     18  C   UNL A   1      31.518  23.086  22.990  1.00  0.00     0.018 C 
ATOM     19  C   UNL A   1      30.811  24.051  23.944  1.00  0.00     0.016 C 
BRANCH  15  20
ATOM     20  S   UNL A   1      34.818  22.005  25.066  1.00  0.00     0.243 S 
ATOM     21  O   UNL A   1      35.191  22.367  26.415  1.00  0.00    -0.207 OA
ATOM     22  O   UNL A   1      35.749  22.142  23.963  1.00  0.00    -0.207 OA
BRANCH  20  23
ATOM     23  C   UNL A   1      34.349  20.286  25.100  1.00  0.00     0.082 A 
ATOM     24  C   UNL A   1      33.635  17.596  24.860  1.00  0.00     0.118 A 
ATOM     25  C   UNL A   1      34.936  18.005  24.559  1.00  0.00     0.048 A 
ATOM     26  C   UNL A   1      32.713  18.521  25.346  1.00  0.00     0.048 A 
ATOM     27  C   UNL A   1      35.294  19.351  24.667  1.00  0.00     0.025 A 
ATOM     28  C   UNL A   1      33.067  19.866  25.461  1.00  0.00     0.025 A 
BRANCH  24  29
ATOM     29  O   UNL A   1      33.363  16.270  24.664  1.00  0.00    -0.497 OA
ATOM     30  C   UNL A   1      34.471  15.401  24.888  1.00  0.00     0.278 C 
ENDBRANCH  24  29
ENDBRANCH  20  23
ENDBRANCH  15  20
ENDBRANCH  12  14
ENDBRANCH   7  12
ENDBRANCH   4   6
ENDBRANCH   3   4
ENDBRANCH   2   3
ENDBRANCH   1   2
BRANCH   1  31
ATOM     31  O   UNL A   1      35.643  32.046  28.228  1.00  0.00    -0.374 OA
BRANCH  31  32
ATOM     32  C   UNL A   1      34.832  32.467  29.323  1.00  0.00     0.202 C 
BRANCH  32  33
ATOM     33  C   UNL A   1      35.523  32.590  30.687  1.00  0.00     0.261 C 
BRANCH  33  34
ATOM     34  O   UNL A   1      36.173  31.374  31.101  1.00  0.00    -0.460 OA
BRANCH  34  35
ATOM     35  C   UNL A   1      37.364  31.562  31.725  1.00  0.00     0.338 C 
ATOM     36  O   UNL A   1      37.555  32.154  32.774  1.00  0.00    -0.246 OA
BRANCH  35  37
ATOM     37  C   UNL A   1      38.441  30.813  31.047  1.00  0.00     0.060 A 
ATOM     38  C   UNL A   1      39.463  30.293  31.852  1.00  0.00     0.016 A 
ATOM     39  C   UNL A   1      38.524  30.728  29.656  1.00  0.00     0.016 A 
ATOM     40  C   UNL A   1      40.601  29.740  31.269  1.00  0.00     0.010 A 
ATOM     41  C   UNL A   1      39.673  30.180  29.071  1.00  0.00     0.010 A 
ATOM     42  C   UNL A   1      40.734  29.724  29.875  1.00  0.00    -0.014 A 
BRANCH  42  43
ATOM     43  C   UNL A   1      42.048  29.379  29.278  1.00  0.00     0.031 A 
ATOM     44  C   UNL A   1      42.264  27.989  28.741  1.00  0.00     0.074 A 
ATOM     45  C   UNL A   1      43.020  30.303  29.167  1.00  0.00     0.049 A 
ATOM     46  N   UNL A   1      43.325  27.475  28.172  1.00  0.00    -0.248 NA
ATOM     47  C   UNL A   1      41.132  27.054  28.856  1.00  0.00     0.031 C 
ATOM     48  C   UNL A   1      42.920  31.693  29.606  1.00  0.00     0.029 A 
ATOM     49  N   UNL A   1      44.286  30.203  28.645  1.00  0.00    -0.354 N 
ATOM     50  C   UNL A   1      42.993  26.160  27.867  1.00  0.00     0.074 A 
ATOM     51  C   UNL A   1      41.640  25.947  28.334  1.00  0.00     0.031 C 
ATOM     52  C   UNL A   1      44.079  32.319  29.337  1.00  0.00     0.029 A 
ATOM     53  C   UNL A   1      45.011  31.367  28.734  1.00  0.00     0.049 A 
ATOM     54  H   UNL A   1      44.641  29.376  28.244  1.00  0.00     0.167 HD
ATOM     55  C   UNL A   1      43.742  25.216  27.249  1.00  0.00     0.031 A 
ATOM     56  C   UNL A   1      46.287  31.629  28.387  1.00  0.00     0.031 A 
ATOM     57  C   UNL A   1      45.091  25.422  26.795  1.00  0.00     0.049 A 
ATOM     58  C   UNL A   1      47.126  30.541  27.770  1.00  0.00     0.074 A 
ATOM     59  C   UNL A   1      45.926  24.530  26.145  1.00  0.00     0.029 A 
ATOM     60  N   UNL A   1      45.806  26.599  26.949  1.00  0.00    -0.354 N 
ATOM     61  N   UNL A   1      46.789  29.309  27.469  1.00  0.00    -0.248 NA
ATOM     62  C   UNL A   1      48.519  30.880  27.446  1.00  0.00     0.031 C 
ATOM     63  C   UNL A   1      47.164  25.153  25.951  1.00  0.00     0.029 A 
ATOM     64  C   UNL A   1      47.082  26.448  26.435  1.00  0.00     0.049 A 
ATOM     65  H   UNL A   1      45.457  27.421  27.364  1.00  0.00     0.167 HD
ATOM     66  C   UNL A   1      47.923  28.733  26.904  1.00  0.00     0.074 A 
ATOM     67  C   UNL A   1      48.950  29.754  26.891  1.00  0.00     0.031 C 
ATOM     68  C   UNL A   1      48.097  27.471  26.438  1.00  0.00     0.031 A 
BRANCH  55  69
ATOM     69  C   UNL A   1      43.122  23.858  27.060  1.00  0.00    -0.014 A 
ATOM     70  C   UNL A   1      42.645  23.444  25.805  1.00  0.00     0.010 A 
ATOM     71  C   UNL A   1      43.040  22.974  28.151  1.00  0.00     0.010 A 
ATOM     72  C   UNL A   1      42.060  22.183  25.652  1.00  0.00     0.020 A 
ATOM     73  C   UNL A   1      42.476  21.704  27.998  1.00  0.00     0.020 A 
ATOM     74  C   UNL A   1      41.973  21.324  26.751  1.00  0.00     0.054 A 
BRANCH  74  75
ATOM     75  S   UNL A   1      41.219  19.689  26.525  1.00  0.00     0.124 S 
ATOM     76  O   UNL A   1      42.236  18.995  25.738  1.00  0.00    -0.237 OA
ATOM     77  O   UNL A   1      41.057  19.216  27.897  1.00  0.00    -0.237 OA
ATOM     78  O   UNL A   1      39.974  19.977  25.817  1.00  0.00    -0.744 OA
ENDBRANCH  74  75
ENDBRANCH  55  69
BRANCH  56  79
ATOM     79  C   UNL A   1      46.859  32.979  28.638  1.00  0.00    -0.014 A 
ATOM     80  C   UNL A   1      47.542  33.260  29.833  1.00  0.00     0.010 A 
ATOM     81  C   UNL A   1      46.724  33.993  27.671  1.00  0.00     0.010 A 
ATOM     82  C   UNL A   1      48.072  34.534  30.062  1.00  0.00     0.020 A 
ATOM     83  C   UNL A   1      47.274  35.260  27.887  1.00  0.00     0.020 A 
ATOM     84  C   UNL A   1      47.936  35.526  29.086  1.00  0.00     0.054 A 
BRANCH  84  85
ATOM     85  S   UNL A   1      48.686  37.153  29.376  1.00  0.00     0.124 S 
ATOM     86  O   UNL A   1      48.261  37.444  30.742  1.00  0.00    -0.237 OA
ATOM     87  O   UNL A   1      50.111  36.884  29.201  1.00  0.00    -0.237 OA
ATOM     88  O   UNL A   1      48.089  37.993  28.340  1.00  0.00    -0.744 OA
ENDBRANCH  84  85
ENDBRANCH  56  79
BRANCH  68  89
ATOM     89  C   UNL A   1      49.441  27.126  25.857  1.00  0.00    -0.014 A 
ATOM     90  C   UNL A   1      50.447  26.549  26.653  1.00  0.00     0.010 A 
ATOM     91  C   UNL A   1      49.683  27.329  24.486  1.00  0.00     0.010 A 
ATOM     92  C   UNL A   1      51.680  26.205  26.093  1.00  0.00     0.020 A 
ATOM     93  C   UNL A   1      50.907  26.966  23.918  1.00  0.00     0.020 A 
ATOM     94  C   UNL A   1      51.904  26.418  24.728  1.00  0.00     0.054 A 
BRANCH  94  95
ATOM     95  S   UNL A   1      53.496  25.924  24.013  1.00  0.00     0.124 S 
ATOM     96  O   UNL A   1      53.208  25.954  22.582  1.00  0.00    -0.237 OA
ATOM     97  O   UNL A   1      54.403  26.963  24.493  1.00  0.00    -0.237 OA
ATOM     98  O   UNL A   1      53.729  24.595  24.574  1.00  0.00    -0.744 OA
ENDBRANCH  94  95
ENDBRANCH  68  89
ENDBRANCH  42  43
ENDBRANCH  35  37
ENDBRANCH  34  35
ENDBRANCH  33  34
ENDBRANCH  32  33
ENDBRANCH  31  32
ENDBRANCH   1  31
TORSDOF 22
ENDMDL
