MODEL 1
REMARK VINA RESULT:     -11.2      0.000      0.000
REMARK SMILES CS(=O)(=O)c1ccc(/C=C(/C(=O)OCCOCCOC(=O)c2ccc(-c3c4nc(c(-c5ccc(S(=O)(=O)[O-])cc5)c5ccc([nH]5)c(-c5ccc(S(=O)(=O)[O-])cc5)c5nc(c(-c6ccc(S(=O)(=O)[O-])cc6)c6ccc3[nH]6)C=C5)C=C4)cc2)c2ccccc2)cc1
REMARK SMILES IDX 17 1 16 2 15 3 14 4 13 5 11 6 12 7 10 8 9 9 8 10 5 11 6 12
REMARK SMILES IDX 89 13 7 14 88 15 2 16 1 17 3 18 4 19 82 20 83 21 87 22 84 23
REMARK SMILES IDX 86 24 85 25 18 26 19 27 20 28 21 29 22 30 23 31 81 32 24 33
REMARK SMILES IDX 80 34 25 35 26 36 27 37 74 38 28 39 79 40 73 41 75 42 29 43
REMARK SMILES IDX 78 44 72 45 71 46 30 48 60 49 41 50 59 51 42 52 45 53 58 54
REMARK SMILES IDX 76 55 43 56 44 57 57 59 77 60 46 61 31 62 32 63 40 64 33 65
REMARK SMILES IDX 39 66 34 67 35 68 36 69 37 70 38 71 61 72 62 73 70 74 63 75
REMARK SMILES IDX 69 76 64 77 65 78 66 79 67 80 68 81 47 82 48 83 56 84 49 85
REMARK SMILES IDX 55 86 50 87 51 88 52 89 53 90 54 91
REMARK H PARENT 75 47 45 58
REMARK Flexibility Score: inf
ROOT
ATOM      1  C   UNL A   1      34.164  29.757  26.658  1.00  0.00     0.202 C 
ENDROOT
BRANCH   1   2
ATOM      2  O   UNL A   1      33.978  28.752  25.666  1.00  0.00    -0.374 OA
BRANCH   2   3
ATOM      3  C   UNL A   1      33.114  29.055  24.570  1.00  0.00     0.202 C 
BRANCH   3   4
ATOM      4  C   UNL A   1      32.839  27.935  23.561  1.00  0.00     0.261 C 
BRANCH   4   5
ATOM      5  O   UNL A   1      33.552  26.732  23.900  1.00  0.00    -0.460 OA
BRANCH   5   6
ATOM      6  C   UNL A   1      33.548  25.779  22.932  1.00  0.00     0.338 C 
ATOM      7  O   UNL A   1      33.621  25.988  21.727  1.00  0.00    -0.246 OA
BRANCH   6   8
ATOM      8  C   UNL A   1      33.568  24.392  23.503  1.00  0.00     0.067 C 
ATOM      9  C   UNL A   1      32.456  23.620  23.474  1.00  0.00     0.024 C 
BRANCH   9  10
ATOM     10  C   UNL A   1      32.355  22.158  23.720  1.00  0.00    -0.025 A 
ATOM     11  C   UNL A   1      32.704  19.380  23.940  1.00  0.00     0.067 A 
ATOM     12  C   UNL A   1      32.731  20.174  25.085  1.00  0.00     0.021 A 
ATOM     13  C   UNL A   1      32.395  19.940  22.702  1.00  0.00     0.021 A 
ATOM     14  C   UNL A   1      32.511  21.549  24.974  1.00  0.00     0.009 A 
ATOM     15  C   UNL A   1      32.214  21.324  22.598  1.00  0.00     0.009 A 
BRANCH  11  16
ATOM     16  S   UNL A   1      33.227  17.684  24.038  1.00  0.00     0.175 S 
ATOM     17  C   UNL A   1      32.580  17.128  25.587  1.00  0.00     0.163 C 
ATOM     18  O   UNL A   1      34.675  17.675  24.131  1.00  0.00    -0.224 OA
ATOM     19  O   UNL A   1      32.552  16.957  22.980  1.00  0.00    -0.224 OA
ENDBRANCH  11  16
ENDBRANCH   9  10
BRANCH   8  20
ATOM     20  C   UNL A   1      34.878  23.928  24.001  1.00  0.00    -0.011 A 
ATOM     21  C   UNL A   1      35.252  24.213  25.324  1.00  0.00     0.009 A 
ATOM     22  C   UNL A   1      35.742  23.186  23.190  1.00  0.00     0.009 A 
ATOM     23  C   UNL A   1      36.461  23.744  25.836  1.00  0.00     0.001 A 
ATOM     24  C   UNL A   1      36.948  22.711  23.707  1.00  0.00     0.001 A 
ATOM     25  C   UNL A   1      37.305  22.988  25.028  1.00  0.00     0.000 A 
ENDBRANCH   8  20
ENDBRANCH   6   8
ENDBRANCH   5   6
ENDBRANCH   4   5
ENDBRANCH   3   4
ENDBRANCH   2   3
ENDBRANCH   1   2
BRANCH   1  26
ATOM     26  C   UNL A   1      34.788  29.345  27.996  1.00  0.00     0.261 C 
BRANCH  26  27
ATOM     27  O   UNL A   1      35.784  30.265  28.461  1.00  0.00    -0.460 OA
BRANCH  27  28
ATOM     28  C   UNL A   1      36.443  29.854  29.571  1.00  0.00     0.338 C 
ATOM     29  O   UNL A   1      35.948  29.491  30.632  1.00  0.00    -0.246 OA
BRANCH  28  30
ATOM     30  C   UNL A   1      37.880  29.723  29.280  1.00  0.00     0.060 A 
ATOM     31  C   UNL A   1      38.262  29.642  27.935  1.00  0.00     0.016 A 
ATOM     32  C   UNL A   1      38.831  29.630  30.298  1.00  0.00     0.016 A 
ATOM     33  C   UNL A   1      39.594  29.420  27.602  1.00  0.00     0.010 A 
ATOM     34  C   UNL A   1      40.168  29.398  29.962  1.00  0.00     0.010 A 
ATOM     35  C   UNL A   1      40.549  29.259  28.615  1.00  0.00    -0.014 A 
BRANCH  35  36
ATOM     36  C   UNL A   1      41.916  28.810  28.263  1.00  0.00     0.031 A 
ATOM     37  C   UNL A   1      43.027  29.823  28.216  1.00  0.00     0.074 A 
ATOM     38  C   UNL A   1      42.169  27.512  28.017  1.00  0.00     0.049 A 
ATOM     39  N   UNL A   1      44.289  29.653  27.921  1.00  0.00    -0.248 NA
ATOM     40  C   UNL A   1      42.666  31.212  28.546  1.00  0.00     0.031 C 
ATOM     41  C   UNL A   1      41.182  26.434  28.073  1.00  0.00     0.029 A 
ATOM     42  N   UNL A   1      43.337  26.882  27.672  1.00  0.00    -0.354 N 
ATOM     43  C   UNL A   1      44.872  30.912  28.020  1.00  0.00     0.074 A 
ATOM     44  C   UNL A   1      43.820  31.840  28.374  1.00  0.00     0.031 C 
ATOM     45  C   UNL A   1      41.787  25.274  27.764  1.00  0.00     0.029 A 
ATOM     46  C   UNL A   1      43.192  25.533  27.460  1.00  0.00     0.049 A 
ATOM     47  H   UNL A   1      44.198  27.353  27.584  1.00  0.00     0.167 HD
ATOM     48  C   UNL A   1      46.167  31.261  27.836  1.00  0.00     0.031 A 
ATOM     49  C   UNL A   1      44.089  24.614  27.048  1.00  0.00     0.031 A 
ATOM     50  C   UNL A   1      47.207  30.335  27.472  1.00  0.00     0.049 A 
ATOM     51  C   UNL A   1      45.510  25.037  26.786  1.00  0.00     0.074 A 
ATOM     52  C   UNL A   1      48.554  30.586  27.281  1.00  0.00     0.029 A 
ATOM     53  N   UNL A   1      47.015  28.982  27.233  1.00  0.00    -0.354 N 
ATOM     54  N   UNL A   1      46.052  26.226  26.912  1.00  0.00    -0.248 NA
ATOM     55  C   UNL A   1      46.441  23.994  26.336  1.00  0.00     0.031 C 
ATOM     56  C   UNL A   1      49.166  29.397  26.869  1.00  0.00     0.029 A 
ATOM     57  C   UNL A   1      48.212  28.391  26.867  1.00  0.00     0.049 A 
ATOM     58  H   UNL A   1      46.153  28.512  27.311  1.00  0.00     0.167 HD
ATOM     59  C   UNL A   1      47.395  26.066  26.582  1.00  0.00     0.074 A 
ATOM     60  C   UNL A   1      47.583  24.666  26.265  1.00  0.00     0.031 C 
ATOM     61  C   UNL A   1      48.382  26.995  26.549  1.00  0.00     0.031 A 
BRANCH  48  62
ATOM     62  C   UNL A   1      46.524  32.716  27.990  1.00  0.00    -0.014 A 
ATOM     63  C   UNL A   1      46.460  33.604  26.901  1.00  0.00     0.010 A 
ATOM     64  C   UNL A   1      46.896  33.209  29.254  1.00  0.00     0.010 A 
ATOM     65  C   UNL A   1      46.801  34.950  27.066  1.00  0.00     0.020 A 
ATOM     66  C   UNL A   1      47.210  34.560  29.429  1.00  0.00     0.020 A 
ATOM     67  C   UNL A   1      47.178  35.418  28.328  1.00  0.00     0.054 A 
BRANCH  67  68
ATOM     68  S   UNL A   1      47.597  37.173  28.517  1.00  0.00     0.124 S 
ATOM     69  O   UNL A   1      46.671  37.590  29.569  1.00  0.00    -0.237 OA
ATOM     70  O   UNL A   1      49.005  37.126  28.903  1.00  0.00    -0.237 OA
ATOM     71  O   UNL A   1      47.333  37.738  27.197  1.00  0.00    -0.744 OA
ENDBRANCH  67  68
ENDBRANCH  48  62
BRANCH  49  72
ATOM     72  C   UNL A   1      43.660  23.204  26.842  1.00  0.00    -0.014 A 
ATOM     73  C   UNL A   1      43.054  22.475  27.880  1.00  0.00     0.010 A 
ATOM     74  C   UNL A   1      43.851  22.584  25.593  1.00  0.00     0.010 A 
ATOM     75  C   UNL A   1      42.658  21.149  27.676  1.00  0.00     0.020 A 
ATOM     76  C   UNL A   1      43.431  21.269  25.377  1.00  0.00     0.020 A 
ATOM     77  C   UNL A   1      42.846  20.557  26.425  1.00  0.00     0.054 A 
BRANCH  77  78
ATOM     78  S   UNL A   1      42.271  18.855  26.166  1.00  0.00     0.124 S 
ATOM     79  O   UNL A   1      42.467  18.264  27.486  1.00  0.00    -0.237 OA
ATOM     80  O   UNL A   1      40.882  19.051  25.758  1.00  0.00    -0.237 OA
ATOM     81  O   UNL A   1      43.155  18.352  25.117  1.00  0.00    -0.744 OA
ENDBRANCH  77  78
ENDBRANCH  49  72
BRANCH  61  82
ATOM     82  C   UNL A   1      49.768  26.525  26.188  1.00  0.00    -0.014 A 
ATOM     83  C   UNL A   1      50.292  26.716  24.898  1.00  0.00     0.010 A 
ATOM     84  C   UNL A   1      50.578  25.937  27.176  1.00  0.00     0.010 A 
ATOM     85  C   UNL A   1      51.590  26.296  24.593  1.00  0.00     0.020 A 
ATOM     86  C   UNL A   1      51.886  25.543  26.884  1.00  0.00     0.020 A 
ATOM     87  C   UNL A   1      52.378  25.712  25.589  1.00  0.00     0.054 A 
BRANCH  87  88
ATOM     88  S   UNL A   1      54.075  25.217  25.180  1.00  0.00     0.124 S 
ATOM     89  O   UNL A   1      54.811  25.649  26.364  1.00  0.00    -0.237 OA
ATOM     90  O   UNL A   1      53.954  23.771  25.008  1.00  0.00    -0.237 OA
ATOM     91  O   UNL A   1      54.368  25.961  23.957  1.00  0.00    -0.744 OA
ENDBRANCH  87  88
ENDBRANCH  61  82
ENDBRANCH  35  36
ENDBRANCH  28  30
ENDBRANCH  27  28
ENDBRANCH  26  27
ENDBRANCH   1  26
TORSDOF 20
ENDMDL
MODEL 2
REMARK VINA RESULT:     -11.0      3.276      8.722
REMARK SMILES CS(=O)(=O)c1ccc(/C=C(/C(=O)OCCOCCOC(=O)c2ccc(-c3c4nc(c(-c5ccc(S(=O)(=O)[O-])cc5)c5ccc([nH]5)c(-c5ccc(S(=O)(=O)[O-])cc5)c5nc(c(-c6ccc(S(=O)(=O)[O-])cc6)c6ccc3[nH]6)C=C5)C=C4)cc2)c2ccccc2)cc1
REMARK SMILES IDX 17 1 16 2 15 3 14 4 13 5 11 6 12 7 10 8 9 9 8 10 5 11 6 12
REMARK SMILES IDX 89 13 7 14 88 15 2 16 1 17 3 18 4 19 82 20 83 21 87 22 84 23
REMARK SMILES IDX 86 24 85 25 18 26 19 27 20 28 21 29 22 30 23 31 81 32 24 33
REMARK SMILES IDX 80 34 25 35 26 36 27 37 74 38 28 39 79 40 73 41 75 42 29 43
REMARK SMILES IDX 78 44 72 45 71 46 30 48 60 49 41 50 59 51 42 52 45 53 58 54
REMARK SMILES IDX 76 55 43 56 44 57 57 59 77 60 46 61 31 62 32 63 40 64 33 65
REMARK SMILES IDX 39 66 34 67 35 68 36 69 37 70 38 71 61 72 62 73 70 74 63 75
REMARK SMILES IDX 69 76 64 77 65 78 66 79 67 80 68 81 47 82 48 83 56 84 49 85
REMARK SMILES IDX 55 86 50 87 51 88 52 89 53 90 54 91
REMARK H PARENT 75 47 45 58
REMARK Flexibility Score: inf
ROOT
ATOM      1  C   UNL A   1      31.836  30.169  26.127  1.00  0.00     0.202 C 
ENDROOT
BRANCH   1   2
ATOM      2  O   UNL A   1      32.360  29.874  24.836  1.00  0.00    -0.374 OA
BRANCH   2   3
ATOM      3  C   UNL A   1      32.214  28.538  24.352  1.00  0.00     0.202 C 
BRANCH   3   4
ATOM      4  C   UNL A   1      33.109  28.111  23.184  1.00  0.00     0.261 C 
BRANCH   4   5
ATOM      5  O   UNL A   1      33.802  26.883  23.472  1.00  0.00    -0.460 OA
BRANCH   5   6
ATOM      6  C   UNL A   1      33.608  25.895  22.560  1.00  0.00     0.338 C 
ATOM      7  O   UNL A   1      33.592  26.043  21.344  1.00  0.00    -0.246 OA
BRANCH   6   8
ATOM      8  C   UNL A   1      33.532  24.541  23.201  1.00  0.00     0.067 C 
ATOM      9  C   UNL A   1      32.397  23.806  23.123  1.00  0.00     0.024 C 
BRANCH   9  10
ATOM     10  C   UNL A   1      32.223  22.364  23.434  1.00  0.00    -0.025 A 
ATOM     11  C   UNL A   1      32.438  19.586  23.790  1.00  0.00     0.067 A 
ATOM     12  C   UNL A   1      32.477  20.431  24.897  1.00  0.00     0.021 A 
ATOM     13  C   UNL A   1      32.181  20.101  22.520  1.00  0.00     0.021 A 
ATOM     14  C   UNL A   1      32.324  21.808  24.717  1.00  0.00     0.009 A 
ATOM     15  C   UNL A   1      32.067  21.485  22.348  1.00  0.00     0.009 A 
BRANCH  11  16
ATOM     16  S   UNL A   1      32.878  17.875  23.977  1.00  0.00     0.175 S 
ATOM     17  C   UNL A   1      34.566  17.925  24.505  1.00  0.00     0.163 C 
ATOM     18  O   UNL A   1      32.842  17.264  22.661  1.00  0.00    -0.224 OA
ATOM     19  O   UNL A   1      32.082  17.334  25.062  1.00  0.00    -0.224 OA
ENDBRANCH  11  16
ENDBRANCH   9  10
BRANCH   8  20
ATOM     20  C   UNL A   1      34.782  24.061  23.822  1.00  0.00    -0.011 A 
ATOM     21  C   UNL A   1      35.061  24.397  25.157  1.00  0.00     0.009 A 
ATOM     22  C   UNL A   1      35.680  23.253  23.118  1.00  0.00     0.009 A 
ATOM     23  C   UNL A   1      36.209  23.916  25.784  1.00  0.00     0.001 A 
ATOM     24  C   UNL A   1      36.824  22.766  23.751  1.00  0.00     0.001 A 
ATOM     25  C   UNL A   1      37.086  23.095  25.082  1.00  0.00     0.000 A 
ENDBRANCH   8  20
ENDBRANCH   6   8
ENDBRANCH   5   6
ENDBRANCH   4   5
ENDBRANCH   3   4
ENDBRANCH   2   3
ENDBRANCH   1   2
BRANCH   1  26
ATOM     26  C   UNL A   1      32.686  31.025  27.073  1.00  0.00     0.261 C 
BRANCH  26  27
ATOM     27  O   UNL A   1      34.083  30.705  27.022  1.00  0.00    -0.460 OA
BRANCH  27  28
ATOM     28  C   UNL A   1      34.414  29.561  27.667  1.00  0.00     0.338 C 
ATOM     29  O   UNL A   1      33.756  28.530  27.726  1.00  0.00    -0.246 OA
BRANCH  28  30
ATOM     30  C   UNL A   1      35.797  29.649  28.163  1.00  0.00     0.060 A 
ATOM     31  C   UNL A   1      36.808  29.877  27.220  1.00  0.00     0.016 A 
ATOM     32  C   UNL A   1      36.109  29.463  29.511  1.00  0.00     0.016 A 
ATOM     33  C   UNL A   1      38.142  29.874  27.616  1.00  0.00     0.010 A 
ATOM     34  C   UNL A   1      37.450  29.450  29.905  1.00  0.00     0.010 A 
ATOM     35  C   UNL A   1      38.472  29.623  28.954  1.00  0.00    -0.014 A 
BRANCH  35  36
ATOM     36  C   UNL A   1      39.889  29.406  29.326  1.00  0.00     0.031 A 
ATOM     37  C   UNL A   1      40.533  28.084  29.008  1.00  0.00     0.074 A 
ATOM     38  C   UNL A   1      40.601  30.385  29.913  1.00  0.00     0.049 A 
ATOM     39  N   UNL A   1      41.750  27.676  29.254  1.00  0.00    -0.248 NA
ATOM     40  C   UNL A   1      39.690  27.090  28.322  1.00  0.00     0.031 C 
ATOM     41  C   UNL A   1      40.097  31.720  30.233  1.00  0.00     0.029 A 
ATOM     42  N   UNL A   1      41.903  30.403  30.345  1.00  0.00    -0.354 N 
ATOM     43  C   UNL A   1      41.819  26.378  28.762  1.00  0.00     0.074 A 
ATOM     44  C   UNL A   1      40.513  26.055  28.230  1.00  0.00     0.031 C 
ATOM     45  C   UNL A   1      41.079  32.427  30.818  1.00  0.00     0.029 A 
ATOM     46  C   UNL A   1      42.268  31.585  30.941  1.00  0.00     0.049 A 
ATOM     47  H   UNL A   1      42.517  29.641  30.237  1.00  0.00     0.167 HD
ATOM     48  C   UNL A   1      42.877  25.532  28.752  1.00  0.00     0.031 A 
ATOM     49  C   UNL A   1      43.424  31.941  31.536  1.00  0.00     0.031 A 
ATOM     50  C   UNL A   1      44.171  25.855  29.294  1.00  0.00     0.049 A 
ATOM     51  C   UNL A   1      44.567  30.961  31.571  1.00  0.00     0.074 A 
ATOM     52  C   UNL A   1      45.313  25.074  29.315  1.00  0.00     0.029 A 
ATOM     53  N   UNL A   1      44.492  27.050  29.920  1.00  0.00    -0.354 N 
ATOM     54  N   UNL A   1      44.626  29.747  31.076  1.00  0.00    -0.248 NA
ATOM     55  C   UNL A   1      45.800  31.402  32.236  1.00  0.00     0.031 C 
ATOM     56  C   UNL A   1      46.308  25.775  30.006  1.00  0.00     0.029 A 
ATOM     57  C   UNL A   1      45.805  27.017  30.358  1.00  0.00     0.049 A 
ATOM     58  H   UNL A   1      43.876  27.809  30.037  1.00  0.00     0.167 HD
ATOM     59  C   UNL A   1      45.912  29.290  31.347  1.00  0.00     0.074 A 
ATOM     60  C   UNL A   1      46.599  30.362  32.036  1.00  0.00     0.031 C 
ATOM     61  C   UNL A   1      46.474  28.092  31.048  1.00  0.00     0.031 A 
BRANCH  48  62
ATOM     62  C   UNL A   1      42.666  24.161  28.166  1.00  0.00    -0.014 A 
ATOM     63  C   UNL A   1      42.303  23.068  28.976  1.00  0.00     0.010 A 
ATOM     64  C   UNL A   1      42.800  23.970  26.779  1.00  0.00     0.010 A 
ATOM     65  C   UNL A   1      42.117  21.802  28.412  1.00  0.00     0.020 A 
ATOM     66  C   UNL A   1      42.587  22.713  26.208  1.00  0.00     0.020 A 
ATOM     67  C   UNL A   1      42.264  21.633  27.032  1.00  0.00     0.054 A 
BRANCH  67  68
ATOM     68  S   UNL A   1      41.998  19.983  26.324  1.00  0.00     0.124 S 
ATOM     69  O   UNL A   1      42.887  20.008  25.164  1.00  0.00    -0.237 OA
ATOM     70  O   UNL A   1      42.411  19.098  27.411  1.00  0.00    -0.237 OA
ATOM     71  O   UNL A   1      40.572  19.963  26.014  1.00  0.00    -0.744 OA
ENDBRANCH  67  68
ENDBRANCH  48  62
BRANCH  49  72
ATOM     72  C   UNL A   1      43.550  33.285  32.163  1.00  0.00    -0.014 A 
ATOM     73  C   UNL A   1      43.239  33.478  33.521  1.00  0.00     0.010 A 
ATOM     74  C   UNL A   1      43.993  34.381  31.400  1.00  0.00     0.010 A 
ATOM     75  C   UNL A   1      43.358  34.746  34.100  1.00  0.00     0.020 A 
ATOM     76  C   UNL A   1      44.140  35.643  31.982  1.00  0.00     0.020 A 
ATOM     77  C   UNL A   1      43.811  35.819  33.327  1.00  0.00     0.054 A 
BRANCH  77  78
ATOM     78  S   UNL A   1      44.013  37.441  34.115  1.00  0.00     0.124 S 
ATOM     79  O   UNL A   1      44.245  37.077  35.508  1.00  0.00    -0.237 OA
ATOM     80  O   UNL A   1      45.164  37.995  33.403  1.00  0.00    -0.237 OA
ATOM     81  O   UNL A   1      42.744  38.112  33.844  1.00  0.00    -0.744 OA
ENDBRANCH  77  78
ENDBRANCH  49  72
BRANCH  61  82
ATOM     82  C   UNL A   1      47.915  27.884  31.434  1.00  0.00    -0.014 A 
ATOM     83  C   UNL A   1      48.267  27.142  32.575  1.00  0.00     0.010 A 
ATOM     84  C   UNL A   1      48.934  28.390  30.605  1.00  0.00     0.010 A 
ATOM     85  C   UNL A   1      49.611  26.939  32.899  1.00  0.00     0.020 A 
ATOM     86  C   UNL A   1      50.278  28.164  30.909  1.00  0.00     0.020 A 
ATOM     87  C   UNL A   1      50.608  27.452  32.063  1.00  0.00     0.054 A 
BRANCH  87  88
ATOM     88  S   UNL A   1      52.346  27.136  32.481  1.00  0.00     0.124 S 
ATOM     89  O   UNL A   1      52.979  28.400  32.118  1.00  0.00    -0.237 OA
ATOM     90  O   UNL A   1      52.284  26.851  33.912  1.00  0.00    -0.237 OA
ATOM     91  O   UNL A   1      52.702  25.995  31.639  1.00  0.00    -0.744 OA
ENDBRANCH  87  88
ENDBRANCH  61  82
ENDBRANCH  35  36
ENDBRANCH  28  30
ENDBRANCH  27  28
ENDBRANCH  26  27
ENDBRANCH   1  26
TORSDOF 20
ENDMDL
MODEL 3
REMARK VINA RESULT:     -10.8      2.992      3.674
REMARK SMILES CS(=O)(=O)c1ccc(/C=C(/C(=O)OCCOCCOC(=O)c2ccc(-c3c4nc(c(-c5ccc(S(=O)(=O)[O-])cc5)c5ccc([nH]5)c(-c5ccc(S(=O)(=O)[O-])cc5)c5nc(c(-c6ccc(S(=O)(=O)[O-])cc6)c6ccc3[nH]6)C=C5)C=C4)cc2)c2ccccc2)cc1
REMARK SMILES IDX 17 1 16 2 15 3 14 4 13 5 11 6 12 7 10 8 9 9 8 10 5 11 6 12
REMARK SMILES IDX 89 13 7 14 88 15 2 16 1 17 3 18 4 19 82 20 83 21 87 22 84 23
REMARK SMILES IDX 86 24 85 25 18 26 19 27 20 28 21 29 22 30 23 31 81 32 24 33
REMARK SMILES IDX 80 34 25 35 26 36 27 37 74 38 28 39 79 40 73 41 75 42 29 43
REMARK SMILES IDX 78 44 72 45 71 46 30 48 60 49 41 50 59 51 42 52 45 53 58 54
REMARK SMILES IDX 76 55 43 56 44 57 57 59 77 60 46 61 31 62 32 63 40 64 33 65
REMARK SMILES IDX 39 66 34 67 35 68 36 69 37 70 38 71 61 72 62 73 70 74 63 75
REMARK SMILES IDX 69 76 64 77 65 78 66 79 67 80 68 81 47 82 48 83 56 84 49 85
REMARK SMILES IDX 55 86 50 87 51 88 52 89 53 90 54 91
REMARK H PARENT 75 47 45 58
REMARK Flexibility Score: inf
ROOT
ATOM      1  C   UNL A   1      32.678  28.541  26.289  1.00  0.00     0.202 C 
ENDROOT
BRANCH   1   2
ATOM      2  O   UNL A   1      31.521  28.654  25.466  1.00  0.00    -0.374 OA
BRANCH   2   3
ATOM      3  C   UNL A   1      31.049  27.471  24.821  1.00  0.00     0.202 C 
BRANCH   3   4
ATOM      4  C   UNL A   1      32.003  26.773  23.845  1.00  0.00     0.261 C 
BRANCH   4   5
ATOM      5  O   UNL A   1      32.312  25.435  24.274  1.00  0.00    -0.460 OA
BRANCH   5   6
ATOM      6  C   UNL A   1      32.806  24.627  23.300  1.00  0.00     0.338 C 
ATOM      7  O   UNL A   1      33.106  24.982  22.167  1.00  0.00    -0.246 OA
BRANCH   6   8
ATOM      8  C   UNL A   1      33.072  23.238  23.799  1.00  0.00     0.067 C 
ATOM      9  C   UNL A   1      32.085  22.311  23.811  1.00  0.00     0.024 C 
BRANCH   9  10
ATOM     10  C   UNL A   1      32.216  20.841  23.990  1.00  0.00    -0.025 A 
ATOM     11  C   UNL A   1      32.987  18.142  24.056  1.00  0.00     0.067 A 
ATOM     12  C   UNL A   1      32.961  18.883  25.235  1.00  0.00     0.021 A 
ATOM     13  C   UNL A   1      32.529  18.699  22.863  1.00  0.00     0.021 A 
ATOM     14  C   UNL A   1      32.533  20.213  25.202  1.00  0.00     0.009 A 
ATOM     15  C   UNL A   1      32.138  20.042  22.836  1.00  0.00     0.009 A 
BRANCH  11  16
ATOM     16  S   UNL A   1      33.761  16.542  24.044  1.00  0.00     0.175 S 
ATOM     17  C   UNL A   1      35.227  16.771  25.006  1.00  0.00     0.163 C 
ATOM     18  O   UNL A   1      34.164  16.259  22.678  1.00  0.00    -0.224 OA
ATOM     19  O   UNL A   1      32.890  15.629  24.759  1.00  0.00    -0.224 OA
ENDBRANCH  11  16
ENDBRANCH   9  10
BRANCH   8  20
ATOM     20  C   UNL A   1      34.470  22.955  24.178  1.00  0.00    -0.011 A 
ATOM     21  C   UNL A   1      35.441  22.813  23.173  1.00  0.00     0.009 A 
ATOM     22  C   UNL A   1      34.853  22.855  25.519  1.00  0.00     0.009 A 
ATOM     23  C   UNL A   1      36.777  22.595  23.504  1.00  0.00     0.001 A 
ATOM     24  C   UNL A   1      36.194  22.645  25.848  1.00  0.00     0.001 A 
ATOM     25  C   UNL A   1      37.153  22.517  24.842  1.00  0.00     0.000 A 
ENDBRANCH   8  20
ENDBRANCH   6   8
ENDBRANCH   5   6
ENDBRANCH   4   5
ENDBRANCH   3   4
ENDBRANCH   2   3
ENDBRANCH   1   2
BRANCH   1  26
ATOM     26  C   UNL A   1      32.943  29.645  27.319  1.00  0.00     0.261 C 
BRANCH  26  27
ATOM     27  O   UNL A   1      34.136  30.393  27.050  1.00  0.00    -0.460 OA
BRANCH  27  28
ATOM     28  C   UNL A   1      34.761  30.858  28.158  1.00  0.00     0.338 C 
ATOM     29  O   UNL A   1      34.292  31.598  29.015  1.00  0.00    -0.246 OA
BRANCH  28  30
ATOM     30  C   UNL A   1      36.068  30.200  28.309  1.00  0.00     0.060 A 
ATOM     31  C   UNL A   1      36.368  29.638  29.556  1.00  0.00     0.016 A 
ATOM     32  C   UNL A   1      37.004  30.174  27.272  1.00  0.00     0.016 A 
ATOM     33  C   UNL A   1      37.625  29.087  29.788  1.00  0.00     0.010 A 
ATOM     34  C   UNL A   1      38.269  29.630  27.510  1.00  0.00     0.010 A 
ATOM     35  C   UNL A   1      38.595  29.114  28.778  1.00  0.00    -0.014 A 
BRANCH  35  36
ATOM     36  C   UNL A   1      39.990  28.728  29.096  1.00  0.00     0.031 A 
ATOM     37  C   UNL A   1      40.888  29.728  29.772  1.00  0.00     0.074 A 
ATOM     38  C   UNL A   1      40.440  27.492  28.811  1.00  0.00     0.049 A 
ATOM     39  N   UNL A   1      42.139  29.606  30.129  1.00  0.00    -0.248 NA
ATOM     40  C   UNL A   1      40.294  31.038  30.087  1.00  0.00     0.031 C 
ATOM     41  C   UNL A   1      39.650  26.427  28.194  1.00  0.00     0.029 A 
ATOM     42  N   UNL A   1      41.675  26.928  29.007  1.00  0.00    -0.354 N 
ATOM     43  C   UNL A   1      42.487  30.824  30.702  1.00  0.00     0.074 A 
ATOM     44  C   UNL A   1      41.324  31.680  30.619  1.00  0.00     0.031 C 
ATOM     45  C   UNL A   1      40.425  25.337  28.055  1.00  0.00     0.029 A 
ATOM     46  C   UNL A   1      41.769  25.639  28.543  1.00  0.00     0.049 A 
ATOM     47  H   UNL A   1      42.422  27.402  29.438  1.00  0.00     0.167 HD
ATOM     48  C   UNL A   1      43.668  31.193  31.251  1.00  0.00     0.031 A 
ATOM     49  C   UNL A   1      42.825  24.803  28.500  1.00  0.00     0.031 A 
ATOM     50  C   UNL A   1      44.826  30.341  31.319  1.00  0.00     0.049 A 
ATOM     51  C   UNL A   1      44.148  25.258  29.057  1.00  0.00     0.074 A 
ATOM     52  C   UNL A   1      46.065  30.615  31.873  1.00  0.00     0.029 A 
ATOM     53  N   UNL A   1      44.893  29.053  30.809  1.00  0.00    -0.354 N 
ATOM     54  N   UNL A   1      44.454  26.403  29.622  1.00  0.00    -0.248 NA
ATOM     55  C   UNL A   1      45.265  24.306  28.980  1.00  0.00     0.031 C 
ATOM     56  C   UNL A   1      46.898  29.515  31.645  1.00  0.00     0.029 A 
ATOM     57  C   UNL A   1      46.160  28.531  31.007  1.00  0.00     0.049 A 
ATOM     58  H   UNL A   1      44.149  28.581  30.369  1.00  0.00     0.167 HD
ATOM     59  C   UNL A   1      45.792  26.297  29.992  1.00  0.00     0.074 A 
ATOM     60  C   UNL A   1      46.230  24.975  29.598  1.00  0.00     0.031 C 
ATOM     61  C   UNL A   1      46.583  27.213  30.605  1.00  0.00     0.031 A 
BRANCH  48  62
ATOM     62  C   UNL A   1      43.777  32.596  31.789  1.00  0.00    -0.014 A 
ATOM     63  C   UNL A   1      44.667  33.529  31.224  1.00  0.00     0.010 A 
ATOM     64  C   UNL A   1      42.951  32.998  32.854  1.00  0.00     0.010 A 
ATOM     65  C   UNL A   1      44.756  34.824  31.743  1.00  0.00     0.020 A 
ATOM     66  C   UNL A   1      43.016  34.300  33.356  1.00  0.00     0.020 A 
ATOM     67  C   UNL A   1      43.932  35.200  32.808  1.00  0.00     0.054 A 
BRANCH  67  68
ATOM     68  S   UNL A   1      44.054  36.893  33.448  1.00  0.00     0.124 S 
ATOM     69  O   UNL A   1      45.043  36.740  34.512  1.00  0.00    -0.237 OA
ATOM     70  O   UNL A   1      44.501  37.646  32.279  1.00  0.00    -0.237 OA
ATOM     71  O   UNL A   1      42.698  37.193  33.898  1.00  0.00    -0.744 OA
ENDBRANCH  67  68
ENDBRANCH  48  62
BRANCH  49  72
ATOM     72  C   UNL A   1      42.677  23.453  27.889  1.00  0.00    -0.014 A 
ATOM     73  C   UNL A   1      42.024  22.418  28.580  1.00  0.00     0.010 A 
ATOM     74  C   UNL A   1      43.184  23.203  26.601  1.00  0.00     0.010 A 
ATOM     75  C   UNL A   1      41.893  21.153  27.998  1.00  0.00     0.020 A 
ATOM     76  C   UNL A   1      43.030  21.948  26.005  1.00  0.00     0.020 A 
ATOM     77  C   UNL A   1      42.393  20.928  26.713  1.00  0.00     0.054 A 
BRANCH  77  78
ATOM     78  S   UNL A   1      42.160  19.295  25.955  1.00  0.00     0.124 S 
ATOM     79  O   UNL A   1      40.711  19.239  25.794  1.00  0.00    -0.237 OA
ATOM     80  O   UNL A   1      42.931  19.409  24.719  1.00  0.00    -0.237 OA
ATOM     81  O   UNL A   1      42.717  18.377  26.945  1.00  0.00    -0.744 OA
ENDBRANCH  77  78
ENDBRANCH  49  72
BRANCH  61  82
ATOM     82  C   UNL A   1      47.999  26.807  30.921  1.00  0.00    -0.014 A 
ATOM     83  C   UNL A   1      49.056  27.092  30.038  1.00  0.00     0.010 A 
ATOM     84  C   UNL A   1      48.283  26.183  32.150  1.00  0.00     0.010 A 
ATOM     85  C   UNL A   1      50.366  26.730  30.365  1.00  0.00     0.020 A 
ATOM     86  C   UNL A   1      49.594  25.847  32.493  1.00  0.00     0.020 A 
ATOM     87  C   UNL A   1      50.626  26.110  31.590  1.00  0.00     0.054 A 
BRANCH  87  88
ATOM     88  S   UNL A   1      52.341  25.691  32.010  1.00  0.00     0.124 S 
ATOM     89  O   UNL A   1      53.054  26.085  30.799  1.00  0.00    -0.237 OA
ATOM     90  O   UNL A   1      52.594  26.518  33.186  1.00  0.00    -0.237 OA
ATOM     91  O   UNL A   1      52.293  24.253  32.265  1.00  0.00    -0.744 OA
ENDBRANCH  87  88
ENDBRANCH  61  82
ENDBRANCH  35  36
ENDBRANCH  28  30
ENDBRANCH  27  28
ENDBRANCH  26  27
ENDBRANCH   1  26
TORSDOF 20
ENDMDL
