MODEL 1
REMARK VINA RESULT:      -9.1      0.000      0.000
REMARK SMILES CCCN(C(=O)C[NH2+]C(C)(C)C)[C@H]1COC[C@H]1C(=O)OCCOCCOC(=O)c1ccc(-c2c3nc(c(-c4ccc(S(=O)(=O)[O-])cc4)c4ccc([nH]4)c(-c4ccc(S(=O)(=O)[O-])cc4)c4nc(c(-c5ccc(S(=O)(=O)[O-])cc5)c5ccc2[nH]5)C=C4)C=C3)cc1
REMARK SMILES IDX 22 1 21 2 20 3 18 4 19 5 17 6 13 7 14 8 15 9 16 10 4 11 3 12
REMARK SMILES IDX 2 13 1 14 5 15 6 16 7 17 8 18 9 21 10 22 11 23 12 24 23 25
REMARK SMILES IDX 24 26 25 27 26 28 27 29 28 30 29 31 30 32 88 33 31 34 87 35
REMARK SMILES IDX 32 36 33 37 34 38 81 39 35 40 86 41 80 42 82 43 36 44 85 45
REMARK SMILES IDX 79 46 78 47 37 49 67 50 48 51 66 52 49 53 52 54 65 55 83 56
REMARK SMILES IDX 50 57 51 58 64 60 84 61 53 62 38 63 39 64 47 65 40 66 46 67
REMARK SMILES IDX 41 68 42 69 43 70 44 71 45 72 68 73 69 74 77 75 70 76 76 77
REMARK SMILES IDX 71 78 72 79 73 80 74 81 75 82 54 83 55 84 63 85 56 86 62 87
REMARK SMILES IDX 57 88 58 89 59 90 60 91 61 92
REMARK H PARENT 8 19 8 20 82 48 52 59
REMARK Flexibility Score: inf
ROOT
ATOM      1  C   UNL A   1      38.821  22.876  25.876  1.00  0.00     0.202 C 
ENDROOT
BRANCH   1   2
ATOM      2  C   UNL A   1      37.671  22.069  25.278  1.00  0.00     0.261 C 
BRANCH   2   3
ATOM      3  O   UNL A   1      36.761  22.933  24.571  1.00  0.00    -0.463 OA
BRANCH   3   4
ATOM      4  C   UNL A   1      35.555  23.077  25.155  1.00  0.00     0.313 C 
ATOM      5  O   UNL A   1      35.330  22.839  26.337  1.00  0.00    -0.252 OA
BRANCH   4   6
ATOM      6  C   UNL A   1      34.500  23.659  24.260  1.00  0.00     0.150 C 
ATOM      7  C   UNL A   1      33.294  22.947  23.656  1.00  0.00     0.127 C 
ATOM      8  C   UNL A   1      32.508  24.176  23.149  1.00  0.00     0.186 C 
ATOM      9  O   UNL A   1      32.802  25.283  24.022  1.00  0.00    -0.378 OA
ATOM     10  C   UNL A   1      33.948  24.949  24.815  1.00  0.00     0.177 C 
BRANCH   7  11
ATOM     11  N   UNL A   1      32.346  22.047  24.373  1.00  0.00    -0.332 N 
BRANCH  11  12
ATOM     12  C   UNL A   1      31.102  22.594  24.942  1.00  0.00     0.120 C 
BRANCH  12  13
ATOM     13  C   UNL A   1      31.161  22.882  26.445  1.00  0.00     0.018 C 
ATOM     14  C   UNL A   1      29.786  22.979  27.093  1.00  0.00     0.006 C 
ENDBRANCH  12  13
ENDBRANCH  11  12
BRANCH  11  15
ATOM     15  C   UNL A   1      32.552  20.670  24.108  1.00  0.00     0.278 C 
ATOM     16  O   UNL A   1      32.198  20.180  23.023  1.00  0.00    -0.268 OA
BRANCH  15  17
ATOM     17  C   UNL A   1      33.163  19.698  25.149  1.00  0.00     0.362 C 
BRANCH  17  18
ATOM     18  N   UNL A   1      32.957  18.305  24.715  1.00  0.00    -0.334 N 
ATOM     19  H   UNL A   1      32.386  18.325  23.870  1.00  0.00     0.347 HD
ATOM     20  H   UNL A   1      32.522  17.835  25.508  1.00  0.00     0.347 HD
BRANCH  18  21
ATOM     21  C   UNL A   1      34.177  17.525  24.416  1.00  0.00     0.088 C 
ATOM     22  C   UNL A   1      34.274  16.260  25.285  1.00  0.00     0.078 C 
ATOM     23  C   UNL A   1      34.059  17.047  22.954  1.00  0.00     0.078 C 
ATOM     24  C   UNL A   1      35.463  18.355  24.583  1.00  0.00     0.078 C 
ENDBRANCH  18  21
ENDBRANCH  17  18
ENDBRANCH  15  17
ENDBRANCH  11  15
ENDBRANCH   7  11
ENDBRANCH   4   6
ENDBRANCH   3   4
ENDBRANCH   2   3
ENDBRANCH   1   2
BRANCH   1  25
ATOM     25  O   UNL A   1      39.813  22.110  26.562  1.00  0.00    -0.374 OA
BRANCH  25  26
ATOM     26  C   UNL A   1      41.121  22.054  25.993  1.00  0.00     0.202 C 
BRANCH  26  27
ATOM     27  C   UNL A   1      41.998  23.302  26.137  1.00  0.00     0.261 C 
BRANCH  27  28
ATOM     28  O   UNL A   1      41.260  24.527  26.265  1.00  0.00    -0.460 OA
BRANCH  28  29
ATOM     29  C   UNL A   1      42.000  25.654  26.092  1.00  0.00     0.338 C 
ATOM     30  O   UNL A   1      42.444  26.061  25.030  1.00  0.00    -0.246 OA
BRANCH  29  31
ATOM     31  C   UNL A   1      42.209  26.392  27.364  1.00  0.00     0.060 A 
ATOM     32  C   UNL A   1      41.638  25.864  28.530  1.00  0.00     0.016 A 
ATOM     33  C   UNL A   1      42.823  27.642  27.414  1.00  0.00     0.016 A 
ATOM     34  C   UNL A   1      41.556  26.636  29.692  1.00  0.00     0.010 A 
ATOM     35  C   UNL A   1      42.727  28.421  28.568  1.00  0.00     0.010 A 
ATOM     36  C   UNL A   1      42.031  27.950  29.688  1.00  0.00    -0.014 A 
BRANCH  36  37
ATOM     37  C   UNL A   1      41.715  28.884  30.796  1.00  0.00     0.031 A 
ATOM     38  C   UNL A   1      42.422  28.749  32.123  1.00  0.00     0.074 A 
ATOM     39  C   UNL A   1      40.708  29.762  30.651  1.00  0.00     0.049 A 
ATOM     40  N   UNL A   1      42.313  29.494  33.194  1.00  0.00    -0.248 NA
ATOM     41  C   UNL A   1      43.351  27.617  32.279  1.00  0.00     0.031 C 
ATOM     42  C   UNL A   1      39.887  29.913  29.448  1.00  0.00     0.029 A 
ATOM     43  N   UNL A   1      40.173  30.658  31.539  1.00  0.00    -0.354 N 
ATOM     44  C   UNL A   1      43.163  28.932  34.143  1.00  0.00     0.074 A 
ATOM     45  C   UNL A   1      43.760  27.763  33.533  1.00  0.00     0.031 C 
ATOM     46  C   UNL A   1      38.915  30.807  29.693  1.00  0.00     0.029 A 
ATOM     47  C   UNL A   1      39.069  31.313  31.053  1.00  0.00     0.049 A 
ATOM     48  H   UNL A   1      40.545  30.816  32.436  1.00  0.00     0.167 HD
ATOM     49  C   UNL A   1      43.424  29.363  35.401  1.00  0.00     0.031 A 
ATOM     50  C   UNL A   1      38.277  32.231  31.635  1.00  0.00     0.031 A 
ATOM     51  C   UNL A   1      42.811  30.528  35.989  1.00  0.00     0.049 A 
ATOM     52  C   UNL A   1      38.637  32.749  32.998  1.00  0.00     0.074 A 
ATOM     53  C   UNL A   1      43.112  31.145  37.192  1.00  0.00     0.029 A 
ATOM     54  N   UNL A   1      41.760  31.236  35.431  1.00  0.00    -0.354 N 
ATOM     55  N   UNL A   1      39.583  32.337  33.808  1.00  0.00    -0.248 NA
ATOM     56  C   UNL A   1      37.864  33.891  33.498  1.00  0.00     0.031 C 
ATOM     57  C   UNL A   1      42.206  32.191  37.387  1.00  0.00     0.029 A 
ATOM     58  C   UNL A   1      41.379  32.264  36.277  1.00  0.00     0.049 A 
ATOM     59  H   UNL A   1      41.345  31.038  34.561  1.00  0.00     0.167 HD
ATOM     60  C   UNL A   1      39.544  33.198  34.898  1.00  0.00     0.074 A 
ATOM     61  C   UNL A   1      38.488  34.155  34.638  1.00  0.00     0.031 C 
ATOM     62  C   UNL A   1      40.321  33.202  36.010  1.00  0.00     0.031 A 
BRANCH  49  63
ATOM     63  C   UNL A   1      44.424  28.608  36.244  1.00  0.00    -0.014 A 
ATOM     64  C   UNL A   1      45.773  29.004  36.296  1.00  0.00     0.010 A 
ATOM     65  C   UNL A   1      43.981  27.596  37.118  1.00  0.00     0.010 A 
ATOM     66  C   UNL A   1      46.656  28.403  37.200  1.00  0.00     0.020 A 
ATOM     67  C   UNL A   1      44.855  27.008  38.039  1.00  0.00     0.020 A 
ATOM     68  C   UNL A   1      46.190  27.417  38.074  1.00  0.00     0.054 A 
BRANCH  68  69
ATOM     69  S   UNL A   1      47.334  26.730  39.305  1.00  0.00     0.124 S 
ATOM     70  O   UNL A   1      48.631  26.958  38.672  1.00  0.00    -0.237 OA
ATOM     71  O   UNL A   1      47.061  27.546  40.486  1.00  0.00    -0.237 OA
ATOM     72  O   UNL A   1      46.930  25.330  39.413  1.00  0.00    -0.744 OA
ENDBRANCH  68  69
ENDBRANCH  49  63
BRANCH  50  73
ATOM     73  C   UNL A   1      37.109  32.765  30.890  1.00  0.00    -0.014 A 
ATOM     74  C   UNL A   1      37.285  33.735  29.890  1.00  0.00     0.010 A 
ATOM     75  C   UNL A   1      35.818  32.272  31.154  1.00  0.00     0.010 A 
ATOM     76  C   UNL A   1      36.186  34.225  29.182  1.00  0.00     0.020 A 
ATOM     77  C   UNL A   1      34.719  32.743  30.432  1.00  0.00     0.020 A 
ATOM     78  C   UNL A   1      34.909  33.728  29.460  1.00  0.00     0.054 A 
BRANCH  78  79
ATOM     79  S   UNL A   1      33.502  34.347  28.498  1.00  0.00     0.124 S 
ATOM     80  O   UNL A   1      32.634  34.881  29.542  1.00  0.00    -0.237 OA
ATOM     81  O   UNL A   1      34.128  35.338  27.624  1.00  0.00    -0.237 OA
ATOM     82  O   UNL A   1      33.004  33.155  27.817  1.00  0.00    -0.744 OA
ENDBRANCH  78  79
ENDBRANCH  50  73
BRANCH  62  83
ATOM     83  C   UNL A   1      40.076  34.294  37.015  1.00  0.00    -0.014 A 
ATOM     84  C   UNL A   1      40.717  35.541  36.906  1.00  0.00     0.010 A 
ATOM     85  C   UNL A   1      39.168  34.077  38.067  1.00  0.00     0.010 A 
ATOM     86  C   UNL A   1      40.487  36.537  37.860  1.00  0.00     0.020 A 
ATOM     87  C   UNL A   1      38.914  35.079  39.005  1.00  0.00     0.020 A 
ATOM     88  C   UNL A   1      39.591  36.297  38.906  1.00  0.00     0.054 A 
BRANCH  88  89
ATOM     89  S   UNL A   1      39.295  37.611  40.120  1.00  0.00     0.124 S 
ATOM     90  O   UNL A   1      40.580  38.305  40.135  1.00  0.00    -0.237 OA
ATOM     91  O   UNL A   1      38.187  38.355  39.525  1.00  0.00    -0.237 OA
ATOM     92  O   UNL A   1      38.965  36.884  41.343  1.00  0.00    -0.744 OA
ENDBRANCH  88  89
ENDBRANCH  62  83
ENDBRANCH  36  37
ENDBRANCH  29  31
ENDBRANCH  28  29
ENDBRANCH  27  28
ENDBRANCH  26  27
ENDBRANCH  25  26
ENDBRANCH   1  25
TORSDOF 24
ENDMDL
MODEL 2
REMARK VINA RESULT:      -9.1      3.638      5.552
REMARK SMILES CCCN(C(=O)C[NH2+]C(C)(C)C)[C@H]1COC[C@H]1C(=O)OCCOCCOC(=O)c1ccc(-c2c3nc(c(-c4ccc(S(=O)(=O)[O-])cc4)c4ccc([nH]4)c(-c4ccc(S(=O)(=O)[O-])cc4)c4nc(c(-c5ccc(S(=O)(=O)[O-])cc5)c5ccc2[nH]5)C=C4)C=C3)cc1
REMARK SMILES IDX 22 1 21 2 20 3 18 4 19 5 17 6 13 7 14 8 15 9 16 10 4 11 3 12
REMARK SMILES IDX 2 13 1 14 5 15 6 16 7 17 8 18 9 21 10 22 11 23 12 24 23 25
REMARK SMILES IDX 24 26 25 27 26 28 27 29 28 30 29 31 30 32 88 33 31 34 87 35
REMARK SMILES IDX 32 36 33 37 34 38 81 39 35 40 86 41 80 42 82 43 36 44 85 45
REMARK SMILES IDX 79 46 78 47 37 49 67 50 48 51 66 52 49 53 52 54 65 55 83 56
REMARK SMILES IDX 50 57 51 58 64 60 84 61 53 62 38 63 39 64 47 65 40 66 46 67
REMARK SMILES IDX 41 68 42 69 43 70 44 71 45 72 68 73 69 74 77 75 70 76 76 77
REMARK SMILES IDX 71 78 72 79 73 80 74 81 75 82 54 83 55 84 63 85 56 86 62 87
REMARK SMILES IDX 57 88 58 89 59 90 60 91 61 92
REMARK H PARENT 8 19 8 20 82 48 52 59
REMARK Flexibility Score: inf
ROOT
ATOM      1  C   UNL A   1      36.118  23.401  23.891  1.00  0.00     0.202 C 
ENDROOT
BRANCH   1   2
ATOM      2  C   UNL A   1      35.473  23.968  25.153  1.00  0.00     0.261 C 
BRANCH   2   3
ATOM      3  O   UNL A   1      34.217  24.598  24.839  1.00  0.00    -0.463 OA
BRANCH   3   4
ATOM      4  C   UNL A   1      33.199  24.259  25.653  1.00  0.00     0.313 C 
ATOM      5  O   UNL A   1      33.331  23.614  26.689  1.00  0.00    -0.252 OA
BRANCH   4   6
ATOM      6  C   UNL A   1      31.867  24.821  25.249  1.00  0.00     0.150 C 
ATOM      7  C   UNL A   1      31.317  26.213  25.538  1.00  0.00     0.127 C 
ATOM      8  C   UNL A   1      30.100  26.201  24.586  1.00  0.00     0.186 C 
ATOM      9  O   UNL A   1      30.424  25.364  23.461  1.00  0.00    -0.378 OA
ATOM     10  C   UNL A   1      31.586  24.591  23.784  1.00  0.00     0.177 C 
BRANCH   7  11
ATOM     11  N   UNL A   1      32.039  27.505  25.360  1.00  0.00    -0.332 N 
BRANCH  11  12
ATOM     12  C   UNL A   1      33.206  27.816  26.204  1.00  0.00     0.120 C 
BRANCH  12  13
ATOM     13  C   UNL A   1      33.138  29.171  26.911  1.00  0.00     0.018 C 
ATOM     14  C   UNL A   1      34.503  29.697  27.336  1.00  0.00     0.006 C 
ENDBRANCH  12  13
ENDBRANCH  11  12
BRANCH  11  15
ATOM     15  C   UNL A   1      31.761  28.152  24.130  1.00  0.00     0.278 C 
ATOM     16  O   UNL A   1      32.399  27.855  23.107  1.00  0.00    -0.268 OA
BRANCH  15  17
ATOM     17  C   UNL A   1      30.712  29.285  23.997  1.00  0.00     0.362 C 
BRANCH  17  18
ATOM     18  N   UNL A   1      29.888  29.065  22.796  1.00  0.00    -0.334 N 
ATOM     19  H   UNL A   1      29.571  28.095  22.809  1.00  0.00     0.347 HD
ATOM     20  H   UNL A   1      30.489  29.302  22.007  1.00  0.00     0.347 HD
BRANCH  18  21
ATOM     21  C   UNL A   1      28.693  29.926  22.653  1.00  0.00     0.088 C 
ATOM     22  C   UNL A   1      27.404  29.180  23.031  1.00  0.00     0.078 C 
ATOM     23  C   UNL A   1      28.848  31.081  23.664  1.00  0.00     0.078 C 
ATOM     24  C   UNL A   1      28.549  30.501  21.233  1.00  0.00     0.078 C 
ENDBRANCH  18  21
ENDBRANCH  17  18
ENDBRANCH  15  17
ENDBRANCH  11  15
ENDBRANCH   7  11
ENDBRANCH   4   6
ENDBRANCH   3   4
ENDBRANCH   2   3
ENDBRANCH   1   2
BRANCH   1  25
ATOM     25  O   UNL A   1      36.267  21.979  23.867  1.00  0.00    -0.374 OA
BRANCH  25  26
ATOM     26  C   UNL A   1      36.789  21.347  25.035  1.00  0.00     0.202 C 
BRANCH  26  27
ATOM     27  C   UNL A   1      38.284  21.528  25.317  1.00  0.00     0.261 C 
BRANCH  27  28
ATOM     28  O   UNL A   1      38.571  22.358  26.453  1.00  0.00    -0.460 OA
BRANCH  28  29
ATOM     29  C   UNL A   1      39.797  22.946  26.429  1.00  0.00     0.338 C 
ATOM     30  O   UNL A   1      40.828  22.431  26.026  1.00  0.00    -0.246 OA
BRANCH  29  31
ATOM     31  C   UNL A   1      39.764  24.341  26.939  1.00  0.00     0.060 A 
ATOM     32  C   UNL A   1      40.578  25.290  26.306  1.00  0.00     0.016 A 
ATOM     33  C   UNL A   1      39.070  24.702  28.092  1.00  0.00     0.016 A 
ATOM     34  C   UNL A   1      40.808  26.535  26.897  1.00  0.00     0.010 A 
ATOM     35  C   UNL A   1      39.311  25.938  28.693  1.00  0.00     0.010 A 
ATOM     36  C   UNL A   1      40.235  26.832  28.137  1.00  0.00    -0.014 A 
BRANCH  36  37
ATOM     37  C   UNL A   1      40.670  28.012  28.922  1.00  0.00     0.031 A 
ATOM     38  C   UNL A   1      41.944  27.955  29.729  1.00  0.00     0.074 A 
ATOM     39  C   UNL A   1      39.858  29.079  29.012  1.00  0.00     0.049 A 
ATOM     40  N   UNL A   1      42.510  28.895  30.444  1.00  0.00    -0.248 NA
ATOM     41  C   UNL A   1      42.663  26.670  29.762  1.00  0.00     0.031 C 
ATOM     42  C   UNL A   1      38.555  29.206  28.357  1.00  0.00     0.029 A 
ATOM     43  N   UNL A   1      39.988  30.239  29.730  1.00  0.00    -0.354 N 
ATOM     44  C   UNL A   1      43.652  28.323  31.000  1.00  0.00     0.074 A 
ATOM     45  C   UNL A   1      43.685  26.944  30.565  1.00  0.00     0.031 C 
ATOM     46  C   UNL A   1      37.979  30.354  28.749  1.00  0.00     0.029 A 
ATOM     47  C   UNL A   1      38.887  31.055  29.651  1.00  0.00     0.049 A 
ATOM     48  H   UNL A   1      40.792  30.464  30.251  1.00  0.00     0.167 HD
ATOM     49  C   UNL A   1      44.586  28.905  31.790  1.00  0.00     0.031 A 
ATOM     50  C   UNL A   1      38.643  32.244  30.230  1.00  0.00     0.031 A 
ATOM     51  C   UNL A   1      44.528  30.281  32.214  1.00  0.00     0.049 A 
ATOM     52  C   UNL A   1      39.727  32.901  31.034  1.00  0.00     0.074 A 
ATOM     53  C   UNL A   1      45.491  31.018  32.884  1.00  0.00     0.029 A 
ATOM     54  N   UNL A   1      43.440  31.120  32.035  1.00  0.00    -0.354 N 
ATOM     55  N   UNL A   1      40.896  32.420  31.383  1.00  0.00    -0.248 NA
ATOM     56  C   UNL A   1      39.484  34.282  31.469  1.00  0.00     0.031 C 
ATOM     57  C   UNL A   1      44.963  32.283  33.157  1.00  0.00     0.029 A 
ATOM     58  C   UNL A   1      43.694  32.355  32.606  1.00  0.00     0.049 A 
ATOM     59  H   UNL A   1      42.608  30.873  31.568  1.00  0.00     0.167 HD
ATOM     60  C   UNL A   1      41.545  33.455  32.046  1.00  0.00     0.074 A 
ATOM     61  C   UNL A   1      40.642  34.587  32.040  1.00  0.00     0.031 C 
ATOM     62  C   UNL A   1      42.783  33.469  32.600  1.00  0.00     0.031 A 
BRANCH  49  63
ATOM     63  C   UNL A   1      45.774  28.091  32.245  1.00  0.00    -0.014 A 
ATOM     64  C   UNL A   1      45.728  27.346  33.437  1.00  0.00     0.010 A 
ATOM     65  C   UNL A   1      46.885  27.938  31.393  1.00  0.00     0.010 A 
ATOM     66  C   UNL A   1      46.767  26.469  33.769  1.00  0.00     0.020 A 
ATOM     67  C   UNL A   1      47.916  27.046  31.709  1.00  0.00     0.020 A 
ATOM     68  C   UNL A   1      47.849  26.316  32.898  1.00  0.00     0.054 A 
BRANCH  68  69
ATOM     69  S   UNL A   1      49.130  25.096  33.305  1.00  0.00     0.124 S 
ATOM     70  O   UNL A   1      49.969  25.839  34.242  1.00  0.00    -0.237 OA
ATOM     71  O   UNL A   1      48.357  24.002  33.889  1.00  0.00    -0.237 OA
ATOM     72  O   UNL A   1      49.749  24.798  32.016  1.00  0.00    -0.744 OA
ENDBRANCH  68  69
ENDBRANCH  49  63
BRANCH  50  73
ATOM     73  C   UNL A   1      37.337  32.912  30.003  1.00  0.00    -0.014 A 
ATOM     74  C   UNL A   1      37.135  33.715  28.867  1.00  0.00     0.010 A 
ATOM     75  C   UNL A   1      36.275  32.713  30.904  1.00  0.00     0.010 A 
ATOM     76  C   UNL A   1      35.902  34.331  28.650  1.00  0.00     0.020 A 
ATOM     77  C   UNL A   1      35.033  33.310  30.677  1.00  0.00     0.020 A 
ATOM     78  C   UNL A   1      34.858  34.126  29.558  1.00  0.00     0.054 A 
BRANCH  78  79
ATOM     79  S   UNL A   1      33.252  34.901  29.231  1.00  0.00     0.124 S 
ATOM     80  O   UNL A   1      32.655  33.970  28.280  1.00  0.00    -0.237 OA
ATOM     81  O   UNL A   1      32.640  34.933  30.558  1.00  0.00    -0.237 OA
ATOM     82  O   UNL A   1      33.610  36.209  28.687  1.00  0.00    -0.744 OA
ENDBRANCH  78  79
ENDBRANCH  50  73
BRANCH  62  83
ATOM     83  C   UNL A   1      43.243  34.761  33.220  1.00  0.00    -0.014 A 
ATOM     84  C   UNL A   1      43.091  35.002  34.597  1.00  0.00     0.010 A 
ATOM     85  C   UNL A   1      43.862  35.733  32.415  1.00  0.00     0.010 A 
ATOM     86  C   UNL A   1      43.511  36.215  35.149  1.00  0.00     0.020 A 
ATOM     87  C   UNL A   1      44.309  36.935  32.968  1.00  0.00     0.020 A 
ATOM     88  C   UNL A   1      44.112  37.175  34.330  1.00  0.00     0.054 A 
BRANCH  88  89
ATOM     89  S   UNL A   1      44.666  38.734  35.073  1.00  0.00     0.124 S 
ATOM     90  O   UNL A   1      44.153  38.619  36.436  1.00  0.00    -0.237 OA
ATOM     91  O   UNL A   1      46.119  38.655  34.942  1.00  0.00    -0.237 OA
ATOM     92  O   UNL A   1      44.027  39.757  34.251  1.00  0.00    -0.744 OA
ENDBRANCH  88  89
ENDBRANCH  62  83
ENDBRANCH  36  37
ENDBRANCH  29  31
ENDBRANCH  28  29
ENDBRANCH  27  28
ENDBRANCH  26  27
ENDBRANCH  25  26
ENDBRANCH   1  25
TORSDOF 24
ENDMDL
MODEL 3
REMARK VINA RESULT:      -9.0      1.507      3.254
REMARK SMILES CCCN(C(=O)C[NH2+]C(C)(C)C)[C@H]1COC[C@H]1C(=O)OCCOCCOC(=O)c1ccc(-c2c3nc(c(-c4ccc(S(=O)(=O)[O-])cc4)c4ccc([nH]4)c(-c4ccc(S(=O)(=O)[O-])cc4)c4nc(c(-c5ccc(S(=O)(=O)[O-])cc5)c5ccc2[nH]5)C=C4)C=C3)cc1
REMARK SMILES IDX 22 1 21 2 20 3 18 4 19 5 17 6 13 7 14 8 15 9 16 10 4 11 3 12
REMARK SMILES IDX 2 13 1 14 5 15 6 16 7 17 8 18 9 21 10 22 11 23 12 24 23 25
REMARK SMILES IDX 24 26 25 27 26 28 27 29 28 30 29 31 30 32 88 33 31 34 87 35
REMARK SMILES IDX 32 36 33 37 34 38 81 39 35 40 86 41 80 42 82 43 36 44 85 45
REMARK SMILES IDX 79 46 78 47 37 49 67 50 48 51 66 52 49 53 52 54 65 55 83 56
REMARK SMILES IDX 50 57 51 58 64 60 84 61 53 62 38 63 39 64 47 65 40 66 46 67
REMARK SMILES IDX 41 68 42 69 43 70 44 71 45 72 68 73 69 74 77 75 70 76 76 77
REMARK SMILES IDX 71 78 72 79 73 80 74 81 75 82 54 83 55 84 63 85 56 86 62 87
REMARK SMILES IDX 57 88 58 89 59 90 60 91 61 92
REMARK H PARENT 8 19 8 20 82 48 52 59
REMARK Flexibility Score: inf
ROOT
ATOM      1  C   UNL A   1      39.250  22.148  26.611  1.00  0.00     0.202 C 
ENDROOT
BRANCH   1   2
ATOM      2  C   UNL A   1      38.480  21.523  25.451  1.00  0.00     0.261 C 
BRANCH   2   3
ATOM      3  O   UNL A   1      37.061  21.677  25.644  1.00  0.00    -0.463 OA
BRANCH   3   4
ATOM      4  C   UNL A   1      36.567  22.870  25.261  1.00  0.00     0.313 C 
ATOM      5  O   UNL A   1      37.028  23.543  24.344  1.00  0.00    -0.252 OA
BRANCH   4   6
ATOM      6  C   UNL A   1      35.322  23.287  25.986  1.00  0.00     0.150 C 
ATOM      7  C   UNL A   1      34.116  24.028  25.417  1.00  0.00     0.127 C 
ATOM      8  C   UNL A   1      33.129  23.833  26.589  1.00  0.00     0.186 C 
ATOM      9  O   UNL A   1      33.443  22.583  27.231  1.00  0.00    -0.378 OA
ATOM     10  C   UNL A   1      34.733  22.150  26.784  1.00  0.00     0.177 C 
BRANCH   7  11
ATOM     11  N   UNL A   1      33.403  23.716  24.146  1.00  0.00    -0.332 N 
BRANCH  11  12
ATOM     12  C   UNL A   1      33.586  22.402  23.505  1.00  0.00     0.120 C 
BRANCH  12  13
ATOM     13  C   UNL A   1      32.538  21.354  23.890  1.00  0.00     0.018 C 
ATOM     14  C   UNL A   1      33.146  20.020  24.303  1.00  0.00     0.006 C 
ENDBRANCH  12  13
ENDBRANCH  11  12
BRANCH  11  15
ATOM     15  C   UNL A   1      32.314  24.580  23.873  1.00  0.00     0.278 C 
ATOM     16  O   UNL A   1      31.151  24.145  23.879  1.00  0.00    -0.268 OA
BRANCH  15  17
ATOM     17  C   UNL A   1      32.501  26.073  23.502  1.00  0.00     0.362 C 
BRANCH  17  18
ATOM     18  N   UNL A   1      31.507  26.895  24.213  1.00  0.00    -0.334 N 
ATOM     19  H   UNL A   1      30.814  26.264  24.618  1.00  0.00     0.347 HD
ATOM     20  H   UNL A   1      31.134  27.537  23.513  1.00  0.00     0.347 HD
BRANCH  18  21
ATOM     21  C   UNL A   1      32.023  27.754  25.301  1.00  0.00     0.088 C 
ATOM     22  C   UNL A   1      31.516  29.200  25.176  1.00  0.00     0.078 C 
ATOM     23  C   UNL A   1      31.453  27.199  26.622  1.00  0.00     0.078 C 
ATOM     24  C   UNL A   1      33.560  27.760  25.366  1.00  0.00     0.078 C 
ENDBRANCH  18  21
ENDBRANCH  17  18
ENDBRANCH  15  17
ENDBRANCH  11  15
ENDBRANCH   7  11
ENDBRANCH   4   6
ENDBRANCH   3   4
ENDBRANCH   2   3
ENDBRANCH   1   2
BRANCH   1  25
ATOM     25  O   UNL A   1      40.391  21.410  27.055  1.00  0.00    -0.374 OA
BRANCH  25  26
ATOM     26  C   UNL A   1      41.470  21.239  26.137  1.00  0.00     0.202 C 
BRANCH  26  27
ATOM     27  C   UNL A   1      42.783  21.959  26.461  1.00  0.00     0.261 C 
BRANCH  27  28
ATOM     28  O   UNL A   1      42.627  23.113  27.303  1.00  0.00    -0.460 OA
BRANCH  28  29
ATOM     29  C   UNL A   1      42.992  24.288  26.725  1.00  0.00     0.338 C 
ATOM     30  O   UNL A   1      43.681  24.409  25.725  1.00  0.00    -0.246 OA
BRANCH  29  31
ATOM     31  C   UNL A   1      42.430  25.465  27.438  1.00  0.00     0.060 A 
ATOM     32  C   UNL A   1      43.182  26.647  27.446  1.00  0.00     0.016 A 
ATOM     33  C   UNL A   1      41.268  25.394  28.204  1.00  0.00     0.016 A 
ATOM     34  C   UNL A   1      42.856  27.690  28.317  1.00  0.00     0.010 A 
ATOM     35  C   UNL A   1      40.950  26.427  29.086  1.00  0.00     0.010 A 
ATOM     36  C   UNL A   1      41.782  27.548  29.199  1.00  0.00    -0.014 A 
BRANCH  36  37
ATOM     37  C   UNL A   1      41.575  28.499  30.317  1.00  0.00     0.031 A 
ATOM     38  C   UNL A   1      42.353  28.337  31.601  1.00  0.00     0.074 A 
ATOM     39  C   UNL A   1      40.600  29.420  30.228  1.00  0.00     0.049 A 
ATOM     40  N   UNL A   1      42.341  29.090  32.672  1.00  0.00    -0.248 NA
ATOM     41  C   UNL A   1      43.238  27.165  31.708  1.00  0.00     0.031 C 
ATOM     42  C   UNL A   1      39.716  29.604  29.075  1.00  0.00     0.029 A 
ATOM     43  N   UNL A   1      40.159  30.342  31.140  1.00  0.00    -0.354 N 
ATOM     44  C   UNL A   1      43.221  28.493  33.573  1.00  0.00     0.074 A 
ATOM     45  C   UNL A   1      43.727  27.298  32.935  1.00  0.00     0.031 C 
ATOM     46  C   UNL A   1      38.801  30.540  29.372  1.00  0.00     0.029 A 
ATOM     47  C   UNL A   1      39.058  31.044  30.718  1.00  0.00     0.049 A 
ATOM     48  H   UNL A   1      40.591  30.486  32.013  1.00  0.00     0.167 HD
ATOM     49  C   UNL A   1      43.574  28.916  34.811  1.00  0.00     0.031 A 
ATOM     50  C   UNL A   1      38.343  31.998  31.340  1.00  0.00     0.031 A 
ATOM     51  C   UNL A   1      43.050  30.110  35.427  1.00  0.00     0.049 A 
ATOM     52  C   UNL A   1      38.807  32.503  32.675  1.00  0.00     0.074 A 
ATOM     53  C   UNL A   1      43.449  30.717  36.606  1.00  0.00     0.029 A 
ATOM     54  N   UNL A   1      41.999  30.862  34.928  1.00  0.00    -0.354 N 
ATOM     55  N   UNL A   1      39.780  32.053  33.431  1.00  0.00    -0.248 NA
ATOM     56  C   UNL A   1      38.115  33.681  33.215  1.00  0.00     0.031 C 
ATOM     57  C   UNL A   1      42.603  31.803  36.848  1.00  0.00     0.029 A 
ATOM     58  C   UNL A   1      41.715  31.908  35.789  1.00  0.00     0.049 A 
ATOM     59  H   UNL A   1      41.525  30.679  34.085  1.00  0.00     0.167 HD
ATOM     60  C   UNL A   1      39.844  32.918  34.516  1.00  0.00     0.074 A 
ATOM     61  C   UNL A   1      38.818  33.920  34.313  1.00  0.00     0.031 C 
ATOM     62  C   UNL A   1      40.685  32.892  35.580  1.00  0.00     0.031 A 
BRANCH  49  63
ATOM     63  C   UNL A   1      44.589  28.121  35.597  1.00  0.00    -0.014 A 
ATOM     64  C   UNL A   1      44.183  27.105  36.482  1.00  0.00     0.010 A 
ATOM     65  C   UNL A   1      45.962  28.278  35.329  1.00  0.00     0.010 A 
ATOM     66  C   UNL A   1      45.129  26.266  37.082  1.00  0.00     0.020 A 
ATOM     67  C   UNL A   1      46.910  27.427  35.909  1.00  0.00     0.020 A 
ATOM     68  C   UNL A   1      46.485  26.425  36.784  1.00  0.00     0.054 A 
BRANCH  68  69
ATOM     69  S   UNL A   1      47.678  25.256  37.497  1.00  0.00     0.124 S 
ATOM     70  O   UNL A   1      48.007  24.420  36.346  1.00  0.00    -0.237 OA
ATOM     71  O   UNL A   1      48.750  26.134  37.960  1.00  0.00    -0.237 OA
ATOM     72  O   UNL A   1      46.922  24.589  38.555  1.00  0.00    -0.744 OA
ENDBRANCH  68  69
ENDBRANCH  49  63
BRANCH  50  73
ATOM     73  C   UNL A   1      37.157  32.581  30.663  1.00  0.00    -0.014 A 
ATOM     74  C   UNL A   1      37.294  33.701  29.826  1.00  0.00     0.010 A 
ATOM     75  C   UNL A   1      35.891  31.988  30.822  1.00  0.00     0.010 A 
ATOM     76  C   UNL A   1      36.179  34.238  29.180  1.00  0.00     0.020 A 
ATOM     77  C   UNL A   1      34.778  32.510  30.159  1.00  0.00     0.020 A 
ATOM     78  C   UNL A   1      34.927  33.640  29.353  1.00  0.00     0.054 A 
BRANCH  78  79
ATOM     79  S   UNL A   1      33.501  34.329  28.470  1.00  0.00     0.124 S 
ATOM     80  O   UNL A   1      34.128  35.341  27.627  1.00  0.00    -0.237 OA
ATOM     81  O   UNL A   1      32.968  33.162  27.770  1.00  0.00    -0.237 OA
ATOM     82  O   UNL A   1      32.653  34.843  29.542  1.00  0.00    -0.744 OA
ENDBRANCH  78  79
ENDBRANCH  50  73
BRANCH  62  83
ATOM     83  C   UNL A   1      40.549  33.997  36.591  1.00  0.00    -0.014 A 
ATOM     84  C   UNL A   1      41.327  35.165  36.502  1.00  0.00     0.010 A 
ATOM     85  C   UNL A   1      39.607  33.875  37.628  1.00  0.00     0.010 A 
ATOM     86  C   UNL A   1      41.195  36.173  37.462  1.00  0.00     0.020 A 
ATOM     87  C   UNL A   1      39.453  34.892  38.572  1.00  0.00     0.020 A 
ATOM     88  C   UNL A   1      40.263  36.027  38.493  1.00  0.00     0.054 A 
BRANCH  88  89
ATOM     89  S   UNL A   1      40.098  37.357  39.715  1.00  0.00     0.124 S 
ATOM     90  O   UNL A   1      38.793  37.919  39.376  1.00  0.00    -0.237 OA
ATOM     91  O   UNL A   1      40.160  36.637  40.984  1.00  0.00    -0.237 OA
ATOM     92  O   UNL A   1      41.240  38.224  39.440  1.00  0.00    -0.744 OA
ENDBRANCH  88  89
ENDBRANCH  62  83
ENDBRANCH  36  37
ENDBRANCH  29  31
ENDBRANCH  28  29
ENDBRANCH  27  28
ENDBRANCH  26  27
ENDBRANCH  25  26
ENDBRANCH   1  25
TORSDOF 24
ENDMDL
