MODEL 1
REMARK VINA RESULT:     -10.8      0.000      0.000
REMARK SMILES Cc1cc(C(=O)OCCOCCOC(=O)c2ccc(-c3c4nc(c(-c5ccc(S(=O)(=O)[O-])cc5)c5ccc([nH]5)c(-c5ccc(S(=O)(=O)[O-])cc5)c5nc(c(-c6ccc(S(=O)(=O)[O-])cc6)c6ccc3[nH]6)C=C5)C=C4)cc2)nc(N2CCN(c3ccccc3Cl)CC2)n1
REMARK SMILES IDX 11 1 10 2 9 3 8 4 7 5 5 6 6 7 4 8 1 9 2 10 3 11 91 12 77 13
REMARK SMILES IDX 76 14 78 15 79 16 90 17 80 18 89 19 81 20 82 21 83 22 87 23
REMARK SMILES IDX 84 24 86 25 88 26 85 27 12 28 13 29 14 30 15 31 16 32 17 33
REMARK SMILES IDX 75 34 18 35 74 36 19 37 20 38 21 39 68 40 22 41 73 42 67 43
REMARK SMILES IDX 69 44 23 45 72 46 66 47 65 48 24 50 54 51 35 52 53 53 36 54
REMARK SMILES IDX 39 55 52 56 70 57 37 58 38 59 51 61 71 62 40 63 25 64 26 65
REMARK SMILES IDX 34 66 27 67 33 68 28 69 29 70 30 71 31 72 32 73 55 74 56 75
REMARK SMILES IDX 64 76 57 77 63 78 58 79 59 80 60 81 61 82 62 83 41 84 42 85
REMARK SMILES IDX 50 86 43 87 49 88 44 89 45 90 46 91 47 92 48 93
REMARK H PARENT 69 49 39 60
REMARK Flexibility Score: inf
ROOT
ATOM      1  C   UNL A   1      33.923  29.714  26.963  1.00  0.00     0.202 C 
ENDROOT
BRANCH   1   2
ATOM      2  O   UNL A   1      33.616  28.347  27.242  1.00  0.00    -0.374 OA
BRANCH   2   3
ATOM      3  C   UNL A   1      32.537  27.764  26.508  1.00  0.00     0.202 C 
BRANCH   3   4
ATOM      4  C   UNL A   1      32.873  26.484  25.738  1.00  0.00     0.261 C 
BRANCH   4   5
ATOM      5  O   UNL A   1      31.697  25.677  25.554  1.00  0.00    -0.459 OA
BRANCH   5   6
ATOM      6  C   UNL A   1      31.730  24.480  26.191  1.00  0.00     0.357 C 
ATOM      7  O   UNL A   1      31.186  24.205  27.251  1.00  0.00    -0.244 OA
BRANCH   6   8
ATOM      8  C   UNL A   1      32.400  23.476  25.327  1.00  0.00     0.154 A 
ATOM      9  C   UNL A   1      31.992  21.243  22.376  1.00  0.00     0.067 C 
ATOM     10  C   UNL A   1      32.549  21.987  23.553  1.00  0.00     0.044 A 
ATOM     11  C   UNL A   1      31.759  22.843  24.289  1.00  0.00     0.059 A 
ATOM     12  N   UNL A   1      33.867  21.811  23.813  1.00  0.00    -0.218 NA
ATOM     13  C   UNL A   1      34.383  22.438  24.879  1.00  0.00     0.226 A 
ATOM     14  N   UNL A   1      33.684  23.253  25.660  1.00  0.00    -0.206 NA
BRANCH  13  15
ATOM     15  N   UNL A   1      35.695  22.288  25.215  1.00  0.00    -0.337 N 
ATOM     16  C   UNL A   1      36.267  20.956  25.347  1.00  0.00     0.141 C 
ATOM     17  C   UNL A   1      36.291  23.351  26.023  1.00  0.00     0.141 C 
ATOM     18  C   UNL A   1      37.786  21.032  25.045  1.00  0.00     0.138 C 
ATOM     19  C   UNL A   1      37.817  23.410  25.790  1.00  0.00     0.138 C 
ATOM     20  N   UNL A   1      38.403  22.062  25.893  1.00  0.00    -0.367 N 
BRANCH  20  21
ATOM     21  C   UNL A   1      39.652  21.886  26.450  1.00  0.00     0.056 A 
ATOM     22  C   UNL A   1      40.427  20.764  26.118  1.00  0.00     0.027 A 
ATOM     23  C   UNL A   1      40.191  22.792  27.389  1.00  0.00     0.064 A 
ATOM     24  C   UNL A   1      41.681  20.547  26.695  1.00  0.00     0.002 A 
ATOM     25  C   UNL A   1      41.442  22.573  27.974  1.00  0.00     0.023 A 
ATOM     26  Cl  UNL A   1      39.301  24.179  27.931  1.00  0.00    -0.082 Cl
ATOM     27  C   UNL A   1      42.187  21.449  27.627  1.00  0.00     0.002 A 
ENDBRANCH  20  21
ENDBRANCH  13  15
ENDBRANCH   6   8
ENDBRANCH   5   6
ENDBRANCH   4   5
ENDBRANCH   3   4
ENDBRANCH   2   3
ENDBRANCH   1   2
BRANCH   1  28
ATOM     28  C   UNL A   1      35.087  30.317  27.760  1.00  0.00     0.261 C 
BRANCH  28  29
ATOM     29  O   UNL A   1      36.071  29.325  28.108  1.00  0.00    -0.460 OA
BRANCH  29  30
ATOM     30  C   UNL A   1      37.003  29.737  29.001  1.00  0.00     0.338 C 
ATOM     31  O   UNL A   1      36.802  30.275  30.081  1.00  0.00    -0.246 OA
BRANCH  30  32
ATOM     32  C   UNL A   1      38.341  29.280  28.581  1.00  0.00     0.060 A 
ATOM     33  C   UNL A   1      39.218  28.841  29.582  1.00  0.00     0.016 A 
ATOM     34  C   UNL A   1      38.758  29.330  27.249  1.00  0.00     0.016 A 
ATOM     35  C   UNL A   1      40.530  28.496  29.262  1.00  0.00     0.010 A 
ATOM     36  C   UNL A   1      40.078  28.991  26.931  1.00  0.00     0.010 A 
ATOM     37  C   UNL A   1      40.979  28.605  27.939  1.00  0.00    -0.014 A 
BRANCH  37  38
ATOM     38  C   UNL A   1      42.424  28.444  27.640  1.00  0.00     0.031 A 
ATOM     39  C   UNL A   1      43.350  29.611  27.857  1.00  0.00     0.074 A 
ATOM     40  C   UNL A   1      42.911  27.267  27.207  1.00  0.00     0.049 A 
ATOM     41  N   UNL A   1      44.637  29.697  27.638  1.00  0.00    -0.248 NA
ATOM     42  C   UNL A   1      42.747  30.841  28.395  1.00  0.00     0.031 C 
ATOM     43  C   UNL A   1      42.126  26.050  26.998  1.00  0.00     0.029 A 
ATOM     44  N   UNL A   1      44.190  26.904  26.863  1.00  0.00    -0.354 N 
ATOM     45  C   UNL A   1      44.997  30.989  28.005  1.00  0.00     0.074 A 
ATOM     46  C   UNL A   1      43.789  31.660  28.433  1.00  0.00     0.031 C 
ATOM     47  C   UNL A   1      42.941  25.077  26.553  1.00  0.00     0.029 A 
ATOM     48  C   UNL A   1      44.296  25.608  26.417  1.00  0.00     0.049 A 
ATOM     49  H   UNL A   1      44.959  27.515  26.930  1.00  0.00     0.167 HD
ATOM     50  C   UNL A   1      46.223  31.564  27.993  1.00  0.00     0.031 A 
ATOM     51  C   UNL A   1      45.358  24.934  25.935  1.00  0.00     0.031 A 
ATOM     52  C   UNL A   1      47.424  30.900  27.556  1.00  0.00     0.049 A 
ATOM     53  C   UNL A   1      46.698  25.618  25.863  1.00  0.00     0.074 A 
ATOM     54  C   UNL A   1      48.715  31.398  27.517  1.00  0.00     0.029 A 
ATOM     55  N   UNL A   1      47.481  29.600  27.079  1.00  0.00    -0.354 N 
ATOM     56  N   UNL A   1      47.025  26.835  26.232  1.00  0.00    -0.248 NA
ATOM     57  C   UNL A   1      47.816  24.836  25.314  1.00  0.00     0.031 C 
ATOM     58  C   UNL A   1      49.545  30.415  26.968  1.00  0.00     0.029 A 
ATOM     59  C   UNL A   1      48.781  29.286  26.720  1.00  0.00     0.049 A 
ATOM     60  H   UNL A   1      46.711  28.990  27.007  1.00  0.00     0.167 HD
ATOM     61  C   UNL A   1      48.388  26.952  25.985  1.00  0.00     0.074 A 
ATOM     62  C   UNL A   1      48.829  25.681  25.448  1.00  0.00     0.031 C 
ATOM     63  C   UNL A   1      49.204  28.016  26.188  1.00  0.00     0.031 A 
BRANCH  50  64
ATOM     64  C   UNL A   1      46.326  32.996  28.441  1.00  0.00    -0.014 A 
ATOM     65  C   UNL A   1      46.215  34.055  27.521  1.00  0.00     0.010 A 
ATOM     66  C   UNL A   1      46.486  33.291  29.807  1.00  0.00     0.010 A 
ATOM     67  C   UNL A   1      46.292  35.380  27.957  1.00  0.00     0.020 A 
ATOM     68  C   UNL A   1      46.539  34.615  30.250  1.00  0.00     0.020 A 
ATOM     69  C   UNL A   1      46.456  35.652  29.318  1.00  0.00     0.054 A 
BRANCH  69  70
ATOM     70  S   UNL A   1      46.521  37.382  29.860  1.00  0.00     0.124 S 
ATOM     71  O   UNL A   1      47.269  37.278  31.110  1.00  0.00    -0.237 OA
ATOM     72  O   UNL A   1      47.225  38.037  28.759  1.00  0.00    -0.237 OA
ATOM     73  O   UNL A   1      45.115  37.754  30.004  1.00  0.00    -0.744 OA
ENDBRANCH  69  70
ENDBRANCH  50  64
BRANCH  51  74
ATOM     74  C   UNL A   1      45.198  23.534  25.456  1.00  0.00    -0.014 A 
ATOM     75  C   UNL A   1      45.659  22.451  26.226  1.00  0.00     0.010 A 
ATOM     76  C   UNL A   1      44.592  23.279  24.211  1.00  0.00     0.010 A 
ATOM     77  C   UNL A   1      45.538  21.142  25.749  1.00  0.00     0.020 A 
ATOM     78  C   UNL A   1      44.444  21.971  23.744  1.00  0.00     0.020 A 
ATOM     79  C   UNL A   1      44.931  20.910  24.511  1.00  0.00     0.054 A 
BRANCH  79  80
ATOM     80  S   UNL A   1      44.746  19.202  23.928  1.00  0.00     0.124 S 
ATOM     81  O   UNL A   1      46.026  18.612  24.309  1.00  0.00    -0.237 OA
ATOM     82  O   UNL A   1      43.584  18.736  24.679  1.00  0.00    -0.237 OA
ATOM     83  O   UNL A   1      44.529  19.355  22.491  1.00  0.00    -0.744 OA
ENDBRANCH  79  80
ENDBRANCH  51  74
BRANCH  63  84
ATOM     84  C   UNL A   1      50.665  27.846  25.861  1.00  0.00    -0.014 A 
ATOM     85  C   UNL A   1      51.167  28.144  24.582  1.00  0.00     0.010 A 
ATOM     86  C   UNL A   1      51.557  27.435  26.869  1.00  0.00     0.010 A 
ATOM     87  C   UNL A   1      52.530  28.004  24.307  1.00  0.00     0.020 A 
ATOM     88  C   UNL A   1      52.925  27.319  26.606  1.00  0.00     0.020 A 
ATOM     89  C   UNL A   1      53.400  27.591  25.322  1.00  0.00     0.054 A 
BRANCH  89  90
ATOM     90  S   UNL A   1      55.172  27.458  24.953  1.00  0.00     0.124 S 
ATOM     91  O   UNL A   1      55.409  28.665  24.165  1.00  0.00    -0.237 OA
ATOM     92  O   UNL A   1      55.778  27.446  26.283  1.00  0.00    -0.237 OA
ATOM     93  O   UNL A   1      55.279  26.202  24.215  1.00  0.00    -0.744 OA
ENDBRANCH  89  90
ENDBRANCH  63  84
ENDBRANCH  37  38
ENDBRANCH  30  32
ENDBRANCH  29  30
ENDBRANCH  28  29
ENDBRANCH   1  28
TORSDOF 19
ENDMDL
MODEL 2
REMARK VINA RESULT:     -10.6      0.600      7.978
REMARK SMILES Cc1cc(C(=O)OCCOCCOC(=O)c2ccc(-c3c4nc(c(-c5ccc(S(=O)(=O)[O-])cc5)c5ccc([nH]5)c(-c5ccc(S(=O)(=O)[O-])cc5)c5nc(c(-c6ccc(S(=O)(=O)[O-])cc6)c6ccc3[nH]6)C=C5)C=C4)cc2)nc(N2CCN(c3ccccc3Cl)CC2)n1
REMARK SMILES IDX 11 1 10 2 9 3 8 4 7 5 5 6 6 7 4 8 1 9 2 10 3 11 91 12 77 13
REMARK SMILES IDX 76 14 78 15 79 16 90 17 80 18 89 19 81 20 82 21 83 22 87 23
REMARK SMILES IDX 84 24 86 25 88 26 85 27 12 28 13 29 14 30 15 31 16 32 17 33
REMARK SMILES IDX 75 34 18 35 74 36 19 37 20 38 21 39 68 40 22 41 73 42 67 43
REMARK SMILES IDX 69 44 23 45 72 46 66 47 65 48 24 50 54 51 35 52 53 53 36 54
REMARK SMILES IDX 39 55 52 56 70 57 37 58 38 59 51 61 71 62 40 63 25 64 26 65
REMARK SMILES IDX 34 66 27 67 33 68 28 69 29 70 30 71 31 72 32 73 55 74 56 75
REMARK SMILES IDX 64 76 57 77 63 78 58 79 59 80 60 81 61 82 62 83 41 84 42 85
REMARK SMILES IDX 50 86 43 87 49 88 44 89 45 90 46 91 47 92 48 93
REMARK H PARENT 69 49 39 60
REMARK Flexibility Score: inf
ROOT
ATOM      1  C   UNL A   1      34.251  30.597  27.225  1.00  0.00     0.202 C 
ENDROOT
BRANCH   1   2
ATOM      2  O   UNL A   1      33.472  29.402  27.137  1.00  0.00    -0.374 OA
BRANCH   2   3
ATOM      3  C   UNL A   1      33.514  28.694  25.897  1.00  0.00     0.202 C 
BRANCH   3   4
ATOM      4  C   UNL A   1      33.638  27.171  26.006  1.00  0.00     0.261 C 
BRANCH   4   5
ATOM      5  O   UNL A   1      32.600  26.521  25.253  1.00  0.00    -0.459 OA
BRANCH   5   6
ATOM      6  C   UNL A   1      32.111  25.392  25.826  1.00  0.00     0.357 C 
ATOM      7  O   UNL A   1      31.234  25.329  26.676  1.00  0.00    -0.244 OA
BRANCH   6   8
ATOM      8  C   UNL A   1      32.686  24.202  25.149  1.00  0.00     0.154 A 
ATOM      9  C   UNL A   1      32.072  21.556  22.603  1.00  0.00     0.067 C 
ATOM     10  C   UNL A   1      32.696  22.433  23.647  1.00  0.00     0.044 A 
ATOM     11  C   UNL A   1      31.988  23.467  24.221  1.00  0.00     0.059 A 
ATOM     12  N   UNL A   1      33.992  22.185  23.951  1.00  0.00    -0.218 NA
ATOM     13  C   UNL A   1      34.565  22.930  24.906  1.00  0.00     0.226 A 
ATOM     14  N   UNL A   1      33.944  23.923  25.532  1.00  0.00    -0.206 NA
BRANCH  13  15
ATOM     15  N   UNL A   1      35.859  22.721  25.280  1.00  0.00    -0.337 N 
ATOM     16  C   UNL A   1      36.332  21.370  25.545  1.00  0.00     0.141 C 
ATOM     17  C   UNL A   1      36.518  23.810  25.998  1.00  0.00     0.141 C 
ATOM     18  C   UNL A   1      37.856  21.311  25.268  1.00  0.00     0.138 C 
ATOM     19  C   UNL A   1      38.048  23.741  25.791  1.00  0.00     0.138 C 
ATOM     20  N   UNL A   1      38.535  22.371  26.029  1.00  0.00    -0.367 N 
BRANCH  20  21
ATOM     21  C   UNL A   1      39.760  22.160  26.624  1.00  0.00     0.056 A 
ATOM     22  C   UNL A   1      40.483  20.984  26.368  1.00  0.00     0.027 A 
ATOM     23  C   UNL A   1      40.325  23.084  27.529  1.00  0.00     0.064 A 
ATOM     24  C   UNL A   1      41.712  20.733  26.986  1.00  0.00     0.002 A 
ATOM     25  C   UNL A   1      41.550  22.832  28.154  1.00  0.00     0.023 A 
ATOM     26  Cl  UNL A   1      39.497  24.541  27.979  1.00  0.00    -0.082 Cl
ATOM     27  C   UNL A   1      42.243  21.655  27.883  1.00  0.00     0.002 A 
ENDBRANCH  20  21
ENDBRANCH  13  15
ENDBRANCH   6   8
ENDBRANCH   5   6
ENDBRANCH   4   5
ENDBRANCH   3   4
ENDBRANCH   2   3
ENDBRANCH   1   2
BRANCH   1  28
ATOM     28  C   UNL A   1      35.343  30.609  28.303  1.00  0.00     0.261 C 
BRANCH  28  29
ATOM     29  O   UNL A   1      36.433  29.727  27.973  1.00  0.00    -0.460 OA
BRANCH  29  30
ATOM     30  C   UNL A   1      37.169  29.313  29.032  1.00  0.00     0.338 C 
ATOM     31  O   UNL A   1      36.764  29.062  30.158  1.00  0.00    -0.246 OA
BRANCH  30  32
ATOM     32  C   UNL A   1      38.548  29.014  28.602  1.00  0.00     0.060 A 
ATOM     33  C   UNL A   1      39.448  28.569  29.579  1.00  0.00     0.016 A 
ATOM     34  C   UNL A   1      38.975  29.216  27.287  1.00  0.00     0.016 A 
ATOM     35  C   UNL A   1      40.790  28.370  29.257  1.00  0.00     0.010 A 
ATOM     36  C   UNL A   1      40.324  29.024  26.968  1.00  0.00     0.010 A 
ATOM     37  C   UNL A   1      41.244  28.632  27.957  1.00  0.00    -0.014 A 
BRANCH  37  38
ATOM     38  C   UNL A   1      42.700  28.627  27.674  1.00  0.00     0.031 A 
ATOM     39  C   UNL A   1      43.334  27.378  27.120  1.00  0.00     0.074 A 
ATOM     40  C   UNL A   1      43.447  29.728  27.879  1.00  0.00     0.049 A 
ATOM     41  N   UNL A   1      44.587  27.148  26.824  1.00  0.00    -0.248 NA
ATOM     42  C   UNL A   1      42.435  26.241  26.863  1.00  0.00     0.031 C 
ATOM     43  C   UNL A   1      42.945  31.012  28.372  1.00  0.00     0.029 A 
ATOM     44  N   UNL A   1      44.791  29.939  27.700  1.00  0.00    -0.354 N 
ATOM     45  C   UNL A   1      44.630  25.841  26.352  1.00  0.00     0.074 A 
ATOM     46  C   UNL A   1      43.282  25.319  26.428  1.00  0.00     0.031 C 
ATOM     47  C   UNL A   1      43.973  31.874  28.463  1.00  0.00     0.029 A 
ATOM     48  C   UNL A   1      45.206  31.198  28.066  1.00  0.00     0.049 A 
ATOM     49  H   UNL A   1      45.401  29.253  27.344  1.00  0.00     0.167 HD
ATOM     50  C   UNL A   1      45.692  25.140  25.892  1.00  0.00     0.031 A 
ATOM     51  C   UNL A   1      46.441  31.737  28.097  1.00  0.00     0.031 A 
ATOM     52  C   UNL A   1      47.036  25.654  25.827  1.00  0.00     0.049 A 
ATOM     53  C   UNL A   1      47.619  30.912  27.648  1.00  0.00     0.074 A 
ATOM     54  C   UNL A   1      48.177  25.022  25.366  1.00  0.00     0.029 A 
ATOM     55  N   UNL A   1      47.418  26.921  26.239  1.00  0.00    -0.354 N 
ATOM     56  N   UNL A   1      47.639  29.683  27.186  1.00  0.00    -0.248 NA
ATOM     57  C   UNL A   1      48.942  31.549  27.719  1.00  0.00     0.031 C 
ATOM     58  C   UNL A   1      49.260  25.889  25.547  1.00  0.00     0.029 A 
ATOM     59  C   UNL A   1      48.782  27.081  26.067  1.00  0.00     0.049 A 
ATOM     60  H   UNL A   1      46.810  27.606  26.601  1.00  0.00     0.167 HD
ATOM     61  C   UNL A   1      48.970  29.412  26.887  1.00  0.00     0.074 A 
ATOM     62  C   UNL A   1      49.724  30.607  27.206  1.00  0.00     0.031 C 
ATOM     63  C   UNL A   1      49.519  28.277  26.389  1.00  0.00     0.031 A 
BRANCH  50  64
ATOM     64  C   UNL A   1      45.453  23.723  25.445  1.00  0.00    -0.014 A 
ATOM     65  C   UNL A   1      45.193  23.421  24.095  1.00  0.00     0.010 A 
ATOM     66  C   UNL A   1      45.537  22.673  26.377  1.00  0.00     0.010 A 
ATOM     67  C   UNL A   1      44.993  22.098  23.694  1.00  0.00     0.020 A 
ATOM     68  C   UNL A   1      45.362  21.347  25.975  1.00  0.00     0.020 A 
ATOM     69  C   UNL A   1      45.077  21.069  24.636  1.00  0.00     0.054 A 
BRANCH  69  70
ATOM     70  S   UNL A   1      44.845  19.358  24.081  1.00  0.00     0.124 S 
ATOM     71  O   UNL A   1      43.797  18.888  24.982  1.00  0.00    -0.237 OA
ATOM     72  O   UNL A   1      44.445  19.525  22.685  1.00  0.00    -0.237 OA
ATOM     73  O   UNL A   1      46.158  18.747  24.280  1.00  0.00    -0.744 OA
ENDBRANCH  69  70
ENDBRANCH  50  64
BRANCH  51  74
ATOM     74  C   UNL A   1      46.637  33.125  28.595  1.00  0.00    -0.014 A 
ATOM     75  C   UNL A   1      46.794  33.384  29.967  1.00  0.00     0.010 A 
ATOM     76  C   UNL A   1      46.651  34.203  27.690  1.00  0.00     0.010 A 
ATOM     77  C   UNL A   1      46.939  34.696  30.428  1.00  0.00     0.020 A 
ATOM     78  C   UNL A   1      46.823  35.514  28.143  1.00  0.00     0.020 A 
ATOM     79  C   UNL A   1      46.953  35.753  29.513  1.00  0.00     0.054 A 
BRANCH  79  80
ATOM     80  S   UNL A   1      47.183  37.445  30.126  1.00  0.00     0.124 S 
ATOM     81  O   UNL A   1      47.984  37.225  31.326  1.00  0.00    -0.237 OA
ATOM     82  O   UNL A   1      47.873  38.092  29.013  1.00  0.00    -0.237 OA
ATOM     83  O   UNL A   1      45.818  37.912  30.358  1.00  0.00    -0.744 OA
ENDBRANCH  79  80
ENDBRANCH  51  74
BRANCH  63  84
ATOM     84  C   UNL A   1      51.002  28.279  26.124  1.00  0.00    -0.014 A 
ATOM     85  C   UNL A   1      51.914  27.797  27.079  1.00  0.00     0.010 A 
ATOM     86  C   UNL A   1      51.483  28.717  24.876  1.00  0.00     0.010 A 
ATOM     87  C   UNL A   1      53.284  27.783  26.803  1.00  0.00     0.020 A 
ATOM     88  C   UNL A   1      52.850  28.680  24.587  1.00  0.00     0.020 A 
ATOM     89  C   UNL A   1      53.743  28.226  25.558  1.00  0.00     0.054 A 
BRANCH  89  90
ATOM     90  S   UNL A   1      55.522  28.158  25.207  1.00  0.00     0.124 S 
ATOM     91  O   UNL A   1      55.801  26.730  25.328  1.00  0.00    -0.237 OA
ATOM     92  O   UNL A   1      55.604  28.704  23.854  1.00  0.00    -0.237 OA
ATOM     93  O   UNL A   1      56.112  28.998  26.247  1.00  0.00    -0.744 OA
ENDBRANCH  89  90
ENDBRANCH  63  84
ENDBRANCH  37  38
ENDBRANCH  30  32
ENDBRANCH  29  30
ENDBRANCH  28  29
ENDBRANCH   1  28
TORSDOF 19
ENDMDL
MODEL 3
REMARK VINA RESULT:     -10.2      7.009     12.865
REMARK SMILES Cc1cc(C(=O)OCCOCCOC(=O)c2ccc(-c3c4nc(c(-c5ccc(S(=O)(=O)[O-])cc5)c5ccc([nH]5)c(-c5ccc(S(=O)(=O)[O-])cc5)c5nc(c(-c6ccc(S(=O)(=O)[O-])cc6)c6ccc3[nH]6)C=C5)C=C4)cc2)nc(N2CCN(c3ccccc3Cl)CC2)n1
REMARK SMILES IDX 11 1 10 2 9 3 8 4 7 5 5 6 6 7 4 8 1 9 2 10 3 11 91 12 77 13
REMARK SMILES IDX 76 14 78 15 79 16 90 17 80 18 89 19 81 20 82 21 83 22 87 23
REMARK SMILES IDX 84 24 86 25 88 26 85 27 12 28 13 29 14 30 15 31 16 32 17 33
REMARK SMILES IDX 75 34 18 35 74 36 19 37 20 38 21 39 68 40 22 41 73 42 67 43
REMARK SMILES IDX 69 44 23 45 72 46 66 47 65 48 24 50 54 51 35 52 53 53 36 54
REMARK SMILES IDX 39 55 52 56 70 57 37 58 38 59 51 61 71 62 40 63 25 64 26 65
REMARK SMILES IDX 34 66 27 67 33 68 28 69 29 70 30 71 31 72 32 73 55 74 56 75
REMARK SMILES IDX 64 76 57 77 63 78 58 79 59 80 60 81 61 82 62 83 41 84 42 85
REMARK SMILES IDX 50 86 43 87 49 88 44 89 45 90 46 91 47 92 48 93
REMARK H PARENT 69 49 39 60
REMARK Flexibility Score: inf
ROOT
ATOM      1  C   UNL A   1      43.966  27.033  26.308  1.00  0.00     0.202 C 
ENDROOT
BRANCH   1   2
ATOM      2  O   UNL A   1      44.381  26.159  27.359  1.00  0.00    -0.374 OA
BRANCH   2   3
ATOM      3  C   UNL A   1      43.718  24.896  27.449  1.00  0.00     0.202 C 
BRANCH   3   4
ATOM      4  C   UNL A   1      44.163  23.994  28.604  1.00  0.00     0.261 C 
BRANCH   4   5
ATOM      5  O   UNL A   1      43.360  22.802  28.656  1.00  0.00    -0.459 OA
BRANCH   5   6
ATOM      6  C   UNL A   1      42.042  22.999  28.398  1.00  0.00     0.357 C 
ATOM      7  O   UNL A   1      41.372  23.966  28.731  1.00  0.00    -0.244 OA
BRANCH   6   8
ATOM      8  C   UNL A   1      41.548  21.930  27.495  1.00  0.00     0.154 A 
ATOM      9  C   UNL A   1      42.322  18.608  26.001  1.00  0.00     0.067 C 
ATOM     10  C   UNL A   1      41.649  19.890  26.392  1.00  0.00     0.044 A 
ATOM     11  C   UNL A   1      42.286  20.809  27.198  1.00  0.00     0.059 A 
ATOM     12  N   UNL A   1      40.379  20.065  25.956  1.00  0.00    -0.218 NA
ATOM     13  C   UNL A   1      39.765  21.216  26.262  1.00  0.00     0.226 A 
ATOM     14  N   UNL A   1      40.319  22.168  27.004  1.00  0.00    -0.206 NA
BRANCH  13  15
ATOM     15  N   UNL A   1      38.495  21.470  25.836  1.00  0.00    -0.337 N 
ATOM     16  C   UNL A   1      37.851  20.574  24.888  1.00  0.00     0.141 C 
ATOM     17  C   UNL A   1      38.079  22.872  25.818  1.00  0.00     0.141 C 
ATOM     18  C   UNL A   1      36.316  20.650  25.093  1.00  0.00     0.138 C 
ATOM     19  C   UNL A   1      36.544  22.976  25.958  1.00  0.00     0.138 C 
ATOM     20  N   UNL A   1      35.880  22.052  25.022  1.00  0.00    -0.367 N 
BRANCH  20  21
ATOM     21  C   UNL A   1      34.698  22.411  24.409  1.00  0.00     0.056 A 
ATOM     22  C   UNL A   1      34.709  23.029  23.149  1.00  0.00     0.027 A 
ATOM     23  C   UNL A   1      33.442  22.207  25.020  1.00  0.00     0.064 A 
ATOM     24  C   UNL A   1      33.526  23.432  22.523  1.00  0.00     0.002 A 
ATOM     25  C   UNL A   1      32.258  22.617  24.400  1.00  0.00     0.023 A 
ATOM     26  Cl  UNL A   1      33.302  21.516  26.605  1.00  0.00    -0.082 Cl
ATOM     27  C   UNL A   1      32.301  23.230  23.150  1.00  0.00     0.002 A 
ENDBRANCH  20  21
ENDBRANCH  13  15
ENDBRANCH   6   8
ENDBRANCH   5   6
ENDBRANCH   4   5
ENDBRANCH   3   4
ENDBRANCH   2   3
ENDBRANCH   1   2
BRANCH   1  28
ATOM     28  C   UNL A   1      42.897  26.479  25.357  1.00  0.00     0.261 C 
BRANCH  28  29
ATOM     29  O   UNL A   1      41.653  27.195  25.471  1.00  0.00    -0.460 OA
BRANCH  29  30
ATOM     30  C   UNL A   1      40.708  26.577  26.220  1.00  0.00     0.338 C 
ATOM     31  O   UNL A   1      40.245  25.459  26.046  1.00  0.00    -0.246 OA
BRANCH  30  32
ATOM     32  C   UNL A   1      40.419  27.376  27.426  1.00  0.00     0.060 A 
ATOM     33  C   UNL A   1      40.960  28.667  27.492  1.00  0.00     0.016 A 
ATOM     34  C   UNL A   1      39.684  26.862  28.497  1.00  0.00     0.016 A 
ATOM     35  C   UNL A   1      40.810  29.431  28.649  1.00  0.00     0.010 A 
ATOM     36  C   UNL A   1      39.542  27.627  29.661  1.00  0.00     0.010 A 
ATOM     37  C   UNL A   1      40.132  28.900  29.754  1.00  0.00    -0.014 A 
BRANCH  37  38
ATOM     38  C   UNL A   1      40.159  29.625  31.048  1.00  0.00     0.031 A 
ATOM     39  C   UNL A   1      41.271  29.341  32.023  1.00  0.00     0.074 A 
ATOM     40  C   UNL A   1      39.224  30.547  31.342  1.00  0.00     0.049 A 
ATOM     41  N   UNL A   1      41.474  29.841  33.215  1.00  0.00    -0.248 NA
ATOM     42  C   UNL A   1      42.290  28.369  31.597  1.00  0.00     0.031 C 
ATOM     43  C   UNL A   1      38.121  30.944  30.466  1.00  0.00     0.029 A 
ATOM     44  N   UNL A   1      39.052  31.316  32.467  1.00  0.00    -0.354 N 
ATOM     45  C   UNL A   1      42.637  29.241  33.684  1.00  0.00     0.074 A 
ATOM     46  C   UNL A   1      43.080  28.319  32.660  1.00  0.00     0.031 C 
ATOM     47  C   UNL A   1      37.382  31.878  31.091  1.00  0.00     0.029 A 
ATOM     48  C   UNL A   1      37.940  32.123  32.420  1.00  0.00     0.049 A 
ATOM     49  H   UNL A   1      39.668  31.292  33.234  1.00  0.00     0.167 HD
ATOM     50  C   UNL A   1      43.283  29.442  34.856  1.00  0.00     0.031 A 
ATOM     51  C   UNL A   1      37.419  32.948  33.349  1.00  0.00     0.031 A 
ATOM     52  C   UNL A   1      42.836  30.351  35.880  1.00  0.00     0.049 A 
ATOM     53  C   UNL A   1      38.116  33.101  34.677  1.00  0.00     0.074 A 
ATOM     54  C   UNL A   1      43.430  30.631  37.099  1.00  0.00     0.029 A 
ATOM     55  N   UNL A   1      41.687  31.122  35.808  1.00  0.00    -0.354 N 
ATOM     56  N   UNL A   1      39.226  32.540  35.095  1.00  0.00    -0.248 NA
ATOM     57  C   UNL A   1      37.492  34.003  35.655  1.00  0.00     0.031 C 
ATOM     58  C   UNL A   1      42.611  31.533  37.786  1.00  0.00     0.029 A 
ATOM     59  C   UNL A   1      41.540  31.859  36.971  1.00  0.00     0.049 A 
ATOM     60  H   UNL A   1      41.067  31.143  35.043  1.00  0.00     0.167 HD
ATOM     61  C   UNL A   1      39.446  33.044  36.373  1.00  0.00     0.074 A 
ATOM     62  C   UNL A   1      38.363  33.963  36.654  1.00  0.00     0.031 C 
ATOM     63  C   UNL A   1      40.456  32.771  37.236  1.00  0.00     0.031 A 
BRANCH  50  64
ATOM     64  C   UNL A   1      44.532  28.643  35.111  1.00  0.00    -0.014 A 
ATOM     65  C   UNL A   1      45.798  29.140  34.753  1.00  0.00     0.010 A 
ATOM     66  C   UNL A   1      44.444  27.400  35.764  1.00  0.00     0.010 A 
ATOM     67  C   UNL A   1      46.950  28.394  35.016  1.00  0.00     0.020 A 
ATOM     68  C   UNL A   1      45.596  26.663  36.050  1.00  0.00     0.020 A 
ATOM     69  C   UNL A   1      46.842  27.159  35.661  1.00  0.00     0.054 A 
BRANCH  69  70
ATOM     70  S   UNL A   1      48.356  26.227  36.018  1.00  0.00     0.124 S 
ATOM     71  O   UNL A   1      49.393  27.169  35.607  1.00  0.00    -0.237 OA
ATOM     72  O   UNL A   1      48.256  25.991  37.457  1.00  0.00    -0.237 OA
ATOM     73  O   UNL A   1      48.234  25.033  35.186  1.00  0.00    -0.744 OA
ENDBRANCH  69  70
ENDBRANCH  50  64
BRANCH  51  74
ATOM     74  C   UNL A   1      36.153  33.680  33.072  1.00  0.00    -0.014 A 
ATOM     75  C   UNL A   1      36.173  35.023  32.655  1.00  0.00     0.010 A 
ATOM     76  C   UNL A   1      34.914  33.034  33.240  1.00  0.00     0.010 A 
ATOM     77  C   UNL A   1      34.977  35.713  32.435  1.00  0.00     0.020 A 
ATOM     78  C   UNL A   1      33.717  33.712  32.993  1.00  0.00     0.020 A 
ATOM     79  C   UNL A   1      33.757  35.052  32.605  1.00  0.00     0.054 A 
BRANCH  79  80
ATOM     80  S   UNL A   1      32.216  35.952  32.273  1.00  0.00     0.124 S 
ATOM     81  O   UNL A   1      32.316  36.204  30.839  1.00  0.00    -0.237 OA
ATOM     82  O   UNL A   1      31.195  34.989  32.679  1.00  0.00    -0.237 OA
ATOM     83  O   UNL A   1      32.322  37.133  33.127  1.00  0.00    -0.744 OA
ENDBRANCH  79  80
ENDBRANCH  51  74
BRANCH  63  84
ATOM     84  C   UNL A   1      40.461  33.500  38.554  1.00  0.00    -0.014 A 
ATOM     85  C   UNL A   1      39.795  32.981  39.678  1.00  0.00     0.010 A 
ATOM     86  C   UNL A   1      41.194  34.695  38.683  1.00  0.00     0.010 A 
ATOM     87  C   UNL A   1      39.834  33.660  40.899  1.00  0.00     0.020 A 
ATOM     88  C   UNL A   1      41.258  35.363  39.909  1.00  0.00     0.020 A 
ATOM     89  C   UNL A   1      40.565  34.848  41.006  1.00  0.00     0.054 A 
BRANCH  89  90
ATOM     90  S   UNL A   1      40.637  35.689  42.612  1.00  0.00     0.124 S 
ATOM     91  O   UNL A   1      42.014  35.436  43.026  1.00  0.00    -0.237 OA
ATOM     92  O   UNL A   1      40.329  37.075  42.264  1.00  0.00    -0.237 OA
ATOM     93  O   UNL A   1      39.613  35.011  43.404  1.00  0.00    -0.744 OA
ENDBRANCH  89  90
ENDBRANCH  63  84
ENDBRANCH  37  38
ENDBRANCH  30  32
ENDBRANCH  29  30
ENDBRANCH  28  29
ENDBRANCH   1  28
TORSDOF 19
ENDMDL
