MODEL 1
REMARK VINA RESULT:     -12.7      0.000      0.000
REMARK SMILES O=C(OCCOCCOC(=O)c1ccc(-c2c3nc(c(-c4ccc(S(=O)(=O)[O-])cc4)c4ccc([nH]4)c(-c4ccc(S(=O)(=O)[O-])cc4)c4nc(c(-c5ccc(S(=O)(=O)[O-])cc5)c5ccc2[nH]5)C=C4)C=C3)cc1)C1=Cc2cc(Cl)cc(-c3ccc(CO)cc3)c2O[C@@H]1C(F)(F)F
REMARK SMILES IDX 6 1 5 2 4 3 3 4 2 5 1 6 72 7 73 8 90 9 74 10 89 11 75 12
REMARK SMILES IDX 88 13 76 14 79 15 77 16 78 17 91 18 92 19 93 20 94 21 80 22
REMARK SMILES IDX 81 23 87 24 82 25 86 26 83 27 84 28 85 29 7 31 8 32 9 33
REMARK SMILES IDX 10 34 11 35 12 36 13 37 71 38 14 39 70 40 15 41 16 42 17 43
REMARK SMILES IDX 64 44 18 45 69 46 63 47 65 48 19 49 68 50 62 51 61 52 20 54
REMARK SMILES IDX 50 55 31 56 49 57 32 58 35 59 48 60 66 61 33 62 34 63 47 65
REMARK SMILES IDX 67 66 36 67 21 68 22 69 30 70 23 71 29 72 24 73 25 74 26 75
REMARK SMILES IDX 27 76 28 77 51 78 52 79 60 80 53 81 59 82 54 83 55 84 56 85
REMARK SMILES IDX 57 86 58 87 37 88 38 89 46 90 39 91 45 92 40 93 41 94 42 95
REMARK SMILES IDX 43 96 44 97
REMARK H PARENT 85 30 65 53 35 64
REMARK Flexibility Score: inf
ROOT
ATOM      1  O   UNL A   1      33.860  31.609  28.198  1.00  0.00    -0.374 OA
ENDROOT
BRANCH   1   2
ATOM      2  C   UNL A   1      34.065  30.289  27.263  1.00  0.00     0.202 C 
BRANCH   2   3
ATOM      3  C   UNL A   1      33.021  28.379  27.291  1.00  0.00     0.261 C 
BRANCH   3   4
ATOM      4  O   UNL A   1      33.311  27.163  26.324  1.00  0.00    -0.460 OA
BRANCH   4   5
ATOM      5  C   UNL A   1      32.278  26.325  26.184  1.00  0.00     0.338 C 
ATOM      6  O   UNL A   1      31.408  25.991  26.944  1.00  0.00    -0.246 OA
BRANCH   5   7
ATOM      7  C   UNL A   1      32.739  25.793  24.932  1.00  0.00     0.087 C 
ATOM      8  C   UNL A   1      34.200  25.631  24.987  1.00  0.00     0.027 C 
ATOM      9  C   UNL A   1      31.465  24.346  24.749  1.00  0.00     0.316 C 
ATOM     10  C   UNL A   1      35.013  24.019  25.028  1.00  0.00     0.019 A 
ATOM     11  O   UNL A   1      32.343  22.604  24.811  1.00  0.00    -0.475 OA
ATOM     12  C   UNL A   1      36.355  24.074  25.295  1.00  0.00     0.032 A 
ATOM     13  C   UNL A   1      34.153  22.488  25.046  1.00  0.00     0.135 A 
ATOM     14  C   UNL A   1      36.932  22.854  25.611  1.00  0.00     0.042 A 
ATOM     15  C   UNL A   1      34.865  21.282  25.264  1.00  0.00     0.026 A 
ATOM     16  Cl  UNL A   1      38.621  22.849  25.998  1.00  0.00    -0.084 Cl
ATOM     17  C   UNL A   1      36.236  21.588  25.622  1.00  0.00     0.033 A 
BRANCH   9  18
ATOM     18  C   UNL A   1      30.512  25.096  23.698  1.00  0.00     0.430 C 
ATOM     19  F   UNL A   1      31.147  25.889  22.814  1.00  0.00    -0.167 F 
ATOM     20  F   UNL A   1      29.940  24.127  22.912  1.00  0.00    -0.167 F 
ATOM     21  F   UNL A   1      29.446  25.751  24.213  1.00  0.00    -0.167 F 
ENDBRANCH   9  18
BRANCH  15  22
ATOM     22  C   UNL A   1      34.600  19.692  25.135  1.00  0.00    -0.015 A 
ATOM     23  C   UNL A   1      32.934  19.350  25.782  1.00  0.00     0.009 A 
ATOM     24  C   UNL A   1      35.648  18.054  24.534  1.00  0.00     0.009 A 
ATOM     25  C   UNL A   1      32.343  17.667  25.828  1.00  0.00     0.007 A 
ATOM     26  C   UNL A   1      34.908  16.431  24.595  1.00  0.00     0.007 A 
ATOM     27  C   UNL A   1      33.292  16.276  25.237  1.00  0.00    -0.023 A 
BRANCH  27  28
ATOM     28  C   UNL A   1      32.643  14.930  25.018  1.00  0.00     0.191 C 
BRANCH  28  29
ATOM     29  O   UNL A   1      33.024  13.960  25.962  1.00  0.00    -0.392 OA
ATOM     30  H   UNL A   1      32.327  13.291  26.039  1.00  0.00     0.211 HD
ENDBRANCH  28  29
ENDBRANCH  27  28
ENDBRANCH  15  22
ENDBRANCH   5   7
ENDBRANCH   4   5
ENDBRANCH   3   4
ENDBRANCH   2   3
ENDBRANCH   1   2
BRANCH   1  31
ATOM     31  C   UNL A   1      34.766  32.533  28.851  1.00  0.00     0.202 C 
BRANCH  31  32
ATOM     32  C   UNL A   1      35.348  32.123  30.205  1.00  0.00     0.261 C 
BRANCH  32  33
ATOM     33  O   UNL A   1      36.575  31.453  30.052  1.00  0.00    -0.460 OA
BRANCH  33  34
ATOM     34  C   UNL A   1      36.546  30.191  30.514  1.00  0.00     0.338 C 
ATOM     35  O   UNL A   1      35.814  29.708  31.352  1.00  0.00    -0.246 OA
BRANCH  34  36
ATOM     36  C   UNL A   1      37.625  29.524  29.793  1.00  0.00     0.060 A 
ATOM     37  C   UNL A   1      39.005  28.970  30.766  1.00  0.00     0.016 A 
ATOM     38  C   UNL A   1      37.655  29.697  28.034  1.00  0.00     0.016 A 
ATOM     39  C   UNL A   1      40.574  28.585  30.061  1.00  0.00     0.010 A 
ATOM     40  C   UNL A   1      39.201  29.364  27.196  1.00  0.00     0.010 A 
ATOM     41  C   UNL A   1      40.815  28.759  28.277  1.00  0.00    -0.014 A 
BRANCH  41  42
ATOM     42  C   UNL A   1      42.419  28.449  28.079  1.00  0.00     0.031 A 
ATOM     43  C   UNL A   1      43.463  29.533  28.378  1.00  0.00     0.074 A 
ATOM     44  C   UNL A   1      42.956  27.248  27.739  1.00  0.00     0.049 A 
ATOM     45  N   UNL A   1      44.669  29.696  27.873  1.00  0.00    -0.248 NA
ATOM     46  C   UNL A   1      43.085  30.596  29.313  1.00  0.00     0.031 C 
ATOM     47  C   UNL A   1      42.255  25.974  27.637  1.00  0.00     0.029 A 
ATOM     48  N   UNL A   1      44.248  26.920  27.346  1.00  0.00    -0.354 N 
ATOM     49  C   UNL A   1      45.130  30.928  28.341  1.00  0.00     0.074 A 
ATOM     50  C   UNL A   1      44.046  31.490  29.118  1.00  0.00     0.031 C 
ATOM     51  C   UNL A   1      43.061  25.049  27.090  1.00  0.00     0.029 A 
ATOM     52  C   UNL A   1      44.360  25.648  26.818  1.00  0.00     0.049 A 
ATOM     53  H   UNL A   1      45.010  27.536  27.435  1.00  0.00     0.167 HD
ATOM     54  C   UNL A   1      46.334  31.536  28.164  1.00  0.00     0.031 A 
ATOM     55  C   UNL A   1      45.364  25.016  26.169  1.00  0.00     0.031 A 
ATOM     56  C   UNL A   1      47.501  30.904  27.589  1.00  0.00     0.049 A 
ATOM     57  C   UNL A   1      46.703  25.684  25.996  1.00  0.00     0.074 A 
ATOM     58  C   UNL A   1      48.786  31.417  27.475  1.00  0.00     0.029 A 
ATOM     59  N   UNL A   1      47.557  29.607  27.110  1.00  0.00    -0.354 N 
ATOM     60  N   UNL A   1      47.069  26.896  26.329  1.00  0.00    -0.248 NA
ATOM     61  C   UNL A   1      47.781  24.871  25.408  1.00  0.00     0.031 C 
ATOM     62  C   UNL A   1      49.611  30.440  26.910  1.00  0.00     0.029 A 
ATOM     63  C   UNL A   1      48.854  29.298  26.721  1.00  0.00     0.049 A 
ATOM     64  H   UNL A   1      46.790  28.992  27.051  1.00  0.00     0.167 HD
ATOM     65  C   UNL A   1      48.432  26.968  26.048  1.00  0.00     0.074 A 
ATOM     66  C   UNL A   1      48.826  25.679  25.525  1.00  0.00     0.031 C 
ATOM     67  C   UNL A   1      49.277  28.013  26.226  1.00  0.00     0.031 A 
BRANCH  54  68
ATOM     68  C   UNL A   1      46.484  32.978  28.611  1.00  0.00    -0.014 A 
ATOM     69  C   UNL A   1      46.748  33.327  29.945  1.00  0.00     0.010 A 
ATOM     70  C   UNL A   1      46.426  34.007  27.647  1.00  0.00     0.010 A 
ATOM     71  C   UNL A   1      46.873  34.668  30.322  1.00  0.00     0.020 A 
ATOM     72  C   UNL A   1      46.604  35.348  28.008  1.00  0.00     0.020 A 
ATOM     73  C   UNL A   1      46.798  35.671  29.351  1.00  0.00     0.054 A 
BRANCH  73  74
ATOM     74  S   UNL A   1      46.991  37.399  29.869  1.00  0.00     0.124 S 
ATOM     75  O   UNL A   1      45.735  37.990  29.412  1.00  0.00    -0.237 OA
ATOM     76  O   UNL A   1      47.141  37.285  31.316  1.00  0.00    -0.237 OA
ATOM     77  O   UNL A   1      48.184  37.845  29.154  1.00  0.00    -0.744 OA
ENDBRANCH  73  74
ENDBRANCH  54  68
BRANCH  55  78
ATOM     78  C   UNL A   1      45.161  23.635  25.636  1.00  0.00    -0.014 A 
ATOM     79  C   UNL A   1      45.366  22.515  26.463  1.00  0.00     0.010 A 
ATOM     80  C   UNL A   1      44.803  23.430  24.291  1.00  0.00     0.010 A 
ATOM     81  C   UNL A   1      45.249  21.220  25.950  1.00  0.00     0.020 A 
ATOM     82  C   UNL A   1      44.655  22.134  23.781  1.00  0.00     0.020 A 
ATOM     83  C   UNL A   1      44.892  21.038  24.611  1.00  0.00     0.054 A 
BRANCH  83  84
ATOM     84  S   UNL A   1      44.708  19.343  23.984  1.00  0.00     0.124 S 
ATOM     85  O   UNL A   1      45.936  18.709  24.454  1.00  0.00    -0.237 OA
ATOM     86  O   UNL A   1      43.478  18.902  24.637  1.00  0.00    -0.237 OA
ATOM     87  O   UNL A   1      44.608  19.522  22.539  1.00  0.00    -0.744 OA
ENDBRANCH  83  84
ENDBRANCH  55  78
BRANCH  67  88
ATOM     88  C   UNL A   1      50.743  27.795  25.937  1.00  0.00    -0.014 A 
ATOM     89  C   UNL A   1      51.635  27.340  26.925  1.00  0.00     0.010 A 
ATOM     90  C   UNL A   1      51.234  28.026  24.638  1.00  0.00     0.010 A 
ATOM     91  C   UNL A   1      52.992  27.163  26.631  1.00  0.00     0.020 A 
ATOM     92  C   UNL A   1      52.582  27.820  24.331  1.00  0.00     0.020 A 
ATOM     93  C   UNL A   1      53.458  27.406  25.335  1.00  0.00     0.054 A 
BRANCH  93  94
ATOM     94  S   UNL A   1      55.218  27.143  24.974  1.00  0.00     0.124 S 
ATOM     95  O   UNL A   1      55.614  26.225  26.037  1.00  0.00    -0.237 OA
ATOM     96  O   UNL A   1      55.186  26.571  23.630  1.00  0.00    -0.237 OA
ATOM     97  O   UNL A   1      55.795  28.482  25.059  1.00  0.00    -0.744 OA
ENDBRANCH  93  94
ENDBRANCH  67  88
ENDBRANCH  41  42
ENDBRANCH  34  36
ENDBRANCH  33  34
ENDBRANCH  32  33
ENDBRANCH  31  32
ENDBRANCH   1  31
TORSDOF 21
ENDMDL
MODEL 2
REMARK VINA RESULT:     -12.1      0.734      7.830
REMARK SMILES O=C(OCCOCCOC(=O)c1ccc(-c2c3nc(c(-c4ccc(S(=O)(=O)[O-])cc4)c4ccc([nH]4)c(-c4ccc(S(=O)(=O)[O-])cc4)c4nc(c(-c5ccc(S(=O)(=O)[O-])cc5)c5ccc2[nH]5)C=C4)C=C3)cc1)C1=Cc2cc(Cl)cc(-c3ccc(CO)cc3)c2O[C@@H]1C(F)(F)F
REMARK SMILES IDX 6 1 5 2 4 3 3 4 2 5 1 6 72 7 73 8 90 9 74 10 89 11 75 12
REMARK SMILES IDX 88 13 76 14 79 15 77 16 78 17 91 18 92 19 93 20 94 21 80 22
REMARK SMILES IDX 81 23 87 24 82 25 86 26 83 27 84 28 85 29 7 31 8 32 9 33
REMARK SMILES IDX 10 34 11 35 12 36 13 37 71 38 14 39 70 40 15 41 16 42 17 43
REMARK SMILES IDX 64 44 18 45 69 46 63 47 65 48 19 49 68 50 62 51 61 52 20 54
REMARK SMILES IDX 50 55 31 56 49 57 32 58 35 59 48 60 66 61 33 62 34 63 47 65
REMARK SMILES IDX 67 66 36 67 21 68 22 69 30 70 23 71 29 72 24 73 25 74 26 75
REMARK SMILES IDX 27 76 28 77 51 78 52 79 60 80 53 81 59 82 54 83 55 84 56 85
REMARK SMILES IDX 57 86 58 87 37 88 38 89 46 90 39 91 45 92 40 93 41 94 42 95
REMARK SMILES IDX 43 96 44 97
REMARK H PARENT 85 30 65 53 35 64
REMARK Flexibility Score: inf
ROOT
ATOM      1  O   UNL A   1      34.112  31.536  28.243  1.00  0.00    -0.374 OA
ENDROOT
BRANCH   1   2
ATOM      2  C   UNL A   1      34.383  30.124  27.474  1.00  0.00     0.202 C 
BRANCH   2   3
ATOM      3  C   UNL A   1      33.027  28.472  27.063  1.00  0.00     0.261 C 
BRANCH   3   4
ATOM      4  O   UNL A   1      33.384  27.182  26.222  1.00  0.00    -0.460 OA
BRANCH   4   5
ATOM      5  C   UNL A   1      32.370  26.318  26.101  1.00  0.00     0.338 C 
ATOM      6  O   UNL A   1      31.509  25.978  26.869  1.00  0.00    -0.246 OA
BRANCH   5   7
ATOM      7  C   UNL A   1      32.841  25.773  24.859  1.00  0.00     0.087 C 
ATOM      8  C   UNL A   1      34.297  25.582  24.938  1.00  0.00     0.027 C 
ATOM      9  C   UNL A   1      31.542  24.350  24.659  1.00  0.00     0.316 C 
ATOM     10  C   UNL A   1      35.077  23.955  24.998  1.00  0.00     0.019 A 
ATOM     11  O   UNL A   1      32.384  22.592  24.741  1.00  0.00    -0.475 OA
ATOM     12  C   UNL A   1      36.416  23.985  25.286  1.00  0.00     0.032 A 
ATOM     13  C   UNL A   1      34.188  22.441  25.006  1.00  0.00     0.135 A 
ATOM     14  C   UNL A   1      36.964  22.754  25.616  1.00  0.00     0.042 A 
ATOM     15  C   UNL A   1      34.872  21.222  25.240  1.00  0.00     0.026 A 
ATOM     16  Cl  UNL A   1      38.646  22.718  26.030  1.00  0.00    -0.084 Cl
ATOM     17  C   UNL A   1      36.243  21.503  25.619  1.00  0.00     0.033 A 
BRANCH   9  18
ATOM     18  C   UNL A   1      30.621  25.115  23.591  1.00  0.00     0.430 C 
ATOM     19  F   UNL A   1      29.578  24.405  23.123  1.00  0.00    -0.167 F 
ATOM     20  F   UNL A   1      30.029  26.164  24.249  1.00  0.00    -0.167 F 
ATOM     21  F   UNL A   1      31.263  25.714  22.562  1.00  0.00    -0.167 F 
ENDBRANCH   9  18
BRANCH  15  22
ATOM     22  C   UNL A   1      34.579  19.637  25.112  1.00  0.00    -0.015 A 
ATOM     23  C   UNL A   1      32.958  19.307  25.872  1.00  0.00     0.009 A 
ATOM     24  C   UNL A   1      35.559  17.995  24.419  1.00  0.00     0.009 A 
ATOM     25  C   UNL A   1      32.351  17.631  25.941  1.00  0.00     0.007 A 
ATOM     26  C   UNL A   1      34.805  16.380  24.514  1.00  0.00     0.007 A 
ATOM     27  C   UNL A   1      33.237  16.236  25.268  1.00  0.00    -0.023 A 
BRANCH  27  28
ATOM     28  C   UNL A   1      32.557  14.901  25.081  1.00  0.00     0.191 C 
BRANCH  28  29
ATOM     29  O   UNL A   1      33.237  13.831  25.689  1.00  0.00    -0.392 OA
ATOM     30  H   UNL A   1      33.715  13.325  25.013  1.00  0.00     0.211 HD
ENDBRANCH  28  29
ENDBRANCH  27  28
ENDBRANCH  15  22
ENDBRANCH   5   7
ENDBRANCH   4   5
ENDBRANCH   3   4
ENDBRANCH   2   3
ENDBRANCH   1   2
BRANCH   1  31
ATOM     31  C   UNL A   1      34.943  32.444  29.009  1.00  0.00     0.202 C 
BRANCH  31  32
ATOM     32  C   UNL A   1      35.588  31.911  30.290  1.00  0.00     0.261 C 
BRANCH  32  33
ATOM     33  O   UNL A   1      36.852  31.351  30.031  1.00  0.00    -0.460 OA
BRANCH  33  34
ATOM     34  C   UNL A   1      36.971  30.091  30.483  1.00  0.00     0.338 C 
ATOM     35  O   UNL A   1      36.366  29.550  31.383  1.00  0.00    -0.246 OA
BRANCH  34  36
ATOM     36  C   UNL A   1      38.027  29.516  29.657  1.00  0.00     0.060 A 
ATOM     37  C   UNL A   1      39.634  29.377  30.405  1.00  0.00     0.016 A 
ATOM     38  C   UNL A   1      37.729  29.406  27.917  1.00  0.00     0.016 A 
ATOM     39  C   UNL A   1      41.108  29.164  29.463  1.00  0.00     0.010 A 
ATOM     40  C   UNL A   1      39.149  29.218  26.845  1.00  0.00     0.010 A 
ATOM     41  C   UNL A   1      41.009  29.088  27.659  1.00  0.00    -0.014 A 
BRANCH  41  42
ATOM     42  C   UNL A   1      42.586  29.036  27.194  1.00  0.00     0.031 A 
ATOM     43  C   UNL A   1      43.187  27.745  26.624  1.00  0.00     0.074 A 
ATOM     44  C   UNL A   1      43.442  30.092  27.182  1.00  0.00     0.049 A 
ATOM     45  N   UNL A   1      44.434  27.324  26.639  1.00  0.00    -0.248 NA
ATOM     46  C   UNL A   1      42.264  26.782  26.016  1.00  0.00     0.031 C 
ATOM     47  C   UNL A   1      43.109  31.491  27.420  1.00  0.00     0.029 A 
ATOM     48  N   UNL A   1      44.821  30.129  27.013  1.00  0.00    -0.354 N 
ATOM     49  C   UNL A   1      44.417  26.015  26.154  1.00  0.00     0.074 A 
ATOM     50  C   UNL A   1      43.025  25.699  25.912  1.00  0.00     0.031 C 
ATOM     51  C   UNL A   1      44.231  32.220  27.521  1.00  0.00     0.029 A 
ATOM     52  C   UNL A   1      45.385  31.351  27.329  1.00  0.00     0.049 A 
ATOM     53  H   UNL A   1      45.345  29.358  26.698  1.00  0.00     0.167 HD
ATOM     54  C   UNL A   1      45.444  25.157  25.912  1.00  0.00     0.031 A 
ATOM     55  C   UNL A   1      46.667  31.751  27.477  1.00  0.00     0.031 A 
ATOM     56  C   UNL A   1      46.844  25.520  25.929  1.00  0.00     0.049 A 
ATOM     57  C   UNL A   1      47.802  30.805  27.186  1.00  0.00     0.074 A 
ATOM     58  C   UNL A   1      47.938  24.736  25.589  1.00  0.00     0.029 A 
ATOM     59  N   UNL A   1      47.343  26.778  26.220  1.00  0.00    -0.354 N 
ATOM     60  N   UNL A   1      47.757  29.538  26.859  1.00  0.00    -0.248 NA
ATOM     61  C   UNL A   1      49.164  31.364  27.231  1.00  0.00     0.031 C 
ATOM     62  C   UNL A   1      49.096  25.512  25.694  1.00  0.00     0.029 A 
ATOM     63  C   UNL A   1      48.721  26.795  26.047  1.00  0.00     0.049 A 
ATOM     64  H   UNL A   1      46.801  27.548  26.508  1.00  0.00     0.167 HD
ATOM     65  C   UNL A   1      49.075  29.168  26.599  1.00  0.00     0.074 A 
ATOM     66  C   UNL A   1      49.893  30.343  26.801  1.00  0.00     0.031 C 
ATOM     67  C   UNL A   1      49.553  27.960  26.213  1.00  0.00     0.031 A 
BRANCH  54  68
ATOM     68  C   UNL A   1      45.114  23.713  25.586  1.00  0.00    -0.014 A 
ATOM     69  C   UNL A   1      45.339  23.160  24.314  1.00  0.00     0.010 A 
ATOM     70  C   UNL A   1      44.626  22.870  26.607  1.00  0.00     0.010 A 
ATOM     71  C   UNL A   1      45.015  21.826  24.048  1.00  0.00     0.020 A 
ATOM     72  C   UNL A   1      44.350  21.520  26.362  1.00  0.00     0.020 A 
ATOM     73  C   UNL A   1      44.521  21.014  25.073  1.00  0.00     0.054 A 
BRANCH  73  74
ATOM     74  S   UNL A   1      44.136  19.281  24.701  1.00  0.00     0.124 S 
ATOM     75  O   UNL A   1      42.721  19.205  25.059  1.00  0.00    -0.237 OA
ATOM     76  O   UNL A   1      44.426  19.187  23.273  1.00  0.00    -0.237 OA
ATOM     77  O   UNL A   1      45.038  18.529  25.569  1.00  0.00    -0.744 OA
ENDBRANCH  73  74
ENDBRANCH  54  68
BRANCH  55  78
ATOM     78  C   UNL A   1      46.973  33.149  27.909  1.00  0.00    -0.014 A 
ATOM     79  C   UNL A   1      47.305  34.131  26.958  1.00  0.00     0.010 A 
ATOM     80  C   UNL A   1      46.973  33.495  29.273  1.00  0.00     0.010 A 
ATOM     81  C   UNL A   1      47.662  35.421  27.363  1.00  0.00     0.020 A 
ATOM     82  C   UNL A   1      47.302  34.794  29.680  1.00  0.00     0.020 A 
ATOM     83  C   UNL A   1      47.656  35.745  28.722  1.00  0.00     0.054 A 
BRANCH  83  84
ATOM     84  S   UNL A   1      48.086  37.439  29.213  1.00  0.00     0.124 S 
ATOM     85  O   UNL A   1      49.307  37.678  28.449  1.00  0.00    -0.237 OA
ATOM     86  O   UNL A   1      46.913  38.195  28.783  1.00  0.00    -0.237 OA
ATOM     87  O   UNL A   1      48.260  37.343  30.659  1.00  0.00    -0.744 OA
ENDBRANCH  83  84
ENDBRANCH  55  78
BRANCH  67  88
ATOM     88  C   UNL A   1      51.024  27.851  25.892  1.00  0.00    -0.014 A 
ATOM     89  C   UNL A   1      51.536  28.188  24.626  1.00  0.00     0.010 A 
ATOM     90  C   UNL A   1      51.920  27.424  26.892  1.00  0.00     0.010 A 
ATOM     91  C   UNL A   1      52.903  28.060  24.355  1.00  0.00     0.020 A 
ATOM     92  C   UNL A   1      53.291  27.325  26.635  1.00  0.00     0.020 A 
ATOM     93  C   UNL A   1      53.773  27.627  25.361  1.00  0.00     0.054 A 
BRANCH  93  94
ATOM     94  S   UNL A   1      55.545  27.496  24.989  1.00  0.00     0.124 S 
ATOM     95  O   UNL A   1      55.578  26.382  24.047  1.00  0.00    -0.237 OA
ATOM     96  O   UNL A   1      55.851  28.808  24.423  1.00  0.00    -0.237 OA
ATOM     97  O   UNL A   1      56.154  27.230  26.291  1.00  0.00    -0.744 OA
ENDBRANCH  93  94
ENDBRANCH  67  88
ENDBRANCH  41  42
ENDBRANCH  34  36
ENDBRANCH  33  34
ENDBRANCH  32  33
ENDBRANCH  31  32
ENDBRANCH   1  31
TORSDOF 21
ENDMDL
MODEL 3
REMARK VINA RESULT:     -10.3      7.942     16.555
REMARK SMILES O=C(OCCOCCOC(=O)c1ccc(-c2c3nc(c(-c4ccc(S(=O)(=O)[O-])cc4)c4ccc([nH]4)c(-c4ccc(S(=O)(=O)[O-])cc4)c4nc(c(-c5ccc(S(=O)(=O)[O-])cc5)c5ccc2[nH]5)C=C4)C=C3)cc1)C1=Cc2cc(Cl)cc(-c3ccc(CO)cc3)c2O[C@@H]1C(F)(F)F
REMARK SMILES IDX 6 1 5 2 4 3 3 4 2 5 1 6 72 7 73 8 90 9 74 10 89 11 75 12
REMARK SMILES IDX 88 13 76 14 79 15 77 16 78 17 91 18 92 19 93 20 94 21 80 22
REMARK SMILES IDX 81 23 87 24 82 25 86 26 83 27 84 28 85 29 7 31 8 32 9 33
REMARK SMILES IDX 10 34 11 35 12 36 13 37 71 38 14 39 70 40 15 41 16 42 17 43
REMARK SMILES IDX 64 44 18 45 69 46 63 47 65 48 19 49 68 50 62 51 61 52 20 54
REMARK SMILES IDX 50 55 31 56 49 57 32 58 35 59 48 60 66 61 33 62 34 63 47 65
REMARK SMILES IDX 67 66 36 67 21 68 22 69 30 70 23 71 29 72 24 73 25 74 26 75
REMARK SMILES IDX 27 76 28 77 51 78 52 79 60 80 53 81 59 82 54 83 55 84 56 85
REMARK SMILES IDX 57 86 58 87 37 88 38 89 46 90 39 91 45 92 40 93 41 94 42 95
REMARK SMILES IDX 43 96 44 97
REMARK H PARENT 85 30 65 53 35 64
REMARK Flexibility Score: inf
ROOT
ATOM      1  O   UNL A   1      50.818  40.549  29.799  1.00  0.00    -0.374 OA
ENDROOT
BRANCH   1   2
ATOM      2  C   UNL A   1      50.695  41.959  28.988  1.00  0.00     0.202 C 
BRANCH   2   3
ATOM      3  C   UNL A   1      49.392  43.666  29.340  1.00  0.00     0.261 C 
BRANCH   3   4
ATOM      4  O   UNL A   1      48.885  44.675  28.232  1.00  0.00    -0.460 OA
BRANCH   4   5
ATOM      5  C   UNL A   1      48.149  44.100  27.275  1.00  0.00     0.338 C 
ATOM      6  O   UNL A   1      47.894  42.948  27.041  1.00  0.00    -0.246 OA
BRANCH   5   7
ATOM      7  C   UNL A   1      48.010  45.306  26.508  1.00  0.00     0.087 C 
ATOM      8  C   UNL A   1      48.913  45.246  25.349  1.00  0.00     0.027 C 
ATOM      9  C   UNL A   1      46.076  45.362  26.410  1.00  0.00     0.316 C 
ATOM     10  C   UNL A   1      48.327  45.076  23.649  1.00  0.00     0.019 A 
ATOM     11  O   UNL A   1      45.444  45.162  24.575  1.00  0.00    -0.475 OA
ATOM     12  C   UNL A   1      49.317  44.823  22.737  1.00  0.00     0.032 A 
ATOM     13  C   UNL A   1      46.635  44.928  23.206  1.00  0.00     0.135 A 
ATOM     14  C   UNL A   1      48.865  44.410  21.493  1.00  0.00     0.042 A 
ATOM     15  C   UNL A   1      46.280  44.614  21.870  1.00  0.00     0.026 A 
ATOM     16  Cl  UNL A   1      50.060  44.033  20.297  1.00  0.00    -0.084 Cl
ATOM     17  C   UNL A   1      47.475  44.291  21.116  1.00  0.00     0.033 A 
BRANCH   9  18
ATOM     18  C   UNL A   1      45.884  46.466  27.559  1.00  0.00     0.430 C 
ATOM     19  F   UNL A   1      47.004  47.124  27.913  1.00  0.00    -0.167 F 
ATOM     20  F   UNL A   1      45.080  47.450  27.040  1.00  0.00    -0.167 F 
ATOM     21  F   UNL A   1      45.218  46.070  28.668  1.00  0.00    -0.167 F 
ENDBRANCH   9  18
BRANCH  15  22
ATOM     22  C   UNL A   1      44.949  44.610  20.950  1.00  0.00    -0.015 A 
ATOM     23  C   UNL A   1      43.748  43.476  21.714  1.00  0.00     0.009 A 
ATOM     24  C   UNL A   1      44.350  45.454  19.199  1.00  0.00     0.009 A 
ATOM     25  C   UNL A   1      42.176  43.203  20.916  1.00  0.00     0.007 A 
ATOM     26  C   UNL A   1      42.724  45.122  18.542  1.00  0.00     0.007 A 
ATOM     27  C   UNL A   1      41.687  44.014  19.404  1.00  0.00    -0.023 A 
BRANCH  27  28
ATOM     28  C   UNL A   1      40.251  43.985  18.936  1.00  0.00     0.191 C 
BRANCH  28  29
ATOM     29  O   UNL A   1      40.113  43.754  17.556  1.00  0.00    -0.392 OA
ATOM     30  H   UNL A   1      40.614  44.423  17.064  1.00  0.00     0.211 HD
ENDBRANCH  28  29
ENDBRANCH  27  28
ENDBRANCH  15  22
ENDBRANCH   5   7
ENDBRANCH   4   5
ENDBRANCH   3   4
ENDBRANCH   2   3
ENDBRANCH   1   2
BRANCH   1  31
ATOM     31  C   UNL A   1      51.016  39.170  29.399  1.00  0.00     0.202 C 
BRANCH  31  32
ATOM     32  C   UNL A   1      49.787  38.369  28.968  1.00  0.00     0.261 C 
BRANCH  32  33
ATOM     33  O   UNL A   1      48.689  38.623  29.810  1.00  0.00    -0.460 OA
BRANCH  33  34
ATOM     34  C   UNL A   1      47.520  38.213  29.290  1.00  0.00     0.338 C 
ATOM     35  O   UNL A   1      46.571  38.882  28.940  1.00  0.00    -0.246 OA
BRANCH  34  36
ATOM     36  C   UNL A   1      47.635  36.759  29.262  1.00  0.00     0.060 A 
ATOM     37  C   UNL A   1      47.208  35.958  27.734  1.00  0.00     0.016 A 
ATOM     38  C   UNL A   1      47.775  35.925  30.816  1.00  0.00     0.016 A 
ATOM     39  C   UNL A   1      46.828  34.239  27.633  1.00  0.00     0.010 A 
ATOM     40  C   UNL A   1      47.386  34.179  30.855  1.00  0.00     0.010 A 
ATOM     41  C   UNL A   1      46.860  33.231  29.133  1.00  0.00    -0.014 A 
BRANCH  41  42
ATOM     42  C   UNL A   1      46.313  31.767  28.619  1.00  0.00     0.031 A 
ATOM     43  C   UNL A   1      44.840  31.380  28.800  1.00  0.00     0.074 A 
ATOM     44  C   UNL A   1      47.043  30.843  27.940  1.00  0.00     0.049 A 
ATOM     45  N   UNL A   1      44.296  30.187  28.920  1.00  0.00    -0.248 NA
ATOM     46  C   UNL A   1      43.865  32.469  28.921  1.00  0.00     0.031 C 
ATOM     47  C   UNL A   1      48.385  31.016  27.397  1.00  0.00     0.029 A 
ATOM     48  N   UNL A   1      46.761  29.516  27.642  1.00  0.00    -0.354 N 
ATOM     49  C   UNL A   1      42.953  30.394  29.243  1.00  0.00     0.074 A 
ATOM     50  C   UNL A   1      42.788  31.827  29.357  1.00  0.00     0.031 C 
ATOM     51  C   UNL A   1      48.862  29.838  26.966  1.00  0.00     0.029 A 
ATOM     52  C   UNL A   1      47.851  28.809  27.172  1.00  0.00     0.049 A 
ATOM     53  H   UNL A   1      45.867  29.118  27.754  1.00  0.00     0.167 HD
ATOM     54  C   UNL A   1      41.945  29.497  29.415  1.00  0.00     0.031 A 
ATOM     55  C   UNL A   1      48.054  27.492  26.945  1.00  0.00     0.031 A 
ATOM     56  C   UNL A   1      42.029  28.090  29.087  1.00  0.00     0.049 A 
ATOM     57  C   UNL A   1      46.929  26.505  27.113  1.00  0.00     0.074 A 
ATOM     58  C   UNL A   1      41.019  27.139  29.130  1.00  0.00     0.029 A 
ATOM     59  N   UNL A   1      43.147  27.448  28.584  1.00  0.00    -0.354 N 
ATOM     60  N   UNL A   1      45.711  26.709  27.546  1.00  0.00    -0.248 NA
ATOM     61  C   UNL A   1      47.196  25.115  26.705  1.00  0.00     0.031 C 
ATOM     62  C   UNL A   1      41.531  25.920  28.673  1.00  0.00     0.029 A 
ATOM     63  C   UNL A   1      42.845  26.124  28.293  1.00  0.00     0.049 A 
ATOM     64  H   UNL A   1      44.028  27.868  28.451  1.00  0.00     0.167 HD
ATOM     65  C   UNL A   1      45.051  25.489  27.404  1.00  0.00     0.074 A 
ATOM     66  C   UNL A   1      46.001  24.556  26.840  1.00  0.00     0.031 C 
ATOM     67  C   UNL A   1      43.765  25.184  27.704  1.00  0.00     0.031 A 
BRANCH  54  68
ATOM     68  C   UNL A   1      40.627  29.994  29.975  1.00  0.00    -0.014 A 
ATOM     69  C   UNL A   1      40.439  30.243  31.345  1.00  0.00     0.010 A 
ATOM     70  C   UNL A   1      39.568  30.285  29.089  1.00  0.00     0.010 A 
ATOM     71  C   UNL A   1      39.206  30.696  31.826  1.00  0.00     0.020 A 
ATOM     72  C   UNL A   1      38.349  30.789  29.558  1.00  0.00     0.020 A 
ATOM     73  C   UNL A   1      38.167  30.964  30.930  1.00  0.00     0.054 A 
BRANCH  73  74
ATOM     74  S   UNL A   1      36.590  31.575  31.584  1.00  0.00     0.124 S 
ATOM     75  O   UNL A   1      35.921  30.331  31.961  1.00  0.00    -0.237 OA
ATOM     76  O   UNL A   1      37.011  32.421  32.697  1.00  0.00    -0.237 OA
ATOM     77  O   UNL A   1      35.995  32.284  30.455  1.00  0.00    -0.744 OA
ENDBRANCH  73  74
ENDBRANCH  54  68
BRANCH  55  78
ATOM     78  C   UNL A   1      49.394  27.004  26.500  1.00  0.00    -0.014 A 
ATOM     79  C   UNL A   1      49.791  27.139  25.157  1.00  0.00     0.010 A 
ATOM     80  C   UNL A   1      50.263  26.367  27.405  1.00  0.00     0.010 A 
ATOM     81  C   UNL A   1      51.014  26.620  24.720  1.00  0.00     0.020 A 
ATOM     82  C   UNL A   1      51.501  25.872  26.977  1.00  0.00     0.020 A 
ATOM     83  C   UNL A   1      51.863  25.991  25.634  1.00  0.00     0.054 A 
BRANCH  83  84
ATOM     84  S   UNL A   1      53.461  25.362  25.045  1.00  0.00     0.124 S 
ATOM     85  O   UNL A   1      54.404  26.265  25.697  1.00  0.00    -0.237 OA
ATOM     86  O   UNL A   1      53.455  23.987  25.540  1.00  0.00    -0.237 OA
ATOM     87  O   UNL A   1      53.367  25.493  23.594  1.00  0.00    -0.744 OA
ENDBRANCH  83  84
ENDBRANCH  55  78
BRANCH  67  88
ATOM     88  C   UNL A   1      43.264  23.804  27.351  1.00  0.00    -0.014 A 
ATOM     89  C   UNL A   1      43.264  22.753  28.285  1.00  0.00     0.010 A 
ATOM     90  C   UNL A   1      42.756  23.563  26.060  1.00  0.00     0.010 A 
ATOM     91  C   UNL A   1      42.808  21.480  27.922  1.00  0.00     0.020 A 
ATOM     92  C   UNL A   1      42.270  22.302  25.703  1.00  0.00     0.020 A 
ATOM     93  C   UNL A   1      42.315  21.262  26.631  1.00  0.00     0.054 A 
BRANCH  93  94
ATOM     94  S   UNL A   1      41.705  19.608  26.195  1.00  0.00     0.124 S 
ATOM     95  O   UNL A   1      40.287  19.858  25.960  1.00  0.00    -0.237 OA
ATOM     96  O   UNL A   1      42.491  19.280  25.008  1.00  0.00    -0.237 OA
ATOM     97  O   UNL A   1      42.008  18.803  27.376  1.00  0.00    -0.744 OA
ENDBRANCH  93  94
ENDBRANCH  67  88
ENDBRANCH  41  42
ENDBRANCH  34  36
ENDBRANCH  33  34
ENDBRANCH  32  33
ENDBRANCH  31  32
ENDBRANCH   1  31
TORSDOF 21
ENDMDL
