MODEL 1
REMARK VINA RESULT:     -10.8      0.000      0.000
REMARK SMILES Cc1c[nH]c(C[N@H+]2C[C@@H]3CN(S(C)(=O)=O)C[C@]3(C(=O)OCCOCCOC(=O)c3ccc(-c4c5nc(c(-c6ccc(S(=O)(=O)[O-])cc6)c6ccc([nH]6)c(-c6ccc(S(=O)(=O)[O-])cc6)c6nc(c(-c7ccc(S(=O)(=O)[O-])cc7)c7ccc4[nH]7)C=C6)C=C5)cc3)C2)n1
REMARK SMILES IDX 24 1 23 2 22 3 21 4 20 5 18 6 19 7 17 8 7 9 8 10 89 11 9 13
REMARK SMILES IDX 10 14 16 15 11 16 6 17 5 18 1 19 2 20 3 21 90 22 4 23 12 25
REMARK SMILES IDX 13 26 14 27 15 28 25 29 26 30 27 31 28 32 29 33 30 34 88 35
REMARK SMILES IDX 31 36 87 37 32 38 33 39 34 40 81 41 35 42 86 43 80 44 82 45
REMARK SMILES IDX 36 46 85 47 79 48 78 49 37 51 67 52 48 53 66 54 49 55 52 56
REMARK SMILES IDX 65 57 83 58 50 59 51 60 64 62 84 63 53 64 38 65 39 66 47 67
REMARK SMILES IDX 40 68 46 69 41 70 42 71 43 72 44 73 45 74 68 75 69 76 77 77
REMARK SMILES IDX 70 78 76 79 71 80 72 81 73 82 74 83 75 84 54 85 55 86 63 87
REMARK SMILES IDX 56 88 62 89 57 90 58 91 59 92 60 93 61 94
REMARK H PARENT 7 12 4 24 82 50 52 61
REMARK Flexibility Score: inf
ROOT
ATOM      1  C   UNL A   1      39.904  23.274  26.909  1.00  0.00     0.202 C 
ENDROOT
BRANCH   1   2
ATOM      2  O   UNL A   1      39.429  22.247  26.039  1.00  0.00    -0.374 OA
BRANCH   2   3
ATOM      3  C   UNL A   1      38.041  22.298  25.709  1.00  0.00     0.202 C 
BRANCH   3   4
ATOM      4  C   UNL A   1      37.377  23.639  26.021  1.00  0.00     0.261 C 
BRANCH   4   5
ATOM      5  O   UNL A   1      36.106  23.770  25.361  1.00  0.00    -0.463 OA
BRANCH   5   6
ATOM      6  C   UNL A   1      34.907  23.443  25.952  1.00  0.00     0.319 C 
ATOM      7  O   UNL A   1      34.749  23.200  27.133  1.00  0.00    -0.251 OA
BRANCH   6   8
ATOM      8  C   UNL A   1      33.882  23.335  24.823  1.00  0.00     0.140 C 
ATOM      9  N   UNL A   1      32.857  21.145  24.304  1.00  0.00    -0.327 N 
ATOM     10  C   UNL A   1      31.848  22.169  24.137  1.00  0.00     0.268 C 
ATOM     11  C   UNL A   1      34.138  21.868  24.402  1.00  0.00     0.283 C 
ATOM     12  H   UNL A   1      32.885  20.510  23.506  1.00  0.00     0.348 HD
ATOM     13  C   UNL A   1      32.343  23.412  24.892  1.00  0.00     0.084 C 
ATOM     14  C   UNL A   1      31.843  24.607  24.063  1.00  0.00     0.113 C 
ATOM     15  C   UNL A   1      34.226  24.570  23.957  1.00  0.00     0.127 C 
ATOM     16  N   UNL A   1      33.008  25.014  23.307  1.00  0.00    -0.200 NA
BRANCH   9  17
ATOM     17  C   UNL A   1      32.568  20.163  25.372  1.00  0.00     0.338 C 
BRANCH  17  18
ATOM     18  C   UNL A   1      33.026  18.742  25.165  1.00  0.00     0.161 A 
ATOM     19  C   UNL A   1      32.823  15.189  25.375  1.00  0.00     0.068 C 
ATOM     20  C   UNL A   1      33.201  16.592  25.092  1.00  0.00     0.056 A 
ATOM     21  C   UNL A   1      34.206  17.075  24.286  1.00  0.00     0.107 A 
ATOM     22  N   UNL A   1      32.495  17.636  25.645  1.00  0.00    -0.233 NA
ATOM     23  N   UNL A   1      34.099  18.436  24.356  1.00  0.00    -0.344 N 
ATOM     24  H   UNL A   1      34.687  19.085  23.906  1.00  0.00     0.167 HD
ENDBRANCH  17  18
ENDBRANCH   9  17
BRANCH  16  25
ATOM     25  S   UNL A   1      33.029  25.592  21.754  1.00  0.00     0.211 S 
ATOM     26  C   UNL A   1      31.410  26.331  21.642  1.00  0.00     0.176 C 
ATOM     27  O   UNL A   1      34.022  26.646  21.670  1.00  0.00    -0.213 OA
ATOM     28  O   UNL A   1      33.053  24.453  20.871  1.00  0.00    -0.213 OA
ENDBRANCH  16  25
ENDBRANCH   6   8
ENDBRANCH   5   6
ENDBRANCH   4   5
ENDBRANCH   3   4
ENDBRANCH   2   3
ENDBRANCH   1   2
BRANCH   1  29
ATOM     29  C   UNL A   1      41.250  23.889  26.534  1.00  0.00     0.261 C 
BRANCH  29  30
ATOM     30  O   UNL A   1      41.524  25.047  27.339  1.00  0.00    -0.460 OA
BRANCH  30  31
ATOM     31  C   UNL A   1      40.991  26.184  26.836  1.00  0.00     0.338 C 
ATOM     32  O   UNL A   1      40.831  26.457  25.657  1.00  0.00    -0.246 OA
BRANCH  31  33
ATOM     33  C   UNL A   1      40.454  27.035  27.912  1.00  0.00     0.060 A 
ATOM     34  C   UNL A   1      40.994  28.322  28.012  1.00  0.00     0.016 A 
ATOM     35  C   UNL A   1      39.543  26.569  28.864  1.00  0.00     0.016 A 
ATOM     36  C   UNL A   1      40.721  29.104  29.125  1.00  0.00     0.010 A 
ATOM     37  C   UNL A   1      39.266  27.361  29.985  1.00  0.00     0.010 A 
ATOM     38  C   UNL A   1      39.907  28.601  30.149  1.00  0.00    -0.014 A 
BRANCH  38  39
ATOM     39  C   UNL A   1      39.901  29.316  31.447  1.00  0.00     0.031 A 
ATOM     40  C   UNL A   1      41.020  29.066  32.426  1.00  0.00     0.074 A 
ATOM     41  C   UNL A   1      38.979  30.262  31.698  1.00  0.00     0.049 A 
ATOM     42  N   UNL A   1      41.269  29.656  33.566  1.00  0.00    -0.248 NA
ATOM     43  C   UNL A   1      41.993  28.020  32.068  1.00  0.00     0.031 C 
ATOM     44  C   UNL A   1      37.880  30.624  30.803  1.00  0.00     0.029 A 
ATOM     45  N   UNL A   1      38.835  31.106  32.769  1.00  0.00    -0.354 N 
ATOM     46  C   UNL A   1      42.418  29.050  34.065  1.00  0.00     0.074 A 
ATOM     47  C   UNL A   1      42.798  28.023  33.121  1.00  0.00     0.031 C 
ATOM     48  C   UNL A   1      37.182  31.630  31.357  1.00  0.00     0.029 A 
ATOM     49  C   UNL A   1      37.765  31.959  32.656  1.00  0.00     0.049 A 
ATOM     50  H   UNL A   1      39.443  31.101  33.545  1.00  0.00     0.167 HD
ATOM     51  C   UNL A   1      43.102  29.330  35.201  1.00  0.00     0.031 A 
ATOM     52  C   UNL A   1      37.302  32.894  33.509  1.00  0.00     0.031 A 
ATOM     53  C   UNL A   1      42.710  30.346  36.143  1.00  0.00     0.049 A 
ATOM     54  C   UNL A   1      38.043  33.143  34.797  1.00  0.00     0.074 A 
ATOM     55  C   UNL A   1      43.339  30.716  37.320  1.00  0.00     0.029 A 
ATOM     56  N   UNL A   1      41.586  31.150  36.023  1.00  0.00    -0.354 N 
ATOM     57  N   UNL A   1      39.138  32.576  35.243  1.00  0.00    -0.248 NA
ATOM     58  C   UNL A   1      37.491  34.173  35.687  1.00  0.00     0.031 C 
ATOM     59  C   UNL A   1      42.558  31.695  37.943  1.00  0.00     0.029 A 
ATOM     60  C   UNL A   1      41.487  31.994  37.115  1.00  0.00     0.049 A 
ATOM     61  H   UNL A   1      40.952  31.124  35.270  1.00  0.00     0.167 HD
ATOM     62  C   UNL A   1      39.428  33.206  36.449  1.00  0.00     0.074 A 
ATOM     63  C   UNL A   1      38.399  34.207  36.651  1.00  0.00     0.031 C 
ATOM     64  C   UNL A   1      40.454  32.982  37.309  1.00  0.00     0.031 A 
BRANCH  51  65
ATOM     65  C   UNL A   1      44.321  28.497  35.508  1.00  0.00    -0.014 A 
ATOM     66  C   UNL A   1      45.598  28.863  35.046  1.00  0.00     0.010 A 
ATOM     67  C   UNL A   1      44.192  27.349  36.312  1.00  0.00     0.010 A 
ATOM     68  C   UNL A   1      46.715  28.079  35.350  1.00  0.00     0.020 A 
ATOM     69  C   UNL A   1      45.310  26.579  36.644  1.00  0.00     0.020 A 
ATOM     70  C   UNL A   1      46.563  26.940  36.148  1.00  0.00     0.054 A 
BRANCH  70  71
ATOM     71  S   UNL A   1      48.033  25.957  36.552  1.00  0.00     0.124 S 
ATOM     72  O   UNL A   1      47.441  24.749  37.122  1.00  0.00    -0.237 OA
ATOM     73  O   UNL A   1      48.672  25.787  35.250  1.00  0.00    -0.237 OA
ATOM     74  O   UNL A   1      48.765  26.795  37.498  1.00  0.00    -0.744 OA
ENDBRANCH  70  71
ENDBRANCH  51  65
BRANCH  52  75
ATOM     75  C   UNL A   1      36.068  33.656  33.173  1.00  0.00    -0.014 A 
ATOM     76  C   UNL A   1      34.796  33.162  33.511  1.00  0.00     0.010 A 
ATOM     77  C   UNL A   1      36.165  34.894  32.510  1.00  0.00     0.010 A 
ATOM     78  C   UNL A   1      33.645  33.882  33.175  1.00  0.00     0.020 A 
ATOM     79  C   UNL A   1      35.020  35.632  32.202  1.00  0.00     0.020 A 
ATOM     80  C   UNL A   1      33.765  35.115  32.527  1.00  0.00     0.054 A 
BRANCH  80  81
ATOM     81  S   UNL A   1      32.261  36.056  32.149  1.00  0.00     0.124 S 
ATOM     82  O   UNL A   1      32.401  37.218  33.019  1.00  0.00    -0.237 OA
ATOM     83  O   UNL A   1      32.403  36.315  30.718  1.00  0.00    -0.237 OA
ATOM     84  O   UNL A   1      31.183  35.134  32.501  1.00  0.00    -0.744 OA
ENDBRANCH  80  81
ENDBRANCH  52  75
BRANCH  64  85
ATOM     85  C   UNL A   1      40.547  33.872  38.523  1.00  0.00    -0.014 A 
ATOM     86  C   UNL A   1      41.195  35.120  38.478  1.00  0.00     0.010 A 
ATOM     87  C   UNL A   1      39.952  33.455  39.728  1.00  0.00     0.010 A 
ATOM     88  C   UNL A   1      41.295  35.905  39.631  1.00  0.00     0.020 A 
ATOM     89  C   UNL A   1      40.017  34.254  40.872  1.00  0.00     0.020 A 
ATOM     90  C   UNL A   1      40.710  35.464  40.822  1.00  0.00     0.054 A 
BRANCH  90  91
ATOM     91  S   UNL A   1      40.850  36.503  42.302  1.00  0.00     0.124 S 
ATOM     92  O   UNL A   1      41.824  37.505  41.879  1.00  0.00    -0.237 OA
ATOM     93  O   UNL A   1      39.484  36.989  42.483  1.00  0.00    -0.237 OA
ATOM     94  O   UNL A   1      41.317  35.578  43.333  1.00  0.00    -0.744 OA
ENDBRANCH  90  91
ENDBRANCH  64  85
ENDBRANCH  38  39
ENDBRANCH  31  33
ENDBRANCH  30  31
ENDBRANCH  29  30
ENDBRANCH   1  29
TORSDOF 20
ENDMDL
MODEL 2
REMARK VINA RESULT:     -10.5      6.004      8.254
REMARK SMILES Cc1c[nH]c(C[N@H+]2C[C@@H]3CN(S(C)(=O)=O)C[C@]3(C(=O)OCCOCCOC(=O)c3ccc(-c4c5nc(c(-c6ccc(S(=O)(=O)[O-])cc6)c6ccc([nH]6)c(-c6ccc(S(=O)(=O)[O-])cc6)c6nc(c(-c7ccc(S(=O)(=O)[O-])cc7)c7ccc4[nH]7)C=C6)C=C5)cc3)C2)n1
REMARK SMILES IDX 24 1 23 2 22 3 21 4 20 5 18 6 19 7 17 8 7 9 8 10 89 11 9 13
REMARK SMILES IDX 10 14 16 15 11 16 6 17 5 18 1 19 2 20 3 21 90 22 4 23 12 25
REMARK SMILES IDX 13 26 14 27 15 28 25 29 26 30 27 31 28 32 29 33 30 34 88 35
REMARK SMILES IDX 31 36 87 37 32 38 33 39 34 40 81 41 35 42 86 43 80 44 82 45
REMARK SMILES IDX 36 46 85 47 79 48 78 49 37 51 67 52 48 53 66 54 49 55 52 56
REMARK SMILES IDX 65 57 83 58 50 59 51 60 64 62 84 63 53 64 38 65 39 66 47 67
REMARK SMILES IDX 40 68 46 69 41 70 42 71 43 72 44 73 45 74 68 75 69 76 77 77
REMARK SMILES IDX 70 78 76 79 71 80 72 81 73 82 74 83 75 84 54 85 55 86 63 87
REMARK SMILES IDX 56 88 62 89 57 90 58 91 59 92 60 93 61 94
REMARK H PARENT 7 12 4 24 82 50 52 61
REMARK Flexibility Score: inf
ROOT
ATOM      1  C   UNL A   1      39.162  20.284  25.465  1.00  0.00     0.202 C 
ENDROOT
BRANCH   1   2
ATOM      2  O   UNL A   1      38.902  21.584  25.994  1.00  0.00    -0.374 OA
BRANCH   2   3
ATOM      3  C   UNL A   1      37.599  22.111  25.748  1.00  0.00     0.202 C 
BRANCH   3   4
ATOM      4  C   UNL A   1      37.588  23.598  25.391  1.00  0.00     0.261 C 
BRANCH   4   5
ATOM      5  O   UNL A   1      36.252  24.084  25.176  1.00  0.00    -0.463 OA
BRANCH   5   6
ATOM      6  C   UNL A   1      35.470  23.705  24.109  1.00  0.00     0.319 C 
ATOM      7  O   UNL A   1      35.884  23.400  23.006  1.00  0.00    -0.251 OA
BRANCH   6   8
ATOM      8  C   UNL A   1      34.017  23.868  24.557  1.00  0.00     0.140 C 
ATOM      9  N   UNL A   1      32.750  21.898  25.349  1.00  0.00    -0.327 N 
ATOM     10  C   UNL A   1      32.360  23.039  26.148  1.00  0.00     0.268 C 
ATOM     11  C   UNL A   1      33.494  22.456  24.204  1.00  0.00     0.283 C 
ATOM     12  H   UNL A   1      31.939  21.381  25.008  1.00  0.00     0.348 HD
ATOM     13  C   UNL A   1      33.455  24.103  25.974  1.00  0.00     0.084 C 
ATOM     14  C   UNL A   1      32.713  25.450  26.024  1.00  0.00     0.113 C 
ATOM     15  C   UNL A   1      33.600  25.167  23.828  1.00  0.00     0.127 C 
ATOM     16  N   UNL A   1      32.591  25.828  24.632  1.00  0.00    -0.200 NA
BRANCH   9  17
ATOM     17  C   UNL A   1      33.414  20.814  26.105  1.00  0.00     0.338 C 
BRANCH  17  18
ATOM     18  C   UNL A   1      33.311  19.411  25.564  1.00  0.00     0.161 A 
ATOM     19  C   UNL A   1      33.931  16.746  23.279  1.00  0.00     0.068 C 
ATOM     20  C   UNL A   1      33.510  17.593  24.417  1.00  0.00     0.056 A 
ATOM     21  C   UNL A   1      32.897  17.227  25.593  1.00  0.00     0.107 A 
ATOM     22  N   UNL A   1      33.738  18.950  24.406  1.00  0.00    -0.233 NA
ATOM     23  N   UNL A   1      32.757  18.387  26.301  1.00  0.00    -0.344 N 
ATOM     24  H   UNL A   1      32.335  18.476  27.186  1.00  0.00     0.167 HD
ENDBRANCH  17  18
ENDBRANCH   9  17
BRANCH  16  25
ATOM     25  S   UNL A   1      31.312  26.612  23.928  1.00  0.00     0.211 S 
ATOM     26  C   UNL A   1      32.131  27.494  22.613  1.00  0.00     0.176 C 
ATOM     27  O   UNL A   1      30.433  25.619  23.339  1.00  0.00    -0.213 OA
ATOM     28  O   UNL A   1      30.830  27.586  24.875  1.00  0.00    -0.213 OA
ENDBRANCH  16  25
ENDBRANCH   6   8
ENDBRANCH   5   6
ENDBRANCH   4   5
ENDBRANCH   3   4
ENDBRANCH   2   3
ENDBRANCH   1   2
BRANCH   1  29
ATOM     29  C   UNL A   1      40.341  19.540  26.085  1.00  0.00     0.261 C 
BRANCH  29  30
ATOM     30  O   UNL A   1      41.485  19.579  25.218  1.00  0.00    -0.460 OA
BRANCH  30  31
ATOM     31  C   UNL A   1      42.638  19.860  25.868  1.00  0.00     0.338 C 
ATOM     32  O   UNL A   1      43.641  19.166  25.908  1.00  0.00    -0.246 OA
BRANCH  31  33
ATOM     33  C   UNL A   1      42.614  21.227  26.418  1.00  0.00     0.060 A 
ATOM     34  C   UNL A   1      42.559  22.269  25.486  1.00  0.00     0.016 A 
ATOM     35  C   UNL A   1      42.754  21.498  27.782  1.00  0.00     0.016 A 
ATOM     36  C   UNL A   1      42.765  23.577  25.897  1.00  0.00     0.010 A 
ATOM     37  C   UNL A   1      42.958  22.819  28.195  1.00  0.00     0.010 A 
ATOM     38  C   UNL A   1      43.031  23.853  27.245  1.00  0.00    -0.014 A 
BRANCH  38  39
ATOM     39  C   UNL A   1      43.560  25.194  27.590  1.00  0.00     0.031 A 
ATOM     40  C   UNL A   1      45.002  25.511  27.288  1.00  0.00     0.074 A 
ATOM     41  C   UNL A   1      42.737  26.150  28.054  1.00  0.00     0.049 A 
ATOM     42  N   UNL A   1      45.643  26.645  27.408  1.00  0.00    -0.248 NA
ATOM     43  C   UNL A   1      45.831  24.408  26.773  1.00  0.00     0.031 C 
ATOM     44  C   UNL A   1      41.313  25.972  28.337  1.00  0.00     0.029 A 
ATOM     45  N   UNL A   1      42.977  27.468  28.346  1.00  0.00    -0.354 N 
ATOM     46  C   UNL A   1      46.946  26.392  26.992  1.00  0.00     0.074 A 
ATOM     47  C   UNL A   1      47.015  24.989  26.650  1.00  0.00     0.031 C 
ATOM     48  C   UNL A   1      40.801  27.144  28.747  1.00  0.00     0.029 A 
ATOM     49  C   UNL A   1      41.866  28.144  28.787  1.00  0.00     0.049 A 
ATOM     50  H   UNL A   1      43.863  27.890  28.248  1.00  0.00     0.167 HD
ATOM     51  C   UNL A   1      47.988  27.251  26.894  1.00  0.00     0.031 A 
ATOM     52  C   UNL A   1      41.725  29.424  29.187  1.00  0.00     0.031 A 
ATOM     53  C   UNL A   1      47.915  28.645  27.249  1.00  0.00     0.049 A 
ATOM     54  C   UNL A   1      42.916  30.344  29.130  1.00  0.00     0.074 A 
ATOM     55  C   UNL A   1      48.912  29.605  27.178  1.00  0.00     0.029 A 
ATOM     56  N   UNL A   1      46.787  29.279  27.749  1.00  0.00    -0.354 N 
ATOM     57  N   UNL A   1      44.135  30.095  28.716  1.00  0.00    -0.248 NA
ATOM     58  C   UNL A   1      42.703  31.727  29.579  1.00  0.00     0.031 C 
ATOM     59  C   UNL A   1      48.404  30.800  27.697  1.00  0.00     0.029 A 
ATOM     60  C   UNL A   1      47.069  30.608  28.015  1.00  0.00     0.049 A 
ATOM     61  H   UNL A   1      45.914  28.847  27.891  1.00  0.00     0.167 HD
ATOM     62  C   UNL A   1      44.826  31.297  28.820  1.00  0.00     0.074 A 
ATOM     63  C   UNL A   1      43.881  32.276  29.321  1.00  0.00     0.031 C 
ATOM     64  C   UNL A   1      46.122  31.571  28.521  1.00  0.00     0.031 A 
BRANCH  51  65
ATOM     65  C   UNL A   1      49.311  26.700  26.422  1.00  0.00    -0.014 A 
ATOM     66  C   UNL A   1      49.749  26.871  25.096  1.00  0.00     0.010 A 
ATOM     67  C   UNL A   1      50.149  26.033  27.335  1.00  0.00     0.010 A 
ATOM     68  C   UNL A   1      50.982  26.356  24.684  1.00  0.00     0.020 A 
ATOM     69  C   UNL A   1      51.396  25.543  26.935  1.00  0.00     0.020 A 
ATOM     70  C   UNL A   1      51.798  25.694  25.607  1.00  0.00     0.054 A 
BRANCH  70  71
ATOM     71  S   UNL A   1      53.405  25.062  25.053  1.00  0.00     0.124 S 
ATOM     72  O   UNL A   1      54.322  25.709  25.987  1.00  0.00    -0.237 OA
ATOM     73  O   UNL A   1      53.255  23.619  25.220  1.00  0.00    -0.237 OA
ATOM     74  O   UNL A   1      53.503  25.520  23.670  1.00  0.00    -0.744 OA
ENDBRANCH  70  71
ENDBRANCH  51  65
BRANCH  52  75
ATOM     75  C   UNL A   1      40.406  29.903  29.685  1.00  0.00    -0.014 A 
ATOM     76  C   UNL A   1      40.120  29.937  31.061  1.00  0.00     0.010 A 
ATOM     77  C   UNL A   1      39.426  30.334  28.773  1.00  0.00     0.010 A 
ATOM     78  C   UNL A   1      38.871  30.376  31.512  1.00  0.00     0.020 A 
ATOM     79  C   UNL A   1      38.189  30.804  29.221  1.00  0.00     0.020 A 
ATOM     80  C   UNL A   1      37.916  30.810  30.589  1.00  0.00     0.054 A 
BRANCH  80  81
ATOM     81  S   UNL A   1      36.322  31.424  31.202  1.00  0.00     0.124 S 
ATOM     82  O   UNL A   1      35.888  30.335  32.070  1.00  0.00    -0.237 OA
ATOM     83  O   UNL A   1      36.701  32.662  31.878  1.00  0.00    -0.237 OA
ATOM     84  O   UNL A   1      35.535  31.607  29.984  1.00  0.00    -0.744 OA
ENDBRANCH  80  81
ENDBRANCH  52  75
BRANCH  64  85
ATOM     85  C   UNL A   1      46.582  32.999  28.680  1.00  0.00    -0.014 A 
ATOM     86  C   UNL A   1      46.604  33.894  27.594  1.00  0.00     0.010 A 
ATOM     87  C   UNL A   1      46.980  33.456  29.950  1.00  0.00     0.010 A 
ATOM     88  C   UNL A   1      47.071  35.201  27.766  1.00  0.00     0.020 A 
ATOM     89  C   UNL A   1      47.411  34.772  30.133  1.00  0.00     0.020 A 
ATOM     90  C   UNL A   1      47.476  35.629  29.034  1.00  0.00     0.054 A 
BRANCH  90  91
ATOM     91  S   UNL A   1      48.074  37.330  29.232  1.00  0.00     0.124 S 
ATOM     92  O   UNL A   1      46.826  38.080  29.341  1.00  0.00    -0.237 OA
ATOM     93  O   UNL A   1      48.869  37.250  30.456  1.00  0.00    -0.237 OA
ATOM     94  O   UNL A   1      48.842  37.572  28.012  1.00  0.00    -0.744 OA
ENDBRANCH  90  91
ENDBRANCH  64  85
ENDBRANCH  38  39
ENDBRANCH  31  33
ENDBRANCH  30  31
ENDBRANCH  29  30
ENDBRANCH   1  29
TORSDOF 20
ENDMDL
MODEL 3
REMARK VINA RESULT:     -10.4      2.792      9.282
REMARK SMILES Cc1c[nH]c(C[N@H+]2C[C@@H]3CN(S(C)(=O)=O)C[C@]3(C(=O)OCCOCCOC(=O)c3ccc(-c4c5nc(c(-c6ccc(S(=O)(=O)[O-])cc6)c6ccc([nH]6)c(-c6ccc(S(=O)(=O)[O-])cc6)c6nc(c(-c7ccc(S(=O)(=O)[O-])cc7)c7ccc4[nH]7)C=C6)C=C5)cc3)C2)n1
REMARK SMILES IDX 24 1 23 2 22 3 21 4 20 5 18 6 19 7 17 8 7 9 8 10 89 11 9 13
REMARK SMILES IDX 10 14 16 15 11 16 6 17 5 18 1 19 2 20 3 21 90 22 4 23 12 25
REMARK SMILES IDX 13 26 14 27 15 28 25 29 26 30 27 31 28 32 29 33 30 34 88 35
REMARK SMILES IDX 31 36 87 37 32 38 33 39 34 40 81 41 35 42 86 43 80 44 82 45
REMARK SMILES IDX 36 46 85 47 79 48 78 49 37 51 67 52 48 53 66 54 49 55 52 56
REMARK SMILES IDX 65 57 83 58 50 59 51 60 64 62 84 63 53 64 38 65 39 66 47 67
REMARK SMILES IDX 40 68 46 69 41 70 42 71 43 72 44 73 45 74 68 75 69 76 77 77
REMARK SMILES IDX 70 78 76 79 71 80 72 81 73 82 74 83 75 84 54 85 55 86 63 87
REMARK SMILES IDX 56 88 62 89 57 90 58 91 59 92 60 93 61 94
REMARK H PARENT 7 12 4 24 82 50 52 61
REMARK Flexibility Score: inf
ROOT
ATOM      1  C   UNL A   1      33.383  30.981  26.955  1.00  0.00     0.202 C 
ENDROOT
BRANCH   1   2
ATOM      2  O   UNL A   1      31.998  30.817  26.651  1.00  0.00    -0.374 OA
BRANCH   2   3
ATOM      3  C   UNL A   1      31.590  29.502  26.274  1.00  0.00     0.202 C 
BRANCH   3   4
ATOM      4  C   UNL A   1      31.706  28.471  27.396  1.00  0.00     0.261 C 
BRANCH   4   5
ATOM      5  O   UNL A   1      32.184  27.205  26.909  1.00  0.00    -0.463 OA
BRANCH   5   6
ATOM      6  C   UNL A   1      33.407  27.040  26.300  1.00  0.00     0.319 C 
ATOM      7  O   UNL A   1      34.405  27.694  26.538  1.00  0.00    -0.251 OA
BRANCH   6   8
ATOM      8  C   UNL A   1      33.211  25.982  25.214  1.00  0.00     0.140 C 
ATOM      9  N   UNL A   1      31.979  26.560  23.148  1.00  0.00    -0.327 N 
ATOM     10  C   UNL A   1      33.065  25.671  22.796  1.00  0.00     0.268 C 
ATOM     11  C   UNL A   1      31.877  26.490  24.618  1.00  0.00     0.283 C 
ATOM     12  H   UNL A   1      31.097  26.262  22.731  1.00  0.00     0.348 HD
ATOM     13  C   UNL A   1      34.066  25.702  23.961  1.00  0.00     0.084 C 
ATOM     14  C   UNL A   1      34.641  24.277  24.030  1.00  0.00     0.113 C 
ATOM     15  C   UNL A   1      33.373  24.667  26.012  1.00  0.00     0.127 C 
ATOM     16  N   UNL A   1      33.906  23.661  25.115  1.00  0.00    -0.200 NA
BRANCH   9  17
ATOM     17  C   UNL A   1      32.072  27.912  22.555  1.00  0.00     0.338 C 
BRANCH  17  18
ATOM     18  C   UNL A   1      30.793  28.686  22.363  1.00  0.00     0.161 A 
ATOM     19  C   UNL A   1      27.387  29.550  22.960  1.00  0.00     0.068 C 
ATOM     20  C   UNL A   1      28.791  29.481  22.499  1.00  0.00     0.056 A 
ATOM     21  C   UNL A   1      29.490  30.365  21.708  1.00  0.00     0.107 A 
ATOM     22  N   UNL A   1      29.605  28.438  22.877  1.00  0.00    -0.233 NA
ATOM     23  N   UNL A   1      30.749  29.841  21.613  1.00  0.00    -0.344 N 
ATOM     24  H   UNL A   1      31.495  30.223  21.097  1.00  0.00     0.167 HD
ENDBRANCH  17  18
ENDBRANCH   9  17
BRANCH  16  25
ATOM     25  S   UNL A   1      33.408  22.083  25.204  1.00  0.00     0.211 S 
ATOM     26  C   UNL A   1      34.833  21.315  25.953  1.00  0.00     0.176 C 
ATOM     27  O   UNL A   1      32.300  22.004  26.136  1.00  0.00    -0.213 OA
ATOM     28  O   UNL A   1      33.303  21.589  23.854  1.00  0.00    -0.213 OA
ENDBRANCH  16  25
ENDBRANCH   6   8
ENDBRANCH   5   6
ENDBRANCH   4   5
ENDBRANCH   3   4
ENDBRANCH   2   3
ENDBRANCH   1   2
BRANCH   1  29
ATOM     29  C   UNL A   1      33.707  32.009  28.035  1.00  0.00     0.261 C 
BRANCH  29  30
ATOM     30  O   UNL A   1      33.531  33.345  27.540  1.00  0.00    -0.460 OA
BRANCH  30  31
ATOM     31  C   UNL A   1      33.450  34.272  28.522  1.00  0.00     0.338 C 
ATOM     32  O   UNL A   1      32.536  35.057  28.712  1.00  0.00    -0.246 OA
BRANCH  31  33
ATOM     33  C   UNL A   1      34.561  34.124  29.479  1.00  0.00     0.060 A 
ATOM     34  C   UNL A   1      35.850  34.306  28.965  1.00  0.00     0.016 A 
ATOM     35  C   UNL A   1      34.373  33.711  30.801  1.00  0.00     0.016 A 
ATOM     36  C   UNL A   1      36.955  33.962  29.728  1.00  0.00     0.010 A 
ATOM     37  C   UNL A   1      35.491  33.367  31.571  1.00  0.00     0.010 A 
ATOM     38  C   UNL A   1      36.779  33.428  31.012  1.00  0.00    -0.014 A 
BRANCH  38  39
ATOM     39  C   UNL A   1      37.942  32.779  31.661  1.00  0.00     0.031 A 
ATOM     40  C   UNL A   1      38.389  33.263  33.017  1.00  0.00     0.074 A 
ATOM     41  C   UNL A   1      38.514  31.696  31.105  1.00  0.00     0.049 A 
ATOM     42  N   UNL A   1      39.309  32.775  33.808  1.00  0.00    -0.248 NA
ATOM     43  C   UNL A   1      37.702  34.449  33.557  1.00  0.00     0.031 C 
ATOM     44  C   UNL A   1      38.132  31.108  29.821  1.00  0.00     0.029 A 
ATOM     45  N   UNL A   1      39.521  30.886  31.561  1.00  0.00    -0.354 N 
ATOM     46  C   UNL A   1      39.317  33.595  34.932  1.00  0.00     0.074 A 
ATOM     47  C   UNL A   1      38.335  34.632  34.706  1.00  0.00     0.031 C 
ATOM     48  C   UNL A   1      38.887  30.019  29.600  1.00  0.00     0.029 A 
ATOM     49  C   UNL A   1      39.825  29.853  30.708  1.00  0.00     0.049 A 
ATOM     50  H   UNL A   1      39.983  31.031  32.420  1.00  0.00     0.167 HD
ATOM     51  C   UNL A   1      40.066  33.487  36.056  1.00  0.00     0.031 A 
ATOM     52  C   UNL A   1      40.760  28.887  30.806  1.00  0.00     0.031 A 
ATOM     53  C   UNL A   1      41.051  32.458  36.269  1.00  0.00     0.049 A 
ATOM     54  C   UNL A   1      41.625  28.828  32.037  1.00  0.00     0.074 A 
ATOM     55  C   UNL A   1      41.857  32.255  37.377  1.00  0.00     0.029 A 
ATOM     56  N   UNL A   1      41.371  31.464  35.356  1.00  0.00    -0.354 N 
ATOM     57  N   UNL A   1      41.606  29.597  33.100  1.00  0.00    -0.248 NA
ATOM     58  C   UNL A   1      42.627  27.754  32.088  1.00  0.00     0.031 C 
ATOM     59  C   UNL A   1      42.709  31.180  37.104  1.00  0.00     0.029 A 
ATOM     60  C   UNL A   1      42.379  30.662  35.862  1.00  0.00     0.049 A 
ATOM     61  H   UNL A   1      40.943  31.347  34.477  1.00  0.00     0.167 HD
ATOM     62  C   UNL A   1      42.568  29.079  33.961  1.00  0.00     0.074 A 
ATOM     63  C   UNL A   1      43.136  27.921  33.299  1.00  0.00     0.031 C 
ATOM     64  C   UNL A   1      42.943  29.517  35.191  1.00  0.00     0.031 A 
BRANCH  51  65
ATOM     65  C   UNL A   1      39.879  34.534  37.126  1.00  0.00    -0.014 A 
ATOM     66  C   UNL A   1      39.009  34.330  38.212  1.00  0.00     0.010 A 
ATOM     67  C   UNL A   1      40.622  35.728  37.065  1.00  0.00     0.010 A 
ATOM     68  C   UNL A   1      38.857  35.313  39.195  1.00  0.00     0.020 A 
ATOM     69  C   UNL A   1      40.497  36.700  38.061  1.00  0.00     0.020 A 
ATOM     70  C   UNL A   1      39.603  36.493  39.113  1.00  0.00     0.054 A 
BRANCH  70  71
ATOM     71  S   UNL A   1      39.410  37.739  40.417  1.00  0.00     0.124 S 
ATOM     72  O   UNL A   1      38.204  38.442  39.986  1.00  0.00    -0.237 OA
ATOM     73  O   UNL A   1      39.265  36.923  41.619  1.00  0.00    -0.237 OA
ATOM     74  O   UNL A   1      40.643  38.518  40.341  1.00  0.00    -0.744 OA
ENDBRANCH  70  71
ENDBRANCH  51  65
BRANCH  52  75
ATOM     75  C   UNL A   1      40.929  27.906  29.700  1.00  0.00    -0.014 A 
ATOM     76  C   UNL A   1      40.064  26.805  29.569  1.00  0.00     0.010 A 
ATOM     77  C   UNL A   1      41.964  28.075  28.762  1.00  0.00     0.010 A 
ATOM     78  C   UNL A   1      40.245  25.883  28.533  1.00  0.00     0.020 A 
ATOM     79  C   UNL A   1      42.128  27.175  27.707  1.00  0.00     0.020 A 
ATOM     80  C   UNL A   1      41.273  26.077  27.606  1.00  0.00     0.054 A 
BRANCH  80  81
ATOM     81  S   UNL A   1      41.455  24.896  26.240  1.00  0.00     0.124 S 
ATOM     82  O   UNL A   1      40.181  24.187  26.278  1.00  0.00    -0.237 OA
ATOM     83  O   UNL A   1      41.658  25.774  25.091  1.00  0.00    -0.237 OA
ATOM     84  O   UNL A   1      42.624  24.107  26.624  1.00  0.00    -0.744 OA
ENDBRANCH  80  81
ENDBRANCH  52  75
BRANCH  64  85
ATOM     85  C   UNL A   1      43.983  28.709  35.925  1.00  0.00    -0.014 A 
ATOM     86  C   UNL A   1      43.633  27.615  36.737  1.00  0.00     0.010 A 
ATOM     87  C   UNL A   1      45.343  29.043  35.779  1.00  0.00     0.010 A 
ATOM     88  C   UNL A   1      44.618  26.909  37.434  1.00  0.00     0.020 A 
ATOM     89  C   UNL A   1      46.333  28.316  36.444  1.00  0.00     0.020 A 
ATOM     90  C   UNL A   1      45.962  27.268  37.286  1.00  0.00     0.054 A 
BRANCH  90  91
ATOM     91  S   UNL A   1      47.222  26.334  38.198  1.00  0.00     0.124 S 
ATOM     92  O   UNL A   1      48.460  26.904  37.677  1.00  0.00    -0.237 OA
ATOM     93  O   UNL A   1      46.916  26.658  39.590  1.00  0.00    -0.237 OA
ATOM     94  O   UNL A   1      46.967  24.945  37.818  1.00  0.00    -0.744 OA
ENDBRANCH  90  91
ENDBRANCH  64  85
ENDBRANCH  38  39
ENDBRANCH  31  33
ENDBRANCH  30  31
ENDBRANCH  29  30
ENDBRANCH   1  29
TORSDOF 20
ENDMDL
