MODEL 1
REMARK VINA RESULT:      -9.0      0.000      0.000
REMARK SMILES Cc1sc(C(=O)OCCOCCOC(=O)c2ccc(-c3c4nc(c(-c5ccc(S(=O)(=O)[O-])cc5)c5ccc([nH]5)c(-c5ccc(S(=O)(=O)[O-])cc5)c5nc(c(-c6ccc(S(=O)(=O)[O-])cc6)c6ccc3[nH]6)C=C5)C=C4)cc2)cc1Br
REMARK SMILES IDX 11 1 10 2 9 3 8 4 7 5 5 6 6 7 4 8 1 9 2 10 3 11 77 12 76 13
REMARK SMILES IDX 78 14 12 15 13 16 14 17 15 18 16 19 17 20 75 21 18 22 74 23
REMARK SMILES IDX 19 24 20 25 21 26 68 27 22 28 73 29 67 30 69 31 23 32 72 33
REMARK SMILES IDX 66 34 65 35 24 37 54 38 35 39 53 40 36 41 39 42 52 43 70 44
REMARK SMILES IDX 37 45 38 46 51 48 71 49 40 50 25 51 26 52 34 53 27 54 33 55
REMARK SMILES IDX 28 56 29 57 30 58 31 59 32 60 55 61 56 62 64 63 57 64 63 65
REMARK SMILES IDX 58 66 59 67 60 68 61 69 62 70 41 71 42 72 50 73 43 74 49 75
REMARK SMILES IDX 44 76 45 77 46 78 47 79 48 80
REMARK H PARENT 69 36 39 47
REMARK Flexibility Score: inf
ROOT
ATOM      1  C   UNL A   1      41.906  20.568  25.764  1.00  0.00     0.202 C 
ENDROOT
BRANCH   1   2
ATOM      2  O   UNL A   1      42.756  19.708  26.528  1.00  0.00    -0.374 OA
BRANCH   2   3
ATOM      3  C   UNL A   1      43.174  18.504  25.879  1.00  0.00     0.202 C 
BRANCH   3   4
ATOM      4  C   UNL A   1      44.664  18.469  25.527  1.00  0.00     0.261 C 
BRANCH   4   5
ATOM      5  O   UNL A   1      44.924  19.307  24.387  1.00  0.00    -0.459 OA
BRANCH   5   6
ATOM      6  C   UNL A   1      45.996  20.142  24.490  1.00  0.00     0.348 C 
ATOM      7  O   UNL A   1      47.131  19.868  24.117  1.00  0.00    -0.245 OA
BRANCH   6   8
ATOM      8  C   UNL A   1      45.561  21.425  25.012  1.00  0.00     0.114 A 
ATOM      9  C   UNL A   1      43.647  24.858  24.917  1.00  0.00     0.057 C 
ATOM     10  C   UNL A   1      44.443  23.634  25.217  1.00  0.00     0.017 A 
ATOM     11  S   UNL A   1      44.714  22.491  23.969  1.00  0.00    -0.132 S 
ATOM     12  C   UNL A   1      45.025  23.216  26.391  1.00  0.00     0.032 A 
ATOM     13  C   UNL A   1      45.666  21.952  26.287  1.00  0.00     0.043 A 
ATOM     14  Br  UNL A   1      44.992  24.150  28.034  1.00  0.00    -0.050 Br
ENDBRANCH   6   8
ENDBRANCH   5   6
ENDBRANCH   4   5
ENDBRANCH   3   4
ENDBRANCH   2   3
ENDBRANCH   1   2
BRANCH   1  15
ATOM     15  C   UNL A   1      40.478  20.706  26.304  1.00  0.00     0.261 C 
BRANCH  15  16
ATOM     16  O   UNL A   1      40.308  21.957  26.998  1.00  0.00    -0.460 OA
BRANCH  16  17
ATOM     17  C   UNL A   1      39.312  22.745  26.523  1.00  0.00     0.338 C 
ATOM     18  O   UNL A   1      38.349  22.393  25.863  1.00  0.00    -0.246 OA
BRANCH  17  19
ATOM     19  C   UNL A   1      39.449  24.110  27.071  1.00  0.00     0.060 A 
ATOM     20  C   UNL A   1      40.164  25.040  26.307  1.00  0.00     0.016 A 
ATOM     21  C   UNL A   1      38.934  24.469  28.320  1.00  0.00     0.016 A 
ATOM     22  C   UNL A   1      40.409  26.318  26.808  1.00  0.00     0.010 A 
ATOM     23  C   UNL A   1      39.187  25.751  28.825  1.00  0.00     0.010 A 
ATOM     24  C   UNL A   1      39.953  26.669  28.085  1.00  0.00    -0.014 A 
BRANCH  24  25
ATOM     25  C   UNL A   1      40.394  27.949  28.693  1.00  0.00     0.031 A 
ATOM     26  C   UNL A   1      41.806  28.071  29.199  1.00  0.00     0.074 A 
ATOM     27  C   UNL A   1      39.560  29.003  28.763  1.00  0.00     0.049 A 
ATOM     28  N   UNL A   1      42.396  29.089  29.769  1.00  0.00    -0.248 NA
ATOM     29  C   UNL A   1      42.668  26.888  29.037  1.00  0.00     0.031 C 
ATOM     30  C   UNL A   1      38.181  29.026  28.273  1.00  0.00     0.029 A 
ATOM     31  N   UNL A   1      39.755  30.261  29.277  1.00  0.00    -0.354 N 
ATOM     32  C   UNL A   1      43.694  28.672  30.036  1.00  0.00     0.074 A 
ATOM     33  C   UNL A   1      43.800  27.299  29.591  1.00  0.00     0.031 C 
ATOM     34  C   UNL A   1      37.652  30.238  28.518  1.00  0.00     0.029 A 
ATOM     35  C   UNL A   1      38.643  31.065  29.204  1.00  0.00     0.049 A 
ATOM     36  H   UNL A   1      40.611  30.558  29.662  1.00  0.00     0.167 HD
ATOM     37  C   UNL A   1      44.711  29.371  30.595  1.00  0.00     0.031 A 
ATOM     38  C   UNL A   1      38.442  32.319  29.655  1.00  0.00     0.031 A 
ATOM     39  C   UNL A   1      44.606  30.731  31.050  1.00  0.00     0.049 A 
ATOM     40  C   UNL A   1      39.567  33.051  30.337  1.00  0.00     0.074 A 
ATOM     41  C   UNL A   1      45.585  31.526  31.621  1.00  0.00     0.029 A 
ATOM     42  N   UNL A   1      43.453  31.499  30.990  1.00  0.00    -0.354 N 
ATOM     43  N   UNL A   1      40.795  32.650  30.562  1.00  0.00    -0.248 NA
ATOM     44  C   UNL A   1      39.280  34.409  30.821  1.00  0.00     0.031 C 
ATOM     45  C   UNL A   1      45.012  32.758  31.950  1.00  0.00     0.029 A 
ATOM     46  C   UNL A   1      43.689  32.749  31.536  1.00  0.00     0.049 A 
ATOM     47  H   UNL A   1      42.594  31.199  30.615  1.00  0.00     0.167 HD
ATOM     48  C   UNL A   1      41.433  33.715  31.191  1.00  0.00     0.074 A 
ATOM     49  C   UNL A   1      40.460  34.781  31.299  1.00  0.00     0.031 C 
ATOM     50  C   UNL A   1      42.710  33.802  31.637  1.00  0.00     0.031 A 
BRANCH  37  51
ATOM     51  C   UNL A   1      46.027  28.662  30.770  1.00  0.00    -0.014 A 
ATOM     52  C   UNL A   1      47.027  28.735  29.784  1.00  0.00     0.010 A 
ATOM     53  C   UNL A   1      46.282  27.950  31.956  1.00  0.00     0.010 A 
ATOM     54  C   UNL A   1      48.249  28.083  29.968  1.00  0.00     0.020 A 
ATOM     55  C   UNL A   1      47.512  27.315  32.153  1.00  0.00     0.020 A 
ATOM     56  C   UNL A   1      48.483  27.374  31.150  1.00  0.00     0.054 A 
BRANCH  56  57
ATOM     57  S   UNL A   1      50.087  26.559  31.376  1.00  0.00     0.124 S 
ATOM     58  O   UNL A   1      50.780  27.498  32.254  1.00  0.00    -0.237 OA
ATOM     59  O   UNL A   1      49.717  25.285  31.987  1.00  0.00    -0.237 OA
ATOM     60  O   UNL A   1      50.621  26.464  30.020  1.00  0.00    -0.744 OA
ENDBRANCH  56  57
ENDBRANCH  37  51
BRANCH  38  61
ATOM     61  C   UNL A   1      37.109  32.961  29.498  1.00  0.00    -0.014 A 
ATOM     62  C   UNL A   1      36.645  33.361  28.232  1.00  0.00     0.010 A 
ATOM     63  C   UNL A   1      36.298  33.190  30.626  1.00  0.00     0.010 A 
ATOM     64  C   UNL A   1      35.407  33.995  28.099  1.00  0.00     0.020 A 
ATOM     65  C   UNL A   1      35.050  33.802  30.494  1.00  0.00     0.020 A 
ATOM     66  C   UNL A   1      34.617  34.213  29.231  1.00  0.00     0.054 A 
BRANCH  66  67
ATOM     67  S   UNL A   1      32.994  35.000  29.035  1.00  0.00     0.124 S 
ATOM     68  O   UNL A   1      33.358  36.330  28.560  1.00  0.00    -0.237 OA
ATOM     69  O   UNL A   1      32.339  34.134  28.057  1.00  0.00    -0.237 OA
ATOM     70  O   UNL A   1      32.425  34.946  30.380  1.00  0.00    -0.744 OA
ENDBRANCH  66  67
ENDBRANCH  38  61
BRANCH  50  71
ATOM     71  C   UNL A   1      43.145  35.104  32.254  1.00  0.00    -0.014 A 
ATOM     72  C   UNL A   1      43.757  36.106  31.484  1.00  0.00     0.010 A 
ATOM     73  C   UNL A   1      42.885  35.347  33.616  1.00  0.00     0.010 A 
ATOM     74  C   UNL A   1      44.129  37.319  32.070  1.00  0.00     0.020 A 
ATOM     75  C   UNL A   1      43.232  36.568  34.200  1.00  0.00     0.020 A 
ATOM     76  C   UNL A   1      43.865  37.542  33.426  1.00  0.00     0.054 A 
BRANCH  76  77
ATOM     77  S   UNL A   1      44.315  39.141  34.154  1.00  0.00     0.124 S 
ATOM     78  O   UNL A   1      43.069  39.894  34.028  1.00  0.00    -0.237 OA
ATOM     79  O   UNL A   1      44.696  38.780  35.517  1.00  0.00    -0.237 OA
ATOM     80  O   UNL A   1      45.413  39.609  33.310  1.00  0.00    -0.744 OA
ENDBRANCH  76  77
ENDBRANCH  50  71
ENDBRANCH  24  25
ENDBRANCH  17  19
ENDBRANCH  16  17
ENDBRANCH  15  16
ENDBRANCH   1  15
TORSDOF 17
ENDMDL
MODEL 2
REMARK VINA RESULT:      -8.9      4.018      4.772
REMARK SMILES Cc1sc(C(=O)OCCOCCOC(=O)c2ccc(-c3c4nc(c(-c5ccc(S(=O)(=O)[O-])cc5)c5ccc([nH]5)c(-c5ccc(S(=O)(=O)[O-])cc5)c5nc(c(-c6ccc(S(=O)(=O)[O-])cc6)c6ccc3[nH]6)C=C5)C=C4)cc2)cc1Br
REMARK SMILES IDX 11 1 10 2 9 3 8 4 7 5 5 6 6 7 4 8 1 9 2 10 3 11 77 12 76 13
REMARK SMILES IDX 78 14 12 15 13 16 14 17 15 18 16 19 17 20 75 21 18 22 74 23
REMARK SMILES IDX 19 24 20 25 21 26 68 27 22 28 73 29 67 30 69 31 23 32 72 33
REMARK SMILES IDX 66 34 65 35 24 37 54 38 35 39 53 40 36 41 39 42 52 43 70 44
REMARK SMILES IDX 37 45 38 46 51 48 71 49 40 50 25 51 26 52 34 53 27 54 33 55
REMARK SMILES IDX 28 56 29 57 30 58 31 59 32 60 55 61 56 62 64 63 57 64 63 65
REMARK SMILES IDX 58 66 59 67 60 68 61 69 62 70 41 71 42 72 50 73 43 74 49 75
REMARK SMILES IDX 44 76 45 77 46 78 47 79 48 80
REMARK H PARENT 69 36 39 47
REMARK Flexibility Score: inf
ROOT
ATOM      1  C   UNL A   1      40.404  22.222  26.853  1.00  0.00     0.202 C 
ENDROOT
BRANCH   1   2
ATOM      2  O   UNL A   1      40.646  21.258  27.883  1.00  0.00    -0.374 OA
BRANCH   2   3
ATOM      3  C   UNL A   1      41.363  20.086  27.486  1.00  0.00     0.202 C 
BRANCH   3   4
ATOM      4  C   UNL A   1      41.956  20.164  26.077  1.00  0.00     0.261 C 
BRANCH   4   5
ATOM      5  O   UNL A   1      43.392  20.134  26.141  1.00  0.00    -0.459 OA
BRANCH   5   6
ATOM      6  C   UNL A   1      44.050  20.661  25.069  1.00  0.00     0.348 C 
ATOM      7  O   UNL A   1      44.152  20.114  23.977  1.00  0.00    -0.245 OA
BRANCH   6   8
ATOM      8  C   UNL A   1      44.515  21.997  25.397  1.00  0.00     0.114 A 
ATOM      9  C   UNL A   1      44.450  25.927  25.301  1.00  0.00     0.057 C 
ATOM     10  C   UNL A   1      44.692  24.471  25.517  1.00  0.00     0.017 A 
ATOM     11  S   UNL A   1      43.801  23.334  24.596  1.00  0.00    -0.132 S 
ATOM     12  C   UNL A   1      45.541  23.829  26.388  1.00  0.00     0.032 A 
ATOM     13  C   UNL A   1      45.448  22.413  26.330  1.00  0.00     0.043 A 
ATOM     14  Br  UNL A   1      46.723  24.671  27.601  1.00  0.00    -0.050 Br
ENDBRANCH   6   8
ENDBRANCH   5   6
ENDBRANCH   4   5
ENDBRANCH   3   4
ENDBRANCH   2   3
ENDBRANCH   1   2
BRANCH   1  15
ATOM     15  C   UNL A   1      40.964  23.620  27.137  1.00  0.00     0.261 C 
BRANCH  15  16
ATOM     16  O   UNL A   1      39.991  24.637  26.835  1.00  0.00    -0.460 OA
BRANCH  16  17
ATOM     17  C   UNL A   1      40.505  25.867  26.584  1.00  0.00     0.338 C 
ATOM     18  O   UNL A   1      40.966  26.268  25.529  1.00  0.00    -0.246 OA
BRANCH  17  19
ATOM     19  C   UNL A   1      40.271  26.753  27.743  1.00  0.00     0.060 A 
ATOM     20  C   UNL A   1      40.942  27.982  27.758  1.00  0.00     0.016 A 
ATOM     21  C   UNL A   1      39.454  26.383  28.815  1.00  0.00     0.016 A 
ATOM     22  C   UNL A   1      40.837  28.824  28.863  1.00  0.00     0.010 A 
ATOM     23  C   UNL A   1      39.355  27.227  29.928  1.00  0.00     0.010 A 
ATOM     24  C   UNL A   1      40.072  28.436  29.970  1.00  0.00    -0.014 A 
BRANCH  24  25
ATOM     25  C   UNL A   1      40.134  29.234  31.220  1.00  0.00     0.031 A 
ATOM     26  C   UNL A   1      41.259  28.990  32.190  1.00  0.00     0.074 A 
ATOM     27  C   UNL A   1      39.221  30.190  31.473  1.00  0.00     0.049 A 
ATOM     28  N   UNL A   1      41.500  29.567  33.339  1.00  0.00    -0.248 NA
ATOM     29  C   UNL A   1      42.243  27.963  31.812  1.00  0.00     0.031 C 
ATOM     30  C   UNL A   1      38.106  30.550  30.596  1.00  0.00     0.029 A 
ATOM     31  N   UNL A   1      39.089  31.033  32.548  1.00  0.00    -0.354 N 
ATOM     32  C   UNL A   1      42.659  28.973  33.822  1.00  0.00     0.074 A 
ATOM     33  C   UNL A   1      43.059  27.972  32.857  1.00  0.00     0.031 C 
ATOM     34  C   UNL A   1      37.399  31.537  31.174  1.00  0.00     0.029 A 
ATOM     35  C   UNL A   1      37.994  31.860  32.469  1.00  0.00     0.049 A 
ATOM     36  H   UNL A   1      39.719  31.044  33.304  1.00  0.00     0.167 HD
ATOM     37  C   UNL A   1      43.336  29.240  34.964  1.00  0.00     0.031 A 
ATOM     38  C   UNL A   1      37.515  32.760  33.350  1.00  0.00     0.031 A 
ATOM     39  C   UNL A   1      42.935  30.225  35.933  1.00  0.00     0.049 A 
ATOM     40  C   UNL A   1      38.246  32.991  34.647  1.00  0.00     0.074 A 
ATOM     41  C   UNL A   1      43.562  30.574  37.117  1.00  0.00     0.029 A 
ATOM     42  N   UNL A   1      41.801  31.016  35.833  1.00  0.00    -0.354 N 
ATOM     43  N   UNL A   1      39.354  32.436  35.079  1.00  0.00    -0.248 NA
ATOM     44  C   UNL A   1      37.665  33.974  35.572  1.00  0.00     0.031 C 
ATOM     45  C   UNL A   1      42.781  31.543  37.756  1.00  0.00     0.029 A 
ATOM     46  C   UNL A   1      41.696  31.835  36.945  1.00  0.00     0.049 A 
ATOM     47  H   UNL A   1      41.164  30.998  35.082  1.00  0.00     0.167 HD
ATOM     48  C   UNL A   1      39.614  33.021  36.314  1.00  0.00     0.074 A 
ATOM     49  C   UNL A   1      38.557  33.981  36.554  1.00  0.00     0.031 C 
ATOM     50  C   UNL A   1      40.638  32.786  37.171  1.00  0.00     0.031 A 
BRANCH  37  51
ATOM     51  C   UNL A   1      44.575  28.433  35.243  1.00  0.00    -0.014 A 
ATOM     52  C   UNL A   1      44.502  27.209  35.932  1.00  0.00     0.010 A 
ATOM     53  C   UNL A   1      45.821  28.883  34.772  1.00  0.00     0.010 A 
ATOM     54  C   UNL A   1      45.660  26.463  36.171  1.00  0.00     0.020 A 
ATOM     55  C   UNL A   1      46.979  28.129  34.990  1.00  0.00     0.020 A 
ATOM     56  C   UNL A   1      46.891  26.930  35.701  1.00  0.00     0.054 A 
BRANCH  56  57
ATOM     57  S   UNL A   1      48.375  25.930  36.001  1.00  0.00     0.124 S 
ATOM     58  O   UNL A   1      48.767  25.559  34.644  1.00  0.00    -0.237 OA
ATOM     59  O   UNL A   1      49.265  26.871  36.676  1.00  0.00    -0.237 OA
ATOM     60  O   UNL A   1      47.889  24.831  36.832  1.00  0.00    -0.744 OA
ENDBRANCH  56  57
ENDBRANCH  37  51
BRANCH  38  61
ATOM     61  C   UNL A   1      36.261  33.502  33.049  1.00  0.00    -0.014 A 
ATOM     62  C   UNL A   1      35.004  32.917  33.283  1.00  0.00     0.010 A 
ATOM     63  C   UNL A   1      36.321  34.800  32.508  1.00  0.00     0.010 A 
ATOM     64  C   UNL A   1      33.831  33.608  32.964  1.00  0.00     0.020 A 
ATOM     65  C   UNL A   1      35.151  35.503  32.211  1.00  0.00     0.020 A 
ATOM     66  C   UNL A   1      33.912  34.897  32.429  1.00  0.00     0.054 A 
BRANCH  66  67
ATOM     67  S   UNL A   1      32.379  35.795  32.060  1.00  0.00     0.124 S 
ATOM     68  O   UNL A   1      32.660  37.115  32.613  1.00  0.00    -0.237 OA
ATOM     69  O   UNL A   1      32.311  35.719  30.602  1.00  0.00    -0.237 OA
ATOM     70  O   UNL A   1      31.356  35.023  32.762  1.00  0.00    -0.744 OA
ENDBRANCH  66  67
ENDBRANCH  38  61
BRANCH  50  71
ATOM     71  C   UNL A   1      40.687  33.600  38.436  1.00  0.00    -0.014 A 
ATOM     72  C   UNL A   1      41.332  34.849  38.473  1.00  0.00     0.010 A 
ATOM     73  C   UNL A   1      40.031  33.132  39.589  1.00  0.00     0.010 A 
ATOM     74  C   UNL A   1      41.344  35.602  39.650  1.00  0.00     0.020 A 
ATOM     75  C   UNL A   1      40.020  33.894  40.761  1.00  0.00     0.020 A 
ATOM     76  C   UNL A   1      40.688  35.119  40.787  1.00  0.00     0.054 A 
BRANCH  76  77
ATOM     77  S   UNL A   1      40.678  36.135  42.290  1.00  0.00     0.124 S 
ATOM     78  O   UNL A   1      39.813  35.359  43.175  1.00  0.00    -0.237 OA
ATOM     79  O   UNL A   1      42.089  36.171  42.665  1.00  0.00    -0.237 OA
ATOM     80  O   UNL A   1      40.126  37.411  41.841  1.00  0.00    -0.744 OA
ENDBRANCH  76  77
ENDBRANCH  50  71
ENDBRANCH  24  25
ENDBRANCH  17  19
ENDBRANCH  16  17
ENDBRANCH  15  16
ENDBRANCH   1  15
TORSDOF 17
ENDMDL
MODEL 3
REMARK VINA RESULT:      -8.7      2.763     11.392
REMARK SMILES Cc1sc(C(=O)OCCOCCOC(=O)c2ccc(-c3c4nc(c(-c5ccc(S(=O)(=O)[O-])cc5)c5ccc([nH]5)c(-c5ccc(S(=O)(=O)[O-])cc5)c5nc(c(-c6ccc(S(=O)(=O)[O-])cc6)c6ccc3[nH]6)C=C5)C=C4)cc2)cc1Br
REMARK SMILES IDX 11 1 10 2 9 3 8 4 7 5 5 6 6 7 4 8 1 9 2 10 3 11 77 12 76 13
REMARK SMILES IDX 78 14 12 15 13 16 14 17 15 18 16 19 17 20 75 21 18 22 74 23
REMARK SMILES IDX 19 24 20 25 21 26 68 27 22 28 73 29 67 30 69 31 23 32 72 33
REMARK SMILES IDX 66 34 65 35 24 37 54 38 35 39 53 40 36 41 39 42 52 43 70 44
REMARK SMILES IDX 37 45 38 46 51 48 71 49 40 50 25 51 26 52 34 53 27 54 33 55
REMARK SMILES IDX 28 56 29 57 30 58 31 59 32 60 55 61 56 62 64 63 57 64 63 65
REMARK SMILES IDX 58 66 59 67 60 68 61 69 62 70 41 71 42 72 50 73 43 74 49 75
REMARK SMILES IDX 44 76 45 77 46 78 47 79 48 80
REMARK H PARENT 69 36 39 47
REMARK Flexibility Score: inf
ROOT
ATOM      1  C   UNL A   1      34.057  34.065  29.382  1.00  0.00     0.202 C 
ENDROOT
BRANCH   1   2
ATOM      2  O   UNL A   1      33.952  33.694  30.760  1.00  0.00    -0.374 OA
BRANCH   2   3
ATOM      3  C   UNL A   1      35.123  33.120  31.346  1.00  0.00     0.202 C 
BRANCH   3   4
ATOM      4  C   UNL A   1      35.385  33.569  32.785  1.00  0.00     0.261 C 
BRANCH   4   5
ATOM      5  O   UNL A   1      35.854  32.460  33.573  1.00  0.00    -0.459 OA
BRANCH   5   6
ATOM      6  C   UNL A   1      37.039  32.646  34.221  1.00  0.00     0.348 C 
ATOM      7  O   UNL A   1      37.269  33.560  35.003  1.00  0.00    -0.245 OA
BRANCH   6   8
ATOM      8  C   UNL A   1      37.934  31.544  33.915  1.00  0.00     0.114 A 
ATOM      9  C   UNL A   1      41.285  29.499  34.124  1.00  0.00     0.057 C 
ATOM     10  C   UNL A   1      39.924  30.059  33.883  1.00  0.00     0.017 A 
ATOM     11  S   UNL A   1      39.559  31.632  34.455  1.00  0.00    -0.132 S 
ATOM     12  C   UNL A   1      38.830  29.503  33.262  1.00  0.00     0.032 A 
ATOM     13  C   UNL A   1      37.684  30.343  33.276  1.00  0.00     0.043 A 
ATOM     14  Br  UNL A   1      38.761  27.786  32.473  1.00  0.00    -0.050 Br
ENDBRANCH   6   8
ENDBRANCH   5   6
ENDBRANCH   4   5
ENDBRANCH   3   4
ENDBRANCH   2   3
ENDBRANCH   1   2
BRANCH   1  15
ATOM     15  C   UNL A   1      35.170  33.349  28.607  1.00  0.00     0.261 C 
BRANCH  15  16
ATOM     16  O   UNL A   1      34.621  32.504  27.579  1.00  0.00    -0.460 OA
BRANCH  16  17
ATOM     17  C   UNL A   1      34.425  31.212  27.942  1.00  0.00     0.338 C 
ATOM     18  O   UNL A   1      33.366  30.607  27.956  1.00  0.00    -0.246 OA
BRANCH  17  19
ATOM     19  C   UNL A   1      35.727  30.551  28.163  1.00  0.00     0.060 A 
ATOM     20  C   UNL A   1      35.991  30.065  29.450  1.00  0.00     0.016 A 
ATOM     21  C   UNL A   1      36.692  30.443  27.157  1.00  0.00     0.016 A 
ATOM     22  C   UNL A   1      37.235  29.513  29.749  1.00  0.00     0.010 A 
ATOM     23  C   UNL A   1      37.944  29.895  27.462  1.00  0.00     0.010 A 
ATOM     24  C   UNL A   1      38.232  29.457  28.766  1.00  0.00    -0.014 A 
BRANCH  24  25
ATOM     25  C   UNL A   1      39.612  29.065  29.145  1.00  0.00     0.031 A 
ATOM     26  C   UNL A   1      40.475  30.050  29.887  1.00  0.00     0.074 A 
ATOM     27  C   UNL A   1      40.080  27.835  28.865  1.00  0.00     0.049 A 
ATOM     28  N   UNL A   1      41.707  29.918  30.306  1.00  0.00    -0.248 NA
ATOM     29  C   UNL A   1      39.868  31.354  30.199  1.00  0.00     0.031 C 
ATOM     30  C   UNL A   1      39.331  26.777  28.186  1.00  0.00     0.029 A 
ATOM     31  N   UNL A   1      41.305  27.269  29.117  1.00  0.00    -0.354 N 
ATOM     32  C   UNL A   1      42.024  31.119  30.929  1.00  0.00     0.074 A 
ATOM     33  C   UNL A   1      40.866  31.978  30.809  1.00  0.00     0.031 C 
ATOM     34  C   UNL A   1      40.117  25.692  28.070  1.00  0.00     0.029 A 
ATOM     35  C   UNL A   1      41.430  25.986  28.641  1.00  0.00     0.049 A 
ATOM     36  H   UNL A   1      42.027  27.740  29.594  1.00  0.00     0.167 HD
ATOM     37  C   UNL A   1      43.173  31.475  31.552  1.00  0.00     0.031 A 
ATOM     38  C   UNL A   1      42.488  25.152  28.648  1.00  0.00     0.031 A 
ATOM     39  C   UNL A   1      44.331  30.628  31.661  1.00  0.00     0.049 A 
ATOM     40  C   UNL A   1      43.779  25.595  29.284  1.00  0.00     0.074 A 
ATOM     41  C   UNL A   1      45.538  30.897  32.282  1.00  0.00     0.029 A 
ATOM     42  N   UNL A   1      44.428  29.349  31.134  1.00  0.00    -0.354 N 
ATOM     43  N   UNL A   1      44.054  26.727  29.888  1.00  0.00    -0.248 NA
ATOM     44  C   UNL A   1      44.900  24.646  29.245  1.00  0.00     0.031 C 
ATOM     45  C   UNL A   1      46.383  29.800  32.089  1.00  0.00     0.029 A 
ATOM     46  C   UNL A   1      45.683  28.826  31.394  1.00  0.00     0.049 A 
ATOM     47  H   UNL A   1      43.711  28.883  30.648  1.00  0.00     0.167 HD
ATOM     48  C   UNL A   1      45.371  26.614  30.321  1.00  0.00     0.074 A 
ATOM     49  C   UNL A   1      45.833  25.301  29.922  1.00  0.00     0.031 C 
ATOM     50  C   UNL A   1      46.129  27.516  30.991  1.00  0.00     0.031 A 
BRANCH  37  51
ATOM     51  C   UNL A   1      43.244  32.856  32.144  1.00  0.00    -0.014 A 
ATOM     52  C   UNL A   1      43.569  33.969  31.348  1.00  0.00     0.010 A 
ATOM     53  C   UNL A   1      42.938  33.049  33.503  1.00  0.00     0.010 A 
ATOM     54  C   UNL A   1      43.617  35.248  31.909  1.00  0.00     0.020 A 
ATOM     55  C   UNL A   1      42.963  34.330  34.063  1.00  0.00     0.020 A 
ATOM     56  C   UNL A   1      43.317  35.420  33.264  1.00  0.00     0.054 A 
BRANCH  56  57
ATOM     57  S   UNL A   1      43.360  37.094  33.962  1.00  0.00     0.124 S 
ATOM     58  O   UNL A   1      44.540  37.031  34.821  1.00  0.00    -0.237 OA
ATOM     59  O   UNL A   1      43.495  37.933  32.774  1.00  0.00    -0.237 OA
ATOM     60  O   UNL A   1      42.084  37.210  34.662  1.00  0.00    -0.744 OA
ENDBRANCH  56  57
ENDBRANCH  37  51
BRANCH  38  61
ATOM     61  C   UNL A   1      42.382  23.812  28.009  1.00  0.00    -0.014 A 
ATOM     62  C   UNL A   1      41.977  23.681  26.669  1.00  0.00     0.010 A 
ATOM     63  C   UNL A   1      42.674  22.651  28.751  1.00  0.00     0.010 A 
ATOM     64  C   UNL A   1      41.847  22.417  26.088  1.00  0.00     0.020 A 
ATOM     65  C   UNL A   1      42.569  21.387  28.167  1.00  0.00     0.020 A 
ATOM     66  C   UNL A   1      42.143  21.277  26.841  1.00  0.00     0.054 A 
BRANCH  66  67
ATOM     67  S   UNL A   1      42.009  19.645  26.059  1.00  0.00     0.124 S 
ATOM     68  O   UNL A   1      42.399  18.755  27.146  1.00  0.00    -0.237 OA
ATOM     69  O   UNL A   1      40.601  19.595  25.672  1.00  0.00    -0.237 OA
ATOM     70  O   UNL A   1      42.949  19.726  24.943  1.00  0.00    -0.744 OA
ENDBRANCH  66  67
ENDBRANCH  38  61
BRANCH  50  71
ATOM     71  C   UNL A   1      47.529  27.108  31.367  1.00  0.00    -0.014 A 
ATOM     72  C   UNL A   1      47.781  26.358  32.528  1.00  0.00     0.010 A 
ATOM     73  C   UNL A   1      48.600  27.434  30.514  1.00  0.00     0.010 A 
ATOM     74  C   UNL A   1      49.084  25.964  32.845  1.00  0.00     0.020 A 
ATOM     75  C   UNL A   1      49.900  27.021  30.815  1.00  0.00     0.020 A 
ATOM     76  C   UNL A   1      50.136  26.300  31.987  1.00  0.00     0.054 A 
BRANCH  76  77
ATOM     77  S   UNL A   1      51.812  25.740  32.396  1.00  0.00     0.124 S 
ATOM     78  O   UNL A   1      52.276  26.798  33.291  1.00  0.00    -0.237 OA
ATOM     79  O   UNL A   1      51.576  24.444  33.025  1.00  0.00    -0.237 OA
ATOM     80  O   UNL A   1      52.484  25.683  31.099  1.00  0.00    -0.744 OA
ENDBRANCH  76  77
ENDBRANCH  50  71
ENDBRANCH  24  25
ENDBRANCH  17  19
ENDBRANCH  16  17
ENDBRANCH  15  16
ENDBRANCH   1  15
TORSDOF 17
ENDMDL
