MODEL 1
REMARK VINA RESULT:     -10.4      0.000      0.000
REMARK SMILES O=C(OCCOCCOC(=O)[C@@H]1C=C[C@H](NC(=O)C2CCOCC2)C1)c1ccc(-c2c3nc(c(-c4ccc(S(=O)(=O)[O-])cc4)c4ccc([nH]4)c(-c4ccc(S(=O)(=O)[O-])cc4)c4nc(c(-c5ccc(S(=O)(=O)[O-])cc5)c5ccc2[nH]5)C=C4)C=C3)cc1
REMARK SMILES IDX 5 1 4 2 3 3 2 4 1 5 26 6 27 7 85 8 28 9 84 10 29 11 30 12
REMARK SMILES IDX 31 13 78 14 32 15 83 16 77 17 79 18 33 19 82 20 76 21 75 22
REMARK SMILES IDX 34 24 64 25 45 26 63 27 46 28 49 29 62 30 80 31 47 32 48 33
REMARK SMILES IDX 61 35 81 36 50 37 35 38 36 39 44 40 37 41 43 42 38 43 39 44
REMARK SMILES IDX 40 45 41 46 42 47 65 48 66 49 74 50 67 51 73 52 68 53 69 54
REMARK SMILES IDX 70 55 71 56 72 57 51 58 52 59 60 60 53 61 59 62 54 63 55 64
REMARK SMILES IDX 56 65 57 66 58 67 6 68 7 69 8 70 9 71 10 72 11 73 12 74
REMARK SMILES IDX 13 75 25 76 14 77 15 78 16 79 17 80 18 82 19 83 20 84 24 85
REMARK SMILES IDX 21 86 23 87 22 88
REMARK H PARENT 79 23 49 34 16 81
REMARK Flexibility Score: inf
ROOT
ATOM      1  C   UNL A   1      35.651  22.186  24.525  1.00  0.00     0.202 C 
ENDROOT
BRANCH   1   2
ATOM      2  C   UNL A   1      37.152  21.899  24.643  1.00  0.00     0.261 C 
BRANCH   2   3
ATOM      3  O   UNL A   1      37.660  22.407  25.888  1.00  0.00    -0.460 OA
BRANCH   3   4
ATOM      4  C   UNL A   1      38.937  22.728  26.202  1.00  0.00     0.338 C 
ATOM      5  O   UNL A   1      39.834  21.926  25.951  1.00  0.00    -0.246 OA
BRANCH   4   6
ATOM      6  C   UNL A   1      39.313  24.030  26.819  1.00  0.00     0.060 A 
ATOM      7  C   UNL A   1      39.989  25.050  26.151  1.00  0.00     0.016 A 
ATOM      8  C   UNL A   1      38.909  24.266  28.142  1.00  0.00     0.016 A 
ATOM      9  C   UNL A   1      40.332  26.226  26.773  1.00  0.00     0.010 A 
ATOM     10  C   UNL A   1      39.216  25.473  28.777  1.00  0.00     0.010 A 
ATOM     11  C   UNL A   1      39.956  26.441  28.089  1.00  0.00    -0.014 A 
BRANCH  11  12
ATOM     12  C   UNL A   1      40.535  27.632  28.718  1.00  0.00     0.031 A 
ATOM     13  C   UNL A   1      42.027  27.703  28.813  1.00  0.00     0.074 A 
ATOM     14  C   UNL A   1      39.742  28.697  28.932  1.00  0.00     0.049 A 
ATOM     15  N   UNL A   1      42.776  28.672  29.254  1.00  0.00    -0.248 NA
ATOM     16  C   UNL A   1      42.779  26.535  28.316  1.00  0.00     0.031 C 
ATOM     17  C   UNL A   1      38.299  28.742  28.662  1.00  0.00     0.029 A 
ATOM     18  N   UNL A   1      40.040  29.963  29.349  1.00  0.00    -0.354 N 
ATOM     19  C   UNL A   1      44.082  28.213  29.134  1.00  0.00     0.074 A 
ATOM     20  C   UNL A   1      44.029  26.888  28.566  1.00  0.00     0.031 C 
ATOM     21  C   UNL A   1      37.850  29.988  28.877  1.00  0.00     0.029 A 
ATOM     22  C   UNL A   1      38.951  30.801  29.377  1.00  0.00     0.049 A 
ATOM     23  H   UNL A   1      40.947  30.247  29.604  1.00  0.00     0.167 HD
ATOM     24  C   UNL A   1      45.218  28.850  29.494  1.00  0.00     0.031 A 
ATOM     25  C   UNL A   1      38.863  32.077  29.794  1.00  0.00     0.031 A 
ATOM     26  C   UNL A   1      45.217  30.169  30.062  1.00  0.00     0.049 A 
ATOM     27  C   UNL A   1      40.127  32.722  30.291  1.00  0.00     0.074 A 
ATOM     28  C   UNL A   1      46.278  30.901  30.558  1.00  0.00     0.029 A 
ATOM     29  N   UNL A   1      44.079  30.954  30.205  1.00  0.00    -0.354 N 
ATOM     30  N   UNL A   1      41.351  32.243  30.287  1.00  0.00    -0.248 NA
ATOM     31  C   UNL A   1      40.004  34.066  30.862  1.00  0.00     0.031 C 
ATOM     32  C   UNL A   1      45.771  32.109  31.048  1.00  0.00     0.029 A 
ATOM     33  C   UNL A   1      44.406  32.158  30.796  1.00  0.00     0.049 A 
ATOM     34  H   UNL A   1      43.173  30.690  29.924  1.00  0.00     0.167 HD
ATOM     35  C   UNL A   1      42.149  33.234  30.837  1.00  0.00     0.074 A 
ATOM     36  C   UNL A   1      41.268  34.348  31.143  1.00  0.00     0.031 C 
ATOM     37  C   UNL A   1      43.485  33.234  31.073  1.00  0.00     0.031 A 
BRANCH  24  38
ATOM     38  C   UNL A   1      46.501  28.073  29.389  1.00  0.00    -0.014 A 
ATOM     39  C   UNL A   1      47.333  28.149  28.257  1.00  0.00     0.010 A 
ATOM     40  C   UNL A   1      46.854  27.203  30.438  1.00  0.00     0.010 A 
ATOM     41  C   UNL A   1      48.469  27.338  28.159  1.00  0.00     0.020 A 
ATOM     42  C   UNL A   1      48.001  26.410  30.355  1.00  0.00     0.020 A 
ATOM     43  C   UNL A   1      48.791  26.468  29.206  1.00  0.00     0.054 A 
BRANCH  43  44
ATOM     44  S   UNL A   1      50.265  25.422  29.055  1.00  0.00     0.124 S 
ATOM     45  O   UNL A   1      50.397  24.890  30.409  1.00  0.00    -0.237 OA
ATOM     46  O   UNL A   1      49.869  24.454  28.036  1.00  0.00    -0.237 OA
ATOM     47  O   UNL A   1      51.313  26.355  28.649  1.00  0.00    -0.744 OA
ENDBRANCH  43  44
ENDBRANCH  24  38
BRANCH  25  48
ATOM     48  C   UNL A   1      37.548  32.776  29.825  1.00  0.00    -0.014 A 
ATOM     49  C   UNL A   1      36.782  32.844  31.002  1.00  0.00     0.010 A 
ATOM     50  C   UNL A   1      37.048  33.385  28.657  1.00  0.00     0.010 A 
ATOM     51  C   UNL A   1      35.537  33.486  31.004  1.00  0.00     0.020 A 
ATOM     52  C   UNL A   1      35.822  34.056  28.662  1.00  0.00     0.020 A 
ATOM     53  C   UNL A   1      35.066  34.088  29.832  1.00  0.00     0.054 A 
BRANCH  53  54
ATOM     54  S   UNL A   1      33.462  34.937  29.862  1.00  0.00     0.124 S 
ATOM     55  O   UNL A   1      33.077  34.808  31.263  1.00  0.00    -0.237 OA
ATOM     56  O   UNL A   1      33.810  36.286  29.423  1.00  0.00    -0.237 OA
ATOM     57  O   UNL A   1      32.652  34.172  28.917  1.00  0.00    -0.744 OA
ENDBRANCH  53  54
ENDBRANCH  25  48
BRANCH  37  58
ATOM     58  C   UNL A   1      44.068  34.496  31.640  1.00  0.00    -0.014 A 
ATOM     59  C   UNL A   1      44.471  35.553  30.807  1.00  0.00     0.010 A 
ATOM     60  C   UNL A   1      44.160  34.636  33.036  1.00  0.00     0.010 A 
ATOM     61  C   UNL A   1      44.999  36.719  31.364  1.00  0.00     0.020 A 
ATOM     62  C   UNL A   1      44.656  35.812  33.596  1.00  0.00     0.020 A 
ATOM     63  C   UNL A   1      45.089  36.839  32.755  1.00  0.00     0.054 A 
BRANCH  63  64
ATOM     64  S   UNL A   1      45.744  38.376  33.457  1.00  0.00     0.124 S 
ATOM     65  O   UNL A   1      46.727  37.876  34.413  1.00  0.00    -0.237 OA
ATOM     66  O   UNL A   1      46.292  39.055  32.285  1.00  0.00    -0.237 OA
ATOM     67  O   UNL A   1      44.569  39.015  34.045  1.00  0.00    -0.744 OA
ENDBRANCH  63  64
ENDBRANCH  37  58
ENDBRANCH  11  12
ENDBRANCH   4   6
ENDBRANCH   3   4
ENDBRANCH   2   3
ENDBRANCH   1   2
BRANCH   1  68
ATOM     68  O   UNL A   1      34.927  22.262  25.752  1.00  0.00    -0.374 OA
BRANCH  68  69
ATOM     69  C   UNL A   1      34.039  23.372  25.878  1.00  0.00     0.202 C 
BRANCH  69  70
ATOM     70  C   UNL A   1      33.341  23.654  24.552  1.00  0.00     0.261 C 
BRANCH  70  71
ATOM     71  O   UNL A   1      32.106  24.357  24.787  1.00  0.00    -0.463 OA
BRANCH  71  72
ATOM     72  C   UNL A   1      31.457  24.841  23.692  1.00  0.00     0.312 C 
ATOM     73  O   UNL A   1      30.476  24.330  23.162  1.00  0.00    -0.252 OA
BRANCH  72  74
ATOM     74  C   UNL A   1      32.058  26.155  23.204  1.00  0.00     0.124 C 
ATOM     75  C   UNL A   1      32.148  27.208  24.266  1.00  0.00    -0.014 C 
ATOM     76  C   UNL A   1      31.227  26.843  22.105  1.00  0.00     0.048 C 
ATOM     77  C   UNL A   1      31.359  28.255  24.012  1.00  0.00    -0.006 C 
ATOM     78  C   UNL A   1      30.624  28.120  22.723  1.00  0.00     0.106 C 
BRANCH  78  79
ATOM     79  N   UNL A   1      29.213  28.034  23.035  1.00  0.00    -0.350 N 
ATOM     80  C   UNL A   1      28.235  28.982  22.920  1.00  0.00     0.223 C 
ATOM     81  H   UNL A   1      28.913  27.163  23.382  1.00  0.00     0.164 HD
ATOM     82  O   UNL A   1      27.085  28.689  23.241  1.00  0.00    -0.275 OA
BRANCH  80  83
ATOM     83  C   UNL A   1      28.612  30.371  22.438  1.00  0.00     0.083 C 
ATOM     84  C   UNL A   1      28.244  31.404  23.508  1.00  0.00     0.042 C 
ATOM     85  C   UNL A   1      27.910  30.749  21.128  1.00  0.00     0.042 C 
ATOM     86  C   UNL A   1      28.591  32.801  23.019  1.00  0.00     0.161 C 
ATOM     87  C   UNL A   1      28.275  32.178  20.747  1.00  0.00     0.161 C 
ATOM     88  O   UNL A   1      27.928  33.091  21.791  1.00  0.00    -0.381 OA
ENDBRANCH  80  83
ENDBRANCH  78  79
ENDBRANCH  72  74
ENDBRANCH  71  72
ENDBRANCH  70  71
ENDBRANCH  69  70
ENDBRANCH  68  69
ENDBRANCH   1  68
TORSDOF 19
ENDMDL
MODEL 2
REMARK VINA RESULT:     -10.2      3.494     10.361
REMARK SMILES O=C(OCCOCCOC(=O)[C@@H]1C=C[C@H](NC(=O)C2CCOCC2)C1)c1ccc(-c2c3nc(c(-c4ccc(S(=O)(=O)[O-])cc4)c4ccc([nH]4)c(-c4ccc(S(=O)(=O)[O-])cc4)c4nc(c(-c5ccc(S(=O)(=O)[O-])cc5)c5ccc2[nH]5)C=C4)C=C3)cc1
REMARK SMILES IDX 5 1 4 2 3 3 2 4 1 5 26 6 27 7 85 8 28 9 84 10 29 11 30 12
REMARK SMILES IDX 31 13 78 14 32 15 83 16 77 17 79 18 33 19 82 20 76 21 75 22
REMARK SMILES IDX 34 24 64 25 45 26 63 27 46 28 49 29 62 30 80 31 47 32 48 33
REMARK SMILES IDX 61 35 81 36 50 37 35 38 36 39 44 40 37 41 43 42 38 43 39 44
REMARK SMILES IDX 40 45 41 46 42 47 65 48 66 49 74 50 67 51 73 52 68 53 69 54
REMARK SMILES IDX 70 55 71 56 72 57 51 58 52 59 60 60 53 61 59 62 54 63 55 64
REMARK SMILES IDX 56 65 57 66 58 67 6 68 7 69 8 70 9 71 10 72 11 73 12 74
REMARK SMILES IDX 13 75 25 76 14 77 15 78 16 79 17 80 18 82 19 83 20 84 24 85
REMARK SMILES IDX 21 86 23 87 22 88
REMARK H PARENT 79 23 49 34 16 81
REMARK Flexibility Score: inf
ROOT
ATOM      1  C   UNL A   1      33.707  28.612  25.910  1.00  0.00     0.202 C 
ENDROOT
BRANCH   1   2
ATOM      2  C   UNL A   1      33.132  29.407  27.088  1.00  0.00     0.261 C 
BRANCH   2   3
ATOM      3  O   UNL A   1      33.870  30.627  27.273  1.00  0.00    -0.460 OA
BRANCH   3   4
ATOM      4  C   UNL A   1      34.668  30.972  28.310  1.00  0.00     0.338 C 
ATOM      5  O   UNL A   1      34.254  31.779  29.140  1.00  0.00    -0.246 OA
BRANCH   4   6
ATOM      6  C   UNL A   1      36.027  30.396  28.510  1.00  0.00     0.060 A 
ATOM      7  C   UNL A   1      36.471  29.824  29.700  1.00  0.00     0.016 A 
ATOM      8  C   UNL A   1      36.896  30.377  27.407  1.00  0.00     0.016 A 
ATOM      9  C   UNL A   1      37.743  29.326  29.840  1.00  0.00     0.010 A 
ATOM     10  C   UNL A   1      38.181  29.838  27.522  1.00  0.00     0.010 A 
ATOM     11  C   UNL A   1      38.607  29.336  28.756  1.00  0.00    -0.014 A 
BRANCH  11  12
ATOM     12  C   UNL A   1      39.993  28.966  29.058  1.00  0.00     0.031 A 
ATOM     13  C   UNL A   1      40.763  29.870  29.969  1.00  0.00     0.074 A 
ATOM     14  C   UNL A   1      40.415  27.732  28.733  1.00  0.00     0.049 A 
ATOM     15  N   UNL A   1      41.968  29.726  30.442  1.00  0.00    -0.248 NA
ATOM     16  C   UNL A   1      40.072  31.087  30.434  1.00  0.00     0.031 C 
ATOM     17  C   UNL A   1      39.618  26.731  28.011  1.00  0.00     0.029 A 
ATOM     18  N   UNL A   1      41.578  27.079  29.026  1.00  0.00    -0.354 N 
ATOM     19  C   UNL A   1      42.196  30.855  31.219  1.00  0.00     0.074 A 
ATOM     20  C   UNL A   1      41.006  31.668  31.170  1.00  0.00     0.031 C 
ATOM     21  C   UNL A   1      40.302  25.577  27.962  1.00  0.00     0.029 A 
ATOM     22  C   UNL A   1      41.609  25.783  28.571  1.00  0.00     0.049 A 
ATOM     23  H   UNL A   1      42.322  27.497  29.517  1.00  0.00     0.167 HD
ATOM     24  C   UNL A   1      43.322  31.180  31.893  1.00  0.00     0.031 A 
ATOM     25  C   UNL A   1      42.606  24.881  28.620  1.00  0.00     0.031 A 
ATOM     26  C   UNL A   1      44.485  30.337  31.906  1.00  0.00     0.049 A 
ATOM     27  C   UNL A   1      43.886  25.313  29.283  1.00  0.00     0.074 A 
ATOM     28  C   UNL A   1      45.724  30.577  32.466  1.00  0.00     0.029 A 
ATOM     29  N   UNL A   1      44.539  29.076  31.322  1.00  0.00    -0.354 N 
ATOM     30  N   UNL A   1      44.144  26.434  29.920  1.00  0.00    -0.248 NA
ATOM     31  C   UNL A   1      45.011  24.376  29.223  1.00  0.00     0.031 C 
ATOM     32  C   UNL A   1      46.543  29.481  32.175  1.00  0.00     0.029 A 
ATOM     33  C   UNL A   1      45.795  28.530  31.493  1.00  0.00     0.049 A 
ATOM     34  H   UNL A   1      43.791  28.638  30.856  1.00  0.00     0.167 HD
ATOM     35  C   UNL A   1      45.456  26.330  30.355  1.00  0.00     0.074 A 
ATOM     36  C   UNL A   1      45.930  25.025  29.924  1.00  0.00     0.031 C 
ATOM     37  C   UNL A   1      46.209  27.223  31.045  1.00  0.00     0.031 A 
BRANCH  24  38
ATOM     38  C   UNL A   1      43.362  32.534  32.546  1.00  0.00    -0.014 A 
ATOM     39  C   UNL A   1      43.171  32.704  33.930  1.00  0.00     0.010 A 
ATOM     40  C   UNL A   1      43.546  33.670  31.737  1.00  0.00     0.010 A 
ATOM     41  C   UNL A   1      43.122  33.989  34.483  1.00  0.00     0.020 A 
ATOM     42  C   UNL A   1      43.522  34.953  32.288  1.00  0.00     0.020 A 
ATOM     43  C   UNL A   1      43.290  35.105  33.656  1.00  0.00     0.054 A 
BRANCH  43  44
ATOM     44  S   UNL A   1      43.217  36.761  34.394  1.00  0.00     0.124 S 
ATOM     45  O   UNL A   1      41.821  36.839  34.819  1.00  0.00    -0.237 OA
ATOM     46  O   UNL A   1      44.197  36.674  35.474  1.00  0.00    -0.237 OA
ATOM     47  O   UNL A   1      43.583  37.648  33.294  1.00  0.00    -0.744 OA
ENDBRANCH  43  44
ENDBRANCH  24  38
BRANCH  25  48
ATOM     48  C   UNL A   1      42.457  23.547  27.975  1.00  0.00    -0.014 A 
ATOM     49  C   UNL A   1      42.875  23.322  26.652  1.00  0.00     0.010 A 
ATOM     50  C   UNL A   1      41.882  22.480  28.693  1.00  0.00     0.010 A 
ATOM     51  C   UNL A   1      42.704  22.066  26.056  1.00  0.00     0.020 A 
ATOM     52  C   UNL A   1      41.739  21.215  28.114  1.00  0.00     0.020 A 
ATOM     53  C   UNL A   1      42.136  21.021  26.792  1.00  0.00     0.054 A 
BRANCH  53  54
ATOM     54  S   UNL A   1      41.946  19.395  26.010  1.00  0.00     0.124 S 
ATOM     55  O   UNL A   1      40.503  19.326  25.801  1.00  0.00    -0.237 OA
ATOM     56  O   UNL A   1      42.755  19.528  24.801  1.00  0.00    -0.237 OA
ATOM     57  O   UNL A   1      42.479  18.470  27.008  1.00  0.00    -0.744 OA
ENDBRANCH  53  54
ENDBRANCH  25  48
BRANCH  37  58
ATOM     58  C   UNL A   1      47.598  26.787  31.414  1.00  0.00    -0.014 A 
ATOM     59  C   UNL A   1      47.847  26.062  32.592  1.00  0.00     0.010 A 
ATOM     60  C   UNL A   1      48.657  27.070  30.533  1.00  0.00     0.010 A 
ATOM     61  C   UNL A   1      49.147  25.661  32.903  1.00  0.00     0.020 A 
ATOM     62  C   UNL A   1      49.951  26.641  30.826  1.00  0.00     0.020 A 
ATOM     63  C   UNL A   1      50.190  25.955  32.018  1.00  0.00     0.054 A 
BRANCH  63  64
ATOM     64  S   UNL A   1      51.864  25.393  32.425  1.00  0.00     0.124 S 
ATOM     65  O   UNL A   1      52.666  26.078  31.416  1.00  0.00    -0.237 OA
ATOM     66  O   UNL A   1      52.036  25.867  33.796  1.00  0.00    -0.237 OA
ATOM     67  O   UNL A   1      51.785  23.942  32.281  1.00  0.00    -0.744 OA
ENDBRANCH  63  64
ENDBRANCH  37  58
ENDBRANCH  11  12
ENDBRANCH   4   6
ENDBRANCH   3   4
ENDBRANCH   2   3
ENDBRANCH   1   2
BRANCH   1  68
ATOM     68  O   UNL A   1      32.911  27.529  25.433  1.00  0.00    -0.374 OA
BRANCH  68  69
ATOM     69  C   UNL A   1      31.803  27.166  26.256  1.00  0.00     0.202 C 
BRANCH  69  70
ATOM     70  C   UNL A   1      31.745  25.653  26.440  1.00  0.00     0.261 C 
BRANCH  70  71
ATOM     71  O   UNL A   1      32.943  25.049  25.915  1.00  0.00    -0.463 OA
BRANCH  71  72
ATOM     72  C   UNL A   1      32.844  23.761  25.485  1.00  0.00     0.312 C 
ATOM     73  O   UNL A   1      32.015  23.340  24.684  1.00  0.00    -0.252 OA
BRANCH  72  74
ATOM     74  C   UNL A   1      33.934  22.873  26.076  1.00  0.00     0.124 C 
ATOM     75  C   UNL A   1      35.106  22.672  25.165  1.00  0.00    -0.014 C 
ATOM     76  C   UNL A   1      33.469  21.433  26.363  1.00  0.00     0.048 C 
ATOM     77  C   UNL A   1      35.230  21.403  24.767  1.00  0.00    -0.006 C 
ATOM     78  C   UNL A   1      34.192  20.513  25.361  1.00  0.00     0.106 C 
BRANCH  78  79
ATOM     79  N   UNL A   1      33.364  20.029  24.275  1.00  0.00    -0.350 N 
ATOM     80  C   UNL A   1      32.942  18.759  24.000  1.00  0.00     0.223 C 
ATOM     81  H   UNL A   1      33.059  20.718  23.641  1.00  0.00     0.164 HD
ATOM     82  O   UNL A   1      32.230  18.571  23.016  1.00  0.00    -0.275 OA
BRANCH  80  83
ATOM     83  C   UNL A   1      33.401  17.622  24.896  1.00  0.00     0.083 C 
ATOM     84  C   UNL A   1      34.702  17.027  24.346  1.00  0.00     0.042 C 
ATOM     85  C   UNL A   1      32.358  16.504  25.007  1.00  0.00     0.042 C 
ATOM     86  C   UNL A   1      35.151  15.868  25.221  1.00  0.00     0.161 C 
ATOM     87  C   UNL A   1      32.915  15.368  25.856  1.00  0.00     0.161 C 
ATOM     88  O   UNL A   1      34.137  14.870  25.305  1.00  0.00    -0.381 OA
ENDBRANCH  80  83
ENDBRANCH  78  79
ENDBRANCH  72  74
ENDBRANCH  71  72
ENDBRANCH  70  71
ENDBRANCH  69  70
ENDBRANCH  68  69
ENDBRANCH   1  68
TORSDOF 19
ENDMDL
MODEL 3
REMARK VINA RESULT:     -10.1      3.725     10.374
REMARK SMILES O=C(OCCOCCOC(=O)[C@@H]1C=C[C@H](NC(=O)C2CCOCC2)C1)c1ccc(-c2c3nc(c(-c4ccc(S(=O)(=O)[O-])cc4)c4ccc([nH]4)c(-c4ccc(S(=O)(=O)[O-])cc4)c4nc(c(-c5ccc(S(=O)(=O)[O-])cc5)c5ccc2[nH]5)C=C4)C=C3)cc1
REMARK SMILES IDX 5 1 4 2 3 3 2 4 1 5 26 6 27 7 85 8 28 9 84 10 29 11 30 12
REMARK SMILES IDX 31 13 78 14 32 15 83 16 77 17 79 18 33 19 82 20 76 21 75 22
REMARK SMILES IDX 34 24 64 25 45 26 63 27 46 28 49 29 62 30 80 31 47 32 48 33
REMARK SMILES IDX 61 35 81 36 50 37 35 38 36 39 44 40 37 41 43 42 38 43 39 44
REMARK SMILES IDX 40 45 41 46 42 47 65 48 66 49 74 50 67 51 73 52 68 53 69 54
REMARK SMILES IDX 70 55 71 56 72 57 51 58 52 59 60 60 53 61 59 62 54 63 55 64
REMARK SMILES IDX 56 65 57 66 58 67 6 68 7 69 8 70 9 71 10 72 11 73 12 74
REMARK SMILES IDX 13 75 25 76 14 77 15 78 16 79 17 80 18 82 19 83 20 84 24 85
REMARK SMILES IDX 21 86 23 87 22 88
REMARK H PARENT 79 23 49 34 16 81
REMARK Flexibility Score: inf
ROOT
ATOM      1  C   UNL A   1      34.239  30.867  27.281  1.00  0.00     0.202 C 
ENDROOT
BRANCH   1   2
ATOM      2  C   UNL A   1      35.037  29.558  27.288  1.00  0.00     0.261 C 
BRANCH   2   3
ATOM      3  O   UNL A   1      35.421  29.216  28.631  1.00  0.00    -0.460 OA
BRANCH   3   4
ATOM      4  C   UNL A   1      36.442  29.719  29.363  1.00  0.00     0.338 C 
ATOM      5  O   UNL A   1      36.190  30.333  30.398  1.00  0.00    -0.246 OA
BRANCH   4   6
ATOM      6  C   UNL A   1      37.871  29.539  28.985  1.00  0.00     0.060 A 
ATOM      7  C   UNL A   1      38.349  29.579  27.677  1.00  0.00     0.016 A 
ATOM      8  C   UNL A   1      38.804  29.375  30.021  1.00  0.00     0.016 A 
ATOM      9  C   UNL A   1      39.676  29.385  27.379  1.00  0.00     0.010 A 
ATOM     10  C   UNL A   1      40.164  29.215  29.737  1.00  0.00     0.010 A 
ATOM     11  C   UNL A   1      40.589  29.195  28.405  1.00  0.00    -0.014 A 
BRANCH  11  12
ATOM     12  C   UNL A   1      41.935  28.803  27.978  1.00  0.00     0.031 A 
ATOM     13  C   UNL A   1      43.031  29.807  28.151  1.00  0.00     0.074 A 
ATOM     14  C   UNL A   1      42.173  27.507  27.708  1.00  0.00     0.049 A 
ATOM     15  N   UNL A   1      44.306  29.679  27.921  1.00  0.00    -0.248 NA
ATOM     16  C   UNL A   1      42.643  31.127  28.684  1.00  0.00     0.031 C 
ATOM     17  C   UNL A   1      41.161  26.443  27.724  1.00  0.00     0.029 A 
ATOM     18  N   UNL A   1      43.340  26.849  27.445  1.00  0.00    -0.354 N 
ATOM     19  C   UNL A   1      44.864  30.912  28.233  1.00  0.00     0.074 A 
ATOM     20  C   UNL A   1      43.797  31.773  28.684  1.00  0.00     0.031 C 
ATOM     21  C   UNL A   1      41.764  25.260  27.526  1.00  0.00     0.029 A 
ATOM     22  C   UNL A   1      43.182  25.493  27.288  1.00  0.00     0.049 A 
ATOM     23  H   UNL A   1      44.211  27.303  27.374  1.00  0.00     0.167 HD
ATOM     24  C   UNL A   1      46.159  31.285  28.126  1.00  0.00     0.031 A 
ATOM     25  C   UNL A   1      44.090  24.558  26.959  1.00  0.00     0.031 A 
ATOM     26  C   UNL A   1      47.184  30.390  27.666  1.00  0.00     0.049 A 
ATOM     27  C   UNL A   1      45.504  25.023  26.740  1.00  0.00     0.074 A 
ATOM     28  C   UNL A   1      48.517  30.653  27.419  1.00  0.00     0.029 A 
ATOM     29  N   UNL A   1      46.975  29.044  27.385  1.00  0.00    -0.354 N 
ATOM     30  N   UNL A   1      46.011  26.223  26.922  1.00  0.00    -0.248 NA
ATOM     31  C   UNL A   1      46.462  24.026  26.258  1.00  0.00     0.031 C 
ATOM     32  C   UNL A   1      49.102  29.475  26.938  1.00  0.00     0.029 A 
ATOM     33  C   UNL A   1      48.150  28.464  26.951  1.00  0.00     0.049 A 
ATOM     34  H   UNL A   1      46.115  28.575  27.482  1.00  0.00     0.167 HD
ATOM     35  C   UNL A   1      47.355  26.120  26.595  1.00  0.00     0.074 A 
ATOM     36  C   UNL A   1      47.583  24.734  26.224  1.00  0.00     0.031 C 
ATOM     37  C   UNL A   1      48.318  27.076  26.598  1.00  0.00     0.031 A 
BRANCH  24  38
ATOM     38  C   UNL A   1      46.480  32.729  28.396  1.00  0.00    -0.014 A 
ATOM     39  C   UNL A   1      46.857  33.186  29.672  1.00  0.00     0.010 A 
ATOM     40  C   UNL A   1      46.351  33.659  27.348  1.00  0.00     0.010 A 
ATOM     41  C   UNL A   1      47.055  34.552  29.902  1.00  0.00     0.020 A 
ATOM     42  C   UNL A   1      46.573  35.020  27.567  1.00  0.00     0.020 A 
ATOM     43  C   UNL A   1      46.904  35.461  28.849  1.00  0.00     0.054 A 
BRANCH  43  44
ATOM     44  S   UNL A   1      47.161  37.227  29.172  1.00  0.00     0.124 S 
ATOM     45  O   UNL A   1      46.772  37.336  30.577  1.00  0.00    -0.237 OA
ATOM     46  O   UNL A   1      48.586  37.399  28.901  1.00  0.00    -0.237 OA
ATOM     47  O   UNL A   1      46.266  37.887  28.227  1.00  0.00    -0.744 OA
ENDBRANCH  43  44
ENDBRANCH  24  38
BRANCH  25  48
ATOM     48  C   UNL A   1      43.680  23.141  26.749  1.00  0.00    -0.014 A 
ATOM     49  C   UNL A   1      44.039  22.437  25.587  1.00  0.00     0.010 A 
ATOM     50  C   UNL A   1      42.911  22.481  27.729  1.00  0.00     0.010 A 
ATOM     51  C   UNL A   1      43.623  21.114  25.400  1.00  0.00     0.020 A 
ATOM     52  C   UNL A   1      42.521  21.149  27.562  1.00  0.00     0.020 A 
ATOM     53  C   UNL A   1      42.865  20.478  26.389  1.00  0.00     0.054 A 
BRANCH  53  54
ATOM     54  S   UNL A   1      42.357  18.755  26.139  1.00  0.00     0.124 S 
ATOM     55  O   UNL A   1      42.613  18.169  27.450  1.00  0.00    -0.237 OA
ATOM     56  O   UNL A   1      40.950  18.890  25.770  1.00  0.00    -0.237 OA
ATOM     57  O   UNL A   1      43.233  18.291  25.064  1.00  0.00    -0.744 OA
ENDBRANCH  53  54
ENDBRANCH  25  48
BRANCH  37  58
ATOM     58  C   UNL A   1      49.706  26.631  26.237  1.00  0.00    -0.014 A 
ATOM     59  C   UNL A   1      50.520  25.954  27.161  1.00  0.00     0.010 A 
ATOM     60  C   UNL A   1      50.174  26.855  24.930  1.00  0.00     0.010 A 
ATOM     61  C   UNL A   1      51.802  25.544  26.793  1.00  0.00     0.020 A 
ATOM     62  C   UNL A   1      51.441  26.416  24.549  1.00  0.00     0.020 A 
ATOM     63  C   UNL A   1      52.254  25.779  25.489  1.00  0.00     0.054 A 
BRANCH  63  64
ATOM     64  S   UNL A   1      53.908  25.204  25.023  1.00  0.00     0.124 S 
ATOM     65  O   UNL A   1      53.718  23.758  24.961  1.00  0.00    -0.237 OA
ATOM     66  O   UNL A   1      54.127  25.867  23.740  1.00  0.00    -0.237 OA
ATOM     67  O   UNL A   1      54.758  25.677  26.114  1.00  0.00    -0.744 OA
ENDBRANCH  63  64
ENDBRANCH  37  58
ENDBRANCH  11  12
ENDBRANCH   4   6
ENDBRANCH   3   4
ENDBRANCH   2   3
ENDBRANCH   1   2
BRANCH   1  68
ATOM     68  O   UNL A   1      32.830  30.743  27.106  1.00  0.00    -0.374 OA
BRANCH  68  69
ATOM     69  C   UNL A   1      32.372  29.473  26.643  1.00  0.00     0.202 C 
BRANCH  69  70
ATOM     70  C   UNL A   1      32.139  29.503  25.137  1.00  0.00     0.261 C 
BRANCH  70  71
ATOM     71  O   UNL A   1      31.127  28.543  24.777  1.00  0.00    -0.463 OA
BRANCH  71  72
ATOM     72  C   UNL A   1      31.544  27.265  24.558  1.00  0.00     0.312 C 
ATOM     73  O   UNL A   1      30.915  26.252  24.847  1.00  0.00    -0.252 OA
BRANCH  72  74
ATOM     74  C   UNL A   1      32.892  27.215  23.846  1.00  0.00     0.124 C 
ATOM     75  C   UNL A   1      32.817  26.672  22.452  1.00  0.00    -0.014 C 
ATOM     76  C   UNL A   1      33.913  26.283  24.525  1.00  0.00     0.048 C 
ATOM     77  C   UNL A   1      33.466  25.511  22.323  1.00  0.00    -0.006 C 
ATOM     78  C   UNL A   1      34.125  25.079  23.588  1.00  0.00     0.106 C 
BRANCH  78  79
ATOM     79  N   UNL A   1      33.479  23.856  24.017  1.00  0.00    -0.350 N 
ATOM     80  C   UNL A   1      34.032  22.687  24.458  1.00  0.00     0.223 C 
ATOM     81  H   UNL A   1      32.495  23.869  23.986  1.00  0.00     0.164 HD
ATOM     82  O   UNL A   1      33.287  21.764  24.781  1.00  0.00    -0.275 OA
BRANCH  80  83
ATOM     83  C   UNL A   1      35.544  22.557  24.494  1.00  0.00     0.083 C 
ATOM     84  C   UNL A   1      35.928  21.133  24.913  1.00  0.00     0.042 C 
ATOM     85  C   UNL A   1      36.196  23.548  25.466  1.00  0.00     0.042 C 
ATOM     86  C   UNL A   1      37.442  21.006  24.981  1.00  0.00     0.161 C 
ATOM     87  C   UNL A   1      37.700  23.309  25.507  1.00  0.00     0.161 C 
ATOM     88  O   UNL A   1      37.994  21.962  25.882  1.00  0.00    -0.381 OA
ENDBRANCH  80  83
ENDBRANCH  78  79
ENDBRANCH  72  74
ENDBRANCH  71  72
ENDBRANCH  70  71
ENDBRANCH  69  70
ENDBRANCH  68  69
ENDBRANCH   1  68
TORSDOF 19
ENDMDL
