MODEL 1
REMARK VINA RESULT:     -10.6      0.000      0.000
REMARK SMILES Cc1ccc2nc(C(=O)OCCOCCOC(=O)c3ccc(-c4c5nc(c(-c6ccc(S(=O)(=O)[O-])cc6)c6ccc([nH]6)c(-c6ccc(S(=O)(=O)[O-])cc6)c6nc(c(-c7ccc(S(=O)(=O)[O-])cc7)c7ccc4[nH]7)C=C6)C=C5)cc3)cc(N3CCOCC3)c2c1
REMARK SMILES IDX 14 1 13 2 12 3 11 4 10 5 8 6 9 7 7 8 1 9 2 10 3 11 88 12
REMARK SMILES IDX 4 13 87 14 5 15 80 16 6 17 79 18 81 19 82 20 86 21 83 22
REMARK SMILES IDX 85 23 84 24 15 25 16 26 17 27 18 28 19 29 20 30 78 31 21 32
REMARK SMILES IDX 77 33 22 34 23 35 24 36 71 37 25 38 76 39 70 40 72 41 26 42
REMARK SMILES IDX 75 43 69 44 68 45 27 47 57 48 38 49 56 50 39 51 42 52 55 53
REMARK SMILES IDX 73 54 40 55 41 56 54 58 74 59 43 60 28 61 29 62 37 63 30 64
REMARK SMILES IDX 36 65 31 66 32 67 33 68 34 69 35 70 58 71 59 72 67 73 60 74
REMARK SMILES IDX 66 75 61 76 62 77 63 78 64 79 65 80 44 81 45 82 53 83 46 84
REMARK SMILES IDX 52 85 47 86 48 87 49 88 50 89 51 90
REMARK H PARENT 72 46 42 57
REMARK Flexibility Score: inf
ROOT
ATOM      1  C   UNL A   1      33.307  28.045  26.140  1.00  0.00     0.202 C 
ENDROOT
BRANCH   1   2
ATOM      2  O   UNL A   1      33.458  28.193  24.727  1.00  0.00    -0.374 OA
BRANCH   2   3
ATOM      3  C   UNL A   1      32.265  28.331  23.955  1.00  0.00     0.202 C 
BRANCH   3   4
ATOM      4  C   UNL A   1      32.133  27.408  22.741  1.00  0.00     0.261 C 
BRANCH   4   5
ATOM      5  O   UNL A   1      32.092  26.026  23.141  1.00  0.00    -0.459 OA
BRANCH   5   6
ATOM      6  C   UNL A   1      32.751  25.181  22.306  1.00  0.00     0.357 C 
ATOM      7  O   UNL A   1      32.914  25.337  21.105  1.00  0.00    -0.244 OA
BRANCH   6   8
ATOM      8  C   UNL A   1      33.381  24.069  23.077  1.00  0.00     0.151 A 
ATOM      9  C   UNL A   1      38.051  20.331  25.427  1.00  0.00     0.044 C 
ATOM     10  C   UNL A   1      37.093  21.417  25.045  1.00  0.00    -0.050 A 
ATOM     11  C   UNL A   1      37.486  22.750  25.015  1.00  0.00     0.005 A 
ATOM     12  C   UNL A   1      35.783  21.095  24.664  1.00  0.00     0.016 A 
ATOM     13  C   UNL A   1      36.602  23.721  24.545  1.00  0.00     0.029 A 
ATOM     14  C   UNL A   1      34.854  22.075  24.234  1.00  0.00     0.024 A 
ATOM     15  C   UNL A   1      35.323  23.399  24.116  1.00  0.00     0.073 A 
ATOM     16  C   UNL A   1      33.504  21.799  23.848  1.00  0.00     0.049 A 
ATOM     17  N   UNL A   1      34.607  24.374  23.563  1.00  0.00    -0.241 NA
ATOM     18  C   UNL A   1      32.777  22.830  23.237  1.00  0.00     0.062 A 
BRANCH  16  19
ATOM     19  N   UNL A   1      32.946  20.536  24.029  1.00  0.00    -0.366 N 
ATOM     20  C   UNL A   1      32.503  20.108  25.371  1.00  0.00     0.145 C 
ATOM     21  C   UNL A   1      32.257  19.815  22.946  1.00  0.00     0.145 C 
ATOM     22  C   UNL A   1      32.704  18.588  25.496  1.00  0.00     0.181 C 
ATOM     23  C   UNL A   1      32.437  18.301  23.163  1.00  0.00     0.181 C 
ATOM     24  O   UNL A   1      31.992  17.882  24.465  1.00  0.00    -0.378 OA
ENDBRANCH  16  19
ENDBRANCH   6   8
ENDBRANCH   5   6
ENDBRANCH   4   5
ENDBRANCH   3   4
ENDBRANCH   2   3
ENDBRANCH   1   2
BRANCH   1  25
ATOM     25  C   UNL A   1      34.293  28.829  27.015  1.00  0.00     0.261 C 
BRANCH  25  26
ATOM     26  O   UNL A   1      33.695  30.007  27.587  1.00  0.00    -0.460 OA
BRANCH  26  27
ATOM     27  C   UNL A   1      34.570  30.871  28.154  1.00  0.00     0.338 C 
ATOM     28  O   UNL A   1      34.321  31.979  28.610  1.00  0.00    -0.246 OA
BRANCH  27  29
ATOM     29  C   UNL A   1      35.883  30.221  28.326  1.00  0.00     0.060 A 
ATOM     30  C   UNL A   1      36.184  29.694  29.589  1.00  0.00     0.016 A 
ATOM     31  C   UNL A   1      36.827  30.179  27.298  1.00  0.00     0.016 A 
ATOM     32  C   UNL A   1      37.448  29.166  29.843  1.00  0.00     0.010 A 
ATOM     33  C   UNL A   1      38.099  29.657  27.558  1.00  0.00     0.010 A 
ATOM     34  C   UNL A   1      38.426  29.179  28.841  1.00  0.00    -0.014 A 
BRANCH  34  35
ATOM     35  C   UNL A   1      39.825  28.820  29.177  1.00  0.00     0.031 A 
ATOM     36  C   UNL A   1      40.677  29.812  29.923  1.00  0.00     0.074 A 
ATOM     37  C   UNL A   1      40.325  27.616  28.848  1.00  0.00     0.049 A 
ATOM     38  N   UNL A   1      41.923  29.710  30.303  1.00  0.00    -0.248 NA
ATOM     39  C   UNL A   1      40.036  31.086  30.286  1.00  0.00     0.031 C 
ATOM     40  C   UNL A   1      39.590  26.552  28.164  1.00  0.00     0.029 A 
ATOM     41  N   UNL A   1      41.576  27.087  29.046  1.00  0.00    -0.354 N 
ATOM     42  C   UNL A   1      42.221  30.908  30.944  1.00  0.00     0.074 A 
ATOM     43  C   UNL A   1      41.033  31.731  30.874  1.00  0.00     0.031 C 
ATOM     44  C   UNL A   1      40.406  25.497  27.996  1.00  0.00     0.029 A 
ATOM     45  C   UNL A   1      41.727  25.822  28.530  1.00  0.00     0.049 A 
ATOM     46  H   UNL A   1      42.297  27.567  29.513  1.00  0.00     0.167 HD
ATOM     47  C   UNL A   1      43.376  31.288  31.542  1.00  0.00     0.031 A 
ATOM     48  C   UNL A   1      42.812  25.023  28.478  1.00  0.00     0.031 A 
ATOM     49  C   UNL A   1      44.562  30.476  31.596  1.00  0.00     0.049 A 
ATOM     50  C   UNL A   1      44.108  25.495  29.084  1.00  0.00     0.074 A 
ATOM     51  C   UNL A   1      45.778  30.766  32.191  1.00  0.00     0.029 A 
ATOM     52  N   UNL A   1      44.687  29.218  31.024  1.00  0.00    -0.354 N 
ATOM     53  N   UNL A   1      44.365  26.620  29.707  1.00  0.00    -0.248 NA
ATOM     54  C   UNL A   1      45.257  24.584  28.983  1.00  0.00     0.031 C 
ATOM     55  C   UNL A   1      46.655  29.707  31.933  1.00  0.00     0.029 A 
ATOM     56  C   UNL A   1      45.968  28.731  31.227  1.00  0.00     0.049 A 
ATOM     57  H   UNL A   1      43.971  28.742  30.546  1.00  0.00     0.167 HD
ATOM     58  C   UNL A   1      45.698  26.542  30.095  1.00  0.00     0.074 A 
ATOM     59  C   UNL A   1      46.191  25.255  29.646  1.00  0.00     0.031 C 
ATOM     60  C   UNL A   1      46.448  27.451  30.767  1.00  0.00     0.031 A 
BRANCH  47  61
ATOM     61  C   UNL A   1      43.419  32.665  32.150  1.00  0.00    -0.014 A 
ATOM     62  C   UNL A   1      43.157  32.869  33.516  1.00  0.00     0.010 A 
ATOM     63  C   UNL A   1      43.744  33.771  31.343  1.00  0.00     0.010 A 
ATOM     64  C   UNL A   1      43.170  34.158  34.055  1.00  0.00     0.020 A 
ATOM     65  C   UNL A   1      43.785  35.059  31.884  1.00  0.00     0.020 A 
ATOM     66  C   UNL A   1      43.479  35.246  33.232  1.00  0.00     0.054 A 
BRANCH  66  67
ATOM     67  S   UNL A   1      43.492  36.910  33.955  1.00  0.00     0.124 S 
ATOM     68  O   UNL A   1      44.636  36.835  34.859  1.00  0.00    -0.237 OA
ATOM     69  O   UNL A   1      43.669  37.768  32.787  1.00  0.00    -0.237 OA
ATOM     70  O   UNL A   1      42.189  37.014  34.608  1.00  0.00    -0.744 OA
ENDBRANCH  66  67
ENDBRANCH  47  61
BRANCH  48  71
ATOM     71  C   UNL A   1      42.719  23.694  27.816  1.00  0.00    -0.014 A 
ATOM     72  C   UNL A   1      42.995  23.554  26.445  1.00  0.00     0.010 A 
ATOM     73  C   UNL A   1      42.369  22.554  28.564  1.00  0.00     0.010 A 
ATOM     74  C   UNL A   1      42.917  22.300  25.832  1.00  0.00     0.020 A 
ATOM     75  C   UNL A   1      42.314  21.295  27.960  1.00  0.00     0.020 A 
ATOM     76  C   UNL A   1      42.582  21.178  26.595  1.00  0.00     0.054 A 
BRANCH  76  77
ATOM     77  S   UNL A   1      42.556  19.549  25.796  1.00  0.00     0.124 S 
ATOM     78  O   UNL A   1      43.509  19.729  24.706  1.00  0.00    -0.237 OA
ATOM     79  O   UNL A   1      42.985  18.662  26.874  1.00  0.00    -0.237 OA
ATOM     80  O   UNL A   1      41.161  19.391  25.389  1.00  0.00    -0.744 OA
ENDBRANCH  76  77
ENDBRANCH  48  71
BRANCH  60  81
ATOM     81  C   UNL A   1      47.873  27.081  31.085  1.00  0.00    -0.014 A 
ATOM     82  C   UNL A   1      48.176  26.145  32.088  1.00  0.00     0.010 A 
ATOM     83  C   UNL A   1      48.919  27.637  30.326  1.00  0.00     0.010 A 
ATOM     84  C   UNL A   1      49.505  25.795  32.349  1.00  0.00     0.020 A 
ATOM     85  C   UNL A   1      50.246  27.270  30.566  1.00  0.00     0.020 A 
ATOM     86  C   UNL A   1      50.532  26.361  31.586  1.00  0.00     0.054 A 
BRANCH  86  87
ATOM     87  S   UNL A   1      52.244  25.858  31.914  1.00  0.00     0.124 S 
ATOM     88  O   UNL A   1      52.845  25.942  30.586  1.00  0.00    -0.237 OA
ATOM     89  O   UNL A   1      52.695  26.864  32.873  1.00  0.00    -0.237 OA
ATOM     90  O   UNL A   1      52.110  24.507  32.454  1.00  0.00    -0.744 OA
ENDBRANCH  86  87
ENDBRANCH  60  81
ENDBRANCH  34  35
ENDBRANCH  27  29
ENDBRANCH  26  27
ENDBRANCH  25  26
ENDBRANCH   1  25
TORSDOF 18
ENDMDL
MODEL 2
REMARK VINA RESULT:     -10.6      2.154      2.681
REMARK SMILES Cc1ccc2nc(C(=O)OCCOCCOC(=O)c3ccc(-c4c5nc(c(-c6ccc(S(=O)(=O)[O-])cc6)c6ccc([nH]6)c(-c6ccc(S(=O)(=O)[O-])cc6)c6nc(c(-c7ccc(S(=O)(=O)[O-])cc7)c7ccc4[nH]7)C=C6)C=C5)cc3)cc(N3CCOCC3)c2c1
REMARK SMILES IDX 14 1 13 2 12 3 11 4 10 5 8 6 9 7 7 8 1 9 2 10 3 11 88 12
REMARK SMILES IDX 4 13 87 14 5 15 80 16 6 17 79 18 81 19 82 20 86 21 83 22
REMARK SMILES IDX 85 23 84 24 15 25 16 26 17 27 18 28 19 29 20 30 78 31 21 32
REMARK SMILES IDX 77 33 22 34 23 35 24 36 71 37 25 38 76 39 70 40 72 41 26 42
REMARK SMILES IDX 75 43 69 44 68 45 27 47 57 48 38 49 56 50 39 51 42 52 55 53
REMARK SMILES IDX 73 54 40 55 41 56 54 58 74 59 43 60 28 61 29 62 37 63 30 64
REMARK SMILES IDX 36 65 31 66 32 67 33 68 34 69 35 70 58 71 59 72 67 73 60 74
REMARK SMILES IDX 66 75 61 76 62 77 63 78 64 79 65 80 44 81 45 82 53 83 46 84
REMARK SMILES IDX 52 85 47 86 48 87 49 88 50 89 51 90
REMARK H PARENT 72 46 42 57
REMARK Flexibility Score: inf
ROOT
ATOM      1  C   UNL A   1      32.552  28.512  25.709  1.00  0.00     0.202 C 
ENDROOT
BRANCH   1   2
ATOM      2  O   UNL A   1      33.508  27.983  24.788  1.00  0.00    -0.374 OA
BRANCH   2   3
ATOM      3  C   UNL A   1      33.660  26.564  24.750  1.00  0.00     0.202 C 
BRANCH   3   4
ATOM      4  C   UNL A   1      32.368  25.747  24.649  1.00  0.00     0.261 C 
BRANCH   4   5
ATOM      5  O   UNL A   1      32.522  24.642  23.741  1.00  0.00    -0.459 OA
BRANCH   5   6
ATOM      6  C   UNL A   1      31.883  23.506  24.126  1.00  0.00     0.357 C 
ATOM      7  O   UNL A   1      30.677  23.313  24.097  1.00  0.00    -0.244 OA
BRANCH   6   8
ATOM      8  C   UNL A   1      32.870  22.444  24.478  1.00  0.00     0.151 A 
ATOM      9  C   UNL A   1      38.579  19.549  25.049  1.00  0.00     0.044 C 
ATOM     10  C   UNL A   1      37.364  20.422  25.110  1.00  0.00    -0.050 A 
ATOM     11  C   UNL A   1      37.466  21.784  25.367  1.00  0.00     0.005 A 
ATOM     12  C   UNL A   1      36.097  19.879  24.860  1.00  0.00     0.016 A 
ATOM     13  C   UNL A   1      36.327  22.586  25.304  1.00  0.00     0.029 A 
ATOM     14  C   UNL A   1      34.921  20.670  24.843  1.00  0.00     0.024 A 
ATOM     15  C   UNL A   1      35.079  22.062  25.004  1.00  0.00     0.073 A 
ATOM     16  C   UNL A   1      33.605  20.161  24.606  1.00  0.00     0.049 A 
ATOM     17  N   UNL A   1      34.083  22.927  24.836  1.00  0.00    -0.241 NA
ATOM     18  C   UNL A   1      32.575  21.089  24.400  1.00  0.00     0.062 A 
BRANCH  16  19
ATOM     19  N   UNL A   1      33.362  18.792  24.535  1.00  0.00    -0.366 N 
ATOM     20  C   UNL A   1      32.679  18.102  25.648  1.00  0.00     0.145 C 
ATOM     21  C   UNL A   1      33.223  18.081  23.254  1.00  0.00     0.145 C 
ATOM     22  C   UNL A   1      33.219  16.666  25.745  1.00  0.00     0.181 C 
ATOM     23  C   UNL A   1      33.717  16.632  23.433  1.00  0.00     0.181 C 
ATOM     24  O   UNL A   1      33.040  15.956  24.507  1.00  0.00    -0.378 OA
ENDBRANCH  16  19
ENDBRANCH   6   8
ENDBRANCH   5   6
ENDBRANCH   4   5
ENDBRANCH   3   4
ENDBRANCH   2   3
ENDBRANCH   1   2
BRANCH   1  25
ATOM     25  C   UNL A   1      33.120  29.216  26.948  1.00  0.00     0.261 C 
BRANCH  25  26
ATOM     26  O   UNL A   1      33.873  30.393  26.606  1.00  0.00    -0.460 OA
BRANCH  26  27
ATOM     27  C   UNL A   1      34.382  31.071  27.663  1.00  0.00     0.338 C 
ATOM     28  O   UNL A   1      33.846  31.979  28.284  1.00  0.00    -0.246 OA
BRANCH  27  29
ATOM     29  C   UNL A   1      35.638  30.440  28.110  1.00  0.00     0.060 A 
ATOM     30  C   UNL A   1      35.634  29.800  29.356  1.00  0.00     0.016 A 
ATOM     31  C   UNL A   1      36.814  30.523  27.360  1.00  0.00     0.016 A 
ATOM     32  C   UNL A   1      36.816  29.281  29.880  1.00  0.00     0.010 A 
ATOM     33  C   UNL A   1      38.002  30.009  27.893  1.00  0.00     0.010 A 
ATOM     34  C   UNL A   1      38.015  29.417  29.169  1.00  0.00    -0.014 A 
BRANCH  34  35
ATOM     35  C   UNL A   1      39.298  29.061  29.821  1.00  0.00     0.031 A 
ATOM     36  C   UNL A   1      39.741  29.833  31.036  1.00  0.00     0.074 A 
ATOM     37  C   UNL A   1      40.050  28.047  29.357  1.00  0.00     0.049 A 
ATOM     38  N   UNL A   1      40.828  29.699  31.750  1.00  0.00    -0.248 NA
ATOM     39  C   UNL A   1      38.836  30.894  31.505  1.00  0.00     0.031 C 
ATOM     40  C   UNL A   1      39.711  27.196  28.217  1.00  0.00     0.029 A 
ATOM     41  N   UNL A   1      41.258  27.563  29.791  1.00  0.00    -0.354 N 
ATOM     42  C   UNL A   1      40.744  30.663  32.749  1.00  0.00     0.074 A 
ATOM     43  C   UNL A   1      39.513  31.393  32.529  1.00  0.00     0.031 C 
ATOM     44  C   UNL A   1      40.693  26.295  28.039  1.00  0.00     0.029 A 
ATOM     45  C   UNL A   1      41.742  26.525  29.030  1.00  0.00     0.049 A 
ATOM     46  H   UNL A   1      41.734  27.924  30.573  1.00  0.00     0.167 HD
ATOM     47  C   UNL A   1      41.609  30.916  33.760  1.00  0.00     0.031 A 
ATOM     48  C   UNL A   1      42.905  25.850  29.113  1.00  0.00     0.031 A 
ATOM     49  C   UNL A   1      42.841  30.203  33.967  1.00  0.00     0.049 A 
ATOM     50  C   UNL A   1      43.887  26.196  30.200  1.00  0.00     0.074 A 
ATOM     51  C   UNL A   1      43.778  30.375  34.971  1.00  0.00     0.029 A 
ATOM     52  N   UNL A   1      43.314  29.187  33.149  1.00  0.00    -0.354 N 
ATOM     53  N   UNL A   1      43.781  27.094  31.151  1.00  0.00    -0.248 NA
ATOM     54  C   UNL A   1      45.143  25.433  30.229  1.00  0.00     0.031 C 
ATOM     55  C   UNL A   1      44.843  29.501  34.730  1.00  0.00     0.029 A 
ATOM     56  C   UNL A   1      44.543  28.744  33.608  1.00  0.00     0.049 A 
ATOM     57  H   UNL A   1      42.845  28.834  32.359  1.00  0.00     0.167 HD
ATOM     58  C   UNL A   1      44.945  26.987  31.906  1.00  0.00     0.074 A 
ATOM     59  C   UNL A   1      45.736  25.929  31.307  1.00  0.00     0.031 C 
ATOM     60  C   UNL A   1      45.324  27.695  32.998  1.00  0.00     0.031 A 
BRANCH  47  61
ATOM     61  C   UNL A   1      41.266  32.045  34.696  1.00  0.00    -0.014 A 
ATOM     62  C   UNL A   1      41.797  33.334  34.512  1.00  0.00     0.010 A 
ATOM     63  C   UNL A   1      40.383  31.815  35.767  1.00  0.00     0.010 A 
ATOM     64  C   UNL A   1      41.491  34.360  35.410  1.00  0.00     0.020 A 
ATOM     65  C   UNL A   1      40.053  32.845  36.651  1.00  0.00     0.020 A 
ATOM     66  C   UNL A   1      40.625  34.107  36.479  1.00  0.00     0.054 A 
BRANCH  66  67
ATOM     67  S   UNL A   1      40.242  35.456  37.630  1.00  0.00     0.124 S 
ATOM     68  O   UNL A   1      39.154  34.880  38.415  1.00  0.00    -0.237 OA
ATOM     69  O   UNL A   1      41.504  35.638  38.342  1.00  0.00    -0.237 OA
ATOM     70  O   UNL A   1      39.860  36.561  36.753  1.00  0.00    -0.744 OA
ENDBRANCH  66  67
ENDBRANCH  47  61
BRANCH  48  71
ATOM     71  C   UNL A   1      43.209  24.780  28.124  1.00  0.00    -0.014 A 
ATOM     72  C   UNL A   1      43.981  25.055  26.982  1.00  0.00     0.010 A 
ATOM     73  C   UNL A   1      42.739  23.470  28.332  1.00  0.00     0.010 A 
ATOM     74  C   UNL A   1      44.272  24.043  26.064  1.00  0.00     0.020 A 
ATOM     75  C   UNL A   1      43.048  22.450  27.429  1.00  0.00     0.020 A 
ATOM     76  C   UNL A   1      43.808  22.745  26.297  1.00  0.00     0.054 A 
BRANCH  76  77
ATOM     77  S   UNL A   1      44.257  21.430  25.129  1.00  0.00     0.124 S 
ATOM     78  O   UNL A   1      44.070  22.090  23.841  1.00  0.00    -0.237 OA
ATOM     79  O   UNL A   1      45.640  21.140  25.498  1.00  0.00    -0.237 OA
ATOM     80  O   UNL A   1      43.304  20.364  25.433  1.00  0.00    -0.744 OA
ENDBRANCH  76  77
ENDBRANCH  48  71
BRANCH  60  81
ATOM     81  C   UNL A   1      46.639  27.337  33.639  1.00  0.00    -0.014 A 
ATOM     82  C   UNL A   1      46.720  26.344  34.631  1.00  0.00     0.010 A 
ATOM     83  C   UNL A   1      47.819  27.965  33.199  1.00  0.00     0.010 A 
ATOM     84  C   UNL A   1      47.955  26.007  35.194  1.00  0.00     0.020 A 
ATOM     85  C   UNL A   1      49.058  27.612  33.740  1.00  0.00     0.020 A 
ATOM     86  C   UNL A   1      49.117  26.644  34.745  1.00  0.00     0.054 A 
BRANCH  86  87
ATOM     87  S   UNL A   1      50.712  26.160  35.460  1.00  0.00     0.124 S 
ATOM     88  O   UNL A   1      50.554  26.562  36.855  1.00  0.00    -0.237 OA
ATOM     89  O   UNL A   1      50.747  24.719  35.220  1.00  0.00    -0.237 OA
ATOM     90  O   UNL A   1      51.684  26.936  34.694  1.00  0.00    -0.744 OA
ENDBRANCH  86  87
ENDBRANCH  60  81
ENDBRANCH  34  35
ENDBRANCH  27  29
ENDBRANCH  26  27
ENDBRANCH  25  26
ENDBRANCH   1  25
TORSDOF 18
ENDMDL
MODEL 3
REMARK VINA RESULT:     -10.4      3.783      4.983
REMARK SMILES Cc1ccc2nc(C(=O)OCCOCCOC(=O)c3ccc(-c4c5nc(c(-c6ccc(S(=O)(=O)[O-])cc6)c6ccc([nH]6)c(-c6ccc(S(=O)(=O)[O-])cc6)c6nc(c(-c7ccc(S(=O)(=O)[O-])cc7)c7ccc4[nH]7)C=C6)C=C5)cc3)cc(N3CCOCC3)c2c1
REMARK SMILES IDX 14 1 13 2 12 3 11 4 10 5 8 6 9 7 7 8 1 9 2 10 3 11 88 12
REMARK SMILES IDX 4 13 87 14 5 15 80 16 6 17 79 18 81 19 82 20 86 21 83 22
REMARK SMILES IDX 85 23 84 24 15 25 16 26 17 27 18 28 19 29 20 30 78 31 21 32
REMARK SMILES IDX 77 33 22 34 23 35 24 36 71 37 25 38 76 39 70 40 72 41 26 42
REMARK SMILES IDX 75 43 69 44 68 45 27 47 57 48 38 49 56 50 39 51 42 52 55 53
REMARK SMILES IDX 73 54 40 55 41 56 54 58 74 59 43 60 28 61 29 62 37 63 30 64
REMARK SMILES IDX 36 65 31 66 32 67 33 68 34 69 35 70 58 71 59 72 67 73 60 74
REMARK SMILES IDX 66 75 61 76 62 77 63 78 64 79 65 80 44 81 45 82 53 83 46 84
REMARK SMILES IDX 52 85 47 86 48 87 49 88 50 89 51 90
REMARK H PARENT 72 46 42 57
REMARK Flexibility Score: inf
ROOT
ATOM      1  C   UNL A   1      34.524  30.802  27.435  1.00  0.00     0.202 C 
ENDROOT
BRANCH   1   2
ATOM      2  O   UNL A   1      34.314  29.621  26.659  1.00  0.00    -0.374 OA
BRANCH   2   3
ATOM      3  C   UNL A   1      33.536  28.581  27.252  1.00  0.00     0.202 C 
BRANCH   3   4
ATOM      4  C   UNL A   1      32.672  27.753  26.297  1.00  0.00     0.261 C 
BRANCH   4   5
ATOM      5  O   UNL A   1      33.087  26.375  26.284  1.00  0.00    -0.459 OA
BRANCH   5   6
ATOM      6  C   UNL A   1      33.568  25.945  25.089  1.00  0.00     0.357 C 
ATOM      7  O   UNL A   1      33.651  26.608  24.066  1.00  0.00    -0.244 OA
BRANCH   6   8
ATOM      8  C   UNL A   1      34.121  24.565  25.212  1.00  0.00     0.151 A 
ATOM      9  C   UNL A   1      38.455  19.825  24.993  1.00  0.00     0.044 C 
ATOM     10  C   UNL A   1      37.622  21.041  25.260  1.00  0.00    -0.050 A 
ATOM     11  C   UNL A   1      38.194  22.220  25.721  1.00  0.00     0.005 A 
ATOM     12  C   UNL A   1      36.246  21.018  25.001  1.00  0.00     0.016 A 
ATOM     13  C   UNL A   1      37.407  23.365  25.850  1.00  0.00     0.029 A 
ATOM     14  C   UNL A   1      35.421  22.158  25.176  1.00  0.00     0.024 A 
ATOM     15  C   UNL A   1      36.055  23.361  25.544  1.00  0.00     0.073 A 
ATOM     16  C   UNL A   1      34.010  22.182  24.938  1.00  0.00     0.049 A 
ATOM     17  N   UNL A   1      35.425  24.532  25.572  1.00  0.00    -0.241 NA
ATOM     18  C   UNL A   1      33.370  23.429  24.941  1.00  0.00     0.062 A 
BRANCH  16  19
ATOM     19  N   UNL A   1      33.304  21.012  24.668  1.00  0.00    -0.366 N 
ATOM     20  C   UNL A   1      32.938  20.096  25.768  1.00  0.00     0.145 C 
ATOM     21  C   UNL A   1      32.420  20.877  23.498  1.00  0.00     0.145 C 
ATOM     22  C   UNL A   1      32.939  18.655  25.230  1.00  0.00     0.181 C 
ATOM     23  C   UNL A   1      32.411  19.403  23.050  1.00  0.00     0.181 C 
ATOM     24  O   UNL A   1      32.041  18.513  24.117  1.00  0.00    -0.378 OA
ENDBRANCH  16  19
ENDBRANCH   6   8
ENDBRANCH   5   6
ENDBRANCH   4   5
ENDBRANCH   3   4
ENDBRANCH   2   3
ENDBRANCH   1   2
BRANCH   1  25
ATOM     25  C   UNL A   1      33.326  31.750  27.569  1.00  0.00     0.261 C 
BRANCH  25  26
ATOM     26  O   UNL A   1      33.709  33.131  27.442  1.00  0.00    -0.460 OA
BRANCH  26  27
ATOM     27  C   UNL A   1      33.619  33.854  28.584  1.00  0.00     0.338 C 
ATOM     28  O   UNL A   1      32.705  34.595  28.917  1.00  0.00    -0.246 OA
BRANCH  27  29
ATOM     29  C   UNL A   1      34.718  33.491  29.499  1.00  0.00     0.060 A 
ATOM     30  C   UNL A   1      36.016  33.867  29.132  1.00  0.00     0.016 A 
ATOM     31  C   UNL A   1      34.497  32.747  30.661  1.00  0.00     0.016 A 
ATOM     32  C   UNL A   1      37.105  33.458  29.899  1.00  0.00     0.010 A 
ATOM     33  C   UNL A   1      35.593  32.331  31.424  1.00  0.00     0.010 A 
ATOM     34  C   UNL A   1      36.904  32.656  31.029  1.00  0.00    -0.014 A 
BRANCH  34  35
ATOM     35  C   UNL A   1      38.070  32.046  31.714  1.00  0.00     0.031 A 
ATOM     36  C   UNL A   1      38.483  32.570  33.063  1.00  0.00     0.074 A 
ATOM     37  C   UNL A   1      38.738  31.021  31.156  1.00  0.00     0.049 A 
ATOM     38  N   UNL A   1      39.475  32.195  33.828  1.00  0.00    -0.248 NA
ATOM     39  C   UNL A   1      37.668  33.660  33.622  1.00  0.00     0.031 C 
ATOM     40  C   UNL A   1      38.411  30.396  29.875  1.00  0.00     0.029 A 
ATOM     41  N   UNL A   1      39.835  30.327  31.599  1.00  0.00    -0.354 N 
ATOM     42  C   UNL A   1      39.410  33.006  34.955  1.00  0.00     0.074 A 
ATOM     43  C   UNL A   1      38.299  33.913  34.760  1.00  0.00     0.031 C 
ATOM     44  C   UNL A   1      39.293  29.411  29.633  1.00  0.00     0.029 A 
ATOM     45  C   UNL A   1      40.264  29.357  30.725  1.00  0.00     0.049 A 
ATOM     46  H   UNL A   1      40.275  30.506  32.462  1.00  0.00     0.167 HD
ATOM     47  C   UNL A   1      40.200  32.996  36.056  1.00  0.00     0.031 A 
ATOM     48  C   UNL A   1      41.328  28.531  30.789  1.00  0.00     0.031 A 
ATOM     49  C   UNL A   1      41.315  32.107  36.241  1.00  0.00     0.049 A 
ATOM     50  C   UNL A   1      42.237  28.587  31.988  1.00  0.00     0.074 A 
ATOM     51  C   UNL A   1      42.167  32.008  37.328  1.00  0.00     0.029 A 
ATOM     52  N   UNL A   1      41.741  31.167  35.314  1.00  0.00    -0.354 N 
ATOM     53  N   UNL A   1      42.147  29.344  33.056  1.00  0.00    -0.248 NA
ATOM     54  C   UNL A   1      43.387  27.671  31.992  1.00  0.00     0.031 C 
ATOM     55  C   UNL A   1      43.141  31.048  37.035  1.00  0.00     0.029 A 
ATOM     56  C   UNL A   1      42.862  30.507  35.790  1.00  0.00     0.049 A 
ATOM     57  H   UNL A   1      41.311  30.996  34.446  1.00  0.00     0.167 HD
ATOM     58  C   UNL A   1      43.214  28.978  33.870  1.00  0.00     0.074 A 
ATOM     59  C   UNL A   1      43.929  27.925  33.176  1.00  0.00     0.031 C 
ATOM     60  C   UNL A   1      43.569  29.465  35.085  1.00  0.00     0.031 A 
BRANCH  47  61
ATOM     61  C   UNL A   1      39.904  34.012  37.127  1.00  0.00    -0.014 A 
ATOM     62  C   UNL A   1      39.208  33.659  38.297  1.00  0.00     0.010 A 
ATOM     63  C   UNL A   1      40.346  35.339  36.968  1.00  0.00     0.010 A 
ATOM     64  C   UNL A   1      38.916  34.623  39.265  1.00  0.00     0.020 A 
ATOM     65  C   UNL A   1      40.080  36.300  37.947  1.00  0.00     0.020 A 
ATOM     66  C   UNL A   1      39.349  35.940  39.080  1.00  0.00     0.054 A 
BRANCH  66  67
ATOM     67  S   UNL A   1      38.958  37.173  40.353  1.00  0.00     0.124 S 
ATOM     68  O   UNL A   1      38.087  36.415  41.247  1.00  0.00    -0.237 OA
ATOM     69  O   UNL A   1      40.274  37.507  40.891  1.00  0.00    -0.237 OA
ATOM     70  O   UNL A   1      38.304  38.245  39.607  1.00  0.00    -0.744 OA
ENDBRANCH  66  67
ENDBRANCH  47  61
BRANCH  48  71
ATOM     71  C   UNL A   1      41.596  27.586  29.671  1.00  0.00    -0.014 A 
ATOM     72  C   UNL A   1      40.731  26.508  29.419  1.00  0.00     0.010 A 
ATOM     73  C   UNL A   1      42.716  27.775  28.840  1.00  0.00     0.010 A 
ATOM     74  C   UNL A   1      40.984  25.631  28.360  1.00  0.00     0.020 A 
ATOM     75  C   UNL A   1      42.958  26.915  27.765  1.00  0.00     0.020 A 
ATOM     76  C   UNL A   1      42.093  25.844  27.536  1.00  0.00     0.054 A 
BRANCH  76  77
ATOM     77  S   UNL A   1      42.363  24.736  26.125  1.00  0.00     0.124 S 
ATOM     78  O   UNL A   1      43.694  24.208  26.403  1.00  0.00    -0.237 OA
ATOM     79  O   UNL A   1      41.262  23.785  26.256  1.00  0.00    -0.237 OA
ATOM     80  O   UNL A   1      42.270  25.627  24.969  1.00  0.00    -0.744 OA
ENDBRANCH  76  77
ENDBRANCH  48  71
BRANCH  60  81
ATOM     81  C   UNL A   1      44.767  28.851  35.759  1.00  0.00    -0.014 A 
ATOM     82  C   UNL A   1      46.055  29.384  35.584  1.00  0.00     0.010 A 
ATOM     83  C   UNL A   1      44.589  27.757  36.627  1.00  0.00     0.010 A 
ATOM     84  C   UNL A   1      47.151  28.814  36.242  1.00  0.00     0.020 A 
ATOM     85  C   UNL A   1      45.677  27.201  37.306  1.00  0.00     0.020 A 
ATOM     86  C   UNL A   1      46.954  27.725  37.098  1.00  0.00     0.054 A 
BRANCH  86  87
ATOM     87  S   UNL A   1      48.384  27.031  37.972  1.00  0.00     0.124 S 
ATOM     88  O   UNL A   1      48.862  28.181  38.733  1.00  0.00    -0.237 OA
ATOM     89  O   UNL A   1      47.787  25.958  38.763  1.00  0.00    -0.237 OA
ATOM     90  O   UNL A   1      49.265  26.586  36.895  1.00  0.00    -0.744 OA
ENDBRANCH  86  87
ENDBRANCH  60  81
ENDBRANCH  34  35
ENDBRANCH  27  29
ENDBRANCH  26  27
ENDBRANCH  25  26
ENDBRANCH   1  25
TORSDOF 18
ENDMDL
