MODEL 1
REMARK VINA RESULT:      -9.3      0.000      0.000
REMARK SMILES CC(=O)Oc1ccccc1C(=O)OCCOCCOC(=O)c1ccc(-c2c3nc(c(-c4ccc(S(=O)(=O)[O-])cc4)c4ccc([nH]4)c(-c4ccc(S(=O)(=O)[O-])cc4)c4nc(c(-c5ccc(S(=O)(=O)[O-])cc5)c5ccc2[nH]5)C=C4)C=C3)cc1
REMARK SMILES IDX 17 1 16 2 15 3 14 4 13 5 11 6 12 7 10 8 5 9 6 10 7 11 9 12
REMARK SMILES IDX 8 13 4 14 2 15 1 16 3 17 18 18 19 19 20 20 21 21 22 22 23 23
REMARK SMILES IDX 81 24 24 25 80 26 25 27 26 28 27 29 74 30 28 31 79 32 73 33
REMARK SMILES IDX 75 34 29 35 78 36 72 37 71 38 30 40 60 41 41 42 59 43 42 44
REMARK SMILES IDX 45 45 58 46 76 47 43 48 44 49 57 51 77 52 46 53 31 54 32 55
REMARK SMILES IDX 40 56 33 57 39 58 34 59 35 60 36 61 37 62 38 63 61 64 62 65
REMARK SMILES IDX 70 66 63 67 69 68 64 69 65 70 66 71 67 72 68 73 47 74 48 75
REMARK SMILES IDX 56 76 49 77 55 78 50 79 51 80 52 81 53 82 54 83
REMARK H PARENT 75 39 45 50
REMARK Flexibility Score: inf
ROOT
ATOM      1  C   UNL A   1      31.865  29.063  26.406  1.00  0.00     0.202 C 
ENDROOT
BRANCH   1   2
ATOM      2  O   UNL A   1      32.502  28.447  25.288  1.00  0.00    -0.374 OA
BRANCH   2   3
ATOM      3  C   UNL A   1      32.859  27.070  25.404  1.00  0.00     0.202 C 
BRANCH   3   4
ATOM      4  C   UNL A   1      33.071  26.306  24.095  1.00  0.00     0.261 C 
BRANCH   4   5
ATOM      5  O   UNL A   1      34.248  25.486  24.158  1.00  0.00    -0.460 OA
BRANCH   5   6
ATOM      6  C   UNL A   1      34.256  24.414  23.329  1.00  0.00     0.342 C 
ATOM      7  O   UNL A   1      33.889  24.406  22.163  1.00  0.00    -0.246 OA
BRANCH   6   8
ATOM      8  C   UNL A   1      34.944  23.250  23.944  1.00  0.00     0.102 A 
ATOM      9  C   UNL A   1      34.423  22.417  24.942  1.00  0.00     0.145 A 
ATOM     10  C   UNL A   1      35.180  21.350  25.446  1.00  0.00     0.048 A 
ATOM     11  C   UNL A   1      36.471  21.120  24.971  1.00  0.00     0.004 A 
ATOM     12  C   UNL A   1      36.255  23.012  23.491  1.00  0.00     0.019 A 
ATOM     13  C   UNL A   1      37.017  21.962  24.007  1.00  0.00     0.001 A 
BRANCH   9  14
ATOM     14  O   UNL A   1      33.209  22.651  25.608  1.00  0.00    -0.426 OA
BRANCH  14  15
ATOM     15  C   UNL A   1      32.050  22.224  24.970  1.00  0.00     0.308 C 
ATOM     16  C   UNL A   1      32.365  21.011  24.143  1.00  0.00     0.139 C 
ATOM     17  O   UNL A   1      30.948  22.747  25.057  1.00  0.00    -0.252 OA
ENDBRANCH  14  15
ENDBRANCH   9  14
ENDBRANCH   6   8
ENDBRANCH   5   6
ENDBRANCH   4   5
ENDBRANCH   3   4
ENDBRANCH   2   3
ENDBRANCH   1   2
BRANCH   1  18
ATOM     18  C   UNL A   1      32.533  30.316  26.988  1.00  0.00     0.261 C 
BRANCH  18  19
ATOM     19  O   UNL A   1      33.971  30.263  26.948  1.00  0.00    -0.460 OA
BRANCH  19  20
ATOM     20  C   UNL A   1      34.592  30.839  28.006  1.00  0.00     0.338 C 
ATOM     21  O   UNL A   1      34.128  31.668  28.775  1.00  0.00    -0.246 OA
BRANCH  20  22
ATOM     22  C   UNL A   1      35.906  30.210  28.221  1.00  0.00     0.060 A 
ATOM     23  C   UNL A   1      36.232  29.791  29.517  1.00  0.00     0.016 A 
ATOM     24  C   UNL A   1      36.838  30.118  27.187  1.00  0.00     0.016 A 
ATOM     25  C   UNL A   1      37.508  29.298  29.789  1.00  0.00     0.010 A 
ATOM     26  C   UNL A   1      38.120  29.632  27.464  1.00  0.00     0.010 A 
ATOM     27  C   UNL A   1      38.469  29.242  28.771  1.00  0.00    -0.014 A 
BRANCH  27  28
ATOM     28  C   UNL A   1      39.869  28.871  29.088  1.00  0.00     0.031 A 
ATOM     29  C   UNL A   1      40.778  29.887  29.724  1.00  0.00     0.074 A 
ATOM     30  C   UNL A   1      40.326  27.637  28.811  1.00  0.00     0.049 A 
ATOM     31  N   UNL A   1      42.047  29.787  30.025  1.00  0.00    -0.248 NA
ATOM     32  C   UNL A   1      40.176  31.186  30.067  1.00  0.00     0.031 C 
ATOM     33  C   UNL A   1      39.532  26.549  28.242  1.00  0.00     0.029 A 
ATOM     34  N   UNL A   1      41.577  27.095  28.966  1.00  0.00    -0.354 N 
ATOM     35  C   UNL A   1      42.400  31.008  30.587  1.00  0.00     0.074 A 
ATOM     36  C   UNL A   1      41.216  31.843  30.563  1.00  0.00     0.031 C 
ATOM     37  C   UNL A   1      40.319  25.471  28.082  1.00  0.00     0.029 A 
ATOM     38  C   UNL A   1      41.678  25.803  28.507  1.00  0.00     0.049 A 
ATOM     39  H   UNL A   1      42.331  27.584  29.368  1.00  0.00     0.167 HD
ATOM     40  C   UNL A   1      43.599  31.399  31.082  1.00  0.00     0.031 A 
ATOM     41  C   UNL A   1      42.747  24.989  28.416  1.00  0.00     0.031 A 
ATOM     42  C   UNL A   1      44.778  30.574  31.090  1.00  0.00     0.049 A 
ATOM     43  C   UNL A   1      44.091  25.475  28.890  1.00  0.00     0.074 A 
ATOM     44  C   UNL A   1      46.036  30.878  31.582  1.00  0.00     0.029 A 
ATOM     45  N   UNL A   1      44.849  29.289  30.575  1.00  0.00    -0.354 N 
ATOM     46  N   UNL A   1      44.403  26.627  29.436  1.00  0.00    -0.248 NA
ATOM     47  C   UNL A   1      45.224  24.553  28.738  1.00  0.00     0.031 C 
ATOM     48  C   UNL A   1      46.882  29.796  31.315  1.00  0.00     0.029 A 
ATOM     49  C   UNL A   1      46.137  28.797  30.708  1.00  0.00     0.049 A 
ATOM     50  H   UNL A   1      44.095  28.800  30.175  1.00  0.00     0.167 HD
ATOM     51  C   UNL A   1      45.765  26.557  29.713  1.00  0.00     0.074 A 
ATOM     52  C   UNL A   1      46.213  25.249  29.285  1.00  0.00     0.031 C 
ATOM     53  C   UNL A   1      46.570  27.493  30.273  1.00  0.00     0.031 A 
BRANCH  40  54
ATOM     54  C   UNL A   1      43.702  32.799  31.627  1.00  0.00    -0.014 A 
ATOM     55  C   UNL A   1      43.989  33.888  30.784  1.00  0.00     0.010 A 
ATOM     56  C   UNL A   1      43.471  33.032  32.995  1.00  0.00     0.010 A 
ATOM     57  C   UNL A   1      44.081  35.181  31.308  1.00  0.00     0.020 A 
ATOM     58  C   UNL A   1      43.540  34.326  33.517  1.00  0.00     0.020 A 
ATOM     59  C   UNL A   1      43.862  35.391  32.672  1.00  0.00     0.054 A 
BRANCH  59  60
ATOM     60  S   UNL A   1      43.975  37.080  33.324  1.00  0.00     0.124 S 
ATOM     61  O   UNL A   1      45.186  37.007  34.138  1.00  0.00    -0.237 OA
ATOM     62  O   UNL A   1      44.083  37.886  32.111  1.00  0.00    -0.237 OA
ATOM     63  O   UNL A   1      42.732  37.248  34.072  1.00  0.00    -0.744 OA
ENDBRANCH  59  60
ENDBRANCH  40  54
BRANCH  41  64
ATOM     64  C   UNL A   1      42.596  23.630  27.829  1.00  0.00    -0.014 A 
ATOM     65  C   UNL A   1      42.391  22.511  28.654  1.00  0.00     0.010 A 
ATOM     66  C   UNL A   1      42.655  23.451  26.434  1.00  0.00     0.010 A 
ATOM     67  C   UNL A   1      42.258  21.236  28.096  1.00  0.00     0.020 A 
ATOM     68  C   UNL A   1      42.498  22.182  25.871  1.00  0.00     0.020 A 
ATOM     69  C   UNL A   1      42.311  21.080  26.707  1.00  0.00     0.054 A 
BRANCH  69  70
ATOM     70  S   UNL A   1      42.087  19.423  26.002  1.00  0.00     0.124 S 
ATOM     71  O   UNL A   1      42.931  19.485  24.813  1.00  0.00    -0.237 OA
ATOM     72  O   UNL A   1      42.567  18.556  27.075  1.00  0.00    -0.237 OA
ATOM     73  O   UNL A   1      40.650  19.352  25.749  1.00  0.00    -0.744 OA
ENDBRANCH  69  70
ENDBRANCH  41  64
BRANCH  53  74
ATOM     74  C   UNL A   1      48.017  27.132  30.482  1.00  0.00    -0.014 A 
ATOM     75  C   UNL A   1      49.000  27.500  29.545  1.00  0.00     0.010 A 
ATOM     76  C   UNL A   1      48.406  26.475  31.663  1.00  0.00     0.010 A 
ATOM     77  C   UNL A   1      50.344  27.196  29.778  1.00  0.00     0.020 A 
ATOM     78  C   UNL A   1      49.752  26.192  31.910  1.00  0.00     0.020 A 
ATOM     79  C   UNL A   1      50.712  26.545  30.960  1.00  0.00     0.054 A 
BRANCH  79  80
ATOM     80  S   UNL A   1      52.470  26.214  31.264  1.00  0.00     0.124 S 
ATOM     81  O   UNL A   1      53.008  26.160  29.908  1.00  0.00    -0.237 OA
ATOM     82  O   UNL A   1      52.882  27.369  32.059  1.00  0.00    -0.237 OA
ATOM     83  O   UNL A   1      52.462  24.941  31.983  1.00  0.00    -0.744 OA
ENDBRANCH  79  80
ENDBRANCH  53  74
ENDBRANCH  27  28
ENDBRANCH  20  22
ENDBRANCH  19  20
ENDBRANCH  18  19
ENDBRANCH   1  18
TORSDOF 19
ENDMDL
MODEL 2
REMARK VINA RESULT:      -9.2      2.747      3.732
REMARK SMILES CC(=O)Oc1ccccc1C(=O)OCCOCCOC(=O)c1ccc(-c2c3nc(c(-c4ccc(S(=O)(=O)[O-])cc4)c4ccc([nH]4)c(-c4ccc(S(=O)(=O)[O-])cc4)c4nc(c(-c5ccc(S(=O)(=O)[O-])cc5)c5ccc2[nH]5)C=C4)C=C3)cc1
REMARK SMILES IDX 17 1 16 2 15 3 14 4 13 5 11 6 12 7 10 8 5 9 6 10 7 11 9 12
REMARK SMILES IDX 8 13 4 14 2 15 1 16 3 17 18 18 19 19 20 20 21 21 22 22 23 23
REMARK SMILES IDX 81 24 24 25 80 26 25 27 26 28 27 29 74 30 28 31 79 32 73 33
REMARK SMILES IDX 75 34 29 35 78 36 72 37 71 38 30 40 60 41 41 42 59 43 42 44
REMARK SMILES IDX 45 45 58 46 76 47 43 48 44 49 57 51 77 52 46 53 31 54 32 55
REMARK SMILES IDX 40 56 33 57 39 58 34 59 35 60 36 61 37 62 38 63 61 64 62 65
REMARK SMILES IDX 70 66 63 67 69 68 64 69 65 70 66 71 67 72 68 73 47 74 48 75
REMARK SMILES IDX 56 76 49 77 55 78 50 79 51 80 52 81 53 82 54 83
REMARK H PARENT 75 39 45 50
REMARK Flexibility Score: inf
ROOT
ATOM      1  C   UNL A   1      34.557  30.996  27.559  1.00  0.00     0.202 C 
ENDROOT
BRANCH   1   2
ATOM      2  O   UNL A   1      34.587  29.570  27.536  1.00  0.00    -0.374 OA
BRANCH   2   3
ATOM      3  C   UNL A   1      34.161  28.917  26.340  1.00  0.00     0.202 C 
BRANCH   3   4
ATOM      4  C   UNL A   1      33.921  27.408  26.433  1.00  0.00     0.261 C 
BRANCH   4   5
ATOM      5  O   UNL A   1      32.665  27.046  25.838  1.00  0.00    -0.460 OA
BRANCH   5   6
ATOM      6  C   UNL A   1      32.290  25.755  26.011  1.00  0.00     0.342 C 
ATOM      7  O   UNL A   1      31.269  25.373  26.564  1.00  0.00    -0.246 OA
BRANCH   6   8
ATOM      8  C   UNL A   1      33.184  24.821  25.280  1.00  0.00     0.102 A 
ATOM      9  C   UNL A   1      33.314  24.723  23.889  1.00  0.00     0.145 A 
ATOM     10  C   UNL A   1      34.193  23.792  23.320  1.00  0.00     0.048 A 
ATOM     11  C   UNL A   1      34.935  22.937  24.137  1.00  0.00     0.004 A 
ATOM     12  C   UNL A   1      33.928  23.939  26.086  1.00  0.00     0.019 A 
ATOM     13  C   UNL A   1      34.789  22.997  25.519  1.00  0.00     0.001 A 
BRANCH   9  14
ATOM     14  O   UNL A   1      32.503  25.411  22.973  1.00  0.00    -0.426 OA
BRANCH  14  15
ATOM     15  C   UNL A   1      33.150  26.098  21.953  1.00  0.00     0.308 C 
ATOM     16  C   UNL A   1      33.686  27.392  22.497  1.00  0.00     0.139 C 
ATOM     17  O   UNL A   1      33.267  25.723  20.795  1.00  0.00    -0.252 OA
ENDBRANCH  14  15
ENDBRANCH   9  14
ENDBRANCH   6   8
ENDBRANCH   5   6
ENDBRANCH   4   5
ENDBRANCH   3   4
ENDBRANCH   2   3
ENDBRANCH   1   2
BRANCH   1  18
ATOM     18  C   UNL A   1      34.708  31.676  28.927  1.00  0.00     0.261 C 
BRANCH  18  19
ATOM     19  O   UNL A   1      36.042  32.150  29.181  1.00  0.00    -0.460 OA
BRANCH  19  20
ATOM     20  C   UNL A   1      36.623  31.644  30.297  1.00  0.00     0.338 C 
ATOM     21  O   UNL A   1      36.176  31.654  31.434  1.00  0.00    -0.246 OA
BRANCH  20  22
ATOM     22  C   UNL A   1      37.851  30.915  29.937  1.00  0.00     0.060 A 
ATOM     23  C   UNL A   1      38.751  30.593  30.961  1.00  0.00     0.016 A 
ATOM     24  C   UNL A   1      38.158  30.634  28.605  1.00  0.00     0.016 A 
ATOM     25  C   UNL A   1      39.978  30.008  30.651  1.00  0.00     0.010 A 
ATOM     26  C   UNL A   1      39.394  30.056  28.296  1.00  0.00     0.010 A 
ATOM     27  C   UNL A   1      40.319  29.761  29.314  1.00  0.00    -0.014 A 
BRANCH  27  28
ATOM     28  C   UNL A   1      41.682  29.290  28.969  1.00  0.00     0.031 A 
ATOM     29  C   UNL A   1      42.826  30.266  28.971  1.00  0.00     0.074 A 
ATOM     30  C   UNL A   1      41.896  27.999  28.655  1.00  0.00     0.049 A 
ATOM     31  N   UNL A   1      44.077  30.073  28.641  1.00  0.00    -0.248 NA
ATOM     32  C   UNL A   1      42.519  31.639  29.403  1.00  0.00     0.031 C 
ATOM     33  C   UNL A   1      40.881  26.946  28.665  1.00  0.00     0.029 A 
ATOM     34  N   UNL A   1      43.043  27.358  28.259  1.00  0.00    -0.354 N 
ATOM     35  C   UNL A   1      44.708  31.299  28.819  1.00  0.00     0.074 A 
ATOM     36  C   UNL A   1      43.696  32.235  29.263  1.00  0.00     0.031 C 
ATOM     37  C   UNL A   1      41.447  25.790  28.279  1.00  0.00     0.029 A 
ATOM     38  C   UNL A   1      42.855  26.028  27.963  1.00  0.00     0.049 A 
ATOM     39  H   UNL A   1      43.916  27.806  28.193  1.00  0.00     0.167 HD
ATOM     40  C   UNL A   1      46.012  31.616  28.634  1.00  0.00     0.031 A 
ATOM     41  C   UNL A   1      43.713  25.113  27.471  1.00  0.00     0.031 A 
ATOM     42  C   UNL A   1      47.013  30.689  28.178  1.00  0.00     0.049 A 
ATOM     43  C   UNL A   1      45.137  25.511  27.188  1.00  0.00     0.074 A 
ATOM     44  C   UNL A   1      48.363  30.914  27.972  1.00  0.00     0.029 A 
ATOM     45  N   UNL A   1      46.773  29.364  27.846  1.00  0.00    -0.354 N 
ATOM     46  N   UNL A   1      45.722  26.669  27.379  1.00  0.00    -0.248 NA
ATOM     47  C   UNL A   1      46.017  24.477  26.625  1.00  0.00     0.031 C 
ATOM     48  C   UNL A   1      48.929  29.739  27.465  1.00  0.00     0.029 A 
ATOM     49  C   UNL A   1      47.943  28.767  27.408  1.00  0.00     0.049 A 
ATOM     50  H   UNL A   1      45.900  28.916  27.914  1.00  0.00     0.167 HD
ATOM     51  C   UNL A   1      47.043  26.497  26.981  1.00  0.00     0.074 A 
ATOM     52  C   UNL A   1      47.175  25.121  26.549  1.00  0.00     0.031 C 
ATOM     53  C   UNL A   1      48.058  27.397  26.976  1.00  0.00     0.031 A 
BRANCH  40  54
ATOM     54  C   UNL A   1      46.423  33.041  28.895  1.00  0.00    -0.014 A 
ATOM     55  C   UNL A   1      46.888  33.443  30.160  1.00  0.00     0.010 A 
ATOM     56  C   UNL A   1      46.379  33.981  27.850  1.00  0.00     0.010 A 
ATOM     57  C   UNL A   1      47.265  34.771  30.384  1.00  0.00     0.020 A 
ATOM     58  C   UNL A   1      46.777  35.303  28.065  1.00  0.00     0.020 A 
ATOM     59  C   UNL A   1      47.201  35.694  29.337  1.00  0.00     0.054 A 
BRANCH  59  60
ATOM     60  S   UNL A   1      47.708  37.407  29.651  1.00  0.00     0.124 S 
ATOM     61  O   UNL A   1      48.902  37.524  28.817  1.00  0.00    -0.237 OA
ATOM     62  O   UNL A   1      46.550  38.173  29.198  1.00  0.00    -0.237 OA
ATOM     63  O   UNL A   1      47.948  37.440  31.091  1.00  0.00    -0.744 OA
ENDBRANCH  59  60
ENDBRANCH  40  54
BRANCH  41  64
ATOM     64  C   UNL A   1      43.240  23.730  27.191  1.00  0.00    -0.014 A 
ATOM     65  C   UNL A   1      43.053  22.812  28.237  1.00  0.00     0.010 A 
ATOM     66  C   UNL A   1      42.973  23.328  25.870  1.00  0.00     0.010 A 
ATOM     67  C   UNL A   1      42.616  21.511  27.967  1.00  0.00     0.020 A 
ATOM     68  C   UNL A   1      42.513  22.036  25.597  1.00  0.00     0.020 A 
ATOM     69  C   UNL A   1      42.349  21.133  26.648  1.00  0.00     0.054 A 
BRANCH  69  70
ATOM     70  S   UNL A   1      41.737  19.455  26.325  1.00  0.00     0.124 S 
ATOM     71  O   UNL A   1      42.457  19.101  25.105  1.00  0.00    -0.237 OA
ATOM     72  O   UNL A   1      42.138  18.734  27.530  1.00  0.00    -0.237 OA
ATOM     73  O   UNL A   1      40.296  19.642  26.169  1.00  0.00    -0.744 OA
ENDBRANCH  69  70
ENDBRANCH  41  64
BRANCH  53  74
ATOM     74  C   UNL A   1      49.409  26.921  26.512  1.00  0.00    -0.014 A 
ATOM     75  C   UNL A   1      50.295  26.280  27.396  1.00  0.00     0.010 A 
ATOM     76  C   UNL A   1      49.768  27.058  25.159  1.00  0.00     0.010 A 
ATOM     77  C   UNL A   1      51.527  25.804  26.938  1.00  0.00     0.020 A 
ATOM     78  C   UNL A   1      50.988  26.561  24.692  1.00  0.00     0.020 A 
ATOM     79  C   UNL A   1      51.865  25.947  25.588  1.00  0.00     0.054 A 
BRANCH  79  80
ATOM     80  S   UNL A   1      53.445  25.269  25.007  1.00  0.00     0.124 S 
ATOM     81  O   UNL A   1      53.278  23.843  25.268  1.00  0.00    -0.237 OA
ATOM     82  O   UNL A   1      53.460  25.653  23.597  1.00  0.00    -0.237 OA
ATOM     83  O   UNL A   1      54.438  25.944  25.840  1.00  0.00    -0.744 OA
ENDBRANCH  79  80
ENDBRANCH  53  74
ENDBRANCH  27  28
ENDBRANCH  20  22
ENDBRANCH  19  20
ENDBRANCH  18  19
ENDBRANCH   1  18
TORSDOF 19
ENDMDL
MODEL 3
REMARK VINA RESULT:      -9.2      3.403      4.476
REMARK SMILES CC(=O)Oc1ccccc1C(=O)OCCOCCOC(=O)c1ccc(-c2c3nc(c(-c4ccc(S(=O)(=O)[O-])cc4)c4ccc([nH]4)c(-c4ccc(S(=O)(=O)[O-])cc4)c4nc(c(-c5ccc(S(=O)(=O)[O-])cc5)c5ccc2[nH]5)C=C4)C=C3)cc1
REMARK SMILES IDX 17 1 16 2 15 3 14 4 13 5 11 6 12 7 10 8 5 9 6 10 7 11 9 12
REMARK SMILES IDX 8 13 4 14 2 15 1 16 3 17 18 18 19 19 20 20 21 21 22 22 23 23
REMARK SMILES IDX 81 24 24 25 80 26 25 27 26 28 27 29 74 30 28 31 79 32 73 33
REMARK SMILES IDX 75 34 29 35 78 36 72 37 71 38 30 40 60 41 41 42 59 43 42 44
REMARK SMILES IDX 45 45 58 46 76 47 43 48 44 49 57 51 77 52 46 53 31 54 32 55
REMARK SMILES IDX 40 56 33 57 39 58 34 59 35 60 36 61 37 62 38 63 61 64 62 65
REMARK SMILES IDX 70 66 63 67 69 68 64 69 65 70 66 71 67 72 68 73 47 74 48 75
REMARK SMILES IDX 56 76 49 77 55 78 50 79 51 80 52 81 53 82 54 83
REMARK H PARENT 75 39 45 50
REMARK Flexibility Score: inf
ROOT
ATOM      1  C   UNL A   1      34.376  31.635  27.696  1.00  0.00     0.202 C 
ENDROOT
BRANCH   1   2
ATOM      2  O   UNL A   1      33.771  30.448  27.186  1.00  0.00    -0.374 OA
BRANCH   2   3
ATOM      3  C   UNL A   1      32.379  30.496  26.871  1.00  0.00     0.202 C 
BRANCH   3   4
ATOM      4  C   UNL A   1      31.957  29.868  25.540  1.00  0.00     0.261 C 
BRANCH   4   5
ATOM      5  O   UNL A   1      31.778  28.450  25.670  1.00  0.00    -0.460 OA
BRANCH   5   6
ATOM      6  C   UNL A   1      32.431  27.694  24.753  1.00  0.00     0.342 C 
ATOM      7  O   UNL A   1      33.437  28.020  24.141  1.00  0.00    -0.246 OA
BRANCH   6   8
ATOM      8  C   UNL A   1      31.888  26.313  24.694  1.00  0.00     0.102 A 
ATOM      9  C   UNL A   1      31.628  25.578  23.530  1.00  0.00     0.145 A 
ATOM     10  C   UNL A   1      31.107  24.280  23.610  1.00  0.00     0.048 A 
ATOM     11  C   UNL A   1      30.822  23.712  24.852  1.00  0.00     0.004 A 
ATOM     12  C   UNL A   1      31.578  25.729  25.937  1.00  0.00     0.019 A 
ATOM     13  C   UNL A   1      31.040  24.444  26.016  1.00  0.00     0.001 A 
BRANCH   9  14
ATOM     14  O   UNL A   1      31.719  26.104  22.232  1.00  0.00    -0.426 OA
BRANCH  14  15
ATOM     15  C   UNL A   1      32.848  25.768  21.495  1.00  0.00     0.308 C 
ATOM     16  C   UNL A   1      32.462  25.612  20.052  1.00  0.00     0.139 C 
ATOM     17  O   UNL A   1      33.977  25.615  21.939  1.00  0.00    -0.252 OA
ENDBRANCH  14  15
ENDBRANCH   9  14
ENDBRANCH   6   8
ENDBRANCH   5   6
ENDBRANCH   4   5
ENDBRANCH   3   4
ENDBRANCH   2   3
ENDBRANCH   1   2
BRANCH   1  18
ATOM     18  C   UNL A   1      35.800  31.509  28.254  1.00  0.00     0.261 C 
BRANCH  18  19
ATOM     19  O   UNL A   1      36.446  30.276  27.889  1.00  0.00    -0.460 OA
BRANCH  19  20
ATOM     20  C   UNL A   1      36.996  29.593  28.923  1.00  0.00     0.338 C 
ATOM     21  O   UNL A   1      36.443  29.240  29.954  1.00  0.00    -0.246 OA
BRANCH  20  22
ATOM     22  C   UNL A   1      38.365  29.175  28.577  1.00  0.00     0.060 A 
ATOM     23  C   UNL A   1      39.199  28.728  29.610  1.00  0.00     0.016 A 
ATOM     24  C   UNL A   1      38.852  29.308  27.276  1.00  0.00     0.016 A 
ATOM     25  C   UNL A   1      40.537  28.434  29.348  1.00  0.00     0.010 A 
ATOM     26  C   UNL A   1      40.197  29.021  27.017  1.00  0.00     0.010 A 
ATOM     27  C   UNL A   1      41.051  28.606  28.056  1.00  0.00    -0.014 A 
BRANCH  27  28
ATOM     28  C   UNL A   1      42.504  28.450  27.806  1.00  0.00     0.031 A 
ATOM     29  C   UNL A   1      43.427  29.610  28.059  1.00  0.00     0.074 A 
ATOM     30  C   UNL A   1      42.996  27.280  27.358  1.00  0.00     0.049 A 
ATOM     31  N   UNL A   1      44.715  29.702  27.848  1.00  0.00    -0.248 NA
ATOM     32  C   UNL A   1      42.819  30.825  28.624  1.00  0.00     0.031 C 
ATOM     33  C   UNL A   1      42.213  26.068  27.123  1.00  0.00     0.029 A 
ATOM     34  N   UNL A   1      44.277  26.927  27.014  1.00  0.00    -0.354 N 
ATOM     35  C   UNL A   1      45.073  30.984  28.248  1.00  0.00     0.074 A 
ATOM     36  C   UNL A   1      43.862  31.642  28.691  1.00  0.00     0.031 C 
ATOM     37  C   UNL A   1      43.028  25.105  26.659  1.00  0.00     0.029 A 
ATOM     38  C   UNL A   1      44.382  25.643  26.534  1.00  0.00     0.049 A 
ATOM     39  H   UNL A   1      45.046  27.534  27.102  1.00  0.00     0.167 HD
ATOM     40  C   UNL A   1      46.299  31.561  28.250  1.00  0.00     0.031 A 
ATOM     41  C   UNL A   1      45.443  24.984  26.029  1.00  0.00     0.031 A 
ATOM     42  C   UNL A   1      47.499  30.911  27.794  1.00  0.00     0.049 A 
ATOM     43  C   UNL A   1      46.779  25.674  25.957  1.00  0.00     0.074 A 
ATOM     44  C   UNL A   1      48.791  31.409  27.769  1.00  0.00     0.029 A 
ATOM     45  N   UNL A   1      47.556  29.627  27.274  1.00  0.00    -0.354 N 
ATOM     46  N   UNL A   1      47.104  26.881  26.357  1.00  0.00    -0.248 NA
ATOM     47  C   UNL A   1      47.890  24.914  25.369  1.00  0.00     0.031 C 
ATOM     48  C   UNL A   1      49.619  30.445  27.184  1.00  0.00     0.029 A 
ATOM     49  C   UNL A   1      48.853  29.327  26.896  1.00  0.00     0.049 A 
ATOM     50  H   UNL A   1      46.786  29.020  27.187  1.00  0.00     0.167 HD
ATOM     51  C   UNL A   1      48.462  27.015  26.089  1.00  0.00     0.074 A 
ATOM     52  C   UNL A   1      48.899  25.765  25.504  1.00  0.00     0.031 C 
ATOM     53  C   UNL A   1      49.274  28.079  26.310  1.00  0.00     0.031 A 
BRANCH  40  54
ATOM     54  C   UNL A   1      46.396  32.983  28.733  1.00  0.00    -0.014 A 
ATOM     55  C   UNL A   1      46.857  33.282  30.028  1.00  0.00     0.010 A 
ATOM     56  C   UNL A   1      46.056  34.038  27.866  1.00  0.00     0.010 A 
ATOM     57  C   UNL A   1      46.940  34.609  30.459  1.00  0.00     0.020 A 
ATOM     58  C   UNL A   1      46.159  35.366  28.286  1.00  0.00     0.020 A 
ATOM     59  C   UNL A   1      46.585  35.643  29.587  1.00  0.00     0.054 A 
BRANCH  59  60
ATOM     60  S   UNL A   1      46.713  37.357  30.167  1.00  0.00     0.124 S 
ATOM     61  O   UNL A   1      45.420  37.907  29.768  1.00  0.00    -0.237 OA
ATOM     62  O   UNL A   1      46.909  37.195  31.605  1.00  0.00    -0.237 OA
ATOM     63  O   UNL A   1      47.866  37.884  29.441  1.00  0.00    -0.744 OA
ENDBRANCH  59  60
ENDBRANCH  40  54
BRANCH  41  64
ATOM     64  C   UNL A   1      45.279  23.592  25.526  1.00  0.00    -0.014 A 
ATOM     65  C   UNL A   1      45.326  22.501  26.409  1.00  0.00     0.010 A 
ATOM     66  C   UNL A   1      45.073  23.356  24.154  1.00  0.00     0.010 A 
ATOM     67  C   UNL A   1      45.181  21.196  25.929  1.00  0.00     0.020 A 
ATOM     68  C   UNL A   1      44.902  22.055  23.673  1.00  0.00     0.020 A 
ATOM     69  C   UNL A   1      44.968  20.982  24.564  1.00  0.00     0.054 A 
BRANCH  69  70
ATOM     70  S   UNL A   1      44.733  19.283  23.969  1.00  0.00     0.124 S 
ATOM     71  O   UNL A   1      44.526  19.490  22.539  1.00  0.00    -0.237 OA
ATOM     72  O   UNL A   1      45.991  18.641  24.341  1.00  0.00    -0.237 OA
ATOM     73  O   UNL A   1      43.562  18.822  24.712  1.00  0.00    -0.744 OA
ENDBRANCH  69  70
ENDBRANCH  41  64
BRANCH  53  74
ATOM     74  C   UNL A   1      50.727  27.934  25.943  1.00  0.00    -0.014 A 
ATOM     75  C   UNL A   1      51.211  28.388  24.703  1.00  0.00     0.010 A 
ATOM     76  C   UNL A   1      51.630  27.396  26.878  1.00  0.00     0.010 A 
ATOM     77  C   UNL A   1      52.572  28.287  24.397  1.00  0.00     0.020 A 
ATOM     78  C   UNL A   1      52.994  27.317  26.585  1.00  0.00     0.020 A 
ATOM     79  C   UNL A   1      53.455  27.752  25.341  1.00  0.00     0.054 A 
BRANCH  79  80
ATOM     80  S   UNL A   1      55.224  27.685  24.942  1.00  0.00     0.124 S 
ATOM     81  O   UNL A   1      55.724  28.902  25.573  1.00  0.00    -0.237 OA
ATOM     82  O   UNL A   1      55.647  26.433  25.566  1.00  0.00    -0.237 OA
ATOM     83  O   UNL A   1      55.248  27.684  23.480  1.00  0.00    -0.744 OA
ENDBRANCH  79  80
ENDBRANCH  53  74
ENDBRANCH  27  28
ENDBRANCH  20  22
ENDBRANCH  19  20
ENDBRANCH  18  19
ENDBRANCH   1  18
TORSDOF 19
ENDMDL
