MODEL 1
REMARK VINA RESULT:     -10.4      0.000      0.000
REMARK SMILES C[C@@H](c1ccccc1)[C@@H]1[NH2+][C@@H](C(=O)OCCOCCOC(=O)c2ccc(-c3c4nc(c(-c5ccc(S(=O)(=O)[O-])cc5)c5ccc([nH]5)c(-c5ccc(S(=O)(=O)[O-])cc5)c5nc(c(-c6ccc(S(=O)(=O)[O-])cc6)c6ccc3[nH]6)C=C5)C=C4)cc2)CS1
REMARK SMILES IDX 18 1 17 2 16 3 15 4 14 5 12 6 13 7 11 8 9 9 10 10 84 11
REMARK SMILES IDX 83 14 2 15 1 16 3 17 4 18 8 19 5 20 7 21 6 22 19 23 20 24
REMARK SMILES IDX 21 25 22 26 23 27 24 28 82 29 25 30 81 31 26 32 27 33 28 34
REMARK SMILES IDX 75 35 29 36 80 37 74 38 76 39 30 40 79 41 73 42 72 43 31 45
REMARK SMILES IDX 61 46 42 47 60 48 43 49 46 50 59 51 77 52 44 53 45 54 58 56
REMARK SMILES IDX 78 57 47 58 32 59 33 60 41 61 34 62 40 63 35 64 36 65 37 66
REMARK SMILES IDX 38 67 39 68 62 69 63 70 71 71 64 72 70 73 65 74 66 75 67 76
REMARK SMILES IDX 68 77 69 78 48 79 49 80 57 81 50 82 56 83 51 84 52 85 53 86
REMARK SMILES IDX 54 87 55 88
REMARK H PARENT 10 12 10 13 76 44 46 55
REMARK Flexibility Score: inf
ROOT
ATOM      1  C   UNL A   1      32.480  28.560  27.503  1.00  0.00     0.202 C 
ENDROOT
BRANCH   1   2
ATOM      2  O   UNL A   1      32.659  27.609  26.453  1.00  0.00    -0.374 OA
BRANCH   2   3
ATOM      3  C   UNL A   1      31.558  27.378  25.573  1.00  0.00     0.202 C 
BRANCH   3   4
ATOM      4  C   UNL A   1      30.792  26.064  25.750  1.00  0.00     0.261 C 
BRANCH   4   5
ATOM      5  O   UNL A   1      31.333  25.278  26.824  1.00  0.00    -0.459 OA
BRANCH   5   6
ATOM      6  C   UNL A   1      31.021  23.952  26.786  1.00  0.00     0.365 C 
ATOM      7  O   UNL A   1      29.963  23.471  27.180  1.00  0.00    -0.245 OA
BRANCH   6   8
ATOM      8  C   UNL A   1      32.098  23.103  26.107  1.00  0.00     0.304 C 
ATOM      9  C   UNL A   1      33.370  21.082  26.423  1.00  0.00     0.249 C 
ATOM     10  N   UNL A   1      32.017  21.650  26.437  1.00  0.00    -0.322 N 
ATOM     11  S   UNL A   1      34.443  22.346  27.153  1.00  0.00    -0.092 SA
ATOM     12  H   UNL A   1      31.606  21.532  27.363  1.00  0.00     0.348 HD
ATOM     13  H   UNL A   1      31.435  21.171  25.749  1.00  0.00     0.348 HD
ATOM     14  C   UNL A   1      33.463  23.702  26.466  1.00  0.00     0.153 C 
BRANCH   9  15
ATOM     15  C   UNL A   1      33.848  20.505  25.045  1.00  0.00     0.085 C 
ATOM     16  C   UNL A   1      35.254  21.037  24.714  1.00  0.00     0.020 C 
BRANCH  15  17
ATOM     17  C   UNL A   1      33.731  18.992  24.866  1.00  0.00    -0.038 A 
ATOM     18  C   UNL A   1      34.787  18.203  24.388  1.00  0.00     0.004 A 
ATOM     19  C   UNL A   1      32.540  18.345  25.242  1.00  0.00     0.004 A 
ATOM     20  C   UNL A   1      34.677  16.810  24.346  1.00  0.00     0.000 A 
ATOM     21  C   UNL A   1      32.429  16.954  25.197  1.00  0.00     0.000 A 
ATOM     22  C   UNL A   1      33.503  16.186  24.760  1.00  0.00     0.000 A 
ENDBRANCH  15  17
ENDBRANCH   9  15
ENDBRANCH   6   8
ENDBRANCH   5   6
ENDBRANCH   4   5
ENDBRANCH   3   4
ENDBRANCH   2   3
ENDBRANCH   1   2
BRANCH   1  23
ATOM     23  C   UNL A   1      32.515  30.050  27.133  1.00  0.00     0.261 C 
BRANCH  23  24
ATOM     24  O   UNL A   1      33.837  30.537  26.834  1.00  0.00    -0.460 OA
BRANCH  24  25
ATOM     25  C   UNL A   1      34.518  31.003  27.912  1.00  0.00     0.338 C 
ATOM     26  O   UNL A   1      34.122  31.821  28.734  1.00  0.00    -0.246 OA
BRANCH  25  27
ATOM     27  C   UNL A   1      35.775  30.255  28.101  1.00  0.00     0.060 A 
ATOM     28  C   UNL A   1      36.019  29.718  29.372  1.00  0.00     0.016 A 
ATOM     29  C   UNL A   1      36.738  30.158  27.095  1.00  0.00     0.016 A 
ATOM     30  C   UNL A   1      37.249  29.129  29.659  1.00  0.00     0.010 A 
ATOM     31  C   UNL A   1      37.978  29.575  27.388  1.00  0.00     0.010 A 
ATOM     32  C   UNL A   1      38.252  29.094  28.682  1.00  0.00    -0.014 A 
BRANCH  32  33
ATOM     33  C   UNL A   1      39.631  28.706  29.073  1.00  0.00     0.031 A 
ATOM     34  C   UNL A   1      40.462  29.677  29.867  1.00  0.00     0.074 A 
ATOM     35  C   UNL A   1      40.120  27.490  28.768  1.00  0.00     0.049 A 
ATOM     36  N   UNL A   1      41.680  29.545  30.325  1.00  0.00    -0.248 NA
ATOM     37  C   UNL A   1      39.834  30.969  30.192  1.00  0.00     0.031 C 
ATOM     38  C   UNL A   1      39.397  26.443  28.047  1.00  0.00     0.029 A 
ATOM     39  N   UNL A   1      41.345  26.932  29.033  1.00  0.00    -0.354 N 
ATOM     40  C   UNL A   1      41.970  30.737  30.980  1.00  0.00     0.074 A 
ATOM     41  C   UNL A   1      40.810  31.590  30.840  1.00  0.00     0.031 C 
ATOM     42  C   UNL A   1      40.194  25.367  27.929  1.00  0.00     0.029 A 
ATOM     43  C   UNL A   1      41.490  25.658  28.537  1.00  0.00     0.049 A 
ATOM     44  H   UNL A   1      42.054  27.399  29.531  1.00  0.00     0.167 HD
ATOM     45  C   UNL A   1      43.099  31.089  31.641  1.00  0.00     0.031 A 
ATOM     46  C   UNL A   1      42.551  24.827  28.561  1.00  0.00     0.031 A 
ATOM     47  C   UNL A   1      44.255  30.245  31.772  1.00  0.00     0.049 A 
ATOM     48  C   UNL A   1      43.821  25.268  29.242  1.00  0.00     0.074 A 
ATOM     49  C   UNL A   1      45.439  30.503  32.440  1.00  0.00     0.029 A 
ATOM     50  N   UNL A   1      44.379  28.981  31.213  1.00  0.00    -0.354 N 
ATOM     51  N   UNL A   1      44.068  26.388  29.879  1.00  0.00    -0.248 NA
ATOM     52  C   UNL A   1      44.952  24.330  29.210  1.00  0.00     0.031 C 
ATOM     53  C   UNL A   1      46.299  29.419  32.240  1.00  0.00     0.029 A 
ATOM     54  C   UNL A   1      45.630  28.459  31.497  1.00  0.00     0.049 A 
ATOM     55  H   UNL A   1      43.680  28.522  30.693  1.00  0.00     0.167 HD
ATOM     56  C   UNL A   1      45.373  26.275  30.351  1.00  0.00     0.074 A 
ATOM     57  C   UNL A   1      45.858  24.976  29.932  1.00  0.00     0.031 C 
ATOM     58  C   UNL A   1      46.100  27.165  31.071  1.00  0.00     0.031 A 
BRANCH  45  59
ATOM     59  C   UNL A   1      43.150  32.471  32.237  1.00  0.00    -0.014 A 
ATOM     60  C   UNL A   1      43.509  33.590  31.464  1.00  0.00     0.010 A 
ATOM     61  C   UNL A   1      42.810  32.656  33.589  1.00  0.00     0.010 A 
ATOM     62  C   UNL A   1      43.568  34.861  32.043  1.00  0.00     0.020 A 
ATOM     63  C   UNL A   1      42.842  33.928  34.166  1.00  0.00     0.020 A 
ATOM     64  C   UNL A   1      43.238  35.021  33.393  1.00  0.00     0.054 A 
BRANCH  64  65
ATOM     65  S   UNL A   1      43.315  36.682  34.119  1.00  0.00     0.124 S 
ATOM     66  O   UNL A   1      44.416  36.544  35.068  1.00  0.00    -0.237 OA
ATOM     67  O   UNL A   1      43.587  37.527  32.960  1.00  0.00    -0.237 OA
ATOM     68  O   UNL A   1      41.994  36.859  34.719  1.00  0.00    -0.744 OA
ENDBRANCH  64  65
ENDBRANCH  45  59
BRANCH  46  69
ATOM     69  C   UNL A   1      42.462  23.491  27.911  1.00  0.00    -0.014 A 
ATOM     70  C   UNL A   1      42.990  23.282  26.625  1.00  0.00     0.010 A 
ATOM     71  C   UNL A   1      41.846  22.416  28.580  1.00  0.00     0.010 A 
ATOM     72  C   UNL A   1      42.897  22.027  26.016  1.00  0.00     0.020 A 
ATOM     73  C   UNL A   1      41.774  21.153  27.986  1.00  0.00     0.020 A 
ATOM     74  C   UNL A   1      42.293  20.969  26.703  1.00  0.00     0.054 A 
BRANCH  74  75
ATOM     75  S   UNL A   1      42.237  19.333  25.919  1.00  0.00     0.124 S 
ATOM     76  O   UNL A   1      43.067  19.534  24.736  1.00  0.00    -0.237 OA
ATOM     77  O   UNL A   1      42.804  18.469  26.951  1.00  0.00    -0.237 OA
ATOM     78  O   UNL A   1      40.814  19.128  25.659  1.00  0.00    -0.744 OA
ENDBRANCH  74  75
ENDBRANCH  46  69
BRANCH  58  79
ATOM     79  C   UNL A   1      47.488  26.754  31.488  1.00  0.00    -0.014 A 
ATOM     80  C   UNL A   1      47.726  26.131  32.725  1.00  0.00     0.010 A 
ATOM     81  C   UNL A   1      48.562  26.944  30.598  1.00  0.00     0.010 A 
ATOM     82  C   UNL A   1      49.018  25.732  33.078  1.00  0.00     0.020 A 
ATOM     83  C   UNL A   1      49.850  26.522  30.937  1.00  0.00     0.020 A 
ATOM     84  C   UNL A   1      50.072  25.931  32.182  1.00  0.00     0.054 A 
BRANCH  84  85
ATOM     85  S   UNL A   1      51.733  25.365  32.643  1.00  0.00     0.124 S 
ATOM     86  O   UNL A   1      51.784  24.041  32.028  1.00  0.00    -0.237 OA
ATOM     87  O   UNL A   1      52.597  26.373  32.036  1.00  0.00    -0.237 OA
ATOM     88  O   UNL A   1      51.709  25.372  34.104  1.00  0.00    -0.744 OA
ENDBRANCH  84  85
ENDBRANCH  58  79
ENDBRANCH  32  33
ENDBRANCH  25  27
ENDBRANCH  24  25
ENDBRANCH  23  24
ENDBRANCH   1  23
TORSDOF 19
ENDMDL
MODEL 2
REMARK VINA RESULT:     -10.0      2.713      3.497
REMARK SMILES C[C@@H](c1ccccc1)[C@@H]1[NH2+][C@@H](C(=O)OCCOCCOC(=O)c2ccc(-c3c4nc(c(-c5ccc(S(=O)(=O)[O-])cc5)c5ccc([nH]5)c(-c5ccc(S(=O)(=O)[O-])cc5)c5nc(c(-c6ccc(S(=O)(=O)[O-])cc6)c6ccc3[nH]6)C=C5)C=C4)cc2)CS1
REMARK SMILES IDX 18 1 17 2 16 3 15 4 14 5 12 6 13 7 11 8 9 9 10 10 84 11
REMARK SMILES IDX 83 14 2 15 1 16 3 17 4 18 8 19 5 20 7 21 6 22 19 23 20 24
REMARK SMILES IDX 21 25 22 26 23 27 24 28 82 29 25 30 81 31 26 32 27 33 28 34
REMARK SMILES IDX 75 35 29 36 80 37 74 38 76 39 30 40 79 41 73 42 72 43 31 45
REMARK SMILES IDX 61 46 42 47 60 48 43 49 46 50 59 51 77 52 44 53 45 54 58 56
REMARK SMILES IDX 78 57 47 58 32 59 33 60 41 61 34 62 40 63 35 64 36 65 37 66
REMARK SMILES IDX 38 67 39 68 62 69 63 70 71 71 64 72 70 73 65 74 66 75 67 76
REMARK SMILES IDX 68 77 69 78 48 79 49 80 57 81 50 82 56 83 51 84 52 85 53 86
REMARK SMILES IDX 54 87 55 88
REMARK H PARENT 10 12 10 13 76 44 46 55
REMARK Flexibility Score: inf
ROOT
ATOM      1  C   UNL A   1      32.655  28.585  27.340  1.00  0.00     0.202 C 
ENDROOT
BRANCH   1   2
ATOM      2  O   UNL A   1      32.665  27.728  26.199  1.00  0.00    -0.374 OA
BRANCH   2   3
ATOM      3  C   UNL A   1      31.411  27.421  25.589  1.00  0.00     0.202 C 
BRANCH   3   4
ATOM      4  C   UNL A   1      30.682  26.173  26.092  1.00  0.00     0.261 C 
BRANCH   4   5
ATOM      5  O   UNL A   1      31.557  25.315  26.843  1.00  0.00    -0.459 OA
BRANCH   5   6
ATOM      6  C   UNL A   1      31.509  23.997  26.505  1.00  0.00     0.365 C 
ATOM      7  O   UNL A   1      30.571  23.246  26.751  1.00  0.00    -0.245 OA
BRANCH   6   8
ATOM      8  C   UNL A   1      32.721  23.544  25.687  1.00  0.00     0.304 C 
ATOM      9  C   UNL A   1      34.916  24.280  25.020  1.00  0.00     0.249 C 
ATOM     10  N   UNL A   1      34.017  24.108  26.167  1.00  0.00    -0.322 N 
ATOM     11  S   UNL A   1      33.871  24.857  23.657  1.00  0.00    -0.092 SA
ATOM     12  H   UNL A   1      33.853  25.011  26.612  1.00  0.00     0.348 HD
ATOM     13  H   UNL A   1      34.440  23.473  26.844  1.00  0.00     0.348 HD
ATOM     14  C   UNL A   1      32.451  23.888  24.218  1.00  0.00     0.153 C 
BRANCH   9  15
ATOM     15  C   UNL A   1      35.837  23.054  24.692  1.00  0.00     0.085 C 
ATOM     16  C   UNL A   1      36.050  22.952  23.170  1.00  0.00     0.020 C 
BRANCH  15  17
ATOM     17  C   UNL A   1      37.142  22.957  25.479  1.00  0.00    -0.038 A 
ATOM     18  C   UNL A   1      37.944  21.806  25.478  1.00  0.00     0.004 A 
ATOM     19  C   UNL A   1      37.598  24.078  26.196  1.00  0.00     0.004 A 
ATOM     20  C   UNL A   1      39.185  21.798  26.121  1.00  0.00     0.000 A 
ATOM     21  C   UNL A   1      38.836  24.069  26.840  1.00  0.00     0.000 A 
ATOM     22  C   UNL A   1      39.636  22.931  26.792  1.00  0.00     0.000 A 
ENDBRANCH  15  17
ENDBRANCH   9  15
ENDBRANCH   6   8
ENDBRANCH   5   6
ENDBRANCH   4   5
ENDBRANCH   3   4
ENDBRANCH   2   3
ENDBRANCH   1   2
BRANCH   1  23
ATOM     23  C   UNL A   1      32.616  30.101  27.096  1.00  0.00     0.261 C 
BRANCH  23  24
ATOM     24  O   UNL A   1      33.906  30.670  26.807  1.00  0.00    -0.460 OA
BRANCH  24  25
ATOM     25  C   UNL A   1      34.489  31.299  27.859  1.00  0.00     0.338 C 
ATOM     26  O   UNL A   1      33.999  32.185  28.550  1.00  0.00    -0.246 OA
BRANCH  25  27
ATOM     27  C   UNL A   1      35.766  30.651  28.215  1.00  0.00     0.060 A 
ATOM     28  C   UNL A   1      35.740  29.702  29.247  1.00  0.00     0.016 A 
ATOM     29  C   UNL A   1      36.975  31.026  27.627  1.00  0.00     0.016 A 
ATOM     30  C   UNL A   1      36.931  29.163  29.731  1.00  0.00     0.010 A 
ATOM     31  C   UNL A   1      38.171  30.490  28.123  1.00  0.00     0.010 A 
ATOM     32  C   UNL A   1      38.156  29.587  29.202  1.00  0.00    -0.014 A 
BRANCH  32  33
ATOM     33  C   UNL A   1      39.414  29.208  29.894  1.00  0.00     0.031 A 
ATOM     34  C   UNL A   1      39.794  29.929  31.159  1.00  0.00     0.074 A 
ATOM     35  C   UNL A   1      40.183  28.205  29.431  1.00  0.00     0.049 A 
ATOM     36  N   UNL A   1      40.835  29.755  31.932  1.00  0.00    -0.248 NA
ATOM     37  C   UNL A   1      38.876  30.986  31.616  1.00  0.00     0.031 C 
ATOM     38  C   UNL A   1      39.898  27.397  28.246  1.00  0.00     0.029 A 
ATOM     39  N   UNL A   1      41.362  27.694  29.912  1.00  0.00    -0.354 N 
ATOM     40  C   UNL A   1      40.705  30.685  32.957  1.00  0.00     0.074 A 
ATOM     41  C   UNL A   1      39.497  31.438  32.696  1.00  0.00     0.031 C 
ATOM     42  C   UNL A   1      40.877  26.489  28.093  1.00  0.00     0.029 A 
ATOM     43  C   UNL A   1      41.871  26.670  29.148  1.00  0.00     0.049 A 
ATOM     44  H   UNL A   1      41.803  28.028  30.726  1.00  0.00     0.167 HD
ATOM     45  C   UNL A   1      41.516  30.893  34.023  1.00  0.00     0.031 A 
ATOM     46  C   UNL A   1      43.015  25.968  29.279  1.00  0.00     0.031 A 
ATOM     47  C   UNL A   1      42.721  30.151  34.277  1.00  0.00     0.049 A 
ATOM     48  C   UNL A   1      43.936  26.264  30.433  1.00  0.00     0.074 A 
ATOM     49  C   UNL A   1      43.599  30.273  35.340  1.00  0.00     0.029 A 
ATOM     50  N   UNL A   1      43.226  29.156  33.453  1.00  0.00    -0.354 N 
ATOM     51  N   UNL A   1      43.785  27.130  31.408  1.00  0.00    -0.248 NA
ATOM     52  C   UNL A   1      45.181  25.486  30.506  1.00  0.00     0.031 C 
ATOM     53  C   UNL A   1      44.663  29.389  35.131  1.00  0.00     0.029 A 
ATOM     54  C   UNL A   1      44.418  28.676  33.968  1.00  0.00     0.049 A 
ATOM     55  H   UNL A   1      42.800  28.837  32.625  1.00  0.00     0.167 HD
ATOM     56  C   UNL A   1      44.899  26.976  32.228  1.00  0.00     0.074 A 
ATOM     57  C   UNL A   1      45.711  25.931  31.638  1.00  0.00     0.031 C 
ATOM     58  C   UNL A   1      45.217  27.637  33.369  1.00  0.00     0.031 A 
BRANCH  45  59
ATOM     59  C   UNL A   1      41.143  32.002  34.971  1.00  0.00    -0.014 A 
ATOM     60  C   UNL A   1      41.647  33.305  34.810  1.00  0.00     0.010 A 
ATOM     61  C   UNL A   1      40.253  31.739  36.028  1.00  0.00     0.010 A 
ATOM     62  C   UNL A   1      41.302  34.314  35.714  1.00  0.00     0.020 A 
ATOM     63  C   UNL A   1      39.885  32.751  36.919  1.00  0.00     0.020 A 
ATOM     64  C   UNL A   1      40.427  34.028  36.766  1.00  0.00     0.054 A 
BRANCH  64  65
ATOM     65  S   UNL A   1      39.988  35.357  37.922  1.00  0.00     0.124 S 
ATOM     66  O   UNL A   1      39.668  36.453  37.013  1.00  0.00    -0.237 OA
ATOM     67  O   UNL A   1      38.854  34.790  38.646  1.00  0.00    -0.237 OA
ATOM     68  O   UNL A   1      41.201  35.540  38.717  1.00  0.00    -0.744 OA
ENDBRANCH  64  65
ENDBRANCH  45  59
BRANCH  46  69
ATOM     69  C   UNL A   1      43.359  24.918  28.281  1.00  0.00    -0.014 A 
ATOM     70  C   UNL A   1      42.873  23.607  28.425  1.00  0.00     0.010 A 
ATOM     71  C   UNL A   1      44.175  25.228  27.177  1.00  0.00     0.010 A 
ATOM     72  C   UNL A   1      43.204  22.622  27.489  1.00  0.00     0.020 A 
ATOM     73  C   UNL A   1      44.487  24.253  26.225  1.00  0.00     0.020 A 
ATOM     74  C   UNL A   1      44.006  22.954  26.392  1.00  0.00     0.054 A 
BRANCH  74  75
ATOM     75  S   UNL A   1      44.374  21.676  25.157  1.00  0.00     0.124 S 
ATOM     76  O   UNL A   1      44.035  22.352  23.909  1.00  0.00    -0.237 OA
ATOM     77  O   UNL A   1      45.796  21.425  25.376  1.00  0.00    -0.237 OA
ATOM     78  O   UNL A   1      43.490  20.574  25.532  1.00  0.00    -0.744 OA
ENDBRANCH  74  75
ENDBRANCH  46  69
BRANCH  58  79
ATOM     79  C   UNL A   1      46.481  27.228  34.080  1.00  0.00    -0.014 A 
ATOM     80  C   UNL A   1      47.721  27.803  33.754  1.00  0.00     0.010 A 
ATOM     81  C   UNL A   1      46.412  26.296  35.132  1.00  0.00     0.010 A 
ATOM     82  C   UNL A   1      48.876  27.430  34.448  1.00  0.00     0.020 A 
ATOM     83  C   UNL A   1      47.560  25.941  35.845  1.00  0.00     0.020 A 
ATOM     84  C   UNL A   1      48.788  26.500  35.488  1.00  0.00     0.054 A 
BRANCH  84  85
ATOM     85  S   UNL A   1      50.293  26.065  36.403  1.00  0.00     0.124 S 
ATOM     86  O   UNL A   1      50.137  26.842  37.630  1.00  0.00    -0.237 OA
ATOM     87  O   UNL A   1      50.169  24.618  36.557  1.00  0.00    -0.237 OA
ATOM     88  O   UNL A   1      51.373  26.501  35.523  1.00  0.00    -0.744 OA
ENDBRANCH  84  85
ENDBRANCH  58  79
ENDBRANCH  32  33
ENDBRANCH  25  27
ENDBRANCH  24  25
ENDBRANCH  23  24
ENDBRANCH   1  23
TORSDOF 19
ENDMDL
MODEL 3
REMARK VINA RESULT:     -10.0      4.513     10.779
REMARK SMILES C[C@@H](c1ccccc1)[C@@H]1[NH2+][C@@H](C(=O)OCCOCCOC(=O)c2ccc(-c3c4nc(c(-c5ccc(S(=O)(=O)[O-])cc5)c5ccc([nH]5)c(-c5ccc(S(=O)(=O)[O-])cc5)c5nc(c(-c6ccc(S(=O)(=O)[O-])cc6)c6ccc3[nH]6)C=C5)C=C4)cc2)CS1
REMARK SMILES IDX 18 1 17 2 16 3 15 4 14 5 12 6 13 7 11 8 9 9 10 10 84 11
REMARK SMILES IDX 83 14 2 15 1 16 3 17 4 18 8 19 5 20 7 21 6 22 19 23 20 24
REMARK SMILES IDX 21 25 22 26 23 27 24 28 82 29 25 30 81 31 26 32 27 33 28 34
REMARK SMILES IDX 75 35 29 36 80 37 74 38 76 39 30 40 79 41 73 42 72 43 31 45
REMARK SMILES IDX 61 46 42 47 60 48 43 49 46 50 59 51 77 52 44 53 45 54 58 56
REMARK SMILES IDX 78 57 47 58 32 59 33 60 41 61 34 62 40 63 35 64 36 65 37 66
REMARK SMILES IDX 38 67 39 68 62 69 63 70 71 71 64 72 70 73 65 74 66 75 67 76
REMARK SMILES IDX 68 77 69 78 48 79 49 80 57 81 50 82 56 83 51 84 52 85 53 86
REMARK SMILES IDX 54 87 55 88
REMARK H PARENT 10 12 10 13 76 44 46 55
REMARK Flexibility Score: inf
ROOT
ATOM      1  C   UNL A   1      39.507  22.207  26.198  1.00  0.00     0.202 C 
ENDROOT
BRANCH   1   2
ATOM      2  O   UNL A   1      38.159  22.385  25.764  1.00  0.00    -0.374 OA
BRANCH   2   3
ATOM      3  C   UNL A   1      37.501  21.267  25.166  1.00  0.00     0.202 C 
BRANCH   3   4
ATOM      4  C   UNL A   1      35.975  21.224  25.272  1.00  0.00     0.261 C 
BRANCH   4   5
ATOM      5  O   UNL A   1      35.486  22.147  26.258  1.00  0.00    -0.459 OA
BRANCH   5   6
ATOM      6  C   UNL A   1      34.181  21.983  26.610  1.00  0.00     0.365 C 
ATOM      7  O   UNL A   1      33.793  21.342  27.581  1.00  0.00    -0.245 OA
BRANCH   6   8
ATOM      8  C   UNL A   1      33.217  22.769  25.717  1.00  0.00     0.304 C 
ATOM      9  C   UNL A   1      31.732  24.666  25.771  1.00  0.00     0.249 C 
ATOM     10  N   UNL A   1      33.091  24.209  26.086  1.00  0.00    -0.322 N 
ATOM     11  S   UNL A   1      30.637  23.290  26.207  1.00  0.00    -0.092 SA
ATOM     12  H   UNL A   1      33.267  24.324  27.084  1.00  0.00     0.348 HD
ATOM     13  H   UNL A   1      33.770  24.761  25.562  1.00  0.00     0.348 HD
ATOM     14  C   UNL A   1      31.865  22.047  25.739  1.00  0.00     0.153 C 
BRANCH   9  15
ATOM     15  C   UNL A   1      31.534  25.257  24.331  1.00  0.00     0.085 C 
ATOM     16  C   UNL A   1      30.628  24.326  23.504  1.00  0.00     0.020 C 
BRANCH  15  17
ATOM     17  C   UNL A   1      31.107  26.721  24.252  1.00  0.00    -0.038 A 
ATOM     18  C   UNL A   1      31.685  27.722  25.045  1.00  0.00     0.004 A 
ATOM     19  C   UNL A   1      30.131  27.103  23.313  1.00  0.00     0.004 A 
ATOM     20  C   UNL A   1      31.345  29.066  24.863  1.00  0.00     0.000 A 
ATOM     21  C   UNL A   1      29.789  28.444  23.133  1.00  0.00     0.000 A 
ATOM     22  C   UNL A   1      30.406  29.428  23.900  1.00  0.00     0.000 A 
ENDBRANCH  15  17
ENDBRANCH   9  15
ENDBRANCH   6   8
ENDBRANCH   5   6
ENDBRANCH   4   5
ENDBRANCH   3   4
ENDBRANCH   2   3
ENDBRANCH   1   2
BRANCH   1  23
ATOM     23  C   UNL A   1      40.172  23.363  26.960  1.00  0.00     0.261 C 
BRANCH  23  24
ATOM     24  O   UNL A   1      39.440  24.600  26.882  1.00  0.00    -0.460 OA
BRANCH  24  25
ATOM     25  C   UNL A   1      40.219  25.708  26.810  1.00  0.00     0.338 C 
ATOM     26  O   UNL A   1      40.972  26.019  25.895  1.00  0.00    -0.246 OA
BRANCH  25  27
ATOM     27  C   UNL A   1      39.917  26.634  27.918  1.00  0.00     0.060 A 
ATOM     28  C   UNL A   1      40.507  27.904  27.874  1.00  0.00     0.016 A 
ATOM     29  C   UNL A   1      39.156  26.245  29.022  1.00  0.00     0.016 A 
ATOM     30  C   UNL A   1      40.384  28.772  28.958  1.00  0.00     0.010 A 
ATOM     31  C   UNL A   1      39.042  27.114  30.115  1.00  0.00     0.010 A 
ATOM     32  C   UNL A   1      39.688  28.364  30.103  1.00  0.00    -0.014 A 
BRANCH  32  33
ATOM     33  C   UNL A   1      39.783  29.183  31.338  1.00  0.00     0.031 A 
ATOM     34  C   UNL A   1      40.928  28.939  32.285  1.00  0.00     0.074 A 
ATOM     35  C   UNL A   1      38.894  30.161  31.591  1.00  0.00     0.049 A 
ATOM     36  N   UNL A   1      41.214  29.542  33.411  1.00  0.00    -0.248 NA
ATOM     37  C   UNL A   1      41.877  27.877  31.912  1.00  0.00     0.031 C 
ATOM     38  C   UNL A   1      37.772  30.528  30.728  1.00  0.00     0.029 A 
ATOM     39  N   UNL A   1      38.802  31.027  32.651  1.00  0.00    -0.354 N 
ATOM     40  C   UNL A   1      42.367  28.925  33.886  1.00  0.00     0.074 A 
ATOM     41  C   UNL A   1      42.714  27.887  32.940  1.00  0.00     0.031 C 
ATOM     42  C   UNL A   1      37.104  31.548  31.293  1.00  0.00     0.029 A 
ATOM     43  C   UNL A   1      37.730  31.885  32.570  1.00  0.00     0.049 A 
ATOM     44  H   UNL A   1      39.441  31.034  33.398  1.00  0.00     0.167 HD
ATOM     45  C   UNL A   1      43.075  29.201  35.007  1.00  0.00     0.031 A 
ATOM     46  C   UNL A   1      37.298  32.826  33.433  1.00  0.00     0.031 A 
ATOM     47  C   UNL A   1      42.725  30.226  35.953  1.00  0.00     0.049 A 
ATOM     48  C   UNL A   1      38.062  33.067  34.709  1.00  0.00     0.074 A 
ATOM     49  C   UNL A   1      43.392  30.596  37.108  1.00  0.00     0.029 A 
ATOM     50  N   UNL A   1      41.606  31.040  35.858  1.00  0.00    -0.354 N 
ATOM     51  N   UNL A   1      39.165  32.493  35.129  1.00  0.00    -0.248 NA
ATOM     52  C   UNL A   1      37.526  34.085  35.622  1.00  0.00     0.031 C 
ATOM     53  C   UNL A   1      42.645  31.596  37.741  1.00  0.00     0.029 A 
ATOM     54  C   UNL A   1      41.546  31.890  36.950  1.00  0.00     0.049 A 
ATOM     55  H   UNL A   1      40.951  31.017  35.124  1.00  0.00     0.167 HD
ATOM     56  C   UNL A   1      39.471  33.105  36.342  1.00  0.00     0.074 A 
ATOM     57  C   UNL A   1      38.442  34.096  36.582  1.00  0.00     0.031 C 
ATOM     58  C   UNL A   1      40.514  32.870  37.177  1.00  0.00     0.031 A 
BRANCH  45  59
ATOM     59  C   UNL A   1      44.280  28.344  35.294  1.00  0.00    -0.014 A 
ATOM     60  C   UNL A   1      45.574  28.749  34.921  1.00  0.00     0.010 A 
ATOM     61  C   UNL A   1      44.115  27.121  35.971  1.00  0.00     0.010 A 
ATOM     62  C   UNL A   1      46.675  27.928  35.181  1.00  0.00     0.020 A 
ATOM     63  C   UNL A   1      45.216  26.310  36.256  1.00  0.00     0.020 A 
ATOM     64  C   UNL A   1      46.488  26.711  35.842  1.00  0.00     0.054 A 
BRANCH  64  65
ATOM     65  S   UNL A   1      47.934  25.666  36.175  1.00  0.00     0.124 S 
ATOM     66  O   UNL A   1      47.369  24.325  36.065  1.00  0.00    -0.237 OA
ATOM     67  O   UNL A   1      48.857  26.049  35.110  1.00  0.00    -0.237 OA
ATOM     68  O   UNL A   1      48.345  26.061  37.521  1.00  0.00    -0.744 OA
ENDBRANCH  64  65
ENDBRANCH  45  59
BRANCH  46  69
ATOM     69  C   UNL A   1      36.070  33.608  33.123  1.00  0.00    -0.014 A 
ATOM     70  C   UNL A   1      34.795  33.041  33.296  1.00  0.00     0.010 A 
ATOM     71  C   UNL A   1      36.172  34.932  32.655  1.00  0.00     0.010 A 
ATOM     72  C   UNL A   1      33.646  33.779  32.996  1.00  0.00     0.020 A 
ATOM     73  C   UNL A   1      35.025  35.681  32.380  1.00  0.00     0.020 A 
ATOM     74  C   UNL A   1      33.768  35.096  32.544  1.00  0.00     0.054 A 
BRANCH  74  75
ATOM     75  S   UNL A   1      32.262  36.055  32.220  1.00  0.00     0.124 S 
ATOM     76  O   UNL A   1      32.470  37.239  33.048  1.00  0.00    -0.237 OA
ATOM     77  O   UNL A   1      32.329  36.271  30.777  1.00  0.00    -0.237 OA
ATOM     78  O   UNL A   1      31.189  35.165  32.659  1.00  0.00    -0.744 OA
ENDBRANCH  74  75
ENDBRANCH  46  69
BRANCH  58  79
ATOM     79  C   UNL A   1      40.620  33.722  38.415  1.00  0.00    -0.014 A 
ATOM     80  C   UNL A   1      41.251  34.978  38.385  1.00  0.00     0.010 A 
ATOM     81  C   UNL A   1      40.026  33.281  39.612  1.00  0.00     0.010 A 
ATOM     82  C   UNL A   1      41.311  35.765  39.539  1.00  0.00     0.020 A 
ATOM     83  C   UNL A   1      40.061  34.077  40.759  1.00  0.00     0.020 A 
ATOM     84  C   UNL A   1      40.717  35.308  40.719  1.00  0.00     0.054 A 
BRANCH  84  85
ATOM     85  S   UNL A   1      40.770  36.366  42.192  1.00  0.00     0.124 S 
ATOM     86  O   UNL A   1      39.684  37.307  41.929  1.00  0.00    -0.237 OA
ATOM     87  O   UNL A   1      40.530  35.419  43.277  1.00  0.00    -0.237 OA
ATOM     88  O   UNL A   1      42.113  36.940  42.160  1.00  0.00    -0.744 OA
ENDBRANCH  84  85
ENDBRANCH  58  79
ENDBRANCH  32  33
ENDBRANCH  25  27
ENDBRANCH  24  25
ENDBRANCH  23  24
ENDBRANCH   1  23
TORSDOF 19
ENDMDL
