MODEL 1
REMARK VINA RESULT:      -9.6      0.000      0.000
REMARK SMILES N#C/C(=C\c1ccc(-c2cc(C(F)(F)F)ccc2Cl)o1)C(=O)OCCOCCOC(=O)c1ccc(-c2c3nc(c(-c4ccc(S(=O)(=O)[O-])cc4)c4ccc([nH]4)c(-c4ccc(S(=O)(=O)[O-])cc4)c4nc(c(-c5ccc(S(=O)(=O)[O-])cc5)c5ccc2[nH]5)C=C4)C=C3)cc1
REMARK SMILES IDX 26 1 25 2 24 3 23 4 21 5 22 6 3 7 4 8 2 9 1 10 5 11 6 12
REMARK SMILES IDX 20 13 7 14 8 15 9 16 10 17 18 18 11 19 17 20 19 21 16 22
REMARK SMILES IDX 12 23 13 24 14 25 15 26 27 27 28 28 29 29 30 30 31 31 32 32
REMARK SMILES IDX 33 33 91 34 34 35 90 36 35 37 36 38 37 39 84 40 38 41 89 42
REMARK SMILES IDX 83 43 85 44 39 45 88 46 82 47 81 48 40 50 70 51 51 52 69 53
REMARK SMILES IDX 52 54 55 55 68 56 86 57 53 58 54 59 67 61 87 62 56 63 41 64
REMARK SMILES IDX 42 65 50 66 43 67 49 68 44 69 45 70 46 71 47 72 48 73 71 74
REMARK SMILES IDX 72 75 80 76 73 77 79 78 74 79 75 80 76 81 77 82 78 83 57 84
REMARK SMILES IDX 58 85 66 86 59 87 65 88 60 89 61 90 62 91 63 92 64 93
REMARK H PARENT 85 49 55 60
REMARK Flexibility Score: inf
ROOT
ATOM      1  O   UNL A   1      31.011  29.201  25.004  1.00  0.00    -0.374 OA
ENDROOT
BRANCH   1   2
ATOM      2  C   UNL A   1      30.745  28.883  23.639  1.00  0.00     0.202 C 
BRANCH   2   3
ATOM      3  C   UNL A   1      29.862  27.671  23.339  1.00  0.00     0.261 C 
BRANCH   3   4
ATOM      4  O   UNL A   1      29.790  26.782  24.466  1.00  0.00    -0.459 OA
BRANCH   4   5
ATOM      5  C   UNL A   1      30.211  25.524  24.201  1.00  0.00     0.349 C 
ATOM      6  O   UNL A   1      30.027  24.905  23.163  1.00  0.00    -0.245 OA
BRANCH   5   7
ATOM      7  C   UNL A   1      31.071  25.001  25.279  1.00  0.00     0.141 C 
ATOM      8  C   UNL A   1      31.184  23.668  25.472  1.00  0.00     0.074 C 
BRANCH   7   9
ATOM      9  C   UNL A   1      32.217  25.923  25.661  1.00  0.00     0.107 C 
ATOM     10  N   UNL A   1      33.168  26.687  25.979  1.00  0.00    -0.192 NA
ENDBRANCH   7   9
BRANCH   8  11
ATOM     11  C   UNL A   1      32.315  23.099  26.146  1.00  0.00     0.129 A 
ATOM     12  C   UNL A   1      32.454  22.688  27.470  1.00  0.00     0.051 A 
ATOM     13  O   UNL A   1      33.549  22.920  25.536  1.00  0.00    -0.457 OA
ATOM     14  C   UNL A   1      33.798  22.317  27.679  1.00  0.00     0.051 A 
ATOM     15  C   UNL A   1      34.433  22.448  26.466  1.00  0.00     0.136 A 
BRANCH  15  16
ATOM     16  C   UNL A   1      35.806  22.182  26.035  1.00  0.00     0.036 A 
ATOM     17  C   UNL A   1      36.845  23.053  26.415  1.00  0.00     0.026 A 
ATOM     18  C   UNL A   1      36.144  21.018  25.318  1.00  0.00     0.052 A 
ATOM     19  C   UNL A   1      38.195  22.763  26.116  1.00  0.00     0.056 A 
ATOM     20  C   UNL A   1      37.479  20.731  25.006  1.00  0.00     0.022 A 
ATOM     21  Cl  UNL A   1      34.961  19.876  24.773  1.00  0.00    -0.084 Cl
ATOM     22  C   UNL A   1      38.497  21.594  25.406  1.00  0.00     0.014 A 
BRANCH  19  23
ATOM     23  C   UNL A   1      39.303  23.685  26.575  1.00  0.00     0.416 C 
ATOM     24  F   UNL A   1      39.309  23.875  27.921  1.00  0.00    -0.166 F 
ATOM     25  F   UNL A   1      40.538  23.210  26.253  1.00  0.00    -0.166 F 
ATOM     26  F   UNL A   1      39.235  24.929  26.021  1.00  0.00    -0.166 F 
ENDBRANCH  19  23
ENDBRANCH  15  16
ENDBRANCH   8  11
ENDBRANCH   5   7
ENDBRANCH   4   5
ENDBRANCH   3   4
ENDBRANCH   2   3
ENDBRANCH   1   2
BRANCH   1  27
ATOM     27  C   UNL A   1      32.090  30.071  25.324  1.00  0.00     0.202 C 
BRANCH  27  28
ATOM     28  C   UNL A   1      32.562  30.189  26.782  1.00  0.00     0.261 C 
BRANCH  28  29
ATOM     29  O   UNL A   1      33.961  29.931  26.972  1.00  0.00    -0.460 OA
BRANCH  29  30
ATOM     30  C   UNL A   1      34.577  30.822  27.790  1.00  0.00     0.338 C 
ATOM     31  O   UNL A   1      34.111  31.869  28.220  1.00  0.00    -0.246 OA
BRANCH  30  32
ATOM     32  C   UNL A   1      35.861  30.285  28.266  1.00  0.00     0.060 A 
ATOM     33  C   UNL A   1      35.883  29.688  29.533  1.00  0.00     0.016 A 
ATOM     34  C   UNL A   1      37.040  30.450  27.536  1.00  0.00     0.016 A 
ATOM     35  C   UNL A   1      37.093  29.290  30.096  1.00  0.00     0.010 A 
ATOM     36  C   UNL A   1      38.256  30.064  28.111  1.00  0.00     0.010 A 
ATOM     37  C   UNL A   1      38.289  29.516  29.405  1.00  0.00    -0.014 A 
BRANCH  37  38
ATOM     38  C   UNL A   1      39.579  29.313  30.108  1.00  0.00     0.031 A 
ATOM     39  C   UNL A   1      40.503  28.223  29.636  1.00  0.00     0.074 A 
ATOM     40  C   UNL A   1      39.938  30.114  31.127  1.00  0.00     0.049 A 
ATOM     41  N   UNL A   1      41.677  27.878  30.098  1.00  0.00    -0.248 NA
ATOM     42  C   UNL A   1      40.042  27.419  28.492  1.00  0.00     0.031 C 
ATOM     43  C   UNL A   1      39.149  31.233  31.640  1.00  0.00     0.029 A 
ATOM     44  N   UNL A   1      41.064  30.106  31.908  1.00  0.00    -0.354 N 
ATOM     45  C   UNL A   1      42.092  26.811  29.310  1.00  0.00     0.074 A 
ATOM     46  C   UNL A   1      41.035  26.551  28.356  1.00  0.00     0.031 C 
ATOM     47  C   UNL A   1      39.820  31.807  32.654  1.00  0.00     0.029 A 
ATOM     48  C   UNL A   1      41.066  31.078  32.880  1.00  0.00     0.049 A 
ATOM     49  H   UNL A   1      41.802  29.466  31.785  1.00  0.00     0.167 HD
ATOM     50  C   UNL A   1      43.249  26.110  29.374  1.00  0.00     0.031 A 
ATOM     51  C   UNL A   1      41.967  31.341  33.848  1.00  0.00     0.031 A 
ATOM     52  C   UNL A   1      44.294  26.362  30.331  1.00  0.00     0.049 A 
ATOM     53  C   UNL A   1      43.212  30.501  33.945  1.00  0.00     0.074 A 
ATOM     54  C   UNL A   1      45.516  25.725  30.459  1.00  0.00     0.029 A 
ATOM     55  N   UNL A   1      44.234  27.321  31.330  1.00  0.00    -0.354 N 
ATOM     56  N   UNL A   1      43.604  29.515  33.174  1.00  0.00    -0.248 NA
ATOM     57  C   UNL A   1      44.139  30.815  35.042  1.00  0.00     0.031 C 
ATOM     58  C   UNL A   1      46.172  26.262  31.572  1.00  0.00     0.029 A 
ATOM     59  C   UNL A   1      45.383  27.271  32.101  1.00  0.00     0.049 A 
ATOM     60  H   UNL A   1      43.487  27.945  31.471  1.00  0.00     0.167 HD
ATOM     61  C   UNL A   1      44.836  29.108  33.676  1.00  0.00     0.074 A 
ATOM     62  C   UNL A   1      45.127  29.960  34.811  1.00  0.00     0.031 C 
ATOM     63  C   UNL A   1      45.655  28.122  33.232  1.00  0.00     0.031 A 
BRANCH  50  64
ATOM     64  C   UNL A   1      43.422  24.970  28.407  1.00  0.00    -0.014 A 
ATOM     65  C   UNL A   1      42.997  23.668  28.726  1.00  0.00     0.010 A 
ATOM     66  C   UNL A   1      44.005  25.210  27.150  1.00  0.00     0.010 A 
ATOM     67  C   UNL A   1      43.191  22.620  27.823  1.00  0.00     0.020 A 
ATOM     68  C   UNL A   1      44.179  24.170  26.234  1.00  0.00     0.020 A 
ATOM     69  C   UNL A   1      43.788  22.877  26.585  1.00  0.00     0.054 A 
BRANCH  69  70
ATOM     70  S   UNL A   1      44.027  21.500  25.428  1.00  0.00     0.124 S 
ATOM     71  O   UNL A   1      43.001  20.557  25.865  1.00  0.00    -0.237 OA
ATOM     72  O   UNL A   1      43.793  22.126  24.130  1.00  0.00    -0.237 OA
ATOM     73  O   UNL A   1      45.405  21.077  25.672  1.00  0.00    -0.744 OA
ENDBRANCH  69  70
ENDBRANCH  50  64
BRANCH  51  74
ATOM     74  C   UNL A   1      41.717  32.449  34.808  1.00  0.00    -0.014 A 
ATOM     75  C   UNL A   1      42.245  33.729  34.573  1.00  0.00     0.010 A 
ATOM     76  C   UNL A   1      40.937  32.227  35.959  1.00  0.00     0.010 A 
ATOM     77  C   UNL A   1      42.003  34.770  35.477  1.00  0.00     0.020 A 
ATOM     78  C   UNL A   1      40.674  33.271  36.851  1.00  0.00     0.020 A 
ATOM     79  C   UNL A   1      41.216  34.534  36.607  1.00  0.00     0.054 A 
BRANCH  79  80
ATOM     80  S   UNL A   1      40.861  35.915  37.731  1.00  0.00     0.124 S 
ATOM     81  O   UNL A   1      39.659  36.488  37.136  1.00  0.00    -0.237 OA
ATOM     82  O   UNL A   1      40.674  35.238  39.012  1.00  0.00    -0.237 OA
ATOM     83  O   UNL A   1      42.063  36.741  37.642  1.00  0.00    -0.744 OA
ENDBRANCH  79  80
ENDBRANCH  51  74
BRANCH  63  84
ATOM     84  C   UNL A   1      46.961  27.928  33.956  1.00  0.00    -0.014 A 
ATOM     85  C   UNL A   1      47.073  27.028  35.031  1.00  0.00     0.010 A 
ATOM     86  C   UNL A   1      48.107  28.615  33.516  1.00  0.00     0.010 A 
ATOM     87  C   UNL A   1      48.301  26.841  35.670  1.00  0.00     0.020 A 
ATOM     88  C   UNL A   1      49.342  28.411  34.136  1.00  0.00     0.020 A 
ATOM     89  C   UNL A   1      49.428  27.535  35.219  1.00  0.00     0.054 A 
BRANCH  89  90
ATOM     90  S   UNL A   1      51.021  27.243  36.036  1.00  0.00     0.124 S 
ATOM     91  O   UNL A   1      50.609  26.638  37.299  1.00  0.00    -0.237 OA
ATOM     92  O   UNL A   1      51.703  26.348  35.103  1.00  0.00    -0.237 OA
ATOM     93  O   UNL A   1      51.604  28.579  36.144  1.00  0.00    -0.744 OA
ENDBRANCH  89  90
ENDBRANCH  63  84
ENDBRANCH  37  38
ENDBRANCH  30  32
ENDBRANCH  29  30
ENDBRANCH  28  29
ENDBRANCH  27  28
ENDBRANCH   1  27
TORSDOF 21
ENDMDL
MODEL 2
REMARK VINA RESULT:      -9.5      1.415      1.836
REMARK SMILES N#C/C(=C\c1ccc(-c2cc(C(F)(F)F)ccc2Cl)o1)C(=O)OCCOCCOC(=O)c1ccc(-c2c3nc(c(-c4ccc(S(=O)(=O)[O-])cc4)c4ccc([nH]4)c(-c4ccc(S(=O)(=O)[O-])cc4)c4nc(c(-c5ccc(S(=O)(=O)[O-])cc5)c5ccc2[nH]5)C=C4)C=C3)cc1
REMARK SMILES IDX 26 1 25 2 24 3 23 4 21 5 22 6 3 7 4 8 2 9 1 10 5 11 6 12
REMARK SMILES IDX 20 13 7 14 8 15 9 16 10 17 18 18 11 19 17 20 19 21 16 22
REMARK SMILES IDX 12 23 13 24 14 25 15 26 27 27 28 28 29 29 30 30 31 31 32 32
REMARK SMILES IDX 33 33 91 34 34 35 90 36 35 37 36 38 37 39 84 40 38 41 89 42
REMARK SMILES IDX 83 43 85 44 39 45 88 46 82 47 81 48 40 50 70 51 51 52 69 53
REMARK SMILES IDX 52 54 55 55 68 56 86 57 53 58 54 59 67 61 87 62 56 63 41 64
REMARK SMILES IDX 42 65 50 66 43 67 49 68 44 69 45 70 46 71 47 72 48 73 71 74
REMARK SMILES IDX 72 75 80 76 73 77 79 78 74 79 75 80 76 81 77 82 78 83 57 84
REMARK SMILES IDX 58 85 66 86 59 87 65 88 60 89 61 90 62 91 63 92 64 93
REMARK H PARENT 85 49 55 60
REMARK Flexibility Score: inf
ROOT
ATOM      1  O   UNL A   1      31.006  29.409  25.145  1.00  0.00    -0.374 OA
ENDROOT
BRANCH   1   2
ATOM      2  C   UNL A   1      30.643  29.255  23.774  1.00  0.00     0.202 C 
BRANCH   2   3
ATOM      3  C   UNL A   1      29.931  27.967  23.355  1.00  0.00     0.261 C 
BRANCH   3   4
ATOM      4  O   UNL A   1      29.798  27.059  24.461  1.00  0.00    -0.459 OA
BRANCH   4   5
ATOM      5  C   UNL A   1      30.120  25.779  24.163  1.00  0.00     0.349 C 
ATOM      6  O   UNL A   1      29.896  25.206  23.106  1.00  0.00    -0.245 OA
BRANCH   5   7
ATOM      7  C   UNL A   1      30.928  25.160  25.230  1.00  0.00     0.141 C 
ATOM      8  C   UNL A   1      30.981  23.814  25.348  1.00  0.00     0.074 C 
BRANCH   7   9
ATOM      9  C   UNL A   1      32.099  26.010  25.696  1.00  0.00     0.107 C 
ATOM     10  N   UNL A   1      33.070  26.715  26.082  1.00  0.00    -0.192 NA
ENDBRANCH   7   9
BRANCH   8  11
ATOM     11  C   UNL A   1      32.069  23.161  26.017  1.00  0.00     0.129 A 
ATOM     12  C   UNL A   1      32.179  22.732  27.337  1.00  0.00     0.051 A 
ATOM     13  O   UNL A   1      33.287  22.900  25.404  1.00  0.00    -0.457 OA
ATOM     14  C   UNL A   1      33.493  22.264  27.543  1.00  0.00     0.051 A 
ATOM     15  C   UNL A   1      34.135  22.358  26.330  1.00  0.00     0.136 A 
BRANCH  15  16
ATOM     16  C   UNL A   1      35.485  21.999  25.895  1.00  0.00     0.036 A 
ATOM     17  C   UNL A   1      36.577  22.821  26.233  1.00  0.00     0.026 A 
ATOM     18  C   UNL A   1      35.748  20.791  25.220  1.00  0.00     0.052 A 
ATOM     19  C   UNL A   1      37.904  22.444  25.932  1.00  0.00     0.056 A 
ATOM     20  C   UNL A   1      37.060  20.417  24.905  1.00  0.00     0.022 A 
ATOM     21  Cl  UNL A   1      34.496  19.701  24.729  1.00  0.00    -0.084 Cl
ATOM     22  C   UNL A   1      38.131  21.234  25.264  1.00  0.00     0.014 A 
BRANCH  19  23
ATOM     23  C   UNL A   1      39.069  23.317  26.346  1.00  0.00     0.416 C 
ATOM     24  F   UNL A   1      40.248  22.919  25.798  1.00  0.00    -0.166 F 
ATOM     25  F   UNL A   1      38.898  24.617  25.979  1.00  0.00    -0.166 F 
ATOM     26  F   UNL A   1      39.273  23.342  27.694  1.00  0.00    -0.166 F 
ENDBRANCH  19  23
ENDBRANCH  15  16
ENDBRANCH   8  11
ENDBRANCH   5   7
ENDBRANCH   4   5
ENDBRANCH   3   4
ENDBRANCH   2   3
ENDBRANCH   1   2
BRANCH   1  27
ATOM     27  C   UNL A   1      32.114  30.231  25.490  1.00  0.00     0.202 C 
BRANCH  27  28
ATOM     28  C   UNL A   1      32.715  30.142  26.901  1.00  0.00     0.261 C 
BRANCH  28  29
ATOM     29  O   UNL A   1      34.147  30.043  26.928  1.00  0.00    -0.460 OA
BRANCH  29  30
ATOM     30  C   UNL A   1      34.722  30.708  27.962  1.00  0.00     0.338 C 
ATOM     31  O   UNL A   1      34.203  31.563  28.667  1.00  0.00    -0.246 OA
BRANCH  30  32
ATOM     32  C   UNL A   1      36.044  30.139  28.270  1.00  0.00     0.060 A 
ATOM     33  C   UNL A   1      36.270  29.701  29.582  1.00  0.00     0.016 A 
ATOM     34  C   UNL A   1      37.074  30.126  27.328  1.00  0.00     0.016 A 
ATOM     35  C   UNL A   1      37.541  29.287  29.970  1.00  0.00     0.010 A 
ATOM     36  C   UNL A   1      38.354  29.724  27.725  1.00  0.00     0.010 A 
ATOM     37  C   UNL A   1      38.599  29.337  29.054  1.00  0.00    -0.014 A 
BRANCH  37  38
ATOM     38  C   UNL A   1      39.985  29.127  29.538  1.00  0.00     0.031 A 
ATOM     39  C   UNL A   1      40.701  27.856  29.167  1.00  0.00     0.074 A 
ATOM     40  C   UNL A   1      40.608  30.071  30.264  1.00  0.00     0.049 A 
ATOM     41  N   UNL A   1      41.913  27.472  29.474  1.00  0.00    -0.248 NA
ATOM     42  C   UNL A   1      39.953  26.896  28.340  1.00  0.00     0.031 C 
ATOM     43  C   UNL A   1      40.034  31.361  30.644  1.00  0.00     0.029 A 
ATOM     44  N   UNL A   1      41.866  30.086  30.809  1.00  0.00    -0.354 N 
ATOM     45  C   UNL A   1      42.071  26.221  28.889  1.00  0.00     0.074 A 
ATOM     46  C   UNL A   1      40.823  25.902  28.228  1.00  0.00     0.031 C 
ATOM     47  C   UNL A   1      40.942  32.046  31.360  1.00  0.00     0.029 A 
ATOM     48  C   UNL A   1      42.145  31.230  31.516  1.00  0.00     0.049 A 
ATOM     49  H   UNL A   1      42.509  29.348  30.703  1.00  0.00     0.167 HD
ATOM     50  C   UNL A   1      43.156  25.411  28.899  1.00  0.00     0.031 A 
ATOM     51  C   UNL A   1      43.243  31.575  32.218  1.00  0.00     0.031 A 
ATOM     52  C   UNL A   1      44.391  25.726  29.567  1.00  0.00     0.049 A 
ATOM     53  C   UNL A   1      44.410  30.627  32.276  1.00  0.00     0.074 A 
ATOM     54  C   UNL A   1      45.558  24.982  29.613  1.00  0.00     0.029 A 
ATOM     55  N   UNL A   1      44.615  26.871  30.315  1.00  0.00    -0.354 N 
ATOM     56  N   UNL A   1      44.555  29.461  31.693  1.00  0.00    -0.248 NA
ATOM     57  C   UNL A   1      45.564  31.044  33.085  1.00  0.00     0.031 C 
ATOM     58  C   UNL A   1      46.469  25.653  30.436  1.00  0.00     0.029 A 
ATOM     59  C   UNL A   1      45.890  26.840  30.855  1.00  0.00     0.049 A 
ATOM     60  H   UNL A   1      43.965  27.598  30.443  1.00  0.00     0.167 HD
ATOM     61  C   UNL A   1      45.827  29.018  32.041  1.00  0.00     0.074 A 
ATOM     62  C   UNL A   1      46.411  30.044  32.880  1.00  0.00     0.031 C 
ATOM     63  C   UNL A   1      46.455  27.867  31.693  1.00  0.00     0.031 A 
BRANCH  50  64
ATOM     64  C   UNL A   1      43.035  24.082  28.203  1.00  0.00    -0.014 A 
ATOM     65  C   UNL A   1      43.508  23.897  26.892  1.00  0.00     0.010 A 
ATOM     66  C   UNL A   1      42.453  22.996  28.880  1.00  0.00     0.010 A 
ATOM     67  C   UNL A   1      43.362  22.662  26.255  1.00  0.00     0.020 A 
ATOM     68  C   UNL A   1      42.326  21.752  28.256  1.00  0.00     0.020 A 
ATOM     69  C   UNL A   1      42.765  21.599  26.940  1.00  0.00     0.054 A 
BRANCH  69  70
ATOM     70  S   UNL A   1      42.589  20.004  26.093  1.00  0.00     0.124 S 
ATOM     71  O   UNL A   1      41.254  20.118  25.511  1.00  0.00    -0.237 OA
ATOM     72  O   UNL A   1      43.693  20.022  25.139  1.00  0.00    -0.237 OA
ATOM     73  O   UNL A   1      42.716  19.024  27.170  1.00  0.00    -0.744 OA
ENDBRANCH  69  70
ENDBRANCH  50  64
BRANCH  51  74
ATOM     74  C   UNL A   1      43.285  32.881  32.930  1.00  0.00    -0.014 A 
ATOM     75  C   UNL A   1      43.782  34.028  32.287  1.00  0.00     0.010 A 
ATOM     76  C   UNL A   1      42.816  32.983  34.253  1.00  0.00     0.010 A 
ATOM     77  C   UNL A   1      43.815  35.255  32.958  1.00  0.00     0.020 A 
ATOM     78  C   UNL A   1      42.826  34.213  34.917  1.00  0.00     0.020 A 
ATOM     79  C   UNL A   1      43.333  35.339  34.267  1.00  0.00     0.054 A 
BRANCH  79  80
ATOM     80  S   UNL A   1      43.325  36.955  35.095  1.00  0.00     0.124 S 
ATOM     81  O   UNL A   1      42.471  37.743  34.214  1.00  0.00    -0.237 OA
ATOM     82  O   UNL A   1      42.762  36.635  36.404  1.00  0.00    -0.237 OA
ATOM     83  O   UNL A   1      44.736  37.336  35.109  1.00  0.00    -0.744 OA
ENDBRANCH  79  80
ENDBRANCH  51  74
BRANCH  63  84
ATOM     84  C   UNL A   1      47.862  27.668  32.192  1.00  0.00    -0.014 A 
ATOM     85  C   UNL A   1      48.121  26.957  33.378  1.00  0.00     0.010 A 
ATOM     86  C   UNL A   1      48.943  28.150  31.432  1.00  0.00     0.010 A 
ATOM     87  C   UNL A   1      49.436  26.758  33.808  1.00  0.00     0.020 A 
ATOM     88  C   UNL A   1      50.259  27.930  31.845  1.00  0.00     0.020 A 
ATOM     89  C   UNL A   1      50.496  27.247  33.039  1.00  0.00     0.054 A 
BRANCH  89  90
ATOM     90  S   UNL A   1      52.195  26.938  33.595  1.00  0.00     0.124 S 
ATOM     91  O   UNL A   1      52.112  27.253  35.018  1.00  0.00    -0.237 OA
ATOM     92  O   UNL A   1      52.388  25.526  33.273  1.00  0.00    -0.237 OA
ATOM     93  O   UNL A   1      52.994  27.866  32.796  1.00  0.00    -0.744 OA
ENDBRANCH  89  90
ENDBRANCH  63  84
ENDBRANCH  37  38
ENDBRANCH  30  32
ENDBRANCH  29  30
ENDBRANCH  28  29
ENDBRANCH  27  28
ENDBRANCH   1  27
TORSDOF 21
ENDMDL
MODEL 3
REMARK VINA RESULT:      -9.3      4.972      8.260
REMARK SMILES N#C/C(=C\c1ccc(-c2cc(C(F)(F)F)ccc2Cl)o1)C(=O)OCCOCCOC(=O)c1ccc(-c2c3nc(c(-c4ccc(S(=O)(=O)[O-])cc4)c4ccc([nH]4)c(-c4ccc(S(=O)(=O)[O-])cc4)c4nc(c(-c5ccc(S(=O)(=O)[O-])cc5)c5ccc2[nH]5)C=C4)C=C3)cc1
REMARK SMILES IDX 26 1 25 2 24 3 23 4 21 5 22 6 3 7 4 8 2 9 1 10 5 11 6 12
REMARK SMILES IDX 20 13 7 14 8 15 9 16 10 17 18 18 11 19 17 20 19 21 16 22
REMARK SMILES IDX 12 23 13 24 14 25 15 26 27 27 28 28 29 29 30 30 31 31 32 32
REMARK SMILES IDX 33 33 91 34 34 35 90 36 35 37 36 38 37 39 84 40 38 41 89 42
REMARK SMILES IDX 83 43 85 44 39 45 88 46 82 47 81 48 40 50 70 51 51 52 69 53
REMARK SMILES IDX 52 54 55 55 68 56 86 57 53 58 54 59 67 61 87 62 56 63 41 64
REMARK SMILES IDX 42 65 50 66 43 67 49 68 44 69 45 70 46 71 47 72 48 73 71 74
REMARK SMILES IDX 72 75 80 76 73 77 79 78 74 79 75 80 76 81 77 82 78 83 57 84
REMARK SMILES IDX 58 85 66 86 59 87 65 88 60 89 61 90 62 91 63 92 64 93
REMARK H PARENT 85 49 55 60
REMARK Flexibility Score: inf
ROOT
ATOM      1  O   UNL A   1      38.267  20.919  25.282  1.00  0.00    -0.374 OA
ENDROOT
BRANCH   1   2
ATOM      2  C   UNL A   1      37.467  22.100  25.284  1.00  0.00     0.202 C 
BRANCH   2   3
ATOM      3  C   UNL A   1      36.001  21.980  24.865  1.00  0.00     0.261 C 
BRANCH   3   4
ATOM      4  O   UNL A   1      35.295  21.041  25.693  1.00  0.00    -0.459 OA
BRANCH   4   5
ATOM      5  C   UNL A   1      34.251  20.442  25.076  1.00  0.00     0.349 C 
ATOM      6  O   UNL A   1      34.251  19.326  24.576  1.00  0.00    -0.245 OA
BRANCH   5   7
ATOM      7  C   UNL A   1      33.018  21.242  25.196  1.00  0.00     0.141 C 
ATOM      8  C   UNL A   1      32.736  21.888  26.349  1.00  0.00     0.074 C 
BRANCH   7   9
ATOM      9  C   UNL A   1      32.500  21.786  23.874  1.00  0.00     0.107 C 
ATOM     10  N   UNL A   1      32.070  22.237  22.778  1.00  0.00    -0.192 NA
ENDBRANCH   7   9
BRANCH   8  11
ATOM     11  C   UNL A   1      31.852  23.019  26.381  1.00  0.00     0.129 A 
ATOM     12  C   UNL A   1      30.491  23.081  26.669  1.00  0.00     0.051 A 
ATOM     13  O   UNL A   1      32.254  24.303  26.041  1.00  0.00    -0.457 OA
ATOM     14  C   UNL A   1      30.051  24.402  26.442  1.00  0.00     0.051 A 
ATOM     15  C   UNL A   1      31.164  25.127  26.083  1.00  0.00     0.136 A 
BRANCH  15  16
ATOM     16  C   UNL A   1      31.360  26.541  25.761  1.00  0.00     0.036 A 
ATOM     17  C   UNL A   1      32.361  27.282  26.419  1.00  0.00     0.026 A 
ATOM     18  C   UNL A   1      30.634  27.174  24.733  1.00  0.00     0.052 A 
ATOM     19  C   UNL A   1      32.656  28.612  26.050  1.00  0.00     0.056 A 
ATOM     20  C   UNL A   1      30.911  28.498  24.371  1.00  0.00     0.022 A 
ATOM     21  Cl  UNL A   1      29.364  26.384  23.860  1.00  0.00    -0.084 Cl
ATOM     22  C   UNL A   1      31.918  29.211  25.020  1.00  0.00     0.014 A 
BRANCH  19  23
ATOM     23  C   UNL A   1      33.768  29.377  26.734  1.00  0.00     0.416 C 
ATOM     24  F   UNL A   1      35.004  29.006  26.308  1.00  0.00    -0.166 F 
ATOM     25  F   UNL A   1      33.679  30.720  26.523  1.00  0.00    -0.166 F 
ATOM     26  F   UNL A   1      33.776  29.220  28.089  1.00  0.00    -0.166 F 
ENDBRANCH  19  23
ENDBRANCH  15  16
ENDBRANCH   8  11
ENDBRANCH   5   7
ENDBRANCH   4   5
ENDBRANCH   3   4
ENDBRANCH   2   3
ENDBRANCH   1   2
BRANCH   1  27
ATOM     27  C   UNL A   1      39.486  20.897  26.015  1.00  0.00     0.202 C 
BRANCH  27  28
ATOM     28  C   UNL A   1      40.299  19.595  26.094  1.00  0.00     0.261 C 
BRANCH  28  29
ATOM     29  O   UNL A   1      41.489  19.591  25.292  1.00  0.00    -0.460 OA
BRANCH  29  30
ATOM     30  C   UNL A   1      42.627  19.809  25.999  1.00  0.00     0.338 C 
ATOM     31  O   UNL A   1      43.545  19.018  26.178  1.00  0.00    -0.246 OA
BRANCH  30  32
ATOM     32  C   UNL A   1      42.723  21.221  26.402  1.00  0.00     0.060 A 
ATOM     33  C   UNL A   1      42.766  22.182  25.383  1.00  0.00     0.016 A 
ATOM     34  C   UNL A   1      42.870  21.593  27.739  1.00  0.00     0.016 A 
ATOM     35  C   UNL A   1      42.999  23.519  25.695  1.00  0.00     0.010 A 
ATOM     36  C   UNL A   1      43.119  22.935  28.048  1.00  0.00     0.010 A 
ATOM     37  C   UNL A   1      43.219  23.894  27.025  1.00  0.00    -0.014 A 
BRANCH  37  38
ATOM     38  C   UNL A   1      43.702  25.265  27.319  1.00  0.00     0.031 A 
ATOM     39  C   UNL A   1      45.146  25.600  27.061  1.00  0.00     0.074 A 
ATOM     40  C   UNL A   1      42.857  26.207  27.775  1.00  0.00     0.049 A 
ATOM     41  N   UNL A   1      45.775  26.733  27.238  1.00  0.00    -0.248 NA
ATOM     42  C   UNL A   1      45.989  24.517  26.530  1.00  0.00     0.031 C 
ATOM     43  C   UNL A   1      41.428  26.014  28.017  1.00  0.00     0.029 A 
ATOM     44  N   UNL A   1      43.084  27.516  28.110  1.00  0.00    -0.354 N 
ATOM     45  C   UNL A   1      47.090  26.498  26.852  1.00  0.00     0.074 A 
ATOM     46  C   UNL A   1      47.172  25.109  26.453  1.00  0.00     0.031 C 
ATOM     47  C   UNL A   1      40.903  27.169  28.462  1.00  0.00     0.029 A 
ATOM     48  C   UNL A   1      41.964  28.169  28.565  1.00  0.00     0.049 A 
ATOM     49  H   UNL A   1      43.965  27.949  28.032  1.00  0.00     0.167 HD
ATOM     50  C   UNL A   1      48.134  27.359  26.832  1.00  0.00     0.031 A 
ATOM     51  C   UNL A   1      41.815  29.428  29.024  1.00  0.00     0.031 A 
ATOM     52  C   UNL A   1      48.052  28.737  27.241  1.00  0.00     0.049 A 
ATOM     53  C   UNL A   1      43.007  30.346  29.060  1.00  0.00     0.074 A 
ATOM     54  C   UNL A   1      49.048  29.698  27.231  1.00  0.00     0.029 A 
ATOM     55  N   UNL A   1      46.913  29.345  27.744  1.00  0.00    -0.354 N 
ATOM     56  N   UNL A   1      44.236  30.118  28.664  1.00  0.00    -0.248 NA
ATOM     57  C   UNL A   1      42.788  31.695  29.602  1.00  0.00     0.031 C 
ATOM     58  C   UNL A   1      48.525  30.873  27.781  1.00  0.00     0.029 A 
ATOM     59  C   UNL A   1      47.189  30.659  28.080  1.00  0.00     0.049 A 
ATOM     60  H   UNL A   1      46.038  28.907  27.847  1.00  0.00     0.167 HD
ATOM     61  C   UNL A   1      44.932  31.303  28.883  1.00  0.00     0.074 A 
ATOM     62  C   UNL A   1      43.984  32.247  29.439  1.00  0.00     0.031 C 
ATOM     63  C   UNL A   1      46.236  31.585  28.639  1.00  0.00     0.031 A 
BRANCH  50  64
ATOM     64  C   UNL A   1      49.469  26.819  26.393  1.00  0.00    -0.014 A 
ATOM     65  C   UNL A   1      49.901  26.929  25.059  1.00  0.00     0.010 A 
ATOM     66  C   UNL A   1      50.312  26.206  27.337  1.00  0.00     0.010 A 
ATOM     67  C   UNL A   1      51.133  26.398  24.669  1.00  0.00     0.020 A 
ATOM     68  C   UNL A   1      51.555  25.695  26.957  1.00  0.00     0.020 A 
ATOM     69  C   UNL A   1      51.949  25.777  25.620  1.00  0.00     0.054 A 
BRANCH  69  70
ATOM     70  S   UNL A   1      53.545  25.096  25.090  1.00  0.00     0.124 S 
ATOM     71  O   UNL A   1      54.460  25.678  26.069  1.00  0.00    -0.237 OA
ATOM     72  O   UNL A   1      53.335  23.656  25.205  1.00  0.00    -0.237 OA
ATOM     73  O   UNL A   1      53.697  25.593  23.724  1.00  0.00    -0.744 OA
ENDBRANCH  69  70
ENDBRANCH  50  64
BRANCH  51  74
ATOM     74  C   UNL A   1      40.481  29.891  29.493  1.00  0.00    -0.014 A 
ATOM     75  C   UNL A   1      39.466  30.193  28.570  1.00  0.00     0.010 A 
ATOM     76  C   UNL A   1      40.219  30.019  30.870  1.00  0.00     0.010 A 
ATOM     77  C   UNL A   1      38.211  30.624  29.015  1.00  0.00     0.020 A 
ATOM     78  C   UNL A   1      38.959  30.425  31.319  1.00  0.00     0.020 A 
ATOM     79  C   UNL A   1      37.966  30.732  30.387  1.00  0.00     0.054 A 
BRANCH  79  80
ATOM     80  S   UNL A   1      36.311  31.229  30.943  1.00  0.00     0.124 S 
ATOM     81  O   UNL A   1      35.564  31.253  29.690  1.00  0.00    -0.237 OA
ATOM     82  O   UNL A   1      35.956  30.159  31.872  1.00  0.00    -0.237 OA
ATOM     83  O   UNL A   1      36.539  32.532  31.565  1.00  0.00    -0.744 OA
ENDBRANCH  79  80
ENDBRANCH  51  74
BRANCH  63  84
ATOM     84  C   UNL A   1      46.712  32.981  28.944  1.00  0.00    -0.014 A 
ATOM     85  C   UNL A   1      47.276  33.303  30.191  1.00  0.00     0.010 A 
ATOM     86  C   UNL A   1      46.645  33.970  27.945  1.00  0.00     0.010 A 
ATOM     87  C   UNL A   1      47.738  34.598  30.442  1.00  0.00     0.020 A 
ATOM     88  C   UNL A   1      47.129  35.257  28.184  1.00  0.00     0.020 A 
ATOM     89  C   UNL A   1      47.661  35.567  29.438  1.00  0.00     0.054 A 
BRANCH  89  90
ATOM     90  S   UNL A   1      48.307  37.228  29.773  1.00  0.00     0.124 S 
ATOM     91  O   UNL A   1      49.390  36.949  30.711  1.00  0.00    -0.237 OA
ATOM     92  O   UNL A   1      48.724  37.685  28.449  1.00  0.00    -0.237 OA
ATOM     93  O   UNL A   1      47.161  37.938  30.336  1.00  0.00    -0.744 OA
ENDBRANCH  89  90
ENDBRANCH  63  84
ENDBRANCH  37  38
ENDBRANCH  30  32
ENDBRANCH  29  30
ENDBRANCH  28  29
ENDBRANCH  27  28
ENDBRANCH   1  27
TORSDOF 21
ENDMDL
