MODEL 1
REMARK VINA RESULT:     -10.8      0.000      0.000
REMARK SMILES Cc1c(C)c2c(c(C)c1O)CC[C@@](C)(C(=O)OCCOCCOC(=O)c1ccc(-c3c4nc(c(-c5ccc(S(=O)(=O)[O-])cc5)c5ccc([nH]5)c(-c5ccc(S(=O)(=O)[O-])cc5)c5nc(c(-c6ccc(S(=O)(=O)[O-])cc6)c6ccc3[nH]6)C=C5)C=C4)cc1)O2
REMARK SMILES IDX 21 1 20 2 19 3 18 4 17 5 15 6 16 7 13 8 1 9 2 10 3 11 9 12
REMARK SMILES IDX 4 13 5 14 7 15 6 16 86 17 8 18 11 19 12 20 14 21 10 22 22 24
REMARK SMILES IDX 23 25 24 26 25 27 26 28 27 29 85 30 28 31 84 32 29 33 30 34
REMARK SMILES IDX 31 35 78 36 32 37 83 38 77 39 79 40 33 41 82 42 76 43 75 44
REMARK SMILES IDX 34 46 64 47 45 48 63 49 46 50 49 51 62 52 80 53 47 54 48 55
REMARK SMILES IDX 61 57 81 58 50 59 35 60 36 61 44 62 37 63 43 64 38 65 39 66
REMARK SMILES IDX 40 67 41 68 42 69 65 70 66 71 74 72 67 73 73 74 68 75 69 76
REMARK SMILES IDX 70 77 71 78 72 79 51 80 52 81 60 82 53 83 59 84 54 85 55 86
REMARK SMILES IDX 56 87 57 88 58 89
REMARK H PARENT 10 23 79 45 49 56
REMARK Flexibility Score: inf
ROOT
ATOM      1  C   UNL A   1      31.780  30.347  25.763  1.00  0.00     0.202 C 
ENDROOT
BRANCH   1   2
ATOM      2  O   UNL A   1      31.623  28.928  25.784  1.00  0.00    -0.374 OA
BRANCH   2   3
ATOM      3  C   UNL A   1      31.293  28.293  24.548  1.00  0.00     0.202 C 
BRANCH   3   4
ATOM      4  C   UNL A   1      30.506  26.984  24.648  1.00  0.00     0.261 C 
BRANCH   4   5
ATOM      5  O   UNL A   1      31.324  25.846  24.313  1.00  0.00    -0.460 OA
BRANCH   5   6
ATOM      6  C   UNL A   1      31.588  24.995  25.345  1.00  0.00     0.350 C 
ATOM      7  O   UNL A   1      31.438  25.290  26.528  1.00  0.00    -0.247 OA
BRANCH   6   8
ATOM      8  C   UNL A   1      32.127  23.637  24.863  1.00  0.00     0.203 C 
ATOM      9  C   UNL A   1      37.968  21.721  25.384  1.00  0.00     0.049 C 
ATOM     10  C   UNL A   1      36.471  21.584  25.276  1.00  0.00    -0.002 A 
ATOM     11  C   UNL A   1      35.622  22.698  25.446  1.00  0.00    -0.002 A 
ATOM     12  C   UNL A   1      35.886  20.330  25.002  1.00  0.00     0.122 A 
ATOM     13  C   UNL A   1      36.175  24.061  25.791  1.00  0.00     0.049 C 
ATOM     14  C   UNL A   1      34.232  22.535  25.273  1.00  0.00     0.127 A 
ATOM     15  C   UNL A   1      34.492  20.157  24.906  1.00  0.00    -0.002 A 
ATOM     16  C   UNL A   1      33.651  21.274  25.080  1.00  0.00     0.001 A 
ATOM     17  O   UNL A   1      33.498  23.687  25.299  1.00  0.00    -0.475 OA
ATOM     18  C   UNL A   1      33.901  18.797  24.627  1.00  0.00     0.049 C 
ATOM     19  C   UNL A   1      32.148  21.137  25.041  1.00  0.00     0.044 C 
ATOM     20  C   UNL A   1      31.446  22.418  25.488  1.00  0.00     0.065 C 
ATOM     21  C   UNL A   1      32.043  23.658  23.333  1.00  0.00     0.069 C 
BRANCH  12  22
ATOM     22  O   UNL A   1      36.661  19.213  24.820  1.00  0.00    -0.507 OA
ATOM     23  H   UNL A   1      36.359  18.378  25.121  1.00  0.00     0.293 HD
ENDBRANCH  12  22
ENDBRANCH   6   8
ENDBRANCH   5   6
ENDBRANCH   4   5
ENDBRANCH   3   4
ENDBRANCH   2   3
ENDBRANCH   1   2
BRANCH   1  24
ATOM     24  C   UNL A   1      32.532  30.966  26.947  1.00  0.00     0.261 C 
BRANCH  24  25
ATOM     25  O   UNL A   1      33.759  30.271  27.241  1.00  0.00    -0.460 OA
BRANCH  25  26
ATOM     26  C   UNL A   1      34.596  30.939  28.071  1.00  0.00     0.338 C 
ATOM     27  O   UNL A   1      34.340  31.940  28.726  1.00  0.00    -0.246 OA
BRANCH  26  28
ATOM     28  C   UNL A   1      35.860  30.195  28.237  1.00  0.00     0.060 A 
ATOM     29  C   UNL A   1      36.132  29.660  29.504  1.00  0.00     0.016 A 
ATOM     30  C   UNL A   1      36.796  30.084  27.207  1.00  0.00     0.016 A 
ATOM     31  C   UNL A   1      37.364  29.065  29.763  1.00  0.00     0.010 A 
ATOM     32  C   UNL A   1      38.037  29.496  27.472  1.00  0.00     0.010 A 
ATOM     33  C   UNL A   1      38.341  29.019  28.760  1.00  0.00    -0.014 A 
BRANCH  33  34
ATOM     34  C   UNL A   1      39.727  28.622  29.102  1.00  0.00     0.031 A 
ATOM     35  C   UNL A   1      40.596  29.592  29.856  1.00  0.00     0.074 A 
ATOM     36  C   UNL A   1      40.198  27.406  28.776  1.00  0.00     0.049 A 
ATOM     37  N   UNL A   1      41.853  29.484  30.199  1.00  0.00    -0.248 NA
ATOM     38  C   UNL A   1      39.959  30.849  30.285  1.00  0.00     0.031 C 
ATOM     39  C   UNL A   1      39.432  26.351  28.114  1.00  0.00     0.029 A 
ATOM     40  N   UNL A   1      41.441  26.854  28.961  1.00  0.00    -0.354 N 
ATOM     41  C   UNL A   1      42.160  30.656  30.881  1.00  0.00     0.074 A 
ATOM     42  C   UNL A   1      40.965  31.471  30.884  1.00  0.00     0.031 C 
ATOM     43  C   UNL A   1      40.225  25.278  27.944  1.00  0.00     0.029 A 
ATOM     44  C   UNL A   1      41.562  25.585  28.449  1.00  0.00     0.049 A 
ATOM     45  H   UNL A   1      42.176  27.323  29.418  1.00  0.00     0.167 HD
ATOM     46  C   UNL A   1      43.330  31.020  31.457  1.00  0.00     0.031 A 
ATOM     47  C   UNL A   1      42.635  24.773  28.375  1.00  0.00     0.031 A 
ATOM     48  C   UNL A   1      44.525  30.217  31.433  1.00  0.00     0.049 A 
ATOM     49  C   UNL A   1      43.953  25.237  28.935  1.00  0.00     0.074 A 
ATOM     50  C   UNL A   1      45.771  30.512  31.958  1.00  0.00     0.029 A 
ATOM     51  N   UNL A   1      44.621  28.961  30.855  1.00  0.00    -0.354 N 
ATOM     52  N   UNL A   1      44.240  26.366  29.539  1.00  0.00    -0.248 NA
ATOM     53  C   UNL A   1      45.090  24.314  28.809  1.00  0.00     0.031 C 
ATOM     54  C   UNL A   1      46.633  29.451  31.659  1.00  0.00     0.029 A 
ATOM     55  C   UNL A   1      45.909  28.471  31.000  1.00  0.00     0.049 A 
ATOM     56  H   UNL A   1      43.884  28.487  30.407  1.00  0.00     0.167 HD
ATOM     57  C   UNL A   1      45.583  26.277  29.891  1.00  0.00     0.074 A 
ATOM     58  C   UNL A   1      46.048  24.982  29.439  1.00  0.00     0.031 C 
ATOM     59  C   UNL A   1      46.358  27.182  30.539  1.00  0.00     0.031 A 
BRANCH  46  60
ATOM     60  C   UNL A   1      43.384  32.362  32.133  1.00  0.00    -0.014 A 
ATOM     61  C   UNL A   1      43.145  32.490  33.514  1.00  0.00     0.010 A 
ATOM     62  C   UNL A   1      43.720  33.507  31.388  1.00  0.00     0.010 A 
ATOM     63  C   UNL A   1      43.213  33.742  34.131  1.00  0.00     0.020 A 
ATOM     64  C   UNL A   1      43.814  34.757  32.006  1.00  0.00     0.020 A 
ATOM     65  C   UNL A   1      43.548  34.868  33.372  1.00  0.00     0.054 A 
BRANCH  65  66
ATOM     66  S   UNL A   1      43.661  36.476  34.205  1.00  0.00     0.124 S 
ATOM     67  O   UNL A   1      42.280  36.946  34.140  1.00  0.00    -0.237 OA
ATOM     68  O   UNL A   1      44.139  36.113  35.537  1.00  0.00    -0.237 OA
ATOM     69  O   UNL A   1      44.612  37.224  33.388  1.00  0.00    -0.744 OA
ENDBRANCH  65  66
ENDBRANCH  46  60
BRANCH  47  70
ATOM     70  C   UNL A   1      42.508  23.438  27.732  1.00  0.00    -0.014 A 
ATOM     71  C   UNL A   1      42.911  23.244  26.399  1.00  0.00     0.010 A 
ATOM     72  C   UNL A   1      42.000  22.345  28.460  1.00  0.00     0.010 A 
ATOM     73  C   UNL A   1      42.807  21.982  25.806  1.00  0.00     0.020 A 
ATOM     74  C   UNL A   1      41.919  21.078  27.878  1.00  0.00     0.020 A 
ATOM     75  C   UNL A   1      42.318  20.905  26.551  1.00  0.00     0.054 A 
BRANCH  75  76
ATOM     76  S   UNL A   1      42.266  19.262  25.783  1.00  0.00     0.124 S 
ATOM     77  O   UNL A   1      43.137  19.438  24.626  1.00  0.00    -0.237 OA
ATOM     78  O   UNL A   1      42.785  18.402  26.844  1.00  0.00    -0.237 OA
ATOM     79  O   UNL A   1      40.849  19.073  25.478  1.00  0.00    -0.744 OA
ENDBRANCH  75  76
ENDBRANCH  47  70
BRANCH  59  80
ATOM     80  C   UNL A   1      47.780  26.789  30.838  1.00  0.00    -0.014 A 
ATOM     81  C   UNL A   1      48.834  27.137  29.976  1.00  0.00     0.010 A 
ATOM     82  C   UNL A   1      48.068  26.095  32.029  1.00  0.00     0.010 A 
ATOM     83  C   UNL A   1      50.146  26.763  30.280  1.00  0.00     0.020 A 
ATOM     84  C   UNL A   1      49.381  25.743  32.349  1.00  0.00     0.020 A 
ATOM     85  C   UNL A   1      50.410  26.066  31.463  1.00  0.00     0.054 A 
BRANCH  85  86
ATOM     86  S   UNL A   1      52.124  25.612  31.846  1.00  0.00     0.124 S 
ATOM     87  O   UNL A   1      52.412  26.460  33.000  1.00  0.00    -0.237 OA
ATOM     88  O   UNL A   1      52.024  24.182  32.126  1.00  0.00    -0.237 OA
ATOM     89  O   UNL A   1      52.855  25.953  30.626  1.00  0.00    -0.744 OA
ENDBRANCH  85  86
ENDBRANCH  59  80
ENDBRANCH  33  34
ENDBRANCH  26  28
ENDBRANCH  25  26
ENDBRANCH  24  25
ENDBRANCH   1  24
TORSDOF 18
ENDMDL
MODEL 2
REMARK VINA RESULT:     -10.6      2.543      9.562
REMARK SMILES Cc1c(C)c2c(c(C)c1O)CC[C@@](C)(C(=O)OCCOCCOC(=O)c1ccc(-c3c4nc(c(-c5ccc(S(=O)(=O)[O-])cc5)c5ccc([nH]5)c(-c5ccc(S(=O)(=O)[O-])cc5)c5nc(c(-c6ccc(S(=O)(=O)[O-])cc6)c6ccc3[nH]6)C=C5)C=C4)cc1)O2
REMARK SMILES IDX 21 1 20 2 19 3 18 4 17 5 15 6 16 7 13 8 1 9 2 10 3 11 9 12
REMARK SMILES IDX 4 13 5 14 7 15 6 16 86 17 8 18 11 19 12 20 14 21 10 22 22 24
REMARK SMILES IDX 23 25 24 26 25 27 26 28 27 29 85 30 28 31 84 32 29 33 30 34
REMARK SMILES IDX 31 35 78 36 32 37 83 38 77 39 79 40 33 41 82 42 76 43 75 44
REMARK SMILES IDX 34 46 64 47 45 48 63 49 46 50 49 51 62 52 80 53 47 54 48 55
REMARK SMILES IDX 61 57 81 58 50 59 35 60 36 61 44 62 37 63 43 64 38 65 39 66
REMARK SMILES IDX 40 67 41 68 42 69 65 70 66 71 74 72 67 73 73 74 68 75 69 76
REMARK SMILES IDX 70 77 71 78 72 79 51 80 52 81 60 82 53 83 59 84 54 85 55 86
REMARK SMILES IDX 56 87 57 88 58 89
REMARK H PARENT 10 23 79 45 49 56
REMARK Flexibility Score: inf
ROOT
ATOM      1  C   UNL A   1      36.033  22.352  24.917  1.00  0.00     0.202 C 
ENDROOT
BRANCH   1   2
ATOM      2  O   UNL A   1      35.600  21.369  25.856  1.00  0.00    -0.374 OA
BRANCH   2   3
ATOM      3  C   UNL A   1      34.762  21.814  26.923  1.00  0.00     0.202 C 
BRANCH   3   4
ATOM      4  C   UNL A   1      33.253  21.692  26.696  1.00  0.00     0.261 C 
BRANCH   4   5
ATOM      5  O   UNL A   1      32.597  22.972  26.788  1.00  0.00    -0.460 OA
BRANCH   5   6
ATOM      6  C   UNL A   1      31.706  23.242  25.792  1.00  0.00     0.350 C 
ATOM      7  O   UNL A   1      30.626  22.671  25.670  1.00  0.00    -0.247 OA
BRANCH   6   8
ATOM      8  C   UNL A   1      32.223  24.315  24.818  1.00  0.00     0.203 C 
ATOM      9  C   UNL A   1      28.874  28.948  22.498  1.00  0.00     0.049 C 
ATOM     10  C   UNL A   1      30.120  28.238  22.961  1.00  0.00    -0.002 A 
ATOM     11  C   UNL A   1      30.045  27.052  23.721  1.00  0.00    -0.002 A 
ATOM     12  C   UNL A   1      31.395  28.749  22.642  1.00  0.00     0.122 A 
ATOM     13  C   UNL A   1      28.714  26.474  24.143  1.00  0.00     0.049 C 
ATOM     14  C   UNL A   1      31.235  26.387  24.077  1.00  0.00     0.127 A 
ATOM     15  C   UNL A   1      32.583  28.123  23.066  1.00  0.00    -0.002 A 
ATOM     16  C   UNL A   1      32.498  26.941  23.827  1.00  0.00     0.001 A 
ATOM     17  O   UNL A   1      31.072  25.168  24.674  1.00  0.00    -0.475 OA
ATOM     18  C   UNL A   1      33.929  28.709  22.717  1.00  0.00     0.049 C 
ATOM     19  C   UNL A   1      33.738  26.257  24.353  1.00  0.00     0.044 C 
ATOM     20  C   UNL A   1      33.399  25.143  25.340  1.00  0.00     0.065 C 
ATOM     21  C   UNL A   1      32.530  23.593  23.502  1.00  0.00     0.069 C 
BRANCH  12  22
ATOM     22  O   UNL A   1      31.531  29.896  21.900  1.00  0.00    -0.507 OA
ATOM     23  H   UNL A   1      32.261  29.995  21.320  1.00  0.00     0.293 HD
ENDBRANCH  12  22
ENDBRANCH   6   8
ENDBRANCH   5   6
ENDBRANCH   4   5
ENDBRANCH   3   4
ENDBRANCH   2   3
ENDBRANCH   1   2
BRANCH   1  24
ATOM     24  C   UNL A   1      37.484  22.829  25.052  1.00  0.00     0.261 C 
BRANCH  24  25
ATOM     25  O   UNL A   1      38.134  22.285  26.216  1.00  0.00    -0.460 OA
BRANCH  25  26
ATOM     26  C   UNL A   1      39.428  22.659  26.362  1.00  0.00     0.338 C 
ATOM     27  O   UNL A   1      40.418  22.051  25.977  1.00  0.00    -0.246 OA
BRANCH  26  28
ATOM     28  C   UNL A   1      39.512  24.025  26.915  1.00  0.00     0.060 A 
ATOM     29  C   UNL A   1      40.202  24.985  26.161  1.00  0.00     0.016 A 
ATOM     30  C   UNL A   1      38.998  24.349  28.173  1.00  0.00     0.016 A 
ATOM     31  C   UNL A   1      40.432  26.254  26.687  1.00  0.00     0.010 A 
ATOM     32  C   UNL A   1      39.240  25.620  28.703  1.00  0.00     0.010 A 
ATOM     33  C   UNL A   1      39.991  26.565  27.979  1.00  0.00    -0.014 A 
BRANCH  33  34
ATOM     34  C   UNL A   1      40.451  27.813  28.633  1.00  0.00     0.031 A 
ATOM     35  C   UNL A   1      41.868  27.891  29.132  1.00  0.00     0.074 A 
ATOM     36  C   UNL A   1      39.633  28.873  28.753  1.00  0.00     0.049 A 
ATOM     37  N   UNL A   1      42.462  28.852  29.791  1.00  0.00    -0.248 NA
ATOM     38  C   UNL A   1      42.732  26.733  28.845  1.00  0.00     0.031 C 
ATOM     39  C   UNL A   1      38.264  28.948  28.242  1.00  0.00     0.029 A 
ATOM     40  N   UNL A   1      39.839  30.093  29.345  1.00  0.00    -0.354 N 
ATOM     41  C   UNL A   1      43.766  28.417  29.999  1.00  0.00     0.074 A 
ATOM     42  C   UNL A   1      43.871  27.096  29.417  1.00  0.00     0.031 C 
ATOM     43  C   UNL A   1      37.751  30.153  28.548  1.00  0.00     0.029 A 
ATOM     44  C   UNL A   1      38.739  30.916  29.309  1.00  0.00     0.049 A 
ATOM     45  H   UNL A   1      40.694  30.354  29.758  1.00  0.00     0.167 HD
ATOM     46  C   UNL A   1      44.785  29.059  30.616  1.00  0.00     0.031 A 
ATOM     47  C   UNL A   1      38.544  32.135  29.848  1.00  0.00     0.031 A 
ATOM     48  C   UNL A   1      44.672  30.363  31.215  1.00  0.00     0.049 A 
ATOM     49  C   UNL A   1      39.661  32.792  30.614  1.00  0.00     0.074 A 
ATOM     50  C   UNL A   1      45.638  31.086  31.894  1.00  0.00     0.029 A 
ATOM     51  N   UNL A   1      43.524  31.141  31.205  1.00  0.00    -0.354 N 
ATOM     52  N   UNL A   1      40.876  32.350  30.841  1.00  0.00    -0.248 NA
ATOM     53  C   UNL A   1      39.383  34.114  31.192  1.00  0.00     0.031 C 
ATOM     54  C   UNL A   1      45.061  32.283  32.331  1.00  0.00     0.029 A 
ATOM     55  C   UNL A   1      43.753  32.331  31.875  1.00  0.00     0.049 A 
ATOM     56  H   UNL A   1      42.672  30.885  30.784  1.00  0.00     0.167 HD
ATOM     57  C   UNL A   1      41.515  33.353  31.562  1.00  0.00     0.074 A 
ATOM     58  C   UNL A   1      40.556  34.425  31.728  1.00  0.00     0.031 C 
ATOM     59  C   UNL A   1      42.786  33.386  32.036  1.00  0.00     0.031 A 
BRANCH  46  60
ATOM     60  C   UNL A   1      46.106  28.344  30.704  1.00  0.00    -0.014 A 
ATOM     61  C   UNL A   1      46.399  27.490  31.782  1.00  0.00     0.010 A 
ATOM     62  C   UNL A   1      47.051  28.495  29.673  1.00  0.00     0.010 A 
ATOM     63  C   UNL A   1      47.625  26.821  31.842  1.00  0.00     0.020 A 
ATOM     64  C   UNL A   1      48.268  27.809  29.717  1.00  0.00     0.020 A 
ATOM     65  C   UNL A   1      48.551  26.986  30.807  1.00  0.00     0.054 A 
BRANCH  65  66
ATOM     66  S   UNL A   1      50.122  26.080  30.894  1.00  0.00     0.124 S 
ATOM     67  O   UNL A   1      49.966  25.327  32.137  1.00  0.00    -0.237 OA
ATOM     68  O   UNL A   1      50.100  25.283  29.671  1.00  0.00    -0.237 OA
ATOM     69  O   UNL A   1      51.130  27.135  30.929  1.00  0.00    -0.744 OA
ENDBRANCH  65  66
ENDBRANCH  46  60
BRANCH  47  70
ATOM     70  C   UNL A   1      37.229  32.811  29.689  1.00  0.00    -0.014 A 
ATOM     71  C   UNL A   1      36.291  32.808  30.737  1.00  0.00     0.010 A 
ATOM     72  C   UNL A   1      36.915  33.482  28.492  1.00  0.00     0.010 A 
ATOM     73  C   UNL A   1      35.064  33.461  30.589  1.00  0.00     0.020 A 
ATOM     74  C   UNL A   1      35.700  34.157  28.351  1.00  0.00     0.020 A 
ATOM     75  C   UNL A   1      34.779  34.138  29.400  1.00  0.00     0.054 A 
BRANCH  75  76
ATOM     76  S   UNL A   1      33.212  35.042  29.262  1.00  0.00     0.124 S 
ATOM     77  O   UNL A   1      33.659  36.360  28.820  1.00  0.00    -0.237 OA
ATOM     78  O   UNL A   1      32.480  34.256  28.273  1.00  0.00    -0.237 OA
ATOM     79  O   UNL A   1      32.666  34.987  30.617  1.00  0.00    -0.744 OA
ENDBRANCH  75  76
ENDBRANCH  47  70
BRANCH  59  80
ATOM     80  C   UNL A   1      43.229  34.639  32.743  1.00  0.00    -0.014 A 
ATOM     81  C   UNL A   1      43.797  35.717  32.040  1.00  0.00     0.010 A 
ATOM     82  C   UNL A   1      43.030  34.755  34.132  1.00  0.00     0.010 A 
ATOM     83  C   UNL A   1      44.194  36.871  32.721  1.00  0.00     0.020 A 
ATOM     84  C   UNL A   1      43.402  35.918  34.811  1.00  0.00     0.020 A 
ATOM     85  C   UNL A   1      43.997  36.962  34.102  1.00  0.00     0.054 A 
BRANCH  85  86
ATOM     86  S   UNL A   1      44.500  38.480  34.958  1.00  0.00     0.124 S 
ATOM     87  O   UNL A   1      43.539  39.451  34.444  1.00  0.00    -0.237 OA
ATOM     88  O   UNL A   1      44.341  38.123  36.366  1.00  0.00    -0.237 OA
ATOM     89  O   UNL A   1      45.882  38.682  34.525  1.00  0.00    -0.744 OA
ENDBRANCH  85  86
ENDBRANCH  59  80
ENDBRANCH  33  34
ENDBRANCH  26  28
ENDBRANCH  25  26
ENDBRANCH  24  25
ENDBRANCH   1  24
TORSDOF 18
ENDMDL
MODEL 3
REMARK VINA RESULT:     -10.3      3.233      4.014
REMARK SMILES Cc1c(C)c2c(c(C)c1O)CC[C@@](C)(C(=O)OCCOCCOC(=O)c1ccc(-c3c4nc(c(-c5ccc(S(=O)(=O)[O-])cc5)c5ccc([nH]5)c(-c5ccc(S(=O)(=O)[O-])cc5)c5nc(c(-c6ccc(S(=O)(=O)[O-])cc6)c6ccc3[nH]6)C=C5)C=C4)cc1)O2
REMARK SMILES IDX 21 1 20 2 19 3 18 4 17 5 15 6 16 7 13 8 1 9 2 10 3 11 9 12
REMARK SMILES IDX 4 13 5 14 7 15 6 16 86 17 8 18 11 19 12 20 14 21 10 22 22 24
REMARK SMILES IDX 23 25 24 26 25 27 26 28 27 29 85 30 28 31 84 32 29 33 30 34
REMARK SMILES IDX 31 35 78 36 32 37 83 38 77 39 79 40 33 41 82 42 76 43 75 44
REMARK SMILES IDX 34 46 64 47 45 48 63 49 46 50 49 51 62 52 80 53 47 54 48 55
REMARK SMILES IDX 61 57 81 58 50 59 35 60 36 61 44 62 37 63 43 64 38 65 39 66
REMARK SMILES IDX 40 67 41 68 42 69 65 70 66 71 74 72 67 73 73 74 68 75 69 76
REMARK SMILES IDX 70 77 71 78 72 79 51 80 52 81 60 82 53 83 59 84 54 85 55 86
REMARK SMILES IDX 56 87 57 88 58 89
REMARK H PARENT 10 23 79 45 49 56
REMARK Flexibility Score: inf
ROOT
ATOM      1  C   UNL A   1      34.941  29.321  27.127  1.00  0.00     0.202 C 
ENDROOT
BRANCH   1   2
ATOM      2  O   UNL A   1      33.623  28.965  26.711  1.00  0.00    -0.374 OA
BRANCH   2   3
ATOM      3  C   UNL A   1      33.383  27.587  26.425  1.00  0.00     0.202 C 
BRANCH   3   4
ATOM      4  C   UNL A   1      33.569  27.153  24.969  1.00  0.00     0.261 C 
BRANCH   4   5
ATOM      5  O   UNL A   1      33.221  25.768  24.778  1.00  0.00    -0.460 OA
BRANCH   5   6
ATOM      6  C   UNL A   1      33.349  25.306  23.502  1.00  0.00     0.350 C 
ATOM      7  O   UNL A   1      33.499  26.035  22.525  1.00  0.00    -0.247 OA
BRANCH   6   8
ATOM      8  C   UNL A   1      33.248  23.773  23.419  1.00  0.00     0.203 C 
ATOM      9  C   UNL A   1      37.690  19.805  25.028  1.00  0.00     0.049 C 
ATOM     10  C   UNL A   1      36.280  20.283  24.790  1.00  0.00    -0.002 A 
ATOM     11  C   UNL A   1      35.996  21.650  24.594  1.00  0.00    -0.002 A 
ATOM     12  C   UNL A   1      35.210  19.364  24.757  1.00  0.00     0.122 A 
ATOM     13  C   UNL A   1      37.084  22.696  24.665  1.00  0.00     0.049 C 
ATOM     14  C   UNL A   1      34.672  22.044  24.311  1.00  0.00     0.127 A 
ATOM     15  C   UNL A   1      33.878  19.770  24.551  1.00  0.00    -0.002 A 
ATOM     16  C   UNL A   1      33.603  21.138  24.360  1.00  0.00     0.001 A 
ATOM     17  O   UNL A   1      34.507  23.359  23.981  1.00  0.00    -0.475 OA
ATOM     18  C   UNL A   1      32.758  18.760  24.539  1.00  0.00     0.049 C 
ATOM     19  C   UNL A   1      32.188  21.636  24.187  1.00  0.00     0.044 C 
ATOM     20  C   UNL A   1      32.109  23.160  24.236  1.00  0.00     0.065 C 
ATOM     21  C   UNL A   1      33.178  23.424  21.928  1.00  0.00     0.069 C 
BRANCH  12  22
ATOM     22  O   UNL A   1      35.427  18.021  24.934  1.00  0.00    -0.507 OA
ATOM     23  H   UNL A   1      34.728  17.411  24.797  1.00  0.00     0.293 HD
ENDBRANCH  12  22
ENDBRANCH   6   8
ENDBRANCH   5   6
ENDBRANCH   4   5
ENDBRANCH   3   4
ENDBRANCH   2   3
ENDBRANCH   1   2
BRANCH   1  24
ATOM     24  C   UNL A   1      35.043  30.397  28.215  1.00  0.00     0.261 C 
BRANCH  24  25
ATOM     25  O   UNL A   1      36.405  30.659  28.600  1.00  0.00    -0.460 OA
BRANCH  25  26
ATOM     26  C   UNL A   1      36.919  29.771  29.485  1.00  0.00     0.338 C 
ATOM     27  O   UNL A   1      36.361  29.308  30.471  1.00  0.00    -0.246 OA
BRANCH  26  28
ATOM     28  C   UNL A   1      38.227  29.273  29.017  1.00  0.00     0.060 A 
ATOM     29  C   UNL A   1      39.075  28.693  29.971  1.00  0.00     0.016 A 
ATOM     30  C   UNL A   1      38.651  29.433  27.696  1.00  0.00     0.016 A 
ATOM     31  C   UNL A   1      40.373  28.327  29.622  1.00  0.00     0.010 A 
ATOM     32  C   UNL A   1      39.959  29.074  27.350  1.00  0.00     0.010 A 
ATOM     33  C   UNL A   1      40.837  28.556  28.320  1.00  0.00    -0.014 A 
BRANCH  33  34
ATOM     34  C   UNL A   1      42.279  28.404  28.016  1.00  0.00     0.031 A 
ATOM     35  C   UNL A   1      43.206  29.554  28.303  1.00  0.00     0.074 A 
ATOM     36  C   UNL A   1      42.765  27.252  27.523  1.00  0.00     0.049 A 
ATOM     37  N   UNL A   1      44.485  29.668  28.056  1.00  0.00    -0.248 NA
ATOM     38  C   UNL A   1      42.612  30.730  28.961  1.00  0.00     0.031 C 
ATOM     39  C   UNL A   1      41.983  26.041  27.275  1.00  0.00     0.029 A 
ATOM     40  N   UNL A   1      44.040  26.913  27.144  1.00  0.00    -0.354 N 
ATOM     41  C   UNL A   1      44.850  30.925  28.525  1.00  0.00     0.074 A 
ATOM     42  C   UNL A   1      43.653  31.546  29.050  1.00  0.00     0.031 C 
ATOM     43  C   UNL A   1      42.796  25.092  26.779  1.00  0.00     0.029 A 
ATOM     44  C   UNL A   1      44.144  25.640  26.638  1.00  0.00     0.049 A 
ATOM     45  H   UNL A   1      44.806  27.525  27.226  1.00  0.00     0.167 HD
ATOM     46  C   UNL A   1      46.071  31.510  28.522  1.00  0.00     0.031 A 
ATOM     47  C   UNL A   1      45.201  24.999  26.103  1.00  0.00     0.031 A 
ATOM     48  C   UNL A   1      47.256  30.900  27.978  1.00  0.00     0.049 A 
ATOM     49  C   UNL A   1      46.529  25.703  26.020  1.00  0.00     0.074 A 
ATOM     50  C   UNL A   1      48.534  31.424  27.896  1.00  0.00     0.029 A 
ATOM     51  N   UNL A   1      47.308  29.630  27.424  1.00  0.00    -0.354 N 
ATOM     52  N   UNL A   1      46.849  26.909  26.428  1.00  0.00    -0.248 NA
ATOM     53  C   UNL A   1      47.640  24.958  25.410  1.00  0.00     0.031 C 
ATOM     54  C   UNL A   1      49.351  30.486  27.254  1.00  0.00     0.029 A 
ATOM     55  C   UNL A   1      48.593  29.357  26.988  1.00  0.00     0.049 A 
ATOM     56  H   UNL A   1      46.543  29.013  27.351  1.00  0.00     0.167 HD
ATOM     57  C   UNL A   1      48.204  27.054  26.151  1.00  0.00     0.074 A 
ATOM     58  C   UNL A   1      48.644  25.813  25.548  1.00  0.00     0.031 C 
ATOM     59  C   UNL A   1      49.014  28.118  26.385  1.00  0.00     0.031 A 
BRANCH  46  60
ATOM     60  C   UNL A   1      46.180  32.895  29.097  1.00  0.00    -0.014 A 
ATOM     61  C   UNL A   1      45.955  34.032  28.300  1.00  0.00     0.010 A 
ATOM     62  C   UNL A   1      46.469  33.064  30.464  1.00  0.00     0.010 A 
ATOM     63  C   UNL A   1      46.046  35.313  28.853  1.00  0.00     0.020 A 
ATOM     64  C   UNL A   1      46.536  34.342  31.025  1.00  0.00     0.020 A 
ATOM     65  C   UNL A   1      46.335  35.458  30.213  1.00  0.00     0.054 A 
BRANCH  65  66
ATOM     66  S   UNL A   1      46.414  37.132  30.911  1.00  0.00     0.124 S 
ATOM     67  O   UNL A   1      45.248  37.145  31.791  1.00  0.00    -0.237 OA
ATOM     68  O   UNL A   1      47.710  37.136  31.585  1.00  0.00    -0.237 OA
ATOM     69  O   UNL A   1      46.321  38.000  29.742  1.00  0.00    -0.744 OA
ENDBRANCH  65  66
ENDBRANCH  46  60
BRANCH  47  70
ATOM     70  C   UNL A   1      45.041  23.611  25.591  1.00  0.00    -0.014 A 
ATOM     71  C   UNL A   1      44.709  23.380  24.244  1.00  0.00     0.010 A 
ATOM     72  C   UNL A   1      45.242  22.511  26.446  1.00  0.00     0.010 A 
ATOM     73  C   UNL A   1      44.578  22.073  23.763  1.00  0.00     0.020 A 
ATOM     74  C   UNL A   1      45.137  21.205  25.962  1.00  0.00     0.020 A 
ATOM     75  C   UNL A   1      44.800  20.994  24.624  1.00  0.00     0.054 A 
BRANCH  75  76
ATOM     76  S   UNL A   1      44.701  19.309  23.957  1.00  0.00     0.124 S 
ATOM     77  O   UNL A   1      46.002  18.759  24.325  1.00  0.00    -0.237 OA
ATOM     78  O   UNL A   1      43.553  18.756  24.670  1.00  0.00    -0.237 OA
ATOM     79  O   UNL A   1      44.491  19.521  22.526  1.00  0.00    -0.744 OA
ENDBRANCH  75  76
ENDBRANCH  47  70
BRANCH  59  80
ATOM     80  C   UNL A   1      50.469  27.972  26.027  1.00  0.00    -0.014 A 
ATOM     81  C   UNL A   1      51.409  27.490  26.954  1.00  0.00     0.010 A 
ATOM     82  C   UNL A   1      50.892  28.284  24.721  1.00  0.00     0.010 A 
ATOM     83  C   UNL A   1      52.752  27.359  26.594  1.00  0.00     0.020 A 
ATOM     84  C   UNL A   1      52.230  28.130  24.349  1.00  0.00     0.020 A 
ATOM     85  C   UNL A   1      53.155  27.684  25.294  1.00  0.00     0.054 A 
BRANCH  85  86
ATOM     86  S   UNL A   1      54.901  27.483  24.844  1.00  0.00     0.124 S 
ATOM     87  O   UNL A   1      55.210  28.779  24.246  1.00  0.00    -0.237 OA
ATOM     88  O   UNL A   1      55.536  27.219  26.133  1.00  0.00    -0.237 OA
ATOM     89  O   UNL A   1      54.893  26.354  23.916  1.00  0.00    -0.744 OA
ENDBRANCH  85  86
ENDBRANCH  59  80
ENDBRANCH  33  34
ENDBRANCH  26  28
ENDBRANCH  25  26
ENDBRANCH  24  25
ENDBRANCH   1  24
TORSDOF 18
ENDMDL
