MODEL 1
REMARK VINA RESULT:      -9.8      0.000      0.000
REMARK SMILES C[NH+](C)[C@@H]1CC[N@@H+](Cc2ccc(C(=O)OCCOCCOC(=O)c3ccc(-c4c5nc(c(-c6ccc(S(=O)(=O)[O-])cc6)c6ccc([nH]6)c(-c6ccc(S(=O)(=O)[O-])cc6)c6nc(c(-c7ccc(S(=O)(=O)[O-])cc7)c7ccc4[nH]7)C=C6)C=C5)cc3)cn2)C1
REMARK SMILES IDX 18 1 17 2 16 3 15 4 13 5 14 6 12 7 9 8 10 9 85 10 11 11
REMARK SMILES IDX 84 12 8 13 7 14 4 15 5 16 86 17 6 18 2 20 1 21 3 22 19 24
REMARK SMILES IDX 20 25 21 26 22 27 23 28 24 29 25 30 83 31 26 32 82 33 27 34
REMARK SMILES IDX 28 35 29 36 76 37 30 38 81 39 75 40 77 41 31 42 80 43 74 44
REMARK SMILES IDX 73 45 32 47 62 48 43 49 61 50 44 51 47 52 60 53 78 54 45 55
REMARK SMILES IDX 46 56 59 58 79 59 48 60 33 61 34 62 42 63 35 64 41 65 36 66
REMARK SMILES IDX 37 67 38 68 39 69 40 70 63 71 64 72 72 73 65 74 71 75 66 76
REMARK SMILES IDX 67 77 68 78 69 79 70 80 49 81 50 82 58 83 51 84 57 85 52 86
REMARK SMILES IDX 53 87 54 88 55 89 56 90
REMARK H PARENT 7 19 2 23 77 46 47 57
REMARK Flexibility Score: inf
ROOT
ATOM      1  O   UNL A   1      31.861  27.988  26.364  1.00  0.00    -0.374 OA
ENDROOT
BRANCH   1   2
ATOM      2  C   UNL A   1      31.593  27.228  25.184  1.00  0.00     0.202 C 
BRANCH   2   3
ATOM      3  C   UNL A   1      32.537  27.409  23.994  1.00  0.00     0.261 C 
BRANCH   3   4
ATOM      4  O   UNL A   1      33.618  26.471  24.058  1.00  0.00    -0.460 OA
BRANCH   4   5
ATOM      5  C   UNL A   1      33.626  25.543  23.075  1.00  0.00     0.339 C 
ATOM      6  O   UNL A   1      33.864  25.725  21.890  1.00  0.00    -0.246 OA
BRANCH   5   7
ATOM      7  C   UNL A   1      33.484  24.201  23.662  1.00  0.00     0.078 A 
ATOM      8  C   UNL A   1      32.996  21.662  24.569  1.00  0.00     0.095 A 
ATOM      9  C   UNL A   1      33.620  22.573  25.422  1.00  0.00     0.031 A 
ATOM     10  N   UNL A   1      32.743  21.942  23.263  1.00  0.00    -0.254 NA
ATOM     11  C   UNL A   1      33.856  23.867  24.964  1.00  0.00     0.019 A 
ATOM     12  C   UNL A   1      32.987  23.200  22.841  1.00  0.00     0.127 A 
BRANCH   8  13
ATOM     13  C   UNL A   1      32.354  20.404  25.119  1.00  0.00     0.319 C 
BRANCH  13  14
ATOM     14  N   UNL A   1      33.276  19.316  25.513  1.00  0.00    -0.325 N 
ATOM     15  C   UNL A   1      32.958  17.093  24.533  1.00  0.00     0.245 C 
ATOM     16  C   UNL A   1      33.915  17.914  23.663  1.00  0.00     0.132 C 
ATOM     17  C   UNL A   1      32.638  18.013  25.741  1.00  0.00     0.328 C 
ATOM     18  C   UNL A   1      34.361  19.066  24.551  1.00  0.00     0.269 C 
ATOM     19  H   UNL A   1      33.646  19.685  26.390  1.00  0.00     0.348 HD
BRANCH  15  20
ATOM     20  N   UNL A   1      33.455  15.735  24.821  1.00  0.00    -0.333 N 
ATOM     21  C   UNL A   1      34.848  15.683  25.260  1.00  0.00     0.332 C 
ATOM     22  C   UNL A   1      32.588  15.028  25.764  1.00  0.00     0.332 C 
ATOM     23  H   UNL A   1      33.426  15.252  23.923  1.00  0.00     0.348 HD
ENDBRANCH  15  20
ENDBRANCH  13  14
ENDBRANCH   8  13
ENDBRANCH   5   7
ENDBRANCH   4   5
ENDBRANCH   3   4
ENDBRANCH   2   3
ENDBRANCH   1   2
BRANCH   1  24
ATOM     24  C   UNL A   1      31.752  29.408  26.292  1.00  0.00     0.202 C 
BRANCH  24  25
ATOM     25  C   UNL A   1      33.005  30.257  26.544  1.00  0.00     0.261 C 
BRANCH  25  26
ATOM     26  O   UNL A   1      33.915  29.661  27.480  1.00  0.00    -0.460 OA
BRANCH  26  27
ATOM     27  C   UNL A   1      34.705  30.553  28.128  1.00  0.00     0.338 C 
ATOM     28  O   UNL A   1      34.358  31.595  28.658  1.00  0.00    -0.246 OA
BRANCH  27  29
ATOM     29  C   UNL A   1      36.064  30.001  28.282  1.00  0.00     0.060 A 
ATOM     30  C   UNL A   1      36.428  29.528  29.549  1.00  0.00     0.016 A 
ATOM     31  C   UNL A   1      36.985  30.018  27.235  1.00  0.00     0.016 A 
ATOM     32  C   UNL A   1      37.736  29.113  29.788  1.00  0.00     0.010 A 
ATOM     33  C   UNL A   1      38.300  29.607  27.479  1.00  0.00     0.010 A 
ATOM     34  C   UNL A   1      38.689  29.188  28.765  1.00  0.00    -0.014 A 
BRANCH  34  35
ATOM     35  C   UNL A   1      40.118  28.948  29.081  1.00  0.00     0.031 A 
ATOM     36  C   UNL A   1      40.731  27.614  28.749  1.00  0.00     0.074 A 
ATOM     37  C   UNL A   1      40.869  29.919  29.629  1.00  0.00     0.049 A 
ATOM     38  N   UNL A   1      41.949  27.188  28.961  1.00  0.00    -0.248 NA
ATOM     39  C   UNL A   1      39.853  26.632  28.093  1.00  0.00     0.031 C 
ATOM     40  C   UNL A   1      40.399  31.263  29.963  1.00  0.00     0.029 A 
ATOM     41  N   UNL A   1      42.188  29.920  30.007  1.00  0.00    -0.354 N 
ATOM     42  C   UNL A   1      41.984  25.887  28.470  1.00  0.00     0.074 A 
ATOM     43  C   UNL A   1      40.654  25.582  27.988  1.00  0.00     0.031 C 
ATOM     44  C   UNL A   1      41.413  31.956  30.506  1.00  0.00     0.029 A 
ATOM     45  C   UNL A   1      42.590  31.096  30.592  1.00  0.00     0.049 A 
ATOM     46  H   UNL A   1      42.788  29.151  29.872  1.00  0.00     0.167 HD
ATOM     47  C   UNL A   1      43.031  25.029  28.415  1.00  0.00     0.031 A 
ATOM     48  C   UNL A   1      43.767  31.432  31.157  1.00  0.00     0.031 A 
ATOM     49  C   UNL A   1      44.346  25.329  28.919  1.00  0.00     0.049 A 
ATOM     50  C   UNL A   1      44.897  30.438  31.155  1.00  0.00     0.074 A 
ATOM     51  C   UNL A   1      45.476  24.530  28.908  1.00  0.00     0.029 A 
ATOM     52  N   UNL A   1      44.707  26.521  29.533  1.00  0.00    -0.354 N 
ATOM     53  N   UNL A   1      44.922  29.220  30.668  1.00  0.00    -0.248 NA
ATOM     54  C   UNL A   1      46.162  30.869  31.767  1.00  0.00     0.031 C 
ATOM     55  C   UNL A   1      46.501  25.213  29.571  1.00  0.00     0.029 A 
ATOM     56  C   UNL A   1      46.033  26.467  29.930  1.00  0.00     0.049 A 
ATOM     57  H   UNL A   1      44.107  27.290  29.666  1.00  0.00     0.167 HD
ATOM     58  C   UNL A   1      46.211  28.746  30.893  1.00  0.00     0.074 A 
ATOM     59  C   UNL A   1      46.939  29.817  31.544  1.00  0.00     0.031 C 
ATOM     60  C   UNL A   1      46.743  27.536  30.588  1.00  0.00     0.031 A 
BRANCH  47  61
ATOM     61  C   UNL A   1      42.778  23.666  27.821  1.00  0.00    -0.014 A 
ATOM     62  C   UNL A   1      42.154  22.648  28.565  1.00  0.00     0.010 A 
ATOM     63  C   UNL A   1      43.155  23.404  26.491  1.00  0.00     0.010 A 
ATOM     64  C   UNL A   1      41.959  21.381  28.009  1.00  0.00     0.020 A 
ATOM     65  C   UNL A   1      42.931  22.147  25.919  1.00  0.00     0.020 A 
ATOM     66  C   UNL A   1      42.353  21.137  26.690  1.00  0.00     0.054 A 
BRANCH  66  67
ATOM     67  S   UNL A   1      42.086  19.484  25.994  1.00  0.00     0.124 S 
ATOM     68  O   UNL A   1      42.593  18.623  27.060  1.00  0.00    -0.237 OA
ATOM     69  O   UNL A   1      40.639  19.450  25.795  1.00  0.00    -0.237 OA
ATOM     70  O   UNL A   1      42.882  19.490  24.768  1.00  0.00    -0.744 OA
ENDBRANCH  66  67
ENDBRANCH  47  61
BRANCH  48  71
ATOM     71  C   UNL A   1      43.918  32.770  31.795  1.00  0.00    -0.014 A 
ATOM     72  C   UNL A   1      43.634  32.960  33.157  1.00  0.00     0.010 A 
ATOM     73  C   UNL A   1      44.380  33.861  31.033  1.00  0.00     0.010 A 
ATOM     74  C   UNL A   1      43.803  34.217  33.746  1.00  0.00     0.020 A 
ATOM     75  C   UNL A   1      44.580  35.110  31.624  1.00  0.00     0.020 A 
ATOM     76  C   UNL A   1      44.283  35.282  32.977  1.00  0.00     0.054 A 
BRANCH  76  77
ATOM     77  S   UNL A   1      44.565  36.884  33.779  1.00  0.00     0.124 S 
ATOM     78  O   UNL A   1      44.513  36.530  35.194  1.00  0.00    -0.237 OA
ATOM     79  O   UNL A   1      45.879  37.263  33.268  1.00  0.00    -0.237 OA
ATOM     80  O   UNL A   1      43.457  37.707  33.299  1.00  0.00    -0.744 OA
ENDBRANCH  76  77
ENDBRANCH  48  71
BRANCH  60  81
ATOM     81  C   UNL A   1      48.196  27.311  30.927  1.00  0.00    -0.014 A 
ATOM     82  C   UNL A   1      49.216  27.582  29.997  1.00  0.00     0.010 A 
ATOM     83  C   UNL A   1      48.547  26.862  32.214  1.00  0.00     0.010 A 
ATOM     84  C   UNL A   1      50.557  27.373  30.337  1.00  0.00     0.020 A 
ATOM     85  C   UNL A   1      49.887  26.683  32.567  1.00  0.00     0.020 A 
ATOM     86  C   UNL A   1      50.883  26.925  31.620  1.00  0.00     0.054 A 
BRANCH  86  87
ATOM     87  S   UNL A   1      52.631  26.695  32.046  1.00  0.00     0.124 S 
ATOM     88  O   UNL A   1      52.658  27.105  33.448  1.00  0.00    -0.237 OA
ATOM     89  O   UNL A   1      52.834  25.268  31.805  1.00  0.00    -0.237 OA
ATOM     90  O   UNL A   1      53.334  27.583  31.125  1.00  0.00    -0.744 OA
ENDBRANCH  86  87
ENDBRANCH  60  81
ENDBRANCH  34  35
ENDBRANCH  27  29
ENDBRANCH  26  27
ENDBRANCH  25  26
ENDBRANCH  24  25
ENDBRANCH   1  24
TORSDOF 20
ENDMDL
MODEL 2
REMARK VINA RESULT:      -9.5      3.407      9.351
REMARK SMILES C[NH+](C)[C@@H]1CC[N@@H+](Cc2ccc(C(=O)OCCOCCOC(=O)c3ccc(-c4c5nc(c(-c6ccc(S(=O)(=O)[O-])cc6)c6ccc([nH]6)c(-c6ccc(S(=O)(=O)[O-])cc6)c6nc(c(-c7ccc(S(=O)(=O)[O-])cc7)c7ccc4[nH]7)C=C6)C=C5)cc3)cn2)C1
REMARK SMILES IDX 18 1 17 2 16 3 15 4 13 5 14 6 12 7 9 8 10 9 85 10 11 11
REMARK SMILES IDX 84 12 8 13 7 14 4 15 5 16 86 17 6 18 2 20 1 21 3 22 19 24
REMARK SMILES IDX 20 25 21 26 22 27 23 28 24 29 25 30 83 31 26 32 82 33 27 34
REMARK SMILES IDX 28 35 29 36 76 37 30 38 81 39 75 40 77 41 31 42 80 43 74 44
REMARK SMILES IDX 73 45 32 47 62 48 43 49 61 50 44 51 47 52 60 53 78 54 45 55
REMARK SMILES IDX 46 56 59 58 79 59 48 60 33 61 34 62 42 63 35 64 41 65 36 66
REMARK SMILES IDX 37 67 38 68 39 69 40 70 63 71 64 72 72 73 65 74 71 75 66 76
REMARK SMILES IDX 67 77 68 78 69 79 70 80 49 81 50 82 58 83 51 84 57 85 52 86
REMARK SMILES IDX 53 87 54 88 55 89 56 90
REMARK H PARENT 7 19 2 23 77 46 47 57
REMARK Flexibility Score: inf
ROOT
ATOM      1  O   UNL A   1      35.236  34.212  28.924  1.00  0.00    -0.374 OA
ENDROOT
BRANCH   1   2
ATOM      2  C   UNL A   1      33.883  33.752  28.948  1.00  0.00     0.202 C 
BRANCH   2   3
ATOM      3  C   UNL A   1      33.271  33.278  27.627  1.00  0.00     0.261 C 
BRANCH   3   4
ATOM      4  O   UNL A   1      33.139  31.852  27.614  1.00  0.00    -0.460 OA
BRANCH   4   5
ATOM      5  C   UNL A   1      32.108  31.382  26.876  1.00  0.00     0.339 C 
ATOM      6  O   UNL A   1      31.172  32.024  26.423  1.00  0.00    -0.246 OA
BRANCH   5   7
ATOM      7  C   UNL A   1      32.358  29.976  26.519  1.00  0.00     0.078 A 
ATOM      8  C   UNL A   1      33.105  27.413  25.907  1.00  0.00     0.095 A 
ATOM      9  C   UNL A   1      31.933  27.923  25.348  1.00  0.00     0.031 A 
ATOM     10  N   UNL A   1      33.818  28.087  26.847  1.00  0.00    -0.254 NA
ATOM     11  C   UNL A   1      31.561  29.231  25.650  1.00  0.00     0.019 A 
ATOM     12  C   UNL A   1      33.434  29.350  27.129  1.00  0.00     0.127 A 
BRANCH   8  13
ATOM     13  C   UNL A   1      33.771  26.184  25.318  1.00  0.00     0.319 C 
BRANCH  13  14
ATOM     14  N   UNL A   1      32.963  24.945  25.304  1.00  0.00    -0.325 N 
ATOM     15  C   UNL A   1      34.061  22.833  24.725  1.00  0.00     0.245 C 
ATOM     16  C   UNL A   1      34.129  23.057  26.238  1.00  0.00     0.132 C 
ATOM     17  C   UNL A   1      33.241  24.034  24.186  1.00  0.00     0.328 C 
ATOM     18  C   UNL A   1      33.087  24.129  26.522  1.00  0.00     0.269 C 
ATOM     19  H   UNL A   1      32.022  25.329  25.220  1.00  0.00     0.348 HD
BRANCH  15  20
ATOM     20  N   UNL A   1      33.610  21.478  24.357  1.00  0.00    -0.333 N 
ATOM     21  C   UNL A   1      34.398  20.399  24.950  1.00  0.00     0.332 C 
ATOM     22  C   UNL A   1      32.185  21.287  24.631  1.00  0.00     0.332 C 
ATOM     23  H   UNL A   1      33.763  21.416  23.351  1.00  0.00     0.348 HD
ENDBRANCH  15  20
ENDBRANCH  13  14
ENDBRANCH   8  13
ENDBRANCH   5   7
ENDBRANCH   4   5
ENDBRANCH   3   4
ENDBRANCH   2   3
ENDBRANCH   1   2
BRANCH   1  24
ATOM     24  C   UNL A   1      36.150  33.672  29.877  1.00  0.00     0.202 C 
BRANCH  24  25
ATOM     25  C   UNL A   1      35.716  32.457  30.708  1.00  0.00     0.261 C 
BRANCH  25  26
ATOM     26  O   UNL A   1      35.993  31.203  30.066  1.00  0.00    -0.460 OA
BRANCH  26  27
ATOM     27  C   UNL A   1      36.678  30.325  30.841  1.00  0.00     0.338 C 
ATOM     28  O   UNL A   1      36.220  29.583  31.694  1.00  0.00    -0.246 OA
BRANCH  27  29
ATOM     29  C   UNL A   1      38.077  30.237  30.384  1.00  0.00     0.060 A 
ATOM     30  C   UNL A   1      38.299  30.122  29.006  1.00  0.00     0.016 A 
ATOM     31  C   UNL A   1      39.141  30.189  31.285  1.00  0.00     0.016 A 
ATOM     32  C   UNL A   1      39.588  29.909  28.525  1.00  0.00     0.010 A 
ATOM     33  C   UNL A   1      40.433  29.968  30.799  1.00  0.00     0.010 A 
ATOM     34  C   UNL A   1      40.657  29.791  29.421  1.00  0.00    -0.014 A 
BRANCH  34  35
ATOM     35  C   UNL A   1      41.983  29.355  28.921  1.00  0.00     0.031 A 
ATOM     36  C   UNL A   1      43.096  30.362  28.812  1.00  0.00     0.074 A 
ATOM     37  C   UNL A   1      42.202  28.068  28.597  1.00  0.00     0.049 A 
ATOM     38  N   UNL A   1      44.319  30.200  28.379  1.00  0.00    -0.248 NA
ATOM     39  C   UNL A   1      42.786  31.734  29.247  1.00  0.00     0.031 C 
ATOM     40  C   UNL A   1      41.216  26.994  28.695  1.00  0.00     0.029 A 
ATOM     41  N   UNL A   1      43.329  27.450  28.115  1.00  0.00    -0.354 N 
ATOM     42  C   UNL A   1      44.925  31.448  28.483  1.00  0.00     0.074 A 
ATOM     43  C   UNL A   1      43.921  32.363  28.982  1.00  0.00     0.031 C 
ATOM     44  C   UNL A   1      41.778  25.848  28.274  1.00  0.00     0.029 A 
ATOM     45  C   UNL A   1      43.148  26.116  27.845  1.00  0.00     0.049 A 
ATOM     46  H   UNL A   1      44.183  27.918  27.976  1.00  0.00     0.167 HD
ATOM     47  C   UNL A   1      46.203  31.797  28.201  1.00  0.00     0.031 A 
ATOM     48  C   UNL A   1      43.984  25.216  27.290  1.00  0.00     0.031 A 
ATOM     49  C   UNL A   1      47.191  30.887  27.682  1.00  0.00     0.049 A 
ATOM     50  C   UNL A   1      45.378  25.640  26.912  1.00  0.00     0.074 A 
ATOM     51  C   UNL A   1      48.515  31.140  27.367  1.00  0.00     0.029 A 
ATOM     52  N   UNL A   1      46.961  29.548  27.393  1.00  0.00    -0.354 N 
ATOM     53  N   UNL A   1      45.944  26.818  27.037  1.00  0.00    -0.248 NA
ATOM     54  C   UNL A   1      46.251  24.611  26.330  1.00  0.00     0.031 C 
ATOM     55  C   UNL A   1      49.066  29.973  26.828  1.00  0.00     0.029 A 
ATOM     56  C   UNL A   1      48.110  28.971  26.876  1.00  0.00     0.049 A 
ATOM     57  H   UNL A   1      46.107  29.079  27.534  1.00  0.00     0.167 HD
ATOM     58  C   UNL A   1      47.246  26.666  26.572  1.00  0.00     0.074 A 
ATOM     59  C   UNL A   1      47.388  25.277  26.180  1.00  0.00     0.031 C 
ATOM     60  C   UNL A   1      48.235  27.590  26.478  1.00  0.00     0.031 A 
BRANCH  47  61
ATOM     61  C   UNL A   1      46.591  33.238  28.415  1.00  0.00    -0.014 A 
ATOM     62  C   UNL A   1      47.229  33.656  29.597  1.00  0.00     0.010 A 
ATOM     63  C   UNL A   1      46.328  34.188  27.411  1.00  0.00     0.010 A 
ATOM     64  C   UNL A   1      47.550  35.003  29.792  1.00  0.00     0.020 A 
ATOM     65  C   UNL A   1      46.678  35.531  27.587  1.00  0.00     0.020 A 
ATOM     66  C   UNL A   1      47.269  35.932  28.787  1.00  0.00     0.054 A 
BRANCH  66  67
ATOM     67  S   UNL A   1      47.698  37.672  29.067  1.00  0.00     0.124 S 
ATOM     68  O   UNL A   1      47.672  38.211  27.710  1.00  0.00    -0.237 OA
ATOM     69  O   UNL A   1      46.623  38.130  29.945  1.00  0.00    -0.237 OA
ATOM     70  O   UNL A   1      49.020  37.609  29.687  1.00  0.00    -0.744 OA
ENDBRANCH  66  67
ENDBRANCH  47  61
BRANCH  48  71
ATOM     71  C   UNL A   1      43.507  23.828  27.038  1.00  0.00    -0.014 A 
ATOM     72  C   UNL A   1      43.288  22.933  28.098  1.00  0.00     0.010 A 
ATOM     73  C   UNL A   1      43.240  23.407  25.721  1.00  0.00     0.010 A 
ATOM     74  C   UNL A   1      42.818  21.640  27.846  1.00  0.00     0.020 A 
ATOM     75  C   UNL A   1      42.741  22.128  25.468  1.00  0.00     0.020 A 
ATOM     76  C   UNL A   1      42.540  21.249  26.533  1.00  0.00     0.054 A 
BRANCH  76  77
ATOM     77  S   UNL A   1      41.860  19.593  26.237  1.00  0.00     0.124 S 
ATOM     78  O   UNL A   1      42.530  19.205  25.000  1.00  0.00    -0.237 OA
ATOM     79  O   UNL A   1      42.273  18.867  27.436  1.00  0.00    -0.237 OA
ATOM     80  O   UNL A   1      40.423  19.828  26.124  1.00  0.00    -0.744 OA
ENDBRANCH  76  77
ENDBRANCH  48  71
BRANCH  60  81
ATOM     81  C   UNL A   1      49.573  27.127  25.959  1.00  0.00    -0.014 A 
ATOM     82  C   UNL A   1      50.509  26.497  26.800  1.00  0.00     0.010 A 
ATOM     83  C   UNL A   1      49.880  27.286  24.594  1.00  0.00     0.010 A 
ATOM     84  C   UNL A   1      51.739  26.068  26.293  1.00  0.00     0.020 A 
ATOM     85  C   UNL A   1      51.095  26.829  24.078  1.00  0.00     0.020 A 
ATOM     86  C   UNL A   1      52.024  26.238  24.935  1.00  0.00     0.054 A 
BRANCH  86  87
ATOM     87  S   UNL A   1      53.614  25.642  24.296  1.00  0.00     0.124 S 
ATOM     88  O   UNL A   1      53.573  24.226  24.653  1.00  0.00    -0.237 OA
ATOM     89  O   UNL A   1      53.513  25.932  22.867  1.00  0.00    -0.237 OA
ATOM     90  O   UNL A   1      54.602  26.438  25.019  1.00  0.00    -0.744 OA
ENDBRANCH  86  87
ENDBRANCH  60  81
ENDBRANCH  34  35
ENDBRANCH  27  29
ENDBRANCH  26  27
ENDBRANCH  25  26
ENDBRANCH  24  25
ENDBRANCH   1  24
TORSDOF 20
ENDMDL
MODEL 3
REMARK VINA RESULT:      -9.5      5.191     10.959
REMARK SMILES C[NH+](C)[C@@H]1CC[N@@H+](Cc2ccc(C(=O)OCCOCCOC(=O)c3ccc(-c4c5nc(c(-c6ccc(S(=O)(=O)[O-])cc6)c6ccc([nH]6)c(-c6ccc(S(=O)(=O)[O-])cc6)c6nc(c(-c7ccc(S(=O)(=O)[O-])cc7)c7ccc4[nH]7)C=C6)C=C5)cc3)cn2)C1
REMARK SMILES IDX 18 1 17 2 16 3 15 4 13 5 14 6 12 7 9 8 10 9 85 10 11 11
REMARK SMILES IDX 84 12 8 13 7 14 4 15 5 16 86 17 6 18 2 20 1 21 3 22 19 24
REMARK SMILES IDX 20 25 21 26 22 27 23 28 24 29 25 30 83 31 26 32 82 33 27 34
REMARK SMILES IDX 28 35 29 36 76 37 30 38 81 39 75 40 77 41 31 42 80 43 74 44
REMARK SMILES IDX 73 45 32 47 62 48 43 49 61 50 44 51 47 52 60 53 78 54 45 55
REMARK SMILES IDX 46 56 59 58 79 59 48 60 33 61 34 62 42 63 35 64 41 65 36 66
REMARK SMILES IDX 37 67 38 68 39 69 40 70 63 71 64 72 72 73 65 74 71 75 66 76
REMARK SMILES IDX 67 77 68 78 69 79 70 80 49 81 50 82 58 83 51 84 57 85 52 86
REMARK SMILES IDX 53 87 54 88 55 89 56 90
REMARK H PARENT 7 19 2 23 77 46 47 57
REMARK Flexibility Score: inf
ROOT
ATOM      1  O   UNL A   1      37.105  22.364  25.239  1.00  0.00    -0.374 OA
ENDROOT
BRANCH   1   2
ATOM      2  C   UNL A   1      35.859  22.252  24.549  1.00  0.00     0.202 C 
BRANCH   2   3
ATOM      3  C   UNL A   1      34.839  21.245  25.085  1.00  0.00     0.261 C 
BRANCH   3   4
ATOM      4  O   UNL A   1      33.794  21.025  24.130  1.00  0.00    -0.460 OA
BRANCH   4   5
ATOM      5  C   UNL A   1      32.559  20.882  24.660  1.00  0.00     0.339 C 
ATOM      6  O   UNL A   1      32.035  19.847  25.042  1.00  0.00    -0.246 OA
BRANCH   5   7
ATOM      7  C   UNL A   1      31.967  22.209  24.896  1.00  0.00     0.078 A 
ATOM      8  C   UNL A   1      31.027  24.774  25.108  1.00  0.00     0.095 A 
ATOM      9  C   UNL A   1      31.019  23.959  26.241  1.00  0.00     0.031 A 
ATOM     10  N   UNL A   1      31.356  24.306  23.875  1.00  0.00    -0.254 NA
ATOM     11  C   UNL A   1      31.509  22.659  26.134  1.00  0.00     0.019 A 
ATOM     12  C   UNL A   1      31.821  23.042  23.796  1.00  0.00     0.127 A 
BRANCH   8  13
ATOM     13  C   UNL A   1      30.900  26.279  25.240  1.00  0.00     0.319 C 
BRANCH  13  14
ATOM     14  N   UNL A   1      30.957  27.054  23.981  1.00  0.00    -0.325 N 
ATOM     15  C   UNL A   1      30.289  29.410  24.021  1.00  0.00     0.245 C 
ATOM     16  C   UNL A   1      31.791  29.290  24.294  1.00  0.00     0.132 C 
ATOM     17  C   UNL A   1      29.820  27.956  23.756  1.00  0.00     0.328 C 
ATOM     18  C   UNL A   1      32.161  27.886  23.837  1.00  0.00     0.269 C 
ATOM     19  H   UNL A   1      30.951  26.301  23.292  1.00  0.00     0.348 HD
BRANCH  15  20
ATOM     20  N   UNL A   1      29.963  30.430  23.006  1.00  0.00    -0.333 N 
ATOM     21  C   UNL A   1      29.894  29.918  21.638  1.00  0.00     0.332 C 
ATOM     22  C   UNL A   1      28.744  31.163  23.346  1.00  0.00     0.332 C 
ATOM     23  H   UNL A   1      30.752  31.076  23.024  1.00  0.00     0.348 HD
ENDBRANCH  15  20
ENDBRANCH  13  14
ENDBRANCH   8  13
ENDBRANCH   5   7
ENDBRANCH   4   5
ENDBRANCH   3   4
ENDBRANCH   2   3
ENDBRANCH   1   2
BRANCH   1  24
ATOM     24  C   UNL A   1      37.464  23.634  25.782  1.00  0.00     0.202 C 
BRANCH  24  25
ATOM     25  C   UNL A   1      38.900  23.841  26.283  1.00  0.00     0.261 C 
BRANCH  25  26
ATOM     26  O   UNL A   1      38.984  24.717  27.418  1.00  0.00    -0.460 OA
BRANCH  26  27
ATOM     27  C   UNL A   1      39.786  25.794  27.226  1.00  0.00     0.338 C 
ATOM     28  O   UNL A   1      40.405  26.080  26.215  1.00  0.00    -0.246 OA
BRANCH  27  29
ATOM     29  C   UNL A   1      39.673  26.715  28.372  1.00  0.00     0.060 A 
ATOM     30  C   UNL A   1      40.467  27.868  28.353  1.00  0.00     0.016 A 
ATOM     31  C   UNL A   1      38.869  26.419  29.473  1.00  0.00     0.016 A 
ATOM     32  C   UNL A   1      40.497  28.710  29.462  1.00  0.00     0.010 A 
ATOM     33  C   UNL A   1      38.907  27.263  30.588  1.00  0.00     0.010 A 
ATOM     34  C   UNL A   1      39.748  28.391  30.601  1.00  0.00    -0.014 A 
BRANCH  34  35
ATOM     35  C   UNL A   1      39.948  29.170  31.847  1.00  0.00     0.031 A 
ATOM     36  C   UNL A   1      38.991  30.281  32.181  1.00  0.00     0.074 A 
ATOM     37  C   UNL A   1      40.955  28.869  32.688  1.00  0.00     0.049 A 
ATOM     38  N   UNL A   1      38.996  31.099  33.202  1.00  0.00    -0.248 NA
ATOM     39  C   UNL A   1      37.883  30.501  31.238  1.00  0.00     0.031 C 
ATOM     40  C   UNL A   1      41.924  27.793  32.491  1.00  0.00     0.029 A 
ATOM     41  N   UNL A   1      41.328  29.449  33.874  1.00  0.00    -0.354 N 
ATOM     42  C   UNL A   1      37.898  31.933  33.023  1.00  0.00     0.074 A 
ATOM     43  C   UNL A   1      37.275  31.548  31.775  1.00  0.00     0.031 C 
ATOM     44  C   UNL A   1      42.790  27.795  33.518  1.00  0.00     0.029 A 
ATOM     45  C   UNL A   1      42.459  28.894  34.422  1.00  0.00     0.049 A 
ATOM     46  H   UNL A   1      40.834  30.191  34.291  1.00  0.00     0.167 HD
ATOM     47  C   UNL A   1      37.443  32.922  33.830  1.00  0.00     0.031 A 
ATOM     48  C   UNL A   1      43.163  29.248  35.516  1.00  0.00     0.031 A 
ATOM     49  C   UNL A   1      38.081  33.317  35.059  1.00  0.00     0.049 A 
ATOM     50  C   UNL A   1      42.685  30.398  36.360  1.00  0.00     0.074 A 
ATOM     51  C   UNL A   1      37.698  34.304  35.950  1.00  0.00     0.029 A 
ATOM     52  N   UNL A   1      39.243  32.751  35.566  1.00  0.00    -0.354 N 
ATOM     53  N   UNL A   1      41.633  31.164  36.190  1.00  0.00    -0.248 NA
ATOM     54  C   UNL A   1      43.482  30.725  37.551  1.00  0.00     0.031 C 
ATOM     55  C   UNL A   1      38.661  34.377  36.962  1.00  0.00     0.029 A 
ATOM     56  C   UNL A   1      39.605  33.387  36.742  1.00  0.00     0.049 A 
ATOM     57  H   UNL A   1      39.736  32.007  35.150  1.00  0.00     0.167 HD
ATOM     58  C   UNL A   1      41.627  32.048  37.265  1.00  0.00     0.074 A 
ATOM     59  C   UNL A   1      42.771  31.708  38.088  1.00  0.00     0.031 C 
ATOM     60  C   UNL A   1      40.755  33.047  37.546  1.00  0.00     0.031 A 
BRANCH  47  61
ATOM     61  C   UNL A   1      36.212  33.670  33.382  1.00  0.00    -0.014 A 
ATOM     62  C   UNL A   1      36.304  34.955  32.815  1.00  0.00     0.010 A 
ATOM     63  C   UNL A   1      34.946  33.072  33.513  1.00  0.00     0.010 A 
ATOM     64  C   UNL A   1      35.150  35.647  32.437  1.00  0.00     0.020 A 
ATOM     65  C   UNL A   1      33.791  33.747  33.105  1.00  0.00     0.020 A 
ATOM     66  C   UNL A   1      33.900  35.040  32.589  1.00  0.00     0.054 A 
BRANCH  66  67
ATOM     67  S   UNL A   1      32.420  35.961  32.088  1.00  0.00     0.124 S 
ATOM     68  O   UNL A   1      32.606  36.068  30.643  1.00  0.00    -0.237 OA
ATOM     69  O   UNL A   1      31.335  35.082  32.518  1.00  0.00    -0.237 OA
ATOM     70  O   UNL A   1      32.528  37.219  32.824  1.00  0.00    -0.744 OA
ENDBRANCH  66  67
ENDBRANCH  47  61
BRANCH  48  71
ATOM     71  C   UNL A   1      44.413  28.511  35.854  1.00  0.00    -0.014 A 
ATOM     72  C   UNL A   1      45.652  28.903  35.320  1.00  0.00     0.010 A 
ATOM     73  C   UNL A   1      44.365  27.421  36.743  1.00  0.00     0.010 A 
ATOM     74  C   UNL A   1      46.819  28.215  35.665  1.00  0.00     0.020 A 
ATOM     75  C   UNL A   1      45.533  26.751  37.114  1.00  0.00     0.020 A 
ATOM     76  C   UNL A   1      46.753  27.148  36.566  1.00  0.00     0.054 A 
BRANCH  76  77
ATOM     77  S   UNL A   1      48.290  26.318  37.056  1.00  0.00     0.124 S 
ATOM     78  O   UNL A   1      48.390  26.671  38.468  1.00  0.00    -0.237 OA
ATOM     79  O   UNL A   1      47.993  24.917  36.773  1.00  0.00    -0.237 OA
ATOM     80  O   UNL A   1      49.296  26.922  36.186  1.00  0.00    -0.744 OA
ENDBRANCH  76  77
ENDBRANCH  48  71
BRANCH  60  81
ATOM     81  C   UNL A   1      40.982  33.833  38.814  1.00  0.00    -0.014 A 
ATOM     82  C   UNL A   1      40.387  33.450  40.030  1.00  0.00     0.010 A 
ATOM     83  C   UNL A   1      41.842  34.947  38.795  1.00  0.00     0.010 A 
ATOM     84  C   UNL A   1      40.620  34.189  41.195  1.00  0.00     0.020 A 
ATOM     85  C   UNL A   1      42.102  35.668  39.963  1.00  0.00     0.020 A 
ATOM     86  C   UNL A   1      41.476  35.293  41.153  1.00  0.00     0.054 A 
BRANCH  86  87
ATOM     87  S   UNL A   1      41.789  36.214  42.684  1.00  0.00     0.124 S 
ATOM     88  O   UNL A   1      42.831  37.149  42.270  1.00  0.00    -0.237 OA
ATOM     89  O   UNL A   1      40.486  36.812  42.969  1.00  0.00    -0.237 OA
ATOM     90  O   UNL A   1      42.215  35.185  43.629  1.00  0.00    -0.744 OA
ENDBRANCH  86  87
ENDBRANCH  60  81
ENDBRANCH  34  35
ENDBRANCH  27  29
ENDBRANCH  26  27
ENDBRANCH  25  26
ENDBRANCH  24  25
ENDBRANCH   1  24
TORSDOF 20
ENDMDL
