MODEL 1
REMARK VINA RESULT:     -10.9      0.000      0.000
REMARK SMILES CC(C)(C)OC(=O)N1C[C@H](c2ccc(C(F)(F)F)cc2)[C@H](C(=O)OCCOCCOC(=O)c2ccc(-c3c4nc(c(-c5ccc(S(=O)(=O)[O-])cc5)c5ccc([nH]5)c(-c5ccc(S(=O)(=O)[O-])cc5)c5nc(c(-c6ccc(S(=O)(=O)[O-])cc6)c6ccc3[nH]6)C=C5)C=C4)cc2)C1
REMARK SMILES IDX 27 1 26 2 25 3 24 4 22 5 23 6 21 7 8 8 9 9 93 10 10 11 6 12
REMARK SMILES IDX 7 13 5 14 2 15 1 16 3 17 4 18 11 19 12 20 20 21 13 22 19 23
REMARK SMILES IDX 14 24 15 25 16 26 17 27 18 28 28 29 29 30 30 31 31 32 32 33
REMARK SMILES IDX 33 34 34 35 92 36 35 37 91 38 36 39 37 40 38 41 85 42 39 43
REMARK SMILES IDX 90 44 84 45 86 46 40 47 89 48 83 49 82 50 41 52 71 53 52 54
REMARK SMILES IDX 70 55 53 56 56 57 69 58 87 59 54 60 55 61 68 63 88 64 57 65
REMARK SMILES IDX 42 66 43 67 51 68 44 69 50 70 45 71 46 72 47 73 48 74 49 75
REMARK SMILES IDX 72 76 73 77 81 78 74 79 80 80 75 81 76 82 77 83 78 84 79 85
REMARK SMILES IDX 58 86 59 87 67 88 60 89 66 90 61 91 62 92 63 93 64 94 65 95
REMARK H PARENT 86 51 56 62
REMARK Flexibility Score: inf
ROOT
ATOM      1  O   UNL A   1      40.817  22.047  25.859  1.00  0.00    -0.374 OA
ENDROOT
BRANCH   1   2
ATOM      2  C   UNL A   1      39.972  22.484  26.929  1.00  0.00     0.202 C 
BRANCH   2   3
ATOM      3  C   UNL A   1      38.633  23.046  26.452  1.00  0.00     0.261 C 
BRANCH   3   4
ATOM      4  O   UNL A   1      38.085  22.198  25.426  1.00  0.00    -0.463 OA
BRANCH   4   5
ATOM      5  C   UNL A   1      36.824  22.465  25.027  1.00  0.00     0.311 C 
ATOM      6  O   UNL A   1      36.513  23.302  24.188  1.00  0.00    -0.252 OA
BRANCH   5   7
ATOM      7  C   UNL A   1      35.798  21.634  25.743  1.00  0.00     0.128 C 
ATOM      8  N   UNL A   1      33.831  20.407  25.465  1.00  0.00    -0.307 N 
ATOM      9  C   UNL A   1      33.756  21.024  26.776  1.00  0.00     0.132 C 
ATOM     10  C   UNL A   1      35.071  20.708  24.792  1.00  0.00     0.139 C 
ATOM     11  C   UNL A   1      34.719  22.228  26.688  1.00  0.00     0.055 C 
BRANCH   8  12
ATOM     12  C   UNL A   1      32.839  19.741  24.798  1.00  0.00     0.410 C 
ATOM     13  O   UNL A   1      32.156  20.274  23.942  1.00  0.00    -0.224 OA
BRANCH  12  14
ATOM     14  O   UNL A   1      32.680  18.479  25.268  1.00  0.00    -0.444 OA
BRANCH  14  15
ATOM     15  C   UNL A   1      33.245  17.362  24.537  1.00  0.00     0.106 C 
ATOM     16  C   UNL A   1      32.880  17.615  23.067  1.00  0.00     0.056 C 
ATOM     17  C   UNL A   1      32.575  16.072  25.014  1.00  0.00     0.056 C 
ATOM     18  C   UNL A   1      34.778  17.288  24.627  1.00  0.00     0.056 C 
ENDBRANCH  14  15
ENDBRANCH  12  14
ENDBRANCH   8  12
BRANCH  11  19
ATOM     19  C   UNL A   1      33.840  23.455  26.476  1.00  0.00    -0.042 A 
ATOM     20  C   UNL A   1      34.210  24.621  25.804  1.00  0.00     0.005 A 
ATOM     21  C   UNL A   1      32.486  23.330  26.866  1.00  0.00     0.005 A 
ATOM     22  C   UNL A   1      33.265  25.624  25.527  1.00  0.00     0.013 A 
ATOM     23  C   UNL A   1      31.537  24.305  26.558  1.00  0.00     0.013 A 
ATOM     24  C   UNL A   1      31.914  25.460  25.870  1.00  0.00     0.056 A 
BRANCH  24  25
ATOM     25  C   UNL A   1      30.856  26.461  25.472  1.00  0.00     0.416 C 
ATOM     26  F   UNL A   1      30.956  27.623  26.179  1.00  0.00    -0.166 F 
ATOM     27  F   UNL A   1      30.894  26.811  24.159  1.00  0.00    -0.166 F 
ATOM     28  F   UNL A   1      29.595  25.999  25.703  1.00  0.00    -0.166 F 
ENDBRANCH  24  25
ENDBRANCH  11  19
ENDBRANCH   5   7
ENDBRANCH   4   5
ENDBRANCH   3   4
ENDBRANCH   2   3
ENDBRANCH   1   2
BRANCH   1  29
ATOM     29  C   UNL A   1      42.214  22.046  26.143  1.00  0.00     0.202 C 
BRANCH  29  30
ATOM     30  C   UNL A   1      43.036  23.032  25.311  1.00  0.00     0.261 C 
BRANCH  30  31
ATOM     31  O   UNL A   1      42.481  24.354  25.375  1.00  0.00    -0.460 OA
BRANCH  31  32
ATOM     32  C   UNL A   1      43.360  25.325  25.732  1.00  0.00     0.338 C 
ATOM     33  O   UNL A   1      44.407  25.604  25.184  1.00  0.00    -0.246 OA
BRANCH  32  34
ATOM     34  C   UNL A   1      42.776  26.125  26.829  1.00  0.00     0.060 A 
ATOM     35  C   UNL A   1      43.207  27.446  26.993  1.00  0.00     0.016 A 
ATOM     36  C   UNL A   1      41.836  25.584  27.704  1.00  0.00     0.016 A 
ATOM     37  C   UNL A   1      42.734  28.209  28.063  1.00  0.00     0.010 A 
ATOM     38  C   UNL A   1      41.345  26.364  28.755  1.00  0.00     0.010 A 
ATOM     39  C   UNL A   1      41.812  27.669  28.973  1.00  0.00    -0.014 A 
BRANCH  39  40
ATOM     40  C   UNL A   1      41.416  28.426  30.197  1.00  0.00     0.031 A 
ATOM     41  C   UNL A   1      42.216  28.279  31.472  1.00  0.00     0.074 A 
ATOM     42  C   UNL A   1      40.349  29.250  30.181  1.00  0.00     0.049 A 
ATOM     43  N   UNL A   1      42.080  28.913  32.611  1.00  0.00    -0.248 NA
ATOM     44  C   UNL A   1      43.284  27.265  31.483  1.00  0.00     0.031 C 
ATOM     45  C   UNL A   1      39.434  29.436  29.052  1.00  0.00     0.029 A 
ATOM     46  N   UNL A   1      39.857  30.096  31.146  1.00  0.00    -0.354 N 
ATOM     47  C   UNL A   1      43.029  28.363  33.469  1.00  0.00     0.074 A 
ATOM     48  C   UNL A   1      43.678  27.294  32.746  1.00  0.00     0.031 C 
ATOM     49  C   UNL A   1      38.525  30.373  29.372  1.00  0.00     0.029 A 
ATOM     50  C   UNL A   1      38.778  30.841  30.733  1.00  0.00     0.049 A 
ATOM     51  H   UNL A   1      40.244  30.164  32.049  1.00  0.00     0.167 HD
ATOM     52  C   UNL A   1      43.366  28.734  34.728  1.00  0.00     0.031 A 
ATOM     53  C   UNL A   1      38.083  31.808  31.366  1.00  0.00     0.031 A 
ATOM     54  C   UNL A   1      42.747  29.816  35.444  1.00  0.00     0.049 A 
ATOM     55  C   UNL A   1      38.498  32.235  32.751  1.00  0.00     0.074 A 
ATOM     56  C   UNL A   1      43.076  30.326  36.688  1.00  0.00     0.029 A 
ATOM     57  N   UNL A   1      41.673  30.559  34.979  1.00  0.00    -0.354 N 
ATOM     58  N   UNL A   1      39.474  31.779  33.500  1.00  0.00    -0.248 NA
ATOM     59  C   UNL A   1      37.733  33.332  33.362  1.00  0.00     0.031 C 
ATOM     60  C   UNL A   1      42.167  31.343  36.999  1.00  0.00     0.029 A 
ATOM     61  C   UNL A   1      41.311  31.508  35.921  1.00  0.00     0.049 A 
ATOM     62  H   UNL A   1      41.231  30.430  34.109  1.00  0.00     0.167 HD
ATOM     63  C   UNL A   1      39.454  32.549  34.659  1.00  0.00     0.074 A 
ATOM     64  C   UNL A   1      38.389  33.517  34.499  1.00  0.00     0.031 C 
ATOM     65  C   UNL A   1      40.244  32.461  35.758  1.00  0.00     0.031 A 
BRANCH  52  66
ATOM     66  C   UNL A   1      44.476  27.967  35.405  1.00  0.00    -0.014 A 
ATOM     67  C   UNL A   1      45.818  28.375  35.283  1.00  0.00     0.010 A 
ATOM     68  C   UNL A   1      44.175  26.847  36.200  1.00  0.00     0.010 A 
ATOM     69  C   UNL A   1      46.841  27.648  35.895  1.00  0.00     0.020 A 
ATOM     70  C   UNL A   1      45.193  26.137  36.846  1.00  0.00     0.020 A 
ATOM     71  C   UNL A   1      46.521  26.531  36.673  1.00  0.00     0.054 A 
BRANCH  71  72
ATOM     72  S   UNL A   1      47.869  25.621  37.476  1.00  0.00     0.124 S 
ATOM     73  O   UNL A   1      47.952  24.417  36.653  1.00  0.00    -0.237 OA
ATOM     74  O   UNL A   1      48.995  26.544  37.353  1.00  0.00    -0.237 OA
ATOM     75  O   UNL A   1      47.385  25.412  38.837  1.00  0.00    -0.744 OA
ENDBRANCH  71  72
ENDBRANCH  52  66
BRANCH  53  76
ATOM     76  C   UNL A   1      36.947  32.485  30.677  1.00  0.00    -0.014 A 
ATOM     77  C   UNL A   1      37.186  33.540  29.777  1.00  0.00     0.010 A 
ATOM     78  C   UNL A   1      35.622  32.083  30.921  1.00  0.00     0.010 A 
ATOM     79  C   UNL A   1      36.121  34.195  29.151  1.00  0.00     0.020 A 
ATOM     80  C   UNL A   1      34.555  32.716  30.274  1.00  0.00     0.020 A 
ATOM     81  C   UNL A   1      34.812  33.776  29.403  1.00  0.00     0.054 A 
BRANCH  81  82
ATOM     82  S   UNL A   1      33.449  34.607  28.538  1.00  0.00     0.124 S 
ATOM     83  O   UNL A   1      34.132  35.730  27.902  1.00  0.00    -0.237 OA
ATOM     84  O   UNL A   1      32.967  33.565  27.636  1.00  0.00    -0.237 OA
ATOM     85  O   UNL A   1      32.528  34.963  29.616  1.00  0.00    -0.744 OA
ENDBRANCH  81  82
ENDBRANCH  53  76
BRANCH  65  86
ATOM     86  C   UNL A   1      40.004  33.456  36.865  1.00  0.00    -0.014 A 
ATOM     87  C   UNL A   1      39.130  33.170  37.929  1.00  0.00     0.010 A 
ATOM     88  C   UNL A   1      40.684  34.689  36.852  1.00  0.00     0.010 A 
ATOM     89  C   UNL A   1      38.896  34.120  38.928  1.00  0.00     0.020 A 
ATOM     90  C   UNL A   1      40.478  35.628  37.867  1.00  0.00     0.020 A 
ATOM     91  C   UNL A   1      39.567  35.346  38.887  1.00  0.00     0.054 A 
BRANCH  91  92
ATOM     92  S   UNL A   1      39.250  36.559  40.197  1.00  0.00     0.124 S 
ATOM     93  O   UNL A   1      38.230  35.883  40.994  1.00  0.00    -0.237 OA
ATOM     94  O   UNL A   1      40.557  36.695  40.833  1.00  0.00    -0.237 OA
ATOM     95  O   UNL A   1      38.790  37.741  39.470  1.00  0.00    -0.744 OA
ENDBRANCH  91  92
ENDBRANCH  65  86
ENDBRANCH  39  40
ENDBRANCH  32  34
ENDBRANCH  31  32
ENDBRANCH  30  31
ENDBRANCH  29  30
ENDBRANCH   1  29
TORSDOF 22
ENDMDL
MODEL 2
REMARK VINA RESULT:     -10.5      1.536      8.061
REMARK SMILES CC(C)(C)OC(=O)N1C[C@H](c2ccc(C(F)(F)F)cc2)[C@H](C(=O)OCCOCCOC(=O)c2ccc(-c3c4nc(c(-c5ccc(S(=O)(=O)[O-])cc5)c5ccc([nH]5)c(-c5ccc(S(=O)(=O)[O-])cc5)c5nc(c(-c6ccc(S(=O)(=O)[O-])cc6)c6ccc3[nH]6)C=C5)C=C4)cc2)C1
REMARK SMILES IDX 27 1 26 2 25 3 24 4 22 5 23 6 21 7 8 8 9 9 93 10 10 11 6 12
REMARK SMILES IDX 7 13 5 14 2 15 1 16 3 17 4 18 11 19 12 20 20 21 13 22 19 23
REMARK SMILES IDX 14 24 15 25 16 26 17 27 18 28 28 29 29 30 30 31 31 32 32 33
REMARK SMILES IDX 33 34 34 35 92 36 35 37 91 38 36 39 37 40 38 41 85 42 39 43
REMARK SMILES IDX 90 44 84 45 86 46 40 47 89 48 83 49 82 50 41 52 71 53 52 54
REMARK SMILES IDX 70 55 53 56 56 57 69 58 87 59 54 60 55 61 68 63 88 64 57 65
REMARK SMILES IDX 42 66 43 67 51 68 44 69 50 70 45 71 46 72 47 73 48 74 49 75
REMARK SMILES IDX 72 76 73 77 81 78 74 79 80 80 75 81 76 82 77 83 78 84 79 85
REMARK SMILES IDX 58 86 59 87 67 88 60 89 66 90 61 91 62 92 63 93 64 94 65 95
REMARK H PARENT 86 51 56 62
REMARK Flexibility Score: inf
ROOT
ATOM      1  O   UNL A   1      41.704  21.431  25.642  1.00  0.00    -0.374 OA
ENDROOT
BRANCH   1   2
ATOM      2  C   UNL A   1      40.618  20.970  26.452  1.00  0.00     0.202 C 
BRANCH   2   3
ATOM      3  C   UNL A   1      39.319  21.745  26.222  1.00  0.00     0.261 C 
BRANCH   3   4
ATOM      4  O   UNL A   1      38.362  20.904  25.552  1.00  0.00    -0.463 OA
BRANCH   4   5
ATOM      5  C   UNL A   1      37.351  21.527  24.911  1.00  0.00     0.311 C 
ATOM      6  O   UNL A   1      37.484  22.317  23.985  1.00  0.00    -0.252 OA
BRANCH   5   7
ATOM      7  C   UNL A   1      36.001  21.173  25.469  1.00  0.00     0.128 C 
ATOM      8  N   UNL A   1      34.102  19.859  25.129  1.00  0.00    -0.307 N 
ATOM      9  C   UNL A   1      33.648  21.103  25.724  1.00  0.00     0.132 C 
ATOM     10  C   UNL A   1      35.536  19.819  24.977  1.00  0.00     0.139 C 
ATOM     11  C   UNL A   1      34.769  22.114  25.398  1.00  0.00     0.055 C 
BRANCH   8  12
ATOM     12  C   UNL A   1      33.333  18.860  24.597  1.00  0.00     0.410 C 
ATOM     13  O   UNL A   1      32.622  19.032  23.622  1.00  0.00    -0.224 OA
BRANCH  12  14
ATOM     14  O   UNL A   1      33.411  17.723  25.331  1.00  0.00    -0.444 OA
BRANCH  14  15
ATOM     15  C   UNL A   1      33.900  16.502  24.719  1.00  0.00     0.106 C 
ATOM     16  C   UNL A   1      32.864  15.427  25.080  1.00  0.00     0.056 C 
ATOM     17  C   UNL A   1      35.248  16.143  25.346  1.00  0.00     0.056 C 
ATOM     18  C   UNL A   1      33.974  16.577  23.185  1.00  0.00     0.056 C 
ENDBRANCH  14  15
ENDBRANCH  12  14
ENDBRANCH   8  12
BRANCH  11  19
ATOM     19  C   UNL A   1      34.265  22.934  24.217  1.00  0.00    -0.042 A 
ATOM     20  C   UNL A   1      33.332  22.516  23.268  1.00  0.00     0.005 A 
ATOM     21  C   UNL A   1      34.672  24.288  24.178  1.00  0.00     0.005 A 
ATOM     22  C   UNL A   1      32.820  23.415  22.316  1.00  0.00     0.013 A 
ATOM     23  C   UNL A   1      34.137  25.193  23.260  1.00  0.00     0.013 A 
ATOM     24  C   UNL A   1      33.191  24.769  22.326  1.00  0.00     0.056 A 
BRANCH  24  25
ATOM     25  C   UNL A   1      32.561  25.781  21.400  1.00  0.00     0.416 C 
ATOM     26  F   UNL A   1      33.002  27.048  21.647  1.00  0.00    -0.166 F 
ATOM     27  F   UNL A   1      32.798  25.548  20.083  1.00  0.00    -0.166 F 
ATOM     28  F   UNL A   1      31.206  25.833  21.536  1.00  0.00    -0.166 F 
ENDBRANCH  24  25
ENDBRANCH  11  19
ENDBRANCH   5   7
ENDBRANCH   4   5
ENDBRANCH   3   4
ENDBRANCH   2   3
ENDBRANCH   1   2
BRANCH   1  29
ATOM     29  C   UNL A   1      42.737  22.124  26.338  1.00  0.00     0.202 C 
BRANCH  29  30
ATOM     30  C   UNL A   1      43.054  23.517  25.791  1.00  0.00     0.261 C 
BRANCH  30  31
ATOM     31  O   UNL A   1      42.094  24.483  26.242  1.00  0.00    -0.460 OA
BRANCH  31  32
ATOM     32  C   UNL A   1      42.376  25.768  25.907  1.00  0.00     0.338 C 
ATOM     33  O   UNL A   1      42.518  26.220  24.788  1.00  0.00    -0.246 OA
BRANCH  32  34
ATOM     34  C   UNL A   1      42.336  26.604  27.125  1.00  0.00     0.060 A 
ATOM     35  C   UNL A   1      41.760  26.070  28.282  1.00  0.00     0.016 A 
ATOM     36  C   UNL A   1      42.834  27.906  27.130  1.00  0.00     0.016 A 
ATOM     37  C   UNL A   1      41.637  26.857  29.430  1.00  0.00     0.010 A 
ATOM     38  C   UNL A   1      42.735  28.676  28.292  1.00  0.00     0.010 A 
ATOM     39  C   UNL A   1      42.103  28.180  29.442  1.00  0.00    -0.014 A 
BRANCH  39  40
ATOM     40  C   UNL A   1      41.845  29.069  30.613  1.00  0.00     0.031 A 
ATOM     41  C   UNL A   1      40.623  29.960  30.634  1.00  0.00     0.074 A 
ATOM     42  C   UNL A   1      42.689  29.085  31.664  1.00  0.00     0.049 A 
ATOM     43  N   UNL A   1      40.182  30.738  31.593  1.00  0.00    -0.248 NA
ATOM     44  C   UNL A   1      39.808  30.012  29.408  1.00  0.00     0.031 C 
ATOM     45  C   UNL A   1      43.948  28.343  31.756  1.00  0.00     0.029 A 
ATOM     46  N   UNL A   1      42.609  29.748  32.866  1.00  0.00    -0.354 N 
ATOM     47  C   UNL A   1      39.058  31.377  31.078  1.00  0.00     0.074 A 
ATOM     48  C   UNL A   1      38.930  30.958  29.702  1.00  0.00     0.031 C 
ATOM     49  C   UNL A   1      44.495  28.552  32.966  1.00  0.00     0.029 A 
ATOM     50  C   UNL A   1      43.639  29.458  33.729  1.00  0.00     0.049 A 
ATOM     51  H   UNL A   1      41.880  30.371  33.089  1.00  0.00     0.167 HD
ATOM     52  C   UNL A   1      38.182  32.205  31.698  1.00  0.00     0.031 A 
ATOM     53  C   UNL A   1      43.861  29.855  34.998  1.00  0.00     0.031 A 
ATOM     54  C   UNL A   1      38.284  32.604  33.076  1.00  0.00     0.049 A 
ATOM     55  C   UNL A   1      42.855  30.744  35.685  1.00  0.00     0.074 A 
ATOM     56  C   UNL A   1      37.401  33.368  33.819  1.00  0.00     0.029 A 
ATOM     57  N   UNL A   1      39.331  32.269  33.919  1.00  0.00    -0.354 N 
ATOM     58  N   UNL A   1      41.737  31.245  35.215  1.00  0.00    -0.248 NA
ATOM     59  C   UNL A   1      43.129  31.094  37.086  1.00  0.00     0.031 C 
ATOM     60  C   UNL A   1      37.941  33.539  35.099  1.00  0.00     0.029 A 
ATOM     61  C   UNL A   1      39.129  32.829  35.170  1.00  0.00     0.049 A 
ATOM     62  H   UNL A   1      40.105  31.716  33.667  1.00  0.00     0.167 HD
ATOM     63  C   UNL A   1      41.164  31.949  36.271  1.00  0.00     0.074 A 
ATOM     64  C   UNL A   1      42.044  31.784  37.408  1.00  0.00     0.031 C 
ATOM     65  C   UNL A   1      40.015  32.668  36.295  1.00  0.00     0.031 A 
BRANCH  52  66
ATOM     66  C   UNL A   1      37.019  32.721  30.886  1.00  0.00    -0.014 A 
ATOM     67  C   UNL A   1      37.167  33.829  30.030  1.00  0.00     0.010 A 
ATOM     68  C   UNL A   1      35.772  32.073  30.951  1.00  0.00     0.010 A 
ATOM     69  C   UNL A   1      36.080  34.313  29.299  1.00  0.00     0.020 A 
ATOM     70  C   UNL A   1      34.690  32.532  30.191  1.00  0.00     0.020 A 
ATOM     71  C   UNL A   1      34.847  33.661  29.386  1.00  0.00     0.054 A 
BRANCH  71  72
ATOM     72  S   UNL A   1      33.460  34.298  28.405  1.00  0.00     0.124 S 
ATOM     73  O   UNL A   1      32.607  34.886  29.436  1.00  0.00    -0.237 OA
ATOM     74  O   UNL A   1      34.112  35.252  27.512  1.00  0.00    -0.237 OA
ATOM     75  O   UNL A   1      32.919  33.109  27.754  1.00  0.00    -0.744 OA
ENDBRANCH  71  72
ENDBRANCH  52  66
BRANCH  53  76
ATOM     76  C   UNL A   1      45.065  29.373  35.733  1.00  0.00    -0.014 A 
ATOM     77  C   UNL A   1      45.018  28.176  36.472  1.00  0.00     0.010 A 
ATOM     78  C   UNL A   1      46.263  30.108  35.703  1.00  0.00     0.010 A 
ATOM     79  C   UNL A   1      46.138  27.736  37.184  1.00  0.00     0.020 A 
ATOM     80  C   UNL A   1      47.395  29.657  36.390  1.00  0.00     0.020 A 
ATOM     81  C   UNL A   1      47.320  28.480  37.136  1.00  0.00     0.054 A 
BRANCH  81  82
ATOM     82  S   UNL A   1      48.776  27.861  38.027  1.00  0.00     0.124 S 
ATOM     83  O   UNL A   1      48.535  26.421  38.040  1.00  0.00    -0.237 OA
ATOM     84  O   UNL A   1      49.878  28.312  37.180  1.00  0.00    -0.237 OA
ATOM     85  O   UNL A   1      48.687  28.523  39.327  1.00  0.00    -0.744 OA
ENDBRANCH  81  82
ENDBRANCH  53  76
BRANCH  65  86
ATOM     86  C   UNL A   1      39.628  33.313  37.601  1.00  0.00    -0.014 A 
ATOM     87  C   UNL A   1      40.190  34.536  38.010  1.00  0.00     0.010 A 
ATOM     88  C   UNL A   1      38.668  32.695  38.425  1.00  0.00     0.010 A 
ATOM     89  C   UNL A   1      39.842  35.099  39.240  1.00  0.00     0.020 A 
ATOM     90  C   UNL A   1      38.293  33.272  39.641  1.00  0.00     0.020 A 
ATOM     91  C   UNL A   1      38.900  34.460  40.052  1.00  0.00     0.054 A 
BRANCH  91  92
ATOM     92  S   UNL A   1      38.463  35.213  41.642  1.00  0.00     0.124 S 
ATOM     93  O   UNL A   1      39.437  34.604  42.544  1.00  0.00    -0.237 OA
ATOM     94  O   UNL A   1      38.650  36.638  41.385  1.00  0.00    -0.237 OA
ATOM     95  O   UNL A   1      37.076  34.801  41.852  1.00  0.00    -0.744 OA
ENDBRANCH  91  92
ENDBRANCH  65  86
ENDBRANCH  39  40
ENDBRANCH  32  34
ENDBRANCH  31  32
ENDBRANCH  30  31
ENDBRANCH  29  30
ENDBRANCH   1  29
TORSDOF 22
ENDMDL
MODEL 3
REMARK VINA RESULT:     -10.3      3.016      9.494
REMARK SMILES CC(C)(C)OC(=O)N1C[C@H](c2ccc(C(F)(F)F)cc2)[C@H](C(=O)OCCOCCOC(=O)c2ccc(-c3c4nc(c(-c5ccc(S(=O)(=O)[O-])cc5)c5ccc([nH]5)c(-c5ccc(S(=O)(=O)[O-])cc5)c5nc(c(-c6ccc(S(=O)(=O)[O-])cc6)c6ccc3[nH]6)C=C5)C=C4)cc2)C1
REMARK SMILES IDX 27 1 26 2 25 3 24 4 22 5 23 6 21 7 8 8 9 9 93 10 10 11 6 12
REMARK SMILES IDX 7 13 5 14 2 15 1 16 3 17 4 18 11 19 12 20 20 21 13 22 19 23
REMARK SMILES IDX 14 24 15 25 16 26 17 27 18 28 28 29 29 30 30 31 31 32 32 33
REMARK SMILES IDX 33 34 34 35 92 36 35 37 91 38 36 39 37 40 38 41 85 42 39 43
REMARK SMILES IDX 90 44 84 45 86 46 40 47 89 48 83 49 82 50 41 52 71 53 52 54
REMARK SMILES IDX 70 55 53 56 56 57 69 58 87 59 54 60 55 61 68 63 88 64 57 65
REMARK SMILES IDX 42 66 43 67 51 68 44 69 50 70 45 71 46 72 47 73 48 74 49 75
REMARK SMILES IDX 72 76 73 77 81 78 74 79 80 80 75 81 76 82 77 83 78 84 79 85
REMARK SMILES IDX 58 86 59 87 67 88 60 89 66 90 61 91 62 92 63 93 64 94 65 95
REMARK H PARENT 86 51 56 62
REMARK Flexibility Score: inf
ROOT
ATOM      1  O   UNL A   1      33.717  31.370  28.166  1.00  0.00    -0.374 OA
ENDROOT
BRANCH   1   2
ATOM      2  C   UNL A   1      35.035  30.813  28.158  1.00  0.00     0.202 C 
BRANCH   2   3
ATOM      3  C   UNL A   1      35.238  29.753  27.074  1.00  0.00     0.261 C 
BRANCH   3   4
ATOM      4  O   UNL A   1      34.563  28.537  27.448  1.00  0.00    -0.463 OA
BRANCH   4   5
ATOM      5  C   UNL A   1      33.305  28.375  26.988  1.00  0.00     0.311 C 
ATOM      6  O   UNL A   1      32.326  28.135  27.683  1.00  0.00    -0.252 OA
BRANCH   5   7
ATOM      7  C   UNL A   1      33.211  28.497  25.493  1.00  0.00     0.128 C 
ATOM      8  N   UNL A   1      31.777  28.268  23.666  1.00  0.00    -0.307 N 
ATOM      9  C   UNL A   1      33.096  27.868  23.213  1.00  0.00     0.132 C 
ATOM     10  C   UNL A   1      31.781  28.700  25.042  1.00  0.00     0.139 C 
ATOM     11  C   UNL A   1      33.842  27.477  24.507  1.00  0.00     0.055 C 
BRANCH   8  12
ATOM     12  C   UNL A   1      30.590  28.136  22.997  1.00  0.00     0.410 C 
ATOM     13  O   UNL A   1      30.498  27.531  21.944  1.00  0.00    -0.224 OA
BRANCH  12  14
ATOM     14  O   UNL A   1      29.591  28.819  23.610  1.00  0.00    -0.444 OA
BRANCH  14  15
ATOM     15  C   UNL A   1      28.988  29.960  22.949  1.00  0.00     0.106 C 
ATOM     16  C   UNL A   1      29.763  30.119  21.632  1.00  0.00     0.056 C 
ATOM     17  C   UNL A   1      29.202  31.201  23.819  1.00  0.00     0.056 C 
ATOM     18  C   UNL A   1      27.509  29.749  22.594  1.00  0.00     0.056 C 
ENDBRANCH  14  15
ENDBRANCH  12  14
ENDBRANCH   8  12
BRANCH  11  19
ATOM     19  C   UNL A   1      33.814  25.955  24.566  1.00  0.00    -0.042 A 
ATOM     20  C   UNL A   1      34.009  25.090  23.488  1.00  0.00     0.005 A 
ATOM     21  C   UNL A   1      33.734  25.380  25.856  1.00  0.00     0.005 A 
ATOM     22  C   UNL A   1      34.123  23.703  23.689  1.00  0.00     0.013 A 
ATOM     23  C   UNL A   1      33.887  24.009  26.063  1.00  0.00     0.013 A 
ATOM     24  C   UNL A   1      34.098  23.154  24.980  1.00  0.00     0.056 A 
BRANCH  24  25
ATOM     25  C   UNL A   1      34.347  21.687  25.234  1.00  0.00     0.416 C 
ATOM     26  F   UNL A   1      35.015  21.474  26.405  1.00  0.00    -0.166 F 
ATOM     27  F   UNL A   1      33.215  20.938  25.302  1.00  0.00    -0.166 F 
ATOM     28  F   UNL A   1      35.118  21.119  24.266  1.00  0.00    -0.166 F 
ENDBRANCH  24  25
ENDBRANCH  11  19
ENDBRANCH   5   7
ENDBRANCH   4   5
ENDBRANCH   3   4
ENDBRANCH   2   3
ENDBRANCH   1   2
BRANCH   1  29
ATOM     29  C   UNL A   1      33.503  32.454  27.266  1.00  0.00     0.202 C 
BRANCH  29  30
ATOM     30  C   UNL A   1      32.513  33.510  27.759  1.00  0.00     0.261 C 
BRANCH  30  31
ATOM     31  O   UNL A   1      33.184  34.730  28.105  1.00  0.00    -0.460 OA
BRANCH  31  32
ATOM     32  C   UNL A   1      33.329  34.943  29.438  1.00  0.00     0.338 C 
ATOM     33  O   UNL A   1      32.546  35.499  30.182  1.00  0.00    -0.246 OA
BRANCH  32  34
ATOM     34  C   UNL A   1      34.547  34.250  29.908  1.00  0.00     0.060 A 
ATOM     35  C   UNL A   1      34.432  33.348  30.971  1.00  0.00     0.016 A 
ATOM     36  C   UNL A   1      35.793  34.497  29.334  1.00  0.00     0.016 A 
ATOM     37  C   UNL A   1      35.572  32.730  31.492  1.00  0.00     0.010 A 
ATOM     38  C   UNL A   1      36.924  33.852  29.841  1.00  0.00     0.010 A 
ATOM     39  C   UNL A   1      36.839  32.993  30.947  1.00  0.00    -0.014 A 
BRANCH  39  40
ATOM     40  C   UNL A   1      38.072  32.451  31.589  1.00  0.00     0.031 A 
ATOM     41  C   UNL A   1      38.518  32.975  32.936  1.00  0.00     0.074 A 
ATOM     42  C   UNL A   1      38.798  31.490  30.983  1.00  0.00     0.049 A 
ATOM     43  N   UNL A   1      39.512  32.574  33.692  1.00  0.00    -0.248 NA
ATOM     44  C   UNL A   1      37.775  34.119  33.492  1.00  0.00     0.031 C 
ATOM     45  C   UNL A   1      38.540  30.941  29.650  1.00  0.00     0.029 A 
ATOM     46  N   UNL A   1      39.901  30.795  31.418  1.00  0.00    -0.354 N 
ATOM     47  C   UNL A   1      39.519  33.425  34.794  1.00  0.00     0.074 A 
ATOM     48  C   UNL A   1      38.485  34.409  34.572  1.00  0.00     0.031 C 
ATOM     49  C   UNL A   1      39.427  29.963  29.398  1.00  0.00     0.029 A 
ATOM     50  C   UNL A   1      40.329  29.827  30.540  1.00  0.00     0.049 A 
ATOM     51  H   UNL A   1      40.344  30.972  32.280  1.00  0.00     0.167 HD
ATOM     52  C   UNL A   1      40.282  33.375  35.912  1.00  0.00     0.031 A 
ATOM     53  C   UNL A   1      41.317  28.917  30.647  1.00  0.00     0.031 A 
ATOM     54  C   UNL A   1      41.293  32.381  36.156  1.00  0.00     0.049 A 
ATOM     55  C   UNL A   1      42.130  28.850  31.915  1.00  0.00     0.074 A 
ATOM     56  C   UNL A   1      42.059  32.193  37.293  1.00  0.00     0.029 A 
ATOM     57  N   UNL A   1      41.677  31.406  35.249  1.00  0.00    -0.354 N 
ATOM     58  N   UNL A   1      42.043  29.592  32.994  1.00  0.00    -0.248 NA
ATOM     59  C   UNL A   1      43.156  27.798  31.988  1.00  0.00     0.031 C 
ATOM     60  C   UNL A   1      42.944  31.136  37.055  1.00  0.00     0.029 A 
ATOM     61  C   UNL A   1      42.686  30.627  35.792  1.00  0.00     0.049 A 
ATOM     62  H   UNL A   1      41.292  31.286  34.352  1.00  0.00     0.167 HD
ATOM     63  C   UNL A   1      42.986  29.081  33.881  1.00  0.00     0.074 A 
ATOM     64  C   UNL A   1      43.609  27.951  33.225  1.00  0.00     0.031 C 
ATOM     65  C   UNL A   1      43.308  29.510  35.127  1.00  0.00     0.031 A 
BRANCH  52  66
ATOM     66  C   UNL A   1      40.036  34.422  36.971  1.00  0.00    -0.014 A 
ATOM     67  C   UNL A   1      39.052  34.235  37.960  1.00  0.00     0.010 A 
ATOM     68  C   UNL A   1      40.817  35.591  37.000  1.00  0.00     0.010 A 
ATOM     69  C   UNL A   1      38.815  35.219  38.923  1.00  0.00     0.020 A 
ATOM     70  C   UNL A   1      40.609  36.563  37.985  1.00  0.00     0.020 A 
ATOM     71  C   UNL A   1      39.596  36.378  38.928  1.00  0.00     0.054 A 
BRANCH  71  72
ATOM     72  S   UNL A   1      39.281  37.627  40.206  1.00  0.00     0.124 S 
ATOM     73  O   UNL A   1      38.862  36.802  41.336  1.00  0.00    -0.237 OA
ATOM     74  O   UNL A   1      40.584  38.272  40.349  1.00  0.00    -0.237 OA
ATOM     75  O   UNL A   1      38.235  38.464  39.625  1.00  0.00    -0.744 OA
ENDBRANCH  71  72
ENDBRANCH  52  66
BRANCH  53  76
ATOM     76  C   UNL A   1      41.567  27.950  29.540  1.00  0.00    -0.014 A 
ATOM     77  C   UNL A   1      40.757  26.809  29.394  1.00  0.00     0.010 A 
ATOM     78  C   UNL A   1      42.617  28.161  28.630  1.00  0.00     0.010 A 
ATOM     79  C   UNL A   1      41.006  25.886  28.374  1.00  0.00     0.020 A 
ATOM     80  C   UNL A   1      42.852  27.256  27.590  1.00  0.00     0.020 A 
ATOM     81  C   UNL A   1      42.052  26.118  27.476  1.00  0.00     0.054 A 
BRANCH  81  82
ATOM     82  S   UNL A   1      42.323  24.932  26.128  1.00  0.00     0.124 S 
ATOM     83  O   UNL A   1      41.243  23.974  26.344  1.00  0.00    -0.237 OA
ATOM     84  O   UNL A   1      42.196  25.773  24.940  1.00  0.00    -0.237 OA
ATOM     85  O   UNL A   1      43.670  24.427  26.385  1.00  0.00    -0.744 OA
ENDBRANCH  81  82
ENDBRANCH  53  76
BRANCH  65  86
ATOM     86  C   UNL A   1      44.366  28.739  35.875  1.00  0.00    -0.014 A 
ATOM     87  C   UNL A   1      44.032  27.649  36.699  1.00  0.00     0.010 A 
ATOM     88  C   UNL A   1      45.719  29.097  35.732  1.00  0.00     0.010 A 
ATOM     89  C   UNL A   1      45.026  26.969  37.409  1.00  0.00     0.020 A 
ATOM     90  C   UNL A   1      46.719  28.398  36.414  1.00  0.00     0.020 A 
ATOM     91  C   UNL A   1      46.362  27.352  37.267  1.00  0.00     0.054 A 
BRANCH  91  92
ATOM     92  S   UNL A   1      47.633  26.451  38.197  1.00  0.00     0.124 S 
ATOM     93  O   UNL A   1      48.777  26.522  37.292  1.00  0.00    -0.237 OA
ATOM     94  O   UNL A   1      47.750  27.234  39.423  1.00  0.00    -0.237 OA
ATOM     95  O   UNL A   1      47.057  25.118  38.368  1.00  0.00    -0.744 OA
ENDBRANCH  91  92
ENDBRANCH  65  86
ENDBRANCH  39  40
ENDBRANCH  32  34
ENDBRANCH  31  32
ENDBRANCH  30  31
ENDBRANCH  29  30
ENDBRANCH   1  29
TORSDOF 22
ENDMDL
