MODEL 1
REMARK VINA RESULT:      -9.3      0.000      0.000
REMARK SMILES COC(CNS(=O)(=O)c1ccc(Cl)c(C(=O)OCCOCCOC(=O)c2ccc(-c3c4nc(c(-c5ccc(S(=O)(=O)[O-])cc5)c5ccc([nH]5)c(-c5ccc(S(=O)(=O)[O-])cc5)c5nc(c(-c6ccc(S(=O)(=O)[O-])cc6)c6ccc3[nH]6)C=C5)C=C4)cc2)c1Cl)OC
REMARK SMILES IDX 19 1 18 2 17 3 15 4 16 5 14 6 9 7 10 8 86 9 11 10 87 11
REMARK SMILES IDX 12 12 13 13 6 14 7 15 8 16 5 17 4 19 3 20 2 21 1 22 88 23
REMARK SMILES IDX 89 24 20 25 21 26 22 27 23 28 24 29 25 30 26 31 27 32 85 33
REMARK SMILES IDX 28 34 84 35 29 36 30 37 31 38 78 39 32 40 83 41 77 42 79 43
REMARK SMILES IDX 33 44 82 45 76 46 75 47 34 49 64 50 45 51 63 52 46 53 49 54
REMARK SMILES IDX 62 55 80 56 47 57 48 58 61 60 81 61 50 62 35 63 36 64 44 65
REMARK SMILES IDX 37 66 43 67 38 68 39 69 40 70 41 71 42 72 65 73 66 74 74 75
REMARK SMILES IDX 67 76 73 77 68 78 69 79 70 80 71 81 72 82 51 83 52 84 60 85
REMARK SMILES IDX 53 86 59 87 54 88 55 89 56 90 57 91 58 92
REMARK H PARENT 5 18 79 48 49 59
REMARK Flexibility Score: inf
ROOT
ATOM      1  C   UNL A   1      33.113  29.229  24.986  1.00  0.00     0.202 C 
ENDROOT
BRANCH   1   2
ATOM      2  C   UNL A   1      31.670  28.722  24.904  1.00  0.00     0.261 C 
BRANCH   2   3
ATOM      3  O   UNL A   1      30.943  29.464  23.918  1.00  0.00    -0.460 OA
BRANCH   3   4
ATOM      4  C   UNL A   1      30.859  28.889  22.698  1.00  0.00     0.341 C 
ATOM      5  O   UNL A   1      31.015  29.419  21.614  1.00  0.00    -0.246 OA
BRANCH   4   6
ATOM      6  C   UNL A   1      30.727  27.434  22.902  1.00  0.00     0.098 A 
ATOM      7  C   UNL A   1      31.719  25.213  22.914  1.00  0.00     0.102 A 
ATOM      8  C   UNL A   1      30.487  24.690  23.348  1.00  0.00     0.025 A 
ATOM      9  C   UNL A   1      31.844  26.593  22.680  1.00  0.00     0.077 A 
ATOM     10  C   UNL A   1      29.394  25.531  23.565  1.00  0.00     0.023 A 
ATOM     11  Cl  UNL A   1      33.351  27.313  22.210  1.00  0.00    -0.082 Cl
ATOM     12  C   UNL A   1      29.508  26.902  23.342  1.00  0.00     0.057 A 
ATOM     13  Cl  UNL A   1      28.106  27.872  23.617  1.00  0.00    -0.083 Cl
BRANCH   7  14
ATOM     14  S   UNL A   1      33.017  24.040  22.578  1.00  0.00     0.242 S 
ATOM     15  O   UNL A   1      34.168  24.287  23.411  1.00  0.00    -0.207 OA
ATOM     16  O   UNL A   1      33.171  23.968  21.139  1.00  0.00    -0.207 OA
BRANCH  14  17
ATOM     17  N   UNL A   1      32.359  22.544  22.989  1.00  0.00    -0.206 NA
ATOM     18  H   UNL A   1      31.464  22.725  23.443  1.00  0.00     0.141 HD
BRANCH  17  19
ATOM     19  C   UNL A   1      33.126  21.648  23.882  1.00  0.00     0.161 C 
BRANCH  19  20
ATOM     20  C   UNL A   1      32.777  21.749  25.394  1.00  0.00     0.263 C 
BRANCH  20  21
ATOM     21  O   UNL A   1      31.421  22.013  25.757  1.00  0.00    -0.355 OA
ATOM     22  C   UNL A   1      31.125  23.185  26.480  1.00  0.00     0.198 C 
ENDBRANCH  20  21
BRANCH  20  23
ATOM     23  O   UNL A   1      33.750  22.378  26.230  1.00  0.00    -0.355 OA
ATOM     24  C   UNL A   1      34.108  21.730  27.430  1.00  0.00     0.198 C 
ENDBRANCH  20  23
ENDBRANCH  19  20
ENDBRANCH  17  19
ENDBRANCH  14  17
ENDBRANCH   7  14
ENDBRANCH   4   6
ENDBRANCH   3   4
ENDBRANCH   2   3
ENDBRANCH   1   2
BRANCH   1  25
ATOM     25  O   UNL A   1      33.352  30.287  25.917  1.00  0.00    -0.374 OA
BRANCH  25  26
ATOM     26  C   UNL A   1      33.723  29.924  27.249  1.00  0.00     0.202 C 
BRANCH  26  27
ATOM     27  C   UNL A   1      34.989  29.073  27.416  1.00  0.00     0.261 C 
BRANCH  27  28
ATOM     28  O   UNL A   1      36.172  29.870  27.620  1.00  0.00    -0.460 OA
BRANCH  28  29
ATOM     29  C   UNL A   1      36.838  29.623  28.777  1.00  0.00     0.338 C 
ATOM     30  O   UNL A   1      36.369  29.566  29.900  1.00  0.00    -0.246 OA
BRANCH  29  31
ATOM     31  C   UNL A   1      38.232  29.250  28.476  1.00  0.00     0.060 A 
ATOM     32  C   UNL A   1      39.028  28.772  29.526  1.00  0.00     0.016 A 
ATOM     33  C   UNL A   1      38.771  29.435  27.204  1.00  0.00     0.016 A 
ATOM     34  C   UNL A   1      40.376  28.485  29.305  1.00  0.00     0.010 A 
ATOM     35  C   UNL A   1      40.125  29.161  26.989  1.00  0.00     0.010 A 
ATOM     36  C   UNL A   1      40.938  28.700  28.040  1.00  0.00    -0.014 A 
BRANCH  36  37
ATOM     37  C   UNL A   1      42.395  28.527  27.826  1.00  0.00     0.031 A 
ATOM     38  C   UNL A   1      43.321  29.684  28.076  1.00  0.00     0.074 A 
ATOM     39  C   UNL A   1      42.884  27.350  27.396  1.00  0.00     0.049 A 
ATOM     40  N   UNL A   1      44.608  29.774  27.859  1.00  0.00    -0.248 NA
ATOM     41  C   UNL A   1      42.716  30.899  28.645  1.00  0.00     0.031 C 
ATOM     42  C   UNL A   1      42.095  26.139  27.168  1.00  0.00     0.029 A 
ATOM     43  N   UNL A   1      44.164  26.985  27.062  1.00  0.00    -0.354 N 
ATOM     44  C   UNL A   1      44.968  31.057  28.256  1.00  0.00     0.074 A 
ATOM     45  C   UNL A   1      43.759  31.715  28.705  1.00  0.00     0.031 C 
ATOM     46  C   UNL A   1      42.907  25.168  26.716  1.00  0.00     0.029 A 
ATOM     47  C   UNL A   1      44.262  25.700  26.582  1.00  0.00     0.049 A 
ATOM     48  H   UNL A   1      44.938  27.586  27.155  1.00  0.00     0.167 HD
ATOM     49  C   UNL A   1      46.194  31.634  28.245  1.00  0.00     0.031 A 
ATOM     50  C   UNL A   1      45.315  25.039  26.063  1.00  0.00     0.031 A 
ATOM     51  C   UNL A   1      47.387  30.982  27.774  1.00  0.00     0.049 A 
ATOM     52  C   UNL A   1      46.648  25.736  25.963  1.00  0.00     0.074 A 
ATOM     53  C   UNL A   1      48.679  31.480  27.732  1.00  0.00     0.029 A 
ATOM     54  N   UNL A   1      47.437  29.699  27.254  1.00  0.00    -0.354 N 
ATOM     55  N   UNL A   1      46.977  26.944  26.357  1.00  0.00    -0.248 NA
ATOM     56  C   UNL A   1      47.749  24.982  25.347  1.00  0.00     0.031 C 
ATOM     57  C   UNL A   1      49.497  30.518  27.131  1.00  0.00     0.029 A 
ATOM     58  C   UNL A   1      48.728  29.397  26.855  1.00  0.00     0.049 A 
ATOM     59  H   UNL A   1      46.666  29.089  27.179  1.00  0.00     0.167 HD
ATOM     60  C   UNL A   1      48.328  27.084  26.056  1.00  0.00     0.074 A 
ATOM     61  C   UNL A   1      48.757  25.836  25.459  1.00  0.00     0.031 C 
ATOM     62  C   UNL A   1      49.141  28.151  26.259  1.00  0.00     0.031 A 
BRANCH  49  63
ATOM     63  C   UNL A   1      46.295  33.059  28.720  1.00  0.00    -0.014 A 
ATOM     64  C   UNL A   1      46.491  33.362  30.079  1.00  0.00     0.010 A 
ATOM     65  C   UNL A   1      46.222  34.110  27.789  1.00  0.00     0.010 A 
ATOM     66  C   UNL A   1      46.570  34.691  30.503  1.00  0.00     0.020 A 
ATOM     67  C   UNL A   1      46.327  35.441  28.205  1.00  0.00     0.020 A 
ATOM     68  C   UNL A   1      46.481  35.722  29.564  1.00  0.00     0.054 A 
BRANCH  68  69
ATOM     69  S   UNL A   1      46.595  37.439  30.140  1.00  0.00     0.124 S 
ATOM     70  O   UNL A   1      47.546  37.322  31.244  1.00  0.00    -0.237 OA
ATOM     71  O   UNL A   1      47.090  38.141  28.959  1.00  0.00    -0.237 OA
ATOM     72  O   UNL A   1      45.226  37.767  30.530  1.00  0.00    -0.744 OA
ENDBRANCH  68  69
ENDBRANCH  49  63
BRANCH  50  73
ATOM     73  C   UNL A   1      45.145  23.646  25.566  1.00  0.00    -0.014 A 
ATOM     74  C   UNL A   1      44.606  23.403  24.291  1.00  0.00     0.010 A 
ATOM     75  C   UNL A   1      45.530  22.555  26.366  1.00  0.00     0.010 A 
ATOM     76  C   UNL A   1      44.445  22.094  23.829  1.00  0.00     0.020 A 
ATOM     77  C   UNL A   1      45.396  21.245  25.897  1.00  0.00     0.020 A 
ATOM     78  C   UNL A   1      44.845  21.022  24.634  1.00  0.00     0.054 A 
BRANCH  78  79
ATOM     79  S   UNL A   1      44.678  19.333  23.992  1.00  0.00     0.124 S 
ATOM     80  O   UNL A   1      43.486  18.860  24.689  1.00  0.00    -0.237 OA
ATOM     81  O   UNL A   1      44.525  19.557  22.556  1.00  0.00    -0.237 OA
ATOM     82  O   UNL A   1      45.930  18.693  24.385  1.00  0.00    -0.744 OA
ENDBRANCH  78  79
ENDBRANCH  50  73
BRANCH  62  83
ATOM     83  C   UNL A   1      50.586  28.016  25.859  1.00  0.00    -0.014 A 
ATOM     84  C   UNL A   1      51.562  27.607  26.783  1.00  0.00     0.010 A 
ATOM     85  C   UNL A   1      50.957  28.226  24.517  1.00  0.00     0.010 A 
ATOM     86  C   UNL A   1      52.887  27.423  26.377  1.00  0.00     0.020 A 
ATOM     87  C   UNL A   1      52.276  28.019  24.103  1.00  0.00     0.020 A 
ATOM     88  C   UNL A   1      53.235  27.627  25.038  1.00  0.00     0.054 A 
BRANCH  88  89
ATOM     89  S   UNL A   1      54.946  27.315  24.523  1.00  0.00     0.124 S 
ATOM     90  O   UNL A   1      55.464  28.669  24.350  1.00  0.00    -0.237 OA
ATOM     91  O   UNL A   1      55.492  26.572  25.656  1.00  0.00    -0.237 OA
ATOM     92  O   UNL A   1      54.802  26.541  23.291  1.00  0.00    -0.744 OA
ENDBRANCH  88  89
ENDBRANCH  62  83
ENDBRANCH  36  37
ENDBRANCH  29  31
ENDBRANCH  28  29
ENDBRANCH  27  28
ENDBRANCH  26  27
ENDBRANCH  25  26
ENDBRANCH   1  25
TORSDOF 23
ENDMDL
MODEL 2
REMARK VINA RESULT:      -9.2      1.789      2.305
REMARK SMILES COC(CNS(=O)(=O)c1ccc(Cl)c(C(=O)OCCOCCOC(=O)c2ccc(-c3c4nc(c(-c5ccc(S(=O)(=O)[O-])cc5)c5ccc([nH]5)c(-c5ccc(S(=O)(=O)[O-])cc5)c5nc(c(-c6ccc(S(=O)(=O)[O-])cc6)c6ccc3[nH]6)C=C5)C=C4)cc2)c1Cl)OC
REMARK SMILES IDX 19 1 18 2 17 3 15 4 16 5 14 6 9 7 10 8 86 9 11 10 87 11
REMARK SMILES IDX 12 12 13 13 6 14 7 15 8 16 5 17 4 19 3 20 2 21 1 22 88 23
REMARK SMILES IDX 89 24 20 25 21 26 22 27 23 28 24 29 25 30 26 31 27 32 85 33
REMARK SMILES IDX 28 34 84 35 29 36 30 37 31 38 78 39 32 40 83 41 77 42 79 43
REMARK SMILES IDX 33 44 82 45 76 46 75 47 34 49 64 50 45 51 63 52 46 53 49 54
REMARK SMILES IDX 62 55 80 56 47 57 48 58 61 60 81 61 50 62 35 63 36 64 44 65
REMARK SMILES IDX 37 66 43 67 38 68 39 69 40 70 41 71 42 72 65 73 66 74 74 75
REMARK SMILES IDX 67 76 73 77 68 78 69 79 70 80 71 81 72 82 51 83 52 84 60 85
REMARK SMILES IDX 53 86 59 87 54 88 55 89 56 90 57 91 58 92
REMARK H PARENT 5 18 79 48 49 59
REMARK Flexibility Score: inf
ROOT
ATOM      1  C   UNL A   1      33.059  29.603  25.943  1.00  0.00     0.202 C 
ENDROOT
BRANCH   1   2
ATOM      2  C   UNL A   1      31.773  28.856  25.578  1.00  0.00     0.261 C 
BRANCH   2   3
ATOM      3  O   UNL A   1      31.972  28.085  24.387  1.00  0.00    -0.460 OA
BRANCH   3   4
ATOM      4  C   UNL A   1      30.911  27.354  23.980  1.00  0.00     0.341 C 
ATOM      5  O   UNL A   1      29.918  27.746  23.396  1.00  0.00    -0.246 OA
BRANCH   4   6
ATOM      6  C   UNL A   1      31.241  25.933  24.198  1.00  0.00     0.098 A 
ATOM      7  C   UNL A   1      32.584  23.979  23.656  1.00  0.00     0.102 A 
ATOM      8  C   UNL A   1      31.904  23.262  24.657  1.00  0.00     0.025 A 
ATOM      9  C   UNL A   1      32.250  25.322  23.414  1.00  0.00     0.077 A 
ATOM     10  C   UNL A   1      30.912  23.877  25.424  1.00  0.00     0.023 A 
ATOM     11  Cl  UNL A   1      33.094  26.283  22.242  1.00  0.00    -0.082 Cl
ATOM     12  C   UNL A   1      30.577  25.211  25.198  1.00  0.00     0.057 A 
ATOM     13  Cl  UNL A   1      29.330  25.894  26.177  1.00  0.00    -0.083 Cl
BRANCH   7  14
ATOM     14  S   UNL A   1      33.761  23.069  22.675  1.00  0.00     0.242 S 
ATOM     15  O   UNL A   1      33.592  23.348  21.271  1.00  0.00    -0.207 OA
ATOM     16  O   UNL A   1      33.743  21.697  23.144  1.00  0.00    -0.207 OA
BRANCH  14  17
ATOM     17  N   UNL A   1      35.265  23.645  23.168  1.00  0.00    -0.206 NA
ATOM     18  H   UNL A   1      35.969  23.029  22.761  1.00  0.00     0.141 HD
BRANCH  17  19
ATOM     19  C   UNL A   1      35.554  23.739  24.615  1.00  0.00     0.161 C 
BRANCH  19  20
ATOM     20  C   UNL A   1      36.535  22.670  25.175  1.00  0.00     0.263 C 
BRANCH  20  21
ATOM     21  O   UNL A   1      36.006  21.645  26.017  1.00  0.00    -0.355 OA
ATOM     22  C   UNL A   1      34.709  21.799  26.546  1.00  0.00     0.198 C 
ENDBRANCH  20  21
BRANCH  20  23
ATOM     23  O   UNL A   1      37.835  23.133  25.546  1.00  0.00    -0.355 OA
ATOM     24  C   UNL A   1      38.755  22.189  26.046  1.00  0.00     0.198 C 
ENDBRANCH  20  23
ENDBRANCH  19  20
ENDBRANCH  17  19
ENDBRANCH  14  17
ENDBRANCH   7  14
ENDBRANCH   4   6
ENDBRANCH   3   4
ENDBRANCH   2   3
ENDBRANCH   1   2
BRANCH   1  25
ATOM     25  O   UNL A   1      33.050  30.282  27.201  1.00  0.00    -0.374 OA
BRANCH  25  26
ATOM     26  C   UNL A   1      33.963  31.369  27.372  1.00  0.00     0.202 C 
BRANCH  26  27
ATOM     27  C   UNL A   1      34.759  31.415  28.683  1.00  0.00     0.261 C 
BRANCH  27  28
ATOM     28  O   UNL A   1      35.660  30.301  28.826  1.00  0.00    -0.460 OA
BRANCH  28  29
ATOM     29  C   UNL A   1      36.353  30.269  29.993  1.00  0.00     0.338 C 
ATOM     30  O   UNL A   1      35.896  30.287  31.123  1.00  0.00    -0.246 OA
BRANCH  29  31
ATOM     31  C   UNL A   1      37.781  30.030  29.716  1.00  0.00     0.060 A 
ATOM     32  C   UNL A   1      38.195  29.989  28.378  1.00  0.00     0.016 A 
ATOM     33  C   UNL A   1      38.685  29.778  30.747  1.00  0.00     0.016 A 
ATOM     34  C   UNL A   1      39.521  29.683  28.067  1.00  0.00     0.010 A 
ATOM     35  C   UNL A   1      40.009  29.458  30.432  1.00  0.00     0.010 A 
ATOM     36  C   UNL A   1      40.430  29.394  29.092  1.00  0.00    -0.014 A 
BRANCH  36  37
ATOM     37  C   UNL A   1      41.805  28.940  28.771  1.00  0.00     0.031 A 
ATOM     38  C   UNL A   1      42.931  29.936  28.772  1.00  0.00     0.074 A 
ATOM     39  C   UNL A   1      42.041  27.652  28.463  1.00  0.00     0.049 A 
ATOM     40  N   UNL A   1      44.181  29.769  28.428  1.00  0.00    -0.248 NA
ATOM     41  C   UNL A   1      42.603  31.298  29.221  1.00  0.00     0.031 C 
ATOM     42  C   UNL A   1      41.043  26.582  28.477  1.00  0.00     0.029 A 
ATOM     43  N   UNL A   1      43.197  27.028  28.066  1.00  0.00    -0.354 N 
ATOM     44  C   UNL A   1      44.790  31.006  28.609  1.00  0.00     0.074 A 
ATOM     45  C   UNL A   1      43.765  31.917  29.073  1.00  0.00     0.031 C 
ATOM     46  C   UNL A   1      41.628  25.435  28.091  1.00  0.00     0.029 A 
ATOM     47  C   UNL A   1      43.028  25.699  27.761  1.00  0.00     0.049 A 
ATOM     48  H   UNL A   1      44.065  27.489  28.004  1.00  0.00     0.167 HD
ATOM     49  C   UNL A   1      46.085  31.350  28.407  1.00  0.00     0.031 A 
ATOM     50  C   UNL A   1      43.892  24.803  27.243  1.00  0.00     0.031 A 
ATOM     51  C   UNL A   1      47.094  30.445  27.922  1.00  0.00     0.049 A 
ATOM     52  C   UNL A   1      45.301  25.235  26.926  1.00  0.00     0.074 A 
ATOM     53  C   UNL A   1      48.436  30.697  27.693  1.00  0.00     0.029 A 
ATOM     54  N   UNL A   1      46.872  29.120  27.581  1.00  0.00    -0.354 N 
ATOM     55  N   UNL A   1      45.867  26.403  27.118  1.00  0.00    -0.248 NA
ATOM     56  C   UNL A   1      46.185  24.229  26.321  1.00  0.00     0.031 C 
ATOM     57  C   UNL A   1      49.011  29.539  27.157  1.00  0.00     0.029 A 
ATOM     58  C   UNL A   1      48.042  28.549  27.111  1.00  0.00     0.049 A 
ATOM     59  H   UNL A   1      46.008  28.653  27.662  1.00  0.00     0.167 HD
ATOM     60  C   UNL A   1      47.179  26.264  26.677  1.00  0.00     0.074 A 
ATOM     61  C   UNL A   1      47.326  24.898  26.221  1.00  0.00     0.031 C 
ATOM     62  C   UNL A   1      48.174  27.187  26.656  1.00  0.00     0.031 A 
BRANCH  49  63
ATOM     63  C   UNL A   1      46.472  32.781  28.670  1.00  0.00    -0.014 A 
ATOM     64  C   UNL A   1      46.785  33.224  29.967  1.00  0.00     0.010 A 
ATOM     65  C   UNL A   1      46.554  33.688  27.598  1.00  0.00     0.010 A 
ATOM     66  C   UNL A   1      47.130  34.560  30.194  1.00  0.00     0.020 A 
ATOM     67  C   UNL A   1      46.925  35.019  27.817  1.00  0.00     0.020 A 
ATOM     68  C   UNL A   1      47.192  35.449  29.118  1.00  0.00     0.054 A 
BRANCH  68  69
ATOM     69  S   UNL A   1      47.651  37.175  29.439  1.00  0.00     0.124 S 
ATOM     70  O   UNL A   1      46.350  37.840  29.420  1.00  0.00    -0.237 OA
ATOM     71  O   UNL A   1      48.296  37.097  30.747  1.00  0.00    -0.237 OA
ATOM     72  O   UNL A   1      48.538  37.512  28.329  1.00  0.00    -0.744 OA
ENDBRANCH  68  69
ENDBRANCH  49  63
BRANCH  50  73
ATOM     73  C   UNL A   1      43.440  23.414  26.960  1.00  0.00    -0.014 A 
ATOM     74  C   UNL A   1      43.297  22.964  25.636  1.00  0.00     0.010 A 
ATOM     75  C   UNL A   1      43.156  22.530  28.017  1.00  0.00     0.010 A 
ATOM     76  C   UNL A   1      42.869  21.659  25.374  1.00  0.00     0.020 A 
ATOM     77  C   UNL A   1      42.754  21.216  27.760  1.00  0.00     0.020 A 
ATOM     78  C   UNL A   1      42.604  20.792  26.439  1.00  0.00     0.054 A 
BRANCH  78  79
ATOM     79  S   UNL A   1      42.103  19.086  26.075  1.00  0.00     0.124 S 
ATOM     80  O   UNL A   1      40.697  19.252  25.718  1.00  0.00    -0.237 OA
ATOM     81  O   UNL A   1      42.997  18.723  24.977  1.00  0.00    -0.237 OA
ATOM     82  O   UNL A   1      42.352  18.382  27.330  1.00  0.00    -0.744 OA
ENDBRANCH  78  79
ENDBRANCH  50  73
BRANCH  62  83
ATOM     83  C   UNL A   1      49.522  26.750  26.147  1.00  0.00    -0.014 A 
ATOM     84  C   UNL A   1      49.875  26.908  24.796  1.00  0.00     0.010 A 
ATOM     85  C   UNL A   1      50.476  26.246  27.051  1.00  0.00     0.010 A 
ATOM     86  C   UNL A   1      51.154  26.558  24.355  1.00  0.00     0.020 A 
ATOM     87  C   UNL A   1      51.764  25.919  26.618  1.00  0.00     0.020 A 
ATOM     88  C   UNL A   1      52.092  26.069  25.270  1.00  0.00     0.054 A 
BRANCH  88  89
ATOM     89  S   UNL A   1      53.766  25.688  24.685  1.00  0.00     0.124 S 
ATOM     90  O   UNL A   1      54.597  26.329  25.699  1.00  0.00    -0.237 OA
ATOM     91  O   UNL A   1      53.783  24.227  24.689  1.00  0.00    -0.237 OA
ATOM     92  O   UNL A   1      53.818  26.300  23.358  1.00  0.00    -0.744 OA
ENDBRANCH  88  89
ENDBRANCH  62  83
ENDBRANCH  36  37
ENDBRANCH  29  31
ENDBRANCH  28  29
ENDBRANCH  27  28
ENDBRANCH  26  27
ENDBRANCH  25  26
ENDBRANCH   1  25
TORSDOF 23
ENDMDL
MODEL 3
REMARK VINA RESULT:      -8.4      6.082     10.460
REMARK SMILES COC(CNS(=O)(=O)c1ccc(Cl)c(C(=O)OCCOCCOC(=O)c2ccc(-c3c4nc(c(-c5ccc(S(=O)(=O)[O-])cc5)c5ccc([nH]5)c(-c5ccc(S(=O)(=O)[O-])cc5)c5nc(c(-c6ccc(S(=O)(=O)[O-])cc6)c6ccc3[nH]6)C=C5)C=C4)cc2)c1Cl)OC
REMARK SMILES IDX 19 1 18 2 17 3 15 4 16 5 14 6 9 7 10 8 86 9 11 10 87 11
REMARK SMILES IDX 12 12 13 13 6 14 7 15 8 16 5 17 4 19 3 20 2 21 1 22 88 23
REMARK SMILES IDX 89 24 20 25 21 26 22 27 23 28 24 29 25 30 26 31 27 32 85 33
REMARK SMILES IDX 28 34 84 35 29 36 30 37 31 38 78 39 32 40 83 41 77 42 79 43
REMARK SMILES IDX 33 44 82 45 76 46 75 47 34 49 64 50 45 51 63 52 46 53 49 54
REMARK SMILES IDX 62 55 80 56 47 57 48 58 61 60 81 61 50 62 35 63 36 64 44 65
REMARK SMILES IDX 37 66 43 67 38 68 39 69 40 70 41 71 42 72 65 73 66 74 74 75
REMARK SMILES IDX 67 76 73 77 68 78 69 79 70 80 71 81 72 82 51 83 52 84 60 85
REMARK SMILES IDX 53 86 59 87 54 88 55 89 56 90 57 91 58 92
REMARK H PARENT 5 18 79 48 49 59
REMARK Flexibility Score: inf
ROOT
ATOM      1  C   UNL A   1      32.351  29.967  25.129  1.00  0.00     0.202 C 
ENDROOT
BRANCH   1   2
ATOM      2  C   UNL A   1      31.174  29.392  24.335  1.00  0.00     0.261 C 
BRANCH   2   3
ATOM      3  O   UNL A   1      31.539  28.136  23.753  1.00  0.00    -0.460 OA
BRANCH   3   4
ATOM      4  C   UNL A   1      30.645  27.135  23.915  1.00  0.00     0.341 C 
ATOM      5  O   UNL A   1      29.489  27.102  23.537  1.00  0.00    -0.246 OA
BRANCH   4   6
ATOM      6  C   UNL A   1      31.370  25.980  24.478  1.00  0.00     0.098 A 
ATOM      7  C   UNL A   1      32.637  23.930  24.153  1.00  0.00     0.102 A 
ATOM      8  C   UNL A   1      32.791  23.831  25.548  1.00  0.00     0.025 A 
ATOM      9  C   UNL A   1      31.915  25.005  23.609  1.00  0.00     0.077 A 
ATOM     10  C   UNL A   1      32.250  24.800  26.395  1.00  0.00     0.023 A 
ATOM     11  Cl  UNL A   1      31.745  25.225  21.896  1.00  0.00    -0.082 Cl
ATOM     12  C   UNL A   1      31.538  25.875  25.865  1.00  0.00     0.057 A 
ATOM     13  Cl  UNL A   1      30.885  27.022  26.979  1.00  0.00    -0.083 Cl
BRANCH   7  14
ATOM     14  S   UNL A   1      33.286  22.589  23.176  1.00  0.00     0.242 S 
ATOM     15  O   UNL A   1      34.496  22.981  22.496  1.00  0.00    -0.207 OA
ATOM     16  O   UNL A   1      32.182  22.034  22.419  1.00  0.00    -0.207 OA
BRANCH  14  17
ATOM     17  N   UNL A   1      33.656  21.384  24.293  1.00  0.00    -0.206 NA
ATOM     18  H   UNL A   1      34.504  20.922  23.964  1.00  0.00     0.141 HD
BRANCH  17  19
ATOM     19  C   UNL A   1      32.658  20.324  24.556  1.00  0.00     0.161 C 
BRANCH  19  20
ATOM     20  C   UNL A   1      33.224  18.879  24.660  1.00  0.00     0.263 C 
BRANCH  20  21
ATOM     21  O   UNL A   1      33.315  18.103  23.465  1.00  0.00    -0.355 OA
ATOM     22  C   UNL A   1      32.302  18.226  22.493  1.00  0.00     0.198 C 
ENDBRANCH  20  21
BRANCH  20  23
ATOM     23  O   UNL A   1      32.860  18.137  25.825  1.00  0.00    -0.355 OA
ATOM     24  C   UNL A   1      32.765  16.734  25.712  1.00  0.00     0.198 C 
ENDBRANCH  20  23
ENDBRANCH  19  20
ENDBRANCH  17  19
ENDBRANCH  14  17
ENDBRANCH   7  14
ENDBRANCH   4   6
ENDBRANCH   3   4
ENDBRANCH   2   3
ENDBRANCH   1   2
BRANCH   1  25
ATOM     25  O   UNL A   1      32.154  30.089  26.539  1.00  0.00    -0.374 OA
BRANCH  25  26
ATOM     26  C   UNL A   1      33.209  30.674  27.307  1.00  0.00     0.202 C 
BRANCH  26  27
ATOM     27  C   UNL A   1      33.056  32.151  27.695  1.00  0.00     0.261 C 
BRANCH  27  28
ATOM     28  O   UNL A   1      34.063  32.589  28.626  1.00  0.00    -0.460 OA
BRANCH  28  29
ATOM     29  C   UNL A   1      35.162  33.150  28.061  1.00  0.00     0.338 C 
ATOM     30  O   UNL A   1      35.193  34.073  27.265  1.00  0.00    -0.246 OA
BRANCH  29  31
ATOM     31  C   UNL A   1      36.378  32.595  28.682  1.00  0.00     0.060 A 
ATOM     32  C   UNL A   1      36.280  31.358  29.333  1.00  0.00     0.016 A 
ATOM     33  C   UNL A   1      37.576  33.309  28.690  1.00  0.00     0.016 A 
ATOM     34  C   UNL A   1      37.385  30.834  30.006  1.00  0.00     0.010 A 
ATOM     35  C   UNL A   1      38.677  32.788  29.376  1.00  0.00     0.010 A 
ATOM     36  C   UNL A   1      38.583  31.557  30.050  1.00  0.00    -0.014 A 
BRANCH  36  37
ATOM     37  C   UNL A   1      39.721  31.075  30.870  1.00  0.00     0.031 A 
ATOM     38  C   UNL A   1      40.535  29.906  30.390  1.00  0.00     0.074 A 
ATOM     39  C   UNL A   1      40.014  31.667  32.042  1.00  0.00     0.049 A 
ATOM     40  N   UNL A   1      41.504  29.269  30.996  1.00  0.00    -0.248 NA
ATOM     41  C   UNL A   1      40.213  29.387  29.052  1.00  0.00     0.031 C 
ATOM     42  C   UNL A   1      39.333  32.840  32.590  1.00  0.00     0.029 A 
ATOM     43  N   UNL A   1      40.956  31.352  32.989  1.00  0.00    -0.354 N 
ATOM     44  C   UNL A   1      41.903  28.268  30.117  1.00  0.00     0.074 A 
ATOM     45  C   UNL A   1      41.056  28.369  28.948  1.00  0.00     0.031 C 
ATOM     46  C   UNL A   1      39.871  33.138  33.786  1.00  0.00     0.029 A 
ATOM     47  C   UNL A   1      40.901  32.152  34.106  1.00  0.00     0.049 A 
ATOM     48  H   UNL A   1      41.607  30.622  32.880  1.00  0.00     0.167 HD
ATOM     49  C   UNL A   1      42.886  27.348  30.273  1.00  0.00     0.031 A 
ATOM     50  C   UNL A   1      41.580  32.078  35.268  1.00  0.00     0.031 A 
ATOM     51  C   UNL A   1      43.708  27.237  31.449  1.00  0.00     0.049 A 
ATOM     52  C   UNL A   1      42.596  30.981  35.461  1.00  0.00     0.074 A 
ATOM     53  C   UNL A   1      44.736  26.344  31.698  1.00  0.00     0.029 A 
ATOM     54  N   UNL A   1      43.591  28.036  32.576  1.00  0.00    -0.354 N 
ATOM     55  N   UNL A   1      42.974  30.051  34.616  1.00  0.00    -0.248 NA
ATOM     56  C   UNL A   1      43.272  30.923  36.764  1.00  0.00     0.031 C 
ATOM     57  C   UNL A   1      45.199  26.565  33.000  1.00  0.00     0.029 A 
ATOM     58  C   UNL A   1      44.502  27.636  33.538  1.00  0.00     0.049 A 
ATOM     59  H   UNL A   1      42.952  28.779  32.679  1.00  0.00     0.167 HD
ATOM     60  C   UNL A   1      43.949  29.313  35.279  1.00  0.00     0.074 A 
ATOM     61  C   UNL A   1      44.110  29.910  36.589  1.00  0.00     0.031 C 
ATOM     62  C   UNL A   1      44.650  28.238  34.840  1.00  0.00     0.031 A 
BRANCH  49  63
ATOM     63  C   UNL A   1      43.094  26.360  29.157  1.00  0.00    -0.014 A 
ATOM     64  C   UNL A   1      42.305  25.200  29.053  1.00  0.00     0.010 A 
ATOM     65  C   UNL A   1      44.075  26.609  28.181  1.00  0.00     0.010 A 
ATOM     66  C   UNL A   1      42.522  24.288  28.017  1.00  0.00     0.020 A 
ATOM     67  C   UNL A   1      44.277  25.713  27.127  1.00  0.00     0.020 A 
ATOM     68  C   UNL A   1      43.511  24.547  27.064  1.00  0.00     0.054 A 
BRANCH  68  69
ATOM     69  S   UNL A   1      43.766  23.351  25.724  1.00  0.00     0.124 S 
ATOM     70  O   UNL A   1      42.644  22.436  25.921  1.00  0.00    -0.237 OA
ATOM     71  O   UNL A   1      43.691  24.186  24.529  1.00  0.00    -0.237 OA
ATOM     72  O   UNL A   1      45.084  22.788  26.006  1.00  0.00    -0.744 OA
ENDBRANCH  68  69
ENDBRANCH  49  63
BRANCH  50  73
ATOM     73  C   UNL A   1      41.299  33.055  36.355  1.00  0.00    -0.014 A 
ATOM     74  C   UNL A   1      42.191  34.108  36.618  1.00  0.00     0.010 A 
ATOM     75  C   UNL A   1      40.130  32.938  37.130  1.00  0.00     0.010 A 
ATOM     76  C   UNL A   1      41.924  35.022  37.643  1.00  0.00     0.020 A 
ATOM     77  C   UNL A   1      39.846  33.865  38.137  1.00  0.00     0.020 A 
ATOM     78  C   UNL A   1      40.751  34.896  38.394  1.00  0.00     0.054 A 
BRANCH  78  79
ATOM     79  S   UNL A   1      40.399  36.125  39.681  1.00  0.00     0.124 S 
ATOM     80  O   UNL A   1      39.051  36.559  39.326  1.00  0.00    -0.237 OA
ATOM     81  O   UNL A   1      40.508  35.337  40.907  1.00  0.00    -0.237 OA
ATOM     82  O   UNL A   1      41.448  37.124  39.496  1.00  0.00    -0.744 OA
ENDBRANCH  78  79
ENDBRANCH  50  73
BRANCH  62  83
ATOM     83  C   UNL A   1      45.677  27.645  35.769  1.00  0.00    -0.014 A 
ATOM     84  C   UNL A   1      45.348  26.594  36.641  1.00  0.00     0.010 A 
ATOM     85  C   UNL A   1      47.009  28.096  35.709  1.00  0.00     0.010 A 
ATOM     86  C   UNL A   1      46.330  26.013  37.449  1.00  0.00     0.020 A 
ATOM     87  C   UNL A   1      47.998  27.500  36.496  1.00  0.00     0.020 A 
ATOM     88  C   UNL A   1      47.650  26.467  37.368  1.00  0.00     0.054 A 
BRANCH  88  89
ATOM     89  S   UNL A   1      48.918  25.649  38.376  1.00  0.00     0.124 S 
ATOM     90  O   UNL A   1      49.748  26.775  38.793  1.00  0.00    -0.237 OA
ATOM     91  O   UNL A   1      48.131  25.021  39.434  1.00  0.00    -0.237 OA
ATOM     92  O   UNL A   1      49.553  24.717  37.445  1.00  0.00    -0.744 OA
ENDBRANCH  88  89
ENDBRANCH  62  83
ENDBRANCH  36  37
ENDBRANCH  29  31
ENDBRANCH  28  29
ENDBRANCH  27  28
ENDBRANCH  26  27
ENDBRANCH  25  26
ENDBRANCH   1  25
TORSDOF 23
ENDMDL
