MODEL 1
REMARK VINA RESULT:     -11.0      0.000      0.000
REMARK SMILES O=C(COc1ccc(Cl)c2ccccc12)N[C@@H](Cc1c[nH]c2ccccc12)C(=O)OCCOCCOC(=O)c1ccc(-c2c3nc(c(-c4ccc(S(=O)(=O)[O-])cc4)c4ccc([nH]4)c(-c4ccc(S(=O)(=O)[O-])cc4)c4nc(c(-c5ccc(S(=O)(=O)[O-])cc5)c5ccc2[nH]5)C=C4)C=C3)cc1
REMARK SMILES IDX 32 1 31 2 30 3 28 4 29 5 17 6 16 7 1 8 2 9 3 11 4 12 5 13
REMARK SMILES IDX 6 14 15 15 7 16 10 17 14 18 8 19 11 20 13 21 9 22 12 23
REMARK SMILES IDX 18 24 19 25 20 26 27 27 21 28 22 29 26 30 23 32 25 33 24 34
REMARK SMILES IDX 33 35 34 36 35 37 36 38 37 39 38 40 39 41 40 42 98 43 41 44
REMARK SMILES IDX 97 45 42 46 43 47 44 48 91 49 45 50 96 51 90 52 92 53 46 54
REMARK SMILES IDX 95 55 89 56 88 57 47 59 77 60 58 61 76 62 59 63 62 64 75 65
REMARK SMILES IDX 93 66 60 67 61 68 74 70 94 71 63 72 48 73 49 74 57 75 50 76
REMARK SMILES IDX 56 77 51 78 52 79 53 80 54 81 55 82 78 83 79 84 87 85 80 86
REMARK SMILES IDX 86 87 81 88 82 89 83 90 84 91 85 92 64 93 65 94 73 95 66 96
REMARK SMILES IDX 72 97 67 98 68 99 69 100 70 101 71 102
REMARK H PARENT 16 10 21 31 92 58 62 69
REMARK Flexibility Score: inf
ROOT
ATOM      1  C   UNL A   1      34.287  32.504  28.132  1.00  0.00     0.202 C 
ENDROOT
BRANCH   1   2
ATOM      2  C   UNL A   1      34.419  31.186  27.361  1.00  0.00     0.261 C 
BRANCH   2   3
ATOM      3  O   UNL A   1      33.304  30.285  27.509  1.00  0.00    -0.462 OA
BRANCH   3   4
ATOM      4  C   UNL A   1      32.380  30.339  26.508  1.00  0.00     0.329 C 
ATOM      5  O   UNL A   1      31.571  31.251  26.351  1.00  0.00    -0.250 OA
BRANCH   4   6
ATOM      6  C   UNL A   1      32.346  29.079  25.638  1.00  0.00     0.196 C 
BRANCH   6   7
ATOM      7  N   UNL A   1      32.930  27.834  26.181  1.00  0.00    -0.339 N 
ATOM      8  O   UNL A   1      33.693  27.138  24.142  1.00  0.00    -0.271 OA
ATOM      9  C   UNL A   1      33.531  26.917  25.344  1.00  0.00     0.258 C 
ATOM     10  H   UNL A   1      32.890  27.657  27.149  1.00  0.00     0.164 HD
BRANCH   9  11
ATOM     11  C   UNL A   1      33.935  25.549  25.936  1.00  0.00     0.329 C 
BRANCH  11  12
ATOM     12  O   UNL A   1      34.558  24.550  25.158  1.00  0.00    -0.483 OA
BRANCH  12  13
ATOM     13  C   UNL A   1      34.234  23.225  25.349  1.00  0.00     0.128 A 
ATOM     14  C   UNL A   1      32.925  22.767  25.505  1.00  0.00     0.048 A 
ATOM     15  C   UNL A   1      35.302  22.296  25.201  1.00  0.00     0.025 A 
ATOM     16  C   UNL A   1      32.643  21.409  25.370  1.00  0.00     0.025 A 
ATOM     17  C   UNL A   1      35.018  20.911  25.059  1.00  0.00     0.004 A 
ATOM     18  C   UNL A   1      36.654  22.708  25.187  1.00  0.00     0.012 A 
ATOM     19  C   UNL A   1      33.667  20.496  25.116  1.00  0.00     0.049 A 
ATOM     20  C   UNL A   1      36.099  20.017  24.855  1.00  0.00     0.010 A 
ATOM     21  C   UNL A   1      37.701  21.799  25.033  1.00  0.00     0.001 A 
ATOM     22  Cl  UNL A   1      33.191  18.847  24.865  1.00  0.00    -0.084 Cl
ATOM     23  C   UNL A   1      37.423  20.454  24.850  1.00  0.00     0.001 A 
ENDBRANCH  12  13
ENDBRANCH  11  12
ENDBRANCH   9  11
ENDBRANCH   6   7
BRANCH   6  24
ATOM     24  C   UNL A   1      30.901  28.878  25.127  1.00  0.00     0.074 C 
BRANCH  24  25
ATOM     25  C   UNL A   1      30.665  29.400  23.738  1.00  0.00    -0.020 A 
ATOM     26  C   UNL A   1      31.406  29.088  22.615  1.00  0.00     0.087 A 
ATOM     27  C   UNL A   1      29.638  30.310  23.312  1.00  0.00     0.003 A 
ATOM     28  N   UNL A   1      30.841  29.712  21.536  1.00  0.00    -0.361 N 
ATOM     29  C   UNL A   1      29.728  30.417  21.926  1.00  0.00     0.046 A 
ATOM     30  C   UNL A   1      28.615  31.032  23.967  1.00  0.00     0.010 A 
ATOM     31  H   UNL A   1      31.183  29.663  20.614  1.00  0.00     0.166 HD
ATOM     32  C   UNL A   1      28.814  31.148  21.156  1.00  0.00     0.026 A 
ATOM     33  C   UNL A   1      27.682  31.756  23.213  1.00  0.00     0.001 A 
ATOM     34  C   UNL A   1      27.774  31.798  21.826  1.00  0.00     0.002 A 
ENDBRANCH  24  25
ENDBRANCH   6  24
ENDBRANCH   4   6
ENDBRANCH   3   4
ENDBRANCH   2   3
ENDBRANCH   1   2
BRANCH   1  35
ATOM     35  O   UNL A   1      34.281  32.452  29.553  1.00  0.00    -0.374 OA
BRANCH  35  36
ATOM     36  C   UNL A   1      35.504  32.143  30.200  1.00  0.00     0.202 C 
BRANCH  36  37
ATOM     37  C   UNL A   1      35.488  31.758  31.684  1.00  0.00     0.261 C 
BRANCH  37  38
ATOM     38  O   UNL A   1      36.654  31.121  32.216  1.00  0.00    -0.460 OA
BRANCH  38  39
ATOM     39  C   UNL A   1      37.782  31.863  32.121  1.00  0.00     0.338 C 
ATOM     40  O   UNL A   1      37.994  32.972  32.590  1.00  0.00    -0.246 OA
BRANCH  39  41
ATOM     41  C   UNL A   1      38.816  31.092  31.424  1.00  0.00     0.060 A 
ATOM     42  C   UNL A   1      39.752  30.393  32.194  1.00  0.00     0.016 A 
ATOM     43  C   UNL A   1      38.937  31.172  30.033  1.00  0.00     0.016 A 
ATOM     44  C   UNL A   1      40.845  29.800  31.569  1.00  0.00     0.010 A 
ATOM     45  C   UNL A   1      40.038  30.576  29.415  1.00  0.00     0.010 A 
ATOM     46  C   UNL A   1      41.013  29.918  30.183  1.00  0.00    -0.014 A 
BRANCH  46  47
ATOM     47  C   UNL A   1      42.275  29.456  29.559  1.00  0.00     0.031 A 
ATOM     48  C   UNL A   1      43.435  30.408  29.451  1.00  0.00     0.074 A 
ATOM     49  C   UNL A   1      42.387  28.189  29.123  1.00  0.00     0.049 A 
ATOM     50  N   UNL A   1      44.627  30.203  28.953  1.00  0.00    -0.248 NA
ATOM     51  C   UNL A   1      43.224  31.768  29.973  1.00  0.00     0.031 C 
ATOM     52  C   UNL A   1      41.339  27.172  29.205  1.00  0.00     0.029 A 
ATOM     53  N   UNL A   1      43.438  27.543  28.526  1.00  0.00    -0.354 N 
ATOM     54  C   UNL A   1      45.308  31.407  29.098  1.00  0.00     0.074 A 
ATOM     55  C   UNL A   1      44.386  32.344  29.702  1.00  0.00     0.031 C 
ATOM     56  C   UNL A   1      41.801  26.027  28.675  1.00  0.00     0.029 A 
ATOM     57  C   UNL A   1      43.165  26.238  28.198  1.00  0.00     0.049 A 
ATOM     58  H   UNL A   1      44.306  27.973  28.350  1.00  0.00     0.167 HD
ATOM     59  C   UNL A   1      46.587  31.701  28.764  1.00  0.00     0.031 A 
ATOM     60  C   UNL A   1      43.929  25.319  27.573  1.00  0.00     0.031 A 
ATOM     61  C   UNL A   1      47.494  30.768  28.150  1.00  0.00     0.049 A 
ATOM     62  C   UNL A   1      45.330  25.684  27.165  1.00  0.00     0.074 A 
ATOM     63  C   UNL A   1      48.814  30.962  27.784  1.00  0.00     0.029 A 
ATOM     64  N   UNL A   1      47.171  29.464  27.807  1.00  0.00    -0.354 N 
ATOM     65  N   UNL A   1      45.967  26.819  27.334  1.00  0.00    -0.248 NA
ATOM     66  C   UNL A   1      46.118  24.641  26.493  1.00  0.00     0.031 C 
ATOM     67  C   UNL A   1      49.274  29.789  27.176  1.00  0.00     0.029 A 
ATOM     68  C   UNL A   1      48.257  28.848  27.209  1.00  0.00     0.049 A 
ATOM     69  H   UNL A   1      46.297  29.039  27.964  1.00  0.00     0.167 HD
ATOM     70  C   UNL A   1      47.238  26.620  26.807  1.00  0.00     0.074 A 
ATOM     71  C   UNL A   1      47.283  25.254  26.325  1.00  0.00     0.031 C 
ATOM     72  C   UNL A   1      48.277  27.489  26.731  1.00  0.00     0.031 A 
BRANCH  59  73
ATOM     73  C   UNL A   1      47.065  33.104  29.028  1.00  0.00    -0.014 A 
ATOM     74  C   UNL A   1      46.962  34.107  28.046  1.00  0.00     0.010 A 
ATOM     75  C   UNL A   1      47.608  33.430  30.285  1.00  0.00     0.010 A 
ATOM     76  C   UNL A   1      47.435  35.397  28.300  1.00  0.00     0.020 A 
ATOM     77  C   UNL A   1      48.061  34.725  30.550  1.00  0.00     0.020 A 
ATOM     78  C   UNL A   1      47.990  35.696  29.548  1.00  0.00     0.054 A 
BRANCH  78  79
ATOM     79  S   UNL A   1      48.596  37.378  29.856  1.00  0.00     0.124 S 
ATOM     80  O   UNL A   1      48.923  37.830  28.506  1.00  0.00    -0.237 OA
ATOM     81  O   UNL A   1      47.443  38.029  30.473  1.00  0.00    -0.237 OA
ATOM     82  O   UNL A   1      49.742  37.177  30.740  1.00  0.00    -0.744 OA
ENDBRANCH  78  79
ENDBRANCH  59  73
BRANCH  60  83
ATOM     83  C   UNL A   1      43.373  23.969  27.295  1.00  0.00    -0.014 A 
ATOM     84  C   UNL A   1      42.853  23.653  26.029  1.00  0.00     0.010 A 
ATOM     85  C   UNL A   1      43.391  22.979  28.296  1.00  0.00     0.010 A 
ATOM     86  C   UNL A   1      42.355  22.373  25.769  1.00  0.00     0.020 A 
ATOM     87  C   UNL A   1      42.915  21.692  28.033  1.00  0.00     0.020 A 
ATOM     88  C   UNL A   1      42.392  21.400  26.772  1.00  0.00     0.054 A 
BRANCH  88  89
ATOM     89  S   UNL A   1      41.806  19.725  26.393  1.00  0.00     0.124 S 
ATOM     90  O   UNL A   1      42.499  19.438  25.142  1.00  0.00    -0.237 OA
ATOM     91  O   UNL A   1      42.253  18.962  27.557  1.00  0.00    -0.237 OA
ATOM     92  O   UNL A   1      40.357  19.889  26.285  1.00  0.00    -0.744 OA
ENDBRANCH  88  89
ENDBRANCH  60  83
BRANCH  72  93
ATOM     93  C   UNL A   1      49.556  26.983  26.123  1.00  0.00    -0.014 A 
ATOM     94  C   UNL A   1      49.838  27.176  24.760  1.00  0.00     0.010 A 
ATOM     95  C   UNL A   1      50.512  26.353  26.941  1.00  0.00     0.010 A 
ATOM     96  C   UNL A   1      51.043  26.722  24.218  1.00  0.00     0.020 A 
ATOM     97  C   UNL A   1      51.728  25.919  26.407  1.00  0.00     0.020 A 
ATOM     98  C   UNL A   1      51.980  26.094  25.045  1.00  0.00     0.054 A 
BRANCH  98  99
ATOM     99  S   UNL A   1      53.556  25.552  24.329  1.00  0.00     0.124 S 
ATOM    100  O   UNL A   1      53.358  25.834  22.911  1.00  0.00    -0.237 OA
ATOM    101  O   UNL A   1      54.529  26.404  25.010  1.00  0.00    -0.237 OA
ATOM    102  O   UNL A   1      53.626  24.135  24.681  1.00  0.00    -0.744 OA
ENDBRANCH  98  99
ENDBRANCH  72  93
ENDBRANCH  46  47
ENDBRANCH  39  41
ENDBRANCH  38  39
ENDBRANCH  37  38
ENDBRANCH  36  37
ENDBRANCH  35  36
ENDBRANCH   1  35
TORSDOF 23
ENDMDL
MODEL 2
REMARK VINA RESULT:     -10.2      3.769      6.208
REMARK SMILES O=C(COc1ccc(Cl)c2ccccc12)N[C@@H](Cc1c[nH]c2ccccc12)C(=O)OCCOCCOC(=O)c1ccc(-c2c3nc(c(-c4ccc(S(=O)(=O)[O-])cc4)c4ccc([nH]4)c(-c4ccc(S(=O)(=O)[O-])cc4)c4nc(c(-c5ccc(S(=O)(=O)[O-])cc5)c5ccc2[nH]5)C=C4)C=C3)cc1
REMARK SMILES IDX 32 1 31 2 30 3 28 4 29 5 17 6 16 7 1 8 2 9 3 11 4 12 5 13
REMARK SMILES IDX 6 14 15 15 7 16 10 17 14 18 8 19 11 20 13 21 9 22 12 23
REMARK SMILES IDX 18 24 19 25 20 26 27 27 21 28 22 29 26 30 23 32 25 33 24 34
REMARK SMILES IDX 33 35 34 36 35 37 36 38 37 39 38 40 39 41 40 42 98 43 41 44
REMARK SMILES IDX 97 45 42 46 43 47 44 48 91 49 45 50 96 51 90 52 92 53 46 54
REMARK SMILES IDX 95 55 89 56 88 57 47 59 77 60 58 61 76 62 59 63 62 64 75 65
REMARK SMILES IDX 93 66 60 67 61 68 74 70 94 71 63 72 48 73 49 74 57 75 50 76
REMARK SMILES IDX 56 77 51 78 52 79 53 80 54 81 55 82 78 83 79 84 87 85 80 86
REMARK SMILES IDX 86 87 81 88 82 89 83 90 84 91 85 92 64 93 65 94 73 95 66 96
REMARK SMILES IDX 72 97 67 98 68 99 69 100 70 101 71 102
REMARK H PARENT 16 10 21 31 92 58 62 69
REMARK Flexibility Score: inf
ROOT
ATOM      1  C   UNL A   1      33.661  35.142  29.793  1.00  0.00     0.202 C 
ENDROOT
BRANCH   1   2
ATOM      2  C   UNL A   1      33.318  34.290  28.565  1.00  0.00     0.261 C 
BRANCH   2   3
ATOM      3  O   UNL A   1      34.403  34.112  27.632  1.00  0.00    -0.462 OA
BRANCH   3   4
ATOM      4  C   UNL A   1      35.348  33.205  28.009  1.00  0.00     0.329 C 
ATOM      5  O   UNL A   1      36.555  33.432  28.060  1.00  0.00    -0.250 OA
BRANCH   4   6
ATOM      6  C   UNL A   1      34.786  31.802  28.257  1.00  0.00     0.196 C 
BRANCH   6   7
ATOM      7  N   UNL A   1      34.815  30.826  27.145  1.00  0.00    -0.339 N 
ATOM      8  O   UNL A   1      32.617  30.255  27.404  1.00  0.00    -0.271 OA
ATOM      9  C   UNL A   1      33.699  30.077  26.839  1.00  0.00     0.258 C 
ATOM     10  H   UNL A   1      35.640  30.711  26.619  1.00  0.00     0.164 HD
BRANCH   9  11
ATOM     11  C   UNL A   1      33.852  28.934  25.812  1.00  0.00     0.329 C 
BRANCH  11  12
ATOM     12  O   UNL A   1      33.026  27.789  25.837  1.00  0.00    -0.483 OA
BRANCH  12  13
ATOM     13  C   UNL A   1      32.702  27.148  24.662  1.00  0.00     0.128 A 
ATOM     14  C   UNL A   1      31.904  27.717  23.668  1.00  0.00     0.048 A 
ATOM     15  C   UNL A   1      33.377  25.919  24.417  1.00  0.00     0.025 A 
ATOM     16  C   UNL A   1      31.883  27.162  22.390  1.00  0.00     0.025 A 
ATOM     17  C   UNL A   1      33.361  25.353  23.114  1.00  0.00     0.004 A 
ATOM     18  C   UNL A   1      34.075  25.235  25.437  1.00  0.00     0.012 A 
ATOM     19  C   UNL A   1      32.627  26.017  22.104  1.00  0.00     0.049 A 
ATOM     20  C   UNL A   1      34.091  24.159  22.887  1.00  0.00     0.010 A 
ATOM     21  C   UNL A   1      34.745  24.034  25.196  1.00  0.00     0.001 A 
ATOM     22  Cl  UNL A   1      32.608  25.471  20.457  1.00  0.00    -0.084 Cl
ATOM     23  C   UNL A   1      34.767  23.504  23.916  1.00  0.00     0.001 A 
ENDBRANCH  12  13
ENDBRANCH  11  12
ENDBRANCH   9  11
ENDBRANCH   6   7
BRANCH   6  24
ATOM     24  C   UNL A   1      35.422  31.242  29.548  1.00  0.00     0.074 C 
BRANCH  24  25
ATOM     25  C   UNL A   1      36.487  30.209  29.308  1.00  0.00    -0.020 A 
ATOM     26  C   UNL A   1      37.046  29.887  28.086  1.00  0.00     0.087 A 
ATOM     27  C   UNL A   1      37.123  29.369  30.285  1.00  0.00     0.003 A 
ATOM     28  N   UNL A   1      38.021  28.948  28.291  1.00  0.00    -0.361 N 
ATOM     29  C   UNL A   1      38.126  28.658  29.629  1.00  0.00     0.046 A 
ATOM     30  C   UNL A   1      36.967  29.166  31.674  1.00  0.00     0.010 A 
ATOM     31  H   UNL A   1      38.566  28.540  27.580  1.00  0.00     0.166 HD
ATOM     32  C   UNL A   1      39.020  27.811  30.296  1.00  0.00     0.026 A 
ATOM     33  C   UNL A   1      37.861  28.335  32.360  1.00  0.00     0.001 A 
ATOM     34  C   UNL A   1      38.882  27.680  31.680  1.00  0.00     0.002 A 
ENDBRANCH  24  25
ENDBRANCH   6  24
ENDBRANCH   4   6
ENDBRANCH   3   4
ENDBRANCH   2   3
ENDBRANCH   1   2
BRANCH   1  35
ATOM     35  O   UNL A   1      33.361  34.616  31.079  1.00  0.00    -0.374 OA
BRANCH  35  36
ATOM     36  C   UNL A   1      34.431  34.500  32.003  1.00  0.00     0.202 C 
BRANCH  36  37
ATOM     37  C   UNL A   1      34.444  33.324  32.986  1.00  0.00     0.261 C 
BRANCH  37  38
ATOM     38  O   UNL A   1      35.430  32.305  32.787  1.00  0.00    -0.460 OA
BRANCH  38  39
ATOM     39  C   UNL A   1      36.525  32.433  33.571  1.00  0.00     0.338 C 
ATOM     40  O   UNL A   1      36.568  32.576  34.784  1.00  0.00    -0.246 OA
BRANCH  39  41
ATOM     41  C   UNL A   1      37.732  32.281  32.753  1.00  0.00     0.060 A 
ATOM     42  C   UNL A   1      38.881  31.763  33.360  1.00  0.00     0.016 A 
ATOM     43  C   UNL A   1      37.763  32.771  31.444  1.00  0.00     0.016 A 
ATOM     44  C   UNL A   1      40.086  31.771  32.663  1.00  0.00     0.010 A 
ATOM     45  C   UNL A   1      38.977  32.778  30.753  1.00  0.00     0.010 A 
ATOM     46  C   UNL A   1      40.148  32.311  31.371  1.00  0.00    -0.014 A 
BRANCH  46  47
ATOM     47  C   UNL A   1      41.466  32.494  30.720  1.00  0.00     0.031 A 
ATOM     48  C   UNL A   1      42.199  33.796  30.894  1.00  0.00     0.074 A 
ATOM     49  C   UNL A   1      42.011  31.492  30.007  1.00  0.00     0.049 A 
ATOM     50  N   UNL A   1      43.364  34.157  30.421  1.00  0.00    -0.248 NA
ATOM     51  C   UNL A   1      41.532  34.826  31.708  1.00  0.00     0.031 C 
ATOM     52  C   UNL A   1      41.405  30.178  29.798  1.00  0.00     0.029 A 
ATOM     53  N   UNL A   1      43.200  31.428  29.329  1.00  0.00    -0.354 N 
ATOM     54  C   UNL A   1      43.569  35.455  30.877  1.00  0.00     0.074 A 
ATOM     55  C   UNL A   1      42.396  35.828  31.636  1.00  0.00     0.031 C 
ATOM     56  C   UNL A   1      42.228  29.435  29.039  1.00  0.00     0.029 A 
ATOM     57  C   UNL A   1      43.405  30.228  28.693  1.00  0.00     0.049 A 
ATOM     58  H   UNL A   1      43.847  32.170  29.301  1.00  0.00     0.167 HD
ATOM     59  C   UNL A   1      44.641  36.260  30.683  1.00  0.00     0.031 A 
ATOM     60  C   UNL A   1      44.423  29.820  27.909  1.00  0.00     0.031 A 
ATOM     61  C   UNL A   1      45.800  35.888  29.915  1.00  0.00     0.049 A 
ATOM     62  C   UNL A   1      45.581  30.750  27.668  1.00  0.00     0.074 A 
ATOM     63  C   UNL A   1      46.944  36.625  29.669  1.00  0.00     0.029 A 
ATOM     64  N   UNL A   1      45.956  34.675  29.262  1.00  0.00    -0.354 N 
ATOM     65  N   UNL A   1      45.771  31.964  28.127  1.00  0.00    -0.248 NA
ATOM     66  C   UNL A   1      46.666  30.250  26.810  1.00  0.00     0.031 C 
ATOM     67  C   UNL A   1      47.774  35.873  28.829  1.00  0.00     0.029 A 
ATOM     68  C   UNL A   1      47.167  34.650  28.592  1.00  0.00     0.049 A 
ATOM     69  H   UNL A   1      45.301  33.940  29.272  1.00  0.00     0.167 HD
ATOM     70  C   UNL A   1      47.006  32.366  27.631  1.00  0.00     0.074 A 
ATOM     71  C   UNL A   1      47.523  31.262  26.848  1.00  0.00     0.031 C 
ATOM     72  C   UNL A   1      47.658  33.543  27.811  1.00  0.00     0.031 A 
BRANCH  59  73
ATOM     73  C   UNL A   1      44.590  37.637  31.291  1.00  0.00    -0.014 A 
ATOM     74  C   UNL A   1      44.071  38.731  30.574  1.00  0.00     0.010 A 
ATOM     75  C   UNL A   1      45.052  37.836  32.605  1.00  0.00     0.010 A 
ATOM     76  C   UNL A   1      44.055  40.007  31.144  1.00  0.00     0.020 A 
ATOM     77  C   UNL A   1      45.017  39.107  33.187  1.00  0.00     0.020 A 
ATOM     78  C   UNL A   1      44.537  40.189  32.444  1.00  0.00     0.054 A 
BRANCH  78  79
ATOM     79  S   UNL A   1      44.506  41.854  33.164  1.00  0.00     0.124 S 
ATOM     80  O   UNL A   1      44.911  42.678  32.029  1.00  0.00    -0.237 OA
ATOM     81  O   UNL A   1      43.114  41.999  33.580  1.00  0.00    -0.237 OA
ATOM     82  O   UNL A   1      45.474  41.777  34.255  1.00  0.00    -0.744 OA
ENDBRANCH  78  79
ENDBRANCH  59  73
BRANCH  60  83
ATOM     83  C   UNL A   1      44.382  28.466  27.297  1.00  0.00    -0.014 A 
ATOM     84  C   UNL A   1      45.013  27.377  27.920  1.00  0.00     0.010 A 
ATOM     85  C   UNL A   1      43.681  28.257  26.095  1.00  0.00     0.010 A 
ATOM     86  C   UNL A   1      44.949  26.103  27.349  1.00  0.00     0.020 A 
ATOM     87  C   UNL A   1      43.594  26.981  25.534  1.00  0.00     0.020 A 
ATOM     88  C   UNL A   1      44.237  25.912  26.161  1.00  0.00     0.054 A 
BRANCH  88  89
ATOM     89  S   UNL A   1      44.105  24.238  25.475  1.00  0.00     0.124 S 
ATOM     90  O   UNL A   1      42.795  24.274  24.836  1.00  0.00    -0.237 OA
ATOM     91  O   UNL A   1      45.252  24.175  24.571  1.00  0.00    -0.237 OA
ATOM     92  O   UNL A   1      44.205  23.379  26.654  1.00  0.00    -0.744 OA
ENDBRANCH  88  89
ENDBRANCH  60  83
BRANCH  72  93
ATOM     93  C   UNL A   1      49.009  33.689  27.166  1.00  0.00    -0.014 A 
ATOM     94  C   UNL A   1      49.150  34.303  25.910  1.00  0.00     0.010 A 
ATOM     95  C   UNL A   1      50.156  33.252  27.853  1.00  0.00     0.010 A 
ATOM     96  C   UNL A   1      50.416  34.454  25.338  1.00  0.00     0.020 A 
ATOM     97  C   UNL A   1      51.426  33.423  27.293  1.00  0.00     0.020 A 
ATOM     98  C   UNL A   1      51.546  34.010  26.032  1.00  0.00     0.054 A 
BRANCH  98  99
ATOM     99  S   UNL A   1      53.182  34.256  25.290  1.00  0.00     0.124 S 
ATOM    100  O   UNL A   1      53.309  33.076  24.440  1.00  0.00    -0.237 OA
ATOM    101  O   UNL A   1      53.029  35.526  24.584  1.00  0.00    -0.237 OA
ATOM    102  O   UNL A   1      54.082  34.295  26.442  1.00  0.00    -0.744 OA
ENDBRANCH  98  99
ENDBRANCH  72  93
ENDBRANCH  46  47
ENDBRANCH  39  41
ENDBRANCH  38  39
ENDBRANCH  37  38
ENDBRANCH  36  37
ENDBRANCH  35  36
ENDBRANCH   1  35
TORSDOF 23
ENDMDL
MODEL 3
REMARK VINA RESULT:      -9.8      5.914     13.655
REMARK SMILES O=C(COc1ccc(Cl)c2ccccc12)N[C@@H](Cc1c[nH]c2ccccc12)C(=O)OCCOCCOC(=O)c1ccc(-c2c3nc(c(-c4ccc(S(=O)(=O)[O-])cc4)c4ccc([nH]4)c(-c4ccc(S(=O)(=O)[O-])cc4)c4nc(c(-c5ccc(S(=O)(=O)[O-])cc5)c5ccc2[nH]5)C=C4)C=C3)cc1
REMARK SMILES IDX 32 1 31 2 30 3 28 4 29 5 17 6 16 7 1 8 2 9 3 11 4 12 5 13
REMARK SMILES IDX 6 14 15 15 7 16 10 17 14 18 8 19 11 20 13 21 9 22 12 23
REMARK SMILES IDX 18 24 19 25 20 26 27 27 21 28 22 29 26 30 23 32 25 33 24 34
REMARK SMILES IDX 33 35 34 36 35 37 36 38 37 39 38 40 39 41 40 42 98 43 41 44
REMARK SMILES IDX 97 45 42 46 43 47 44 48 91 49 45 50 96 51 90 52 92 53 46 54
REMARK SMILES IDX 95 55 89 56 88 57 47 59 77 60 58 61 76 62 59 63 62 64 75 65
REMARK SMILES IDX 93 66 60 67 61 68 74 70 94 71 63 72 48 73 49 74 57 75 50 76
REMARK SMILES IDX 56 77 51 78 52 79 53 80 54 81 55 82 78 83 79 84 87 85 80 86
REMARK SMILES IDX 86 87 81 88 82 89 83 90 84 91 85 92 64 93 65 94 73 95 66 96
REMARK SMILES IDX 72 97 67 98 68 99 69 100 70 101 71 102
REMARK H PARENT 16 10 21 31 92 58 62 69
REMARK Flexibility Score: inf
ROOT
ATOM      1  C   UNL A   1      46.417  24.324  25.021  1.00  0.00     0.202 C 
ENDROOT
BRANCH   1   2
ATOM      2  C   UNL A   1      46.980  25.726  24.760  1.00  0.00     0.261 C 
BRANCH   2   3
ATOM      3  O   UNL A   1      46.788  26.663  25.839  1.00  0.00    -0.462 OA
BRANCH   3   4
ATOM      4  C   UNL A   1      45.954  27.704  25.560  1.00  0.00     0.329 C 
ATOM      5  O   UNL A   1      45.433  27.910  24.466  1.00  0.00    -0.250 OA
BRANCH   4   6
ATOM      6  C   UNL A   1      45.807  28.698  26.717  1.00  0.00     0.196 C 
BRANCH   6   7
ATOM      7  N   UNL A   1      44.837  29.806  26.574  1.00  0.00    -0.339 N 
ATOM      8  O   UNL A   1      46.468  31.402  26.447  1.00  0.00    -0.271 OA
ATOM      9  C   UNL A   1      45.271  31.112  26.498  1.00  0.00     0.258 C 
ATOM     10  H   UNL A   1      43.874  29.608  26.532  1.00  0.00     0.164 HD
BRANCH   9  11
ATOM     11  C   UNL A   1      44.210  32.233  26.559  1.00  0.00     0.329 C 
BRANCH  11  12
ATOM     12  O   UNL A   1      44.135  33.136  27.643  1.00  0.00    -0.483 OA
BRANCH  12  13
ATOM     13  C   UNL A   1      43.855  34.464  27.414  1.00  0.00     0.128 A 
ATOM     14  C   UNL A   1      43.360  34.951  26.202  1.00  0.00     0.048 A 
ATOM     15  C   UNL A   1      43.923  35.319  28.550  1.00  0.00     0.025 A 
ATOM     16  C   UNL A   1      42.799  36.225  26.141  1.00  0.00     0.025 A 
ATOM     17  C   UNL A   1      43.348  36.617  28.492  1.00  0.00     0.004 A 
ATOM     18  C   UNL A   1      44.548  34.915  29.752  1.00  0.00     0.012 A 
ATOM     19  C   UNL A   1      42.761  37.036  27.276  1.00  0.00     0.049 A 
ATOM     20  C   UNL A   1      43.381  37.423  29.658  1.00  0.00     0.010 A 
ATOM     21  C   UNL A   1      44.608  35.748  30.869  1.00  0.00     0.001 A 
ATOM     22  Cl  UNL A   1      41.949  38.560  27.112  1.00  0.00    -0.084 Cl
ATOM     23  C   UNL A   1      44.009  36.997  30.828  1.00  0.00     0.001 A 
ENDBRANCH  12  13
ENDBRANCH  11  12
ENDBRANCH   9  11
ENDBRANCH   6   7
BRANCH   6  24
ATOM     24  C   UNL A   1      45.598  27.898  28.023  1.00  0.00     0.074 C 
BRANCH  24  25
ATOM     25  C   UNL A   1      46.343  28.452  29.205  1.00  0.00    -0.020 A 
ATOM     26  C   UNL A   1      47.592  28.052  29.639  1.00  0.00     0.087 A 
ATOM     27  C   UNL A   1      45.910  29.490  30.099  1.00  0.00     0.003 A 
ATOM     28  N   UNL A   1      47.952  28.835  30.702  1.00  0.00    -0.361 N 
ATOM     29  C   UNL A   1      46.968  29.757  30.967  1.00  0.00     0.046 A 
ATOM     30  C   UNL A   1      44.730  30.255  30.238  1.00  0.00     0.010 A 
ATOM     31  H   UNL A   1      48.794  28.749  31.206  1.00  0.00     0.166 HD
ATOM     32  C   UNL A   1      46.935  30.788  31.914  1.00  0.00     0.026 A 
ATOM     33  C   UNL A   1      44.685  31.300  31.170  1.00  0.00     0.001 A 
ATOM     34  C   UNL A   1      45.779  31.570  31.984  1.00  0.00     0.002 A 
ENDBRANCH  24  25
ENDBRANCH   6  24
ENDBRANCH   4   6
ENDBRANCH   3   4
ENDBRANCH   2   3
ENDBRANCH   1   2
BRANCH   1  35
ATOM     35  O   UNL A   1      46.271  23.445  23.914  1.00  0.00    -0.374 OA
BRANCH  35  36
ATOM     36  C   UNL A   1      45.967  22.088  24.192  1.00  0.00     0.202 C 
BRANCH  36  37
ATOM     37  C   UNL A   1      44.571  21.727  24.713  1.00  0.00     0.261 C 
BRANCH  37  38
ATOM     38  O   UNL A   1      43.554  22.731  24.633  1.00  0.00    -0.460 OA
BRANCH  38  39
ATOM     39  C   UNL A   1      42.448  22.458  25.363  1.00  0.00     0.338 C 
ATOM     40  O   UNL A   1      41.781  21.433  25.364  1.00  0.00    -0.246 OA
BRANCH  39  41
ATOM     41  C   UNL A   1      42.179  23.572  26.278  1.00  0.00     0.060 A 
ATOM     42  C   UNL A   1      42.918  24.750  26.119  1.00  0.00     0.016 A 
ATOM     43  C   UNL A   1      41.309  23.402  27.359  1.00  0.00     0.016 A 
ATOM     44  C   UNL A   1      42.813  25.756  27.076  1.00  0.00     0.010 A 
ATOM     45  C   UNL A   1      41.213  24.416  28.315  1.00  0.00     0.010 A 
ATOM     46  C   UNL A   1      41.989  25.580  28.195  1.00  0.00    -0.014 A 
BRANCH  46  47
ATOM     47  C   UNL A   1      42.038  26.567  29.299  1.00  0.00     0.031 A 
ATOM     48  C   UNL A   1      43.130  26.466  30.330  1.00  0.00     0.074 A 
ATOM     49  C   UNL A   1      41.132  27.559  29.357  1.00  0.00     0.049 A 
ATOM     50  N   UNL A   1      43.360  27.231  31.365  1.00  0.00    -0.248 NA
ATOM     51  C   UNL A   1      44.086  25.359  30.172  1.00  0.00     0.031 C 
ATOM     52  C   UNL A   1      40.050  27.772  28.396  1.00  0.00     0.029 A 
ATOM     53  N   UNL A   1      40.981  28.574  30.266  1.00  0.00    -0.354 N 
ATOM     54  C   UNL A   1      44.485  26.697  31.985  1.00  0.00     0.074 A 
ATOM     55  C   UNL A   1      44.871  25.528  31.226  1.00  0.00     0.031 C 
ATOM     56  C   UNL A   1      39.344  28.853  28.768  1.00  0.00     0.029 A 
ATOM     57  C   UNL A   1      39.911  29.393  30.002  1.00  0.00     0.049 A 
ATOM     58  H   UNL A   1      41.584  28.705  31.034  1.00  0.00     0.167 HD
ATOM     59  C   UNL A   1      45.139  27.146  33.082  1.00  0.00     0.031 A 
ATOM     60  C   UNL A   1      39.435  30.452  30.686  1.00  0.00     0.031 A 
ATOM     61  C   UNL A   1      44.742  28.303  33.840  1.00  0.00     0.049 A 
ATOM     62  C   UNL A   1      40.149  30.903  31.931  1.00  0.00     0.074 A 
ATOM     63  C   UNL A   1      45.344  28.849  34.959  1.00  0.00     0.029 A 
ATOM     64  N   UNL A   1      43.634  29.088  33.558  1.00  0.00    -0.354 N 
ATOM     65  N   UNL A   1      41.226  30.402  32.488  1.00  0.00    -0.248 NA
ATOM     66  C   UNL A   1      39.589  32.067  32.633  1.00  0.00     0.031 C 
ATOM     67  C   UNL A   1      44.573  29.938  35.381  1.00  0.00     0.029 A 
ATOM     68  C   UNL A   1      43.519  30.100  34.496  1.00  0.00     0.049 A 
ATOM     69  H   UNL A   1      43.020  28.946  32.802  1.00  0.00     0.167 HD
ATOM     70  C   UNL A   1      41.486  31.203  33.595  1.00  0.00     0.074 A 
ATOM     71  C   UNL A   1      40.460  32.226  33.621  1.00  0.00     0.031 C 
ATOM     72  C   UNL A   1      42.485  31.104  34.507  1.00  0.00     0.031 A 
BRANCH  59  73
ATOM     73  C   UNL A   1      46.337  26.358  33.543  1.00  0.00    -0.014 A 
ATOM     74  C   UNL A   1      47.636  26.691  33.117  1.00  0.00     0.010 A 
ATOM     75  C   UNL A   1      46.163  25.280  34.430  1.00  0.00     0.010 A 
ATOM     76  C   UNL A   1      48.734  25.932  33.533  1.00  0.00     0.020 A 
ATOM     77  C   UNL A   1      47.261  24.533  34.867  1.00  0.00     0.020 A 
ATOM     78  C   UNL A   1      48.538  24.852  34.399  1.00  0.00     0.054 A 
BRANCH  78  79
ATOM     79  S   UNL A   1      49.977  23.883  34.928  1.00  0.00     0.124 S 
ATOM     80  O   UNL A   1      51.032  24.893  34.934  1.00  0.00    -0.237 OA
ATOM     81  O   UNL A   1      49.571  23.391  36.241  1.00  0.00    -0.237 OA
ATOM     82  O   UNL A   1      50.103  22.859  33.893  1.00  0.00    -0.744 OA
ENDBRANCH  78  79
ENDBRANCH  59  73
BRANCH  60  83
ATOM     83  C   UNL A   1      38.215  31.151  30.203  1.00  0.00    -0.014 A 
ATOM     84  C   UNL A   1      38.305  32.174  29.245  1.00  0.00     0.010 A 
ATOM     85  C   UNL A   1      36.947  30.769  30.683  1.00  0.00     0.010 A 
ATOM     86  C   UNL A   1      37.150  32.808  28.779  1.00  0.00     0.020 A 
ATOM     87  C   UNL A   1      35.789  31.386  30.202  1.00  0.00     0.020 A 
ATOM     88  C   UNL A   1      35.899  32.407  29.258  1.00  0.00     0.054 A 
BRANCH  88  89
ATOM     89  S   UNL A   1      34.408  33.195  28.588  1.00  0.00     0.124 S 
ATOM     90  O   UNL A   1      33.725  32.068  27.964  1.00  0.00    -0.237 OA
ATOM     91  O   UNL A   1      33.772  33.740  29.785  1.00  0.00    -0.237 OA
ATOM     92  O   UNL A   1      34.939  34.196  27.665  1.00  0.00    -0.744 OA
ENDBRANCH  88  89
ENDBRANCH  60  83
BRANCH  72  93
ATOM     93  C   UNL A   1      42.530  32.138  35.597  1.00  0.00    -0.014 A 
ATOM     94  C   UNL A   1      43.504  33.152  35.596  1.00  0.00     0.010 A 
ATOM     95  C   UNL A   1      41.549  32.126  36.606  1.00  0.00     0.010 A 
ATOM     96  C   UNL A   1      43.513  34.120  36.603  1.00  0.00     0.020 A 
ATOM     97  C   UNL A   1      41.542  33.108  37.601  1.00  0.00     0.020 A 
ATOM     98  C   UNL A   1      42.533  34.090  37.601  1.00  0.00     0.054 A 
BRANCH  98  99
ATOM     99  S   UNL A   1      42.539  35.383  38.873  1.00  0.00     0.124 S 
ATOM    100  O   UNL A   1      41.854  34.723  39.980  1.00  0.00    -0.237 OA
ATOM    101  O   UNL A   1      43.965  35.632  39.075  1.00  0.00    -0.237 OA
ATOM    102  O   UNL A   1      41.804  36.483  38.251  1.00  0.00    -0.744 OA
ENDBRANCH  98  99
ENDBRANCH  72  93
ENDBRANCH  46  47
ENDBRANCH  39  41
ENDBRANCH  38  39
ENDBRANCH  37  38
ENDBRANCH  36  37
ENDBRANCH  35  36
ENDBRANCH   1  35
TORSDOF 23
ENDMDL
