MODEL 1
REMARK VINA RESULT:      -9.7      0.000      0.000
REMARK SMILES [NH3+][C@@]1(C(=O)OCCOCCOC(=O)c2ccc(-c3c4nc(c(-c5ccc(S(=O)(=O)[O-])cc5)c5ccc([nH]5)c(-c5ccc(S(=O)(=O)[O-])cc5)c5nc(c(-c6ccc(S(=O)(=O)[O-])cc6)c6ccc3[nH]6)C=C5)C=C4)cc2)CC[C@H](Sc2cccs2)C1
REMARK SMILES IDX 9 1 8 2 7 3 6 4 5 5 3 6 4 7 2 8 74 9 83 10 75 11 76 12 1 13
REMARK SMILES IDX 77 17 78 18 79 19 82 20 80 21 81 22 10 23 11 24 12 25 13 26
REMARK SMILES IDX 14 27 15 28 73 29 16 30 72 31 17 32 18 33 19 34 66 35 20 36
REMARK SMILES IDX 71 37 65 38 67 39 21 40 70 41 64 42 63 43 22 45 52 46 33 47
REMARK SMILES IDX 51 48 34 49 37 50 50 51 68 52 35 53 36 54 49 56 69 57 38 58
REMARK SMILES IDX 23 59 24 60 32 61 25 62 31 63 26 64 27 65 28 66 29 67 30 68
REMARK SMILES IDX 53 69 54 70 62 71 55 72 61 73 56 74 57 75 58 76 59 77 60 78
REMARK SMILES IDX 39 79 40 80 48 81 41 82 47 83 42 84 43 85 44 86 45 87 46 88
REMARK H PARENT 1 14 1 15 1 16 67 44 37 55
REMARK Flexibility Score: inf
ROOT
ATOM      1  C   UNL A   1      31.762  30.148  25.708  1.00  0.00     0.202 C 
ENDROOT
BRANCH   1   2
ATOM      2  O   UNL A   1      32.033  29.098  24.781  1.00  0.00    -0.374 OA
BRANCH   2   3
ATOM      3  C   UNL A   1      30.933  28.590  24.026  1.00  0.00     0.202 C 
BRANCH   3   4
ATOM      4  C   UNL A   1      30.661  27.087  24.135  1.00  0.00     0.261 C 
BRANCH   4   5
ATOM      5  O   UNL A   1      30.571  26.658  25.505  1.00  0.00    -0.459 OA
BRANCH   5   6
ATOM      6  C   UNL A   1      31.523  25.784  25.913  1.00  0.00     0.368 C 
ATOM      7  O   UNL A   1      32.704  26.067  26.106  1.00  0.00    -0.245 OA
BRANCH   6   8
ATOM      8  C   UNL A   1      30.975  24.346  26.152  1.00  0.00     0.193 C 
ATOM      9  C   UNL A   1      31.847  23.651  27.195  1.00  0.00     0.082 C 
ATOM     10  C   UNL A   1      31.007  23.391  24.948  1.00  0.00     0.095 C 
ATOM     11  C   UNL A   1      32.975  23.053  26.362  1.00  0.00     0.022 C 
ATOM     12  C   UNL A   1      32.273  22.525  25.109  1.00  0.00     0.059 C 
BRANCH   8  13
ATOM     13  N   UNL A   1      29.578  24.486  26.642  1.00  0.00    -0.343 N 
ATOM     14  H   UNL A   1      29.490  25.351  27.174  1.00  0.00     0.345 HD
ATOM     15  H   UNL A   1      29.348  23.693  27.242  1.00  0.00     0.345 HD
ATOM     16  H   UNL A   1      28.940  24.508  25.847  1.00  0.00     0.345 HD
ENDBRANCH   8  13
BRANCH  12  17
ATOM     17  S   UNL A   1      33.279  22.605  23.601  1.00  0.00    -0.112 SA
BRANCH  17  18
ATOM     18  C   UNL A   1      34.902  22.170  24.110  1.00  0.00     0.060 A 
ATOM     19  C   UNL A   1      36.085  22.867  23.969  1.00  0.00     0.027 A 
ATOM     20  S   UNL A   1      35.157  20.680  24.925  1.00  0.00    -0.137 S 
ATOM     21  C   UNL A   1      37.207  22.152  24.487  1.00  0.00     0.013 A 
ATOM     22  C   UNL A   1      36.839  20.949  25.041  1.00  0.00     0.066 A 
ENDBRANCH  17  18
ENDBRANCH  12  17
ENDBRANCH   6   8
ENDBRANCH   5   6
ENDBRANCH   4   5
ENDBRANCH   3   4
ENDBRANCH   2   3
ENDBRANCH   1   2
BRANCH   1  23
ATOM     23  C   UNL A   1      32.406  30.041  27.098  1.00  0.00     0.261 C 
BRANCH  23  24
ATOM     24  O   UNL A   1      33.833  29.878  27.039  1.00  0.00    -0.460 OA
BRANCH  24  25
ATOM     25  C   UNL A   1      34.534  30.658  27.899  1.00  0.00     0.338 C 
ATOM     26  O   UNL A   1      34.106  31.604  28.547  1.00  0.00    -0.246 OA
BRANCH  25  27
ATOM     27  C   UNL A   1      35.881  30.099  28.117  1.00  0.00     0.060 A 
ATOM     28  C   UNL A   1      36.186  29.631  29.401  1.00  0.00     0.016 A 
ATOM     29  C   UNL A   1      36.846  30.087  27.110  1.00  0.00     0.016 A 
ATOM     30  C   UNL A   1      37.470  29.169  29.690  1.00  0.00     0.010 A 
ATOM     31  C   UNL A   1      38.139  29.638  27.408  1.00  0.00     0.010 A 
ATOM     32  C   UNL A   1      38.463  29.194  28.702  1.00  0.00    -0.014 A 
BRANCH  32  33
ATOM     33  C   UNL A   1      39.856  28.824  29.049  1.00  0.00     0.031 A 
ATOM     34  C   UNL A   1      40.748  29.832  29.723  1.00  0.00     0.074 A 
ATOM     35  C   UNL A   1      40.317  27.588  28.783  1.00  0.00     0.049 A 
ATOM     36  N   UNL A   1      42.001  29.715  30.081  1.00  0.00    -0.248 NA
ATOM     37  C   UNL A   1      40.149  31.138  30.037  1.00  0.00     0.031 C 
ATOM     38  C   UNL A   1      39.537  26.512  28.172  1.00  0.00     0.029 A 
ATOM     39  N   UNL A   1      41.555  27.034  28.988  1.00  0.00    -0.354 N 
ATOM     40  C   UNL A   1      42.345  30.933  30.657  1.00  0.00     0.074 A 
ATOM     41  C   UNL A   1      41.173  31.780  30.583  1.00  0.00     0.031 C 
ATOM     42  C   UNL A   1      40.321  25.428  28.042  1.00  0.00     0.029 A 
ATOM     43  C   UNL A   1      41.664  25.745  28.524  1.00  0.00     0.049 A 
ATOM     44  H   UNL A   1      42.295  27.513  29.426  1.00  0.00     0.167 HD
ATOM     45  C   UNL A   1      43.529  31.311  31.195  1.00  0.00     0.031 A 
ATOM     46  C   UNL A   1      42.730  24.923  28.467  1.00  0.00     0.031 A 
ATOM     47  C   UNL A   1      44.699  30.474  31.249  1.00  0.00     0.049 A 
ATOM     48  C   UNL A   1      44.060  25.399  28.992  1.00  0.00     0.074 A 
ATOM     49  C   UNL A   1      45.938  30.762  31.796  1.00  0.00     0.029 A 
ATOM     50  N   UNL A   1      44.784  29.194  30.723  1.00  0.00    -0.354 N 
ATOM     51  N   UNL A   1      44.360  26.541  29.562  1.00  0.00    -0.248 NA
ATOM     52  C   UNL A   1      45.195  24.473  28.861  1.00  0.00     0.031 C 
ATOM     53  C   UNL A   1      46.788  29.680  31.547  1.00  0.00     0.029 A 
ATOM     54  C   UNL A   1      46.064  28.695  30.897  1.00  0.00     0.049 A 
ATOM     55  H   UNL A   1      44.044  28.711  30.290  1.00  0.00     0.167 HD
ATOM     56  C   UNL A   1      45.715  26.466  29.870  1.00  0.00     0.074 A 
ATOM     57  C   UNL A   1      46.170  25.160  29.442  1.00  0.00     0.031 C 
ATOM     58  C   UNL A   1      46.510  27.398  30.453  1.00  0.00     0.031 A 
BRANCH  45  59
ATOM     59  C   UNL A   1      43.632  32.710  31.740  1.00  0.00    -0.014 A 
ATOM     60  C   UNL A   1      44.128  33.765  30.953  1.00  0.00     0.010 A 
ATOM     61  C   UNL A   1      43.176  32.984  33.043  1.00  0.00     0.010 A 
ATOM     62  C   UNL A   1      44.194  35.063  31.470  1.00  0.00     0.020 A 
ATOM     63  C   UNL A   1      43.217  34.284  33.555  1.00  0.00     0.020 A 
ATOM     64  C   UNL A   1      43.739  35.313  32.769  1.00  0.00     0.054 A 
BRANCH  64  65
ATOM     65  S   UNL A   1      43.809  37.012  33.404  1.00  0.00     0.124 S 
ATOM     66  O   UNL A   1      43.695  37.797  32.178  1.00  0.00    -0.237 OA
ATOM     67  O   UNL A   1      42.654  37.068  34.296  1.00  0.00    -0.237 OA
ATOM     68  O   UNL A   1      45.109  37.080  34.068  1.00  0.00    -0.744 OA
ENDBRANCH  64  65
ENDBRANCH  45  59
BRANCH  46  69
ATOM     69  C   UNL A   1      42.596  23.578  27.846  1.00  0.00    -0.014 A 
ATOM     70  C   UNL A   1      42.987  23.355  26.515  1.00  0.00     0.010 A 
ATOM     71  C   UNL A   1      42.070  22.506  28.593  1.00  0.00     0.010 A 
ATOM     72  C   UNL A   1      42.845  22.089  25.938  1.00  0.00     0.020 A 
ATOM     73  C   UNL A   1      41.952  21.234  28.029  1.00  0.00     0.020 A 
ATOM     74  C   UNL A   1      42.330  21.036  26.700  1.00  0.00     0.054 A 
BRANCH  74  75
ATOM     75  S   UNL A   1      42.205  19.389  25.950  1.00  0.00     0.124 S 
ATOM     76  O   UNL A   1      42.712  18.530  27.014  1.00  0.00    -0.237 OA
ATOM     77  O   UNL A   1      40.775  19.277  25.671  1.00  0.00    -0.237 OA
ATOM     78  O   UNL A   1      43.056  19.488  24.765  1.00  0.00    -0.744 OA
ENDBRANCH  74  75
ENDBRANCH  46  69
BRANCH  58  79
ATOM     79  C   UNL A   1      47.956  27.037  30.672  1.00  0.00    -0.014 A 
ATOM     80  C   UNL A   1      48.978  27.658  29.934  1.00  0.00     0.010 A 
ATOM     81  C   UNL A   1      48.301  26.104  31.668  1.00  0.00     0.010 A 
ATOM     82  C   UNL A   1      50.317  27.333  30.167  1.00  0.00     0.020 A 
ATOM     83  C   UNL A   1      49.640  25.795  31.921  1.00  0.00     0.020 A 
ATOM     84  C   UNL A   1      50.639  26.403  31.160  1.00  0.00     0.054 A 
BRANCH  84  85
ATOM     85  S   UNL A   1      52.388  26.031  31.474  1.00  0.00     0.124 S 
ATOM     86  O   UNL A   1      52.308  24.731  32.133  1.00  0.00    -0.237 OA
ATOM     87  O   UNL A   1      52.960  26.020  30.130  1.00  0.00    -0.237 OA
ATOM     88  O   UNL A   1      52.829  27.135  32.323  1.00  0.00    -0.744 OA
ENDBRANCH  84  85
ENDBRANCH  58  79
ENDBRANCH  32  33
ENDBRANCH  25  27
ENDBRANCH  24  25
ENDBRANCH  23  24
ENDBRANCH   1  23
TORSDOF 20
ENDMDL
MODEL 2
REMARK VINA RESULT:      -9.7      2.718      9.418
REMARK SMILES [NH3+][C@@]1(C(=O)OCCOCCOC(=O)c2ccc(-c3c4nc(c(-c5ccc(S(=O)(=O)[O-])cc5)c5ccc([nH]5)c(-c5ccc(S(=O)(=O)[O-])cc5)c5nc(c(-c6ccc(S(=O)(=O)[O-])cc6)c6ccc3[nH]6)C=C5)C=C4)cc2)CC[C@H](Sc2cccs2)C1
REMARK SMILES IDX 9 1 8 2 7 3 6 4 5 5 3 6 4 7 2 8 74 9 83 10 75 11 76 12 1 13
REMARK SMILES IDX 77 17 78 18 79 19 82 20 80 21 81 22 10 23 11 24 12 25 13 26
REMARK SMILES IDX 14 27 15 28 73 29 16 30 72 31 17 32 18 33 19 34 66 35 20 36
REMARK SMILES IDX 71 37 65 38 67 39 21 40 70 41 64 42 63 43 22 45 52 46 33 47
REMARK SMILES IDX 51 48 34 49 37 50 50 51 68 52 35 53 36 54 49 56 69 57 38 58
REMARK SMILES IDX 23 59 24 60 32 61 25 62 31 63 26 64 27 65 28 66 29 67 30 68
REMARK SMILES IDX 53 69 54 70 62 71 55 72 61 73 56 74 57 75 58 76 59 77 60 78
REMARK SMILES IDX 39 79 40 80 48 81 41 82 47 83 42 84 43 85 44 86 45 87 46 88
REMARK H PARENT 1 14 1 15 1 16 67 44 37 55
REMARK Flexibility Score: inf
ROOT
ATOM      1  C   UNL A   1      36.222  20.987  25.131  1.00  0.00     0.202 C 
ENDROOT
BRANCH   1   2
ATOM      2  O   UNL A   1      35.384  21.497  26.168  1.00  0.00    -0.374 OA
BRANCH   2   3
ATOM      3  C   UNL A   1      34.012  21.103  26.155  1.00  0.00     0.202 C 
BRANCH   3   4
ATOM      4  C   UNL A   1      33.096  21.837  25.173  1.00  0.00     0.261 C 
BRANCH   4   5
ATOM      5  O   UNL A   1      32.099  22.619  25.854  1.00  0.00    -0.459 OA
BRANCH   5   6
ATOM      6  C   UNL A   1      32.368  23.941  25.975  1.00  0.00     0.368 C 
ATOM      7  O   UNL A   1      33.453  24.412  26.312  1.00  0.00    -0.245 OA
BRANCH   6   8
ATOM      8  C   UNL A   1      31.157  24.851  25.616  1.00  0.00     0.193 C 
ATOM      9  C   UNL A   1      30.714  24.545  24.187  1.00  0.00     0.082 C 
ATOM     10  C   UNL A   1      31.416  26.366  25.606  1.00  0.00     0.095 C 
ATOM     11  C   UNL A   1      31.608  25.449  23.345  1.00  0.00     0.022 C 
ATOM     12  C   UNL A   1      31.660  26.759  24.135  1.00  0.00     0.059 C 
BRANCH   8  13
ATOM     13  N   UNL A   1      30.072  24.536  26.582  1.00  0.00    -0.343 N 
ATOM     14  H   UNL A   1      29.167  24.717  26.147  1.00  0.00     0.345 HD
ATOM     15  H   UNL A   1      30.174  25.122  27.411  1.00  0.00     0.345 HD
ATOM     16  H   UNL A   1      30.130  23.554  26.850  1.00  0.00     0.345 HD
ENDBRANCH   8  13
BRANCH  12  17
ATOM     17  S   UNL A   1      33.228  27.659  23.982  1.00  0.00    -0.112 SA
BRANCH  17  18
ATOM     18  C   UNL A   1      33.276  28.735  25.369  1.00  0.00     0.060 A 
ATOM     19  C   UNL A   1      34.212  28.828  26.378  1.00  0.00     0.027 A 
ATOM     20  S   UNL A   1      32.024  29.891  25.580  1.00  0.00    -0.137 S 
ATOM     21  C   UNL A   1      33.871  29.814  27.352  1.00  0.00     0.013 A 
ATOM     22  C   UNL A   1      32.705  30.471  27.034  1.00  0.00     0.066 A 
ENDBRANCH  17  18
ENDBRANCH  12  17
ENDBRANCH   6   8
ENDBRANCH   5   6
ENDBRANCH   4   5
ENDBRANCH   3   4
ENDBRANCH   2   3
ENDBRANCH   1   2
BRANCH   1  23
ATOM     23  C   UNL A   1      37.478  21.798  24.782  1.00  0.00     0.261 C 
BRANCH  23  24
ATOM     24  O   UNL A   1      37.743  22.850  25.726  1.00  0.00    -0.460 OA
BRANCH  24  25
ATOM     25  C   UNL A   1      39.007  22.873  26.216  1.00  0.00     0.338 C 
ATOM     26  O   UNL A   1      39.883  22.039  26.028  1.00  0.00    -0.246 OA
BRANCH  25  27
ATOM     27  C   UNL A   1      39.277  24.163  26.876  1.00  0.00     0.060 A 
ATOM     28  C   UNL A   1      40.041  25.102  26.172  1.00  0.00     0.016 A 
ATOM     29  C   UNL A   1      38.849  24.430  28.177  1.00  0.00     0.016 A 
ATOM     30  C   UNL A   1      40.399  26.307  26.776  1.00  0.00     0.010 A 
ATOM     31  C   UNL A   1      39.225  25.634  28.787  1.00  0.00     0.010 A 
ATOM     32  C   UNL A   1      40.016  26.570  28.098  1.00  0.00    -0.014 A 
BRANCH  32  33
ATOM     33  C   UNL A   1      40.509  27.792  28.778  1.00  0.00     0.031 A 
ATOM     34  C   UNL A   1      41.909  27.825  29.328  1.00  0.00     0.074 A 
ATOM     35  C   UNL A   1      39.717  28.874  28.887  1.00  0.00     0.049 A 
ATOM     36  N   UNL A   1      42.518  28.783  29.979  1.00  0.00    -0.248 NA
ATOM     37  C   UNL A   1      42.732  26.624  29.111  1.00  0.00     0.031 C 
ATOM     38  C   UNL A   1      38.356  28.979  28.359  1.00  0.00     0.029 A 
ATOM     39  N   UNL A   1      39.942  30.089  29.485  1.00  0.00    -0.354 N 
ATOM     40  C   UNL A   1      43.792  28.301  30.258  1.00  0.00     0.074 A 
ATOM     41  C   UNL A   1      43.862  26.959  29.719  1.00  0.00     0.031 C 
ATOM     42  C   UNL A   1      37.864  30.192  28.666  1.00  0.00     0.029 A 
ATOM     43  C   UNL A   1      38.857  30.931  29.442  1.00  0.00     0.049 A 
ATOM     44  H   UNL A   1      40.799  30.333  29.902  1.00  0.00     0.167 HD
ATOM     45  C   UNL A   1      44.808  28.920  30.903  1.00  0.00     0.031 A 
ATOM     46  C   UNL A   1      38.674  32.148  29.992  1.00  0.00     0.031 A 
ATOM     47  C   UNL A   1      44.730  30.248  31.456  1.00  0.00     0.049 A 
ATOM     48  C   UNL A   1      39.790  32.779  30.783  1.00  0.00     0.074 A 
ATOM     49  C   UNL A   1      45.716  30.968  32.108  1.00  0.00     0.029 A 
ATOM     50  N   UNL A   1      43.598  31.048  31.438  1.00  0.00    -0.354 N 
ATOM     51  N   UNL A   1      40.999  32.324  31.009  1.00  0.00    -0.248 NA
ATOM     52  C   UNL A   1      39.513  34.087  31.395  1.00  0.00     0.031 C 
ATOM     53  C   UNL A   1      45.163  32.178  32.537  1.00  0.00     0.029 A 
ATOM     54  C   UNL A   1      43.849  32.237  32.101  1.00  0.00     0.049 A 
ATOM     55  H   UNL A   1      42.742  30.807  31.015  1.00  0.00     0.167 HD
ATOM     56  C   UNL A   1      41.631  33.296  31.779  1.00  0.00     0.074 A 
ATOM     57  C   UNL A   1      40.679  34.371  31.960  1.00  0.00     0.031 C 
ATOM     58  C   UNL A   1      42.888  33.295  32.289  1.00  0.00     0.031 A 
BRANCH  45  59
ATOM     59  C   UNL A   1      46.091  28.152  31.084  1.00  0.00    -0.014 A 
ATOM     60  C   UNL A   1      46.286  27.309  32.192  1.00  0.00     0.010 A 
ATOM     61  C   UNL A   1      47.094  28.235  30.100  1.00  0.00     0.010 A 
ATOM     62  C   UNL A   1      47.475  26.586  32.328  1.00  0.00     0.020 A 
ATOM     63  C   UNL A   1      48.274  27.496  30.221  1.00  0.00     0.020 A 
ATOM     64  C   UNL A   1      48.462  26.685  31.343  1.00  0.00     0.054 A 
BRANCH  64  65
ATOM     65  S   UNL A   1      49.983  25.714  31.531  1.00  0.00     0.124 S 
ATOM     66  O   UNL A   1      49.570  24.689  32.486  1.00  0.00    -0.237 OA
ATOM     67  O   UNL A   1      50.232  25.241  30.171  1.00  0.00    -0.237 OA
ATOM     68  O   UNL A   1      50.953  26.682  32.038  1.00  0.00    -0.744 OA
ENDBRANCH  64  65
ENDBRANCH  45  59
BRANCH  46  69
ATOM     69  C   UNL A   1      37.360  32.832  29.854  1.00  0.00    -0.014 A 
ATOM     70  C   UNL A   1      37.103  33.691  28.771  1.00  0.00     0.010 A 
ATOM     71  C   UNL A   1      36.352  32.624  30.815  1.00  0.00     0.010 A 
ATOM     72  C   UNL A   1      35.869  34.338  28.658  1.00  0.00     0.020 A 
ATOM     73  C   UNL A   1      35.108  33.247  30.691  1.00  0.00     0.020 A 
ATOM     74  C   UNL A   1      34.878  34.109  29.618  1.00  0.00     0.054 A 
BRANCH  74  75
ATOM     75  S   UNL A   1      33.264  34.915  29.424  1.00  0.00     0.124 S 
ATOM     76  O   UNL A   1      33.632  36.190  28.818  1.00  0.00    -0.237 OA
ATOM     77  O   UNL A   1      32.548  33.983  28.556  1.00  0.00    -0.237 OA
ATOM     78  O   UNL A   1      32.756  34.995  30.792  1.00  0.00    -0.744 OA
ENDBRANCH  74  75
ENDBRANCH  46  69
BRANCH  58  79
ATOM     79  C   UNL A   1      43.312  34.500  33.089  1.00  0.00    -0.014 A 
ATOM     80  C   UNL A   1      43.779  35.663  32.454  1.00  0.00     0.010 A 
ATOM     81  C   UNL A   1      43.188  34.486  34.491  1.00  0.00     0.010 A 
ATOM     82  C   UNL A   1      44.144  36.782  33.208  1.00  0.00     0.020 A 
ATOM     83  C   UNL A   1      43.527  35.612  35.246  1.00  0.00     0.020 A 
ATOM     84  C   UNL A   1      44.015  36.750  34.600  1.00  0.00     0.054 A 
BRANCH  84  85
ATOM     85  S   UNL A   1      44.452  38.232  35.552  1.00  0.00     0.124 S 
ATOM     86  O   UNL A   1      43.759  37.996  36.815  1.00  0.00    -0.237 OA
ATOM     87  O   UNL A   1      45.909  38.157  35.612  1.00  0.00    -0.237 OA
ATOM     88  O   UNL A   1      43.922  39.329  34.747  1.00  0.00    -0.744 OA
ENDBRANCH  84  85
ENDBRANCH  58  79
ENDBRANCH  32  33
ENDBRANCH  25  27
ENDBRANCH  24  25
ENDBRANCH  23  24
ENDBRANCH   1  23
TORSDOF 20
ENDMDL
MODEL 3
REMARK VINA RESULT:      -9.5      2.862      3.578
REMARK SMILES [NH3+][C@@]1(C(=O)OCCOCCOC(=O)c2ccc(-c3c4nc(c(-c5ccc(S(=O)(=O)[O-])cc5)c5ccc([nH]5)c(-c5ccc(S(=O)(=O)[O-])cc5)c5nc(c(-c6ccc(S(=O)(=O)[O-])cc6)c6ccc3[nH]6)C=C5)C=C4)cc2)CC[C@H](Sc2cccs2)C1
REMARK SMILES IDX 9 1 8 2 7 3 6 4 5 5 3 6 4 7 2 8 74 9 83 10 75 11 76 12 1 13
REMARK SMILES IDX 77 17 78 18 79 19 82 20 80 21 81 22 10 23 11 24 12 25 13 26
REMARK SMILES IDX 14 27 15 28 73 29 16 30 72 31 17 32 18 33 19 34 66 35 20 36
REMARK SMILES IDX 71 37 65 38 67 39 21 40 70 41 64 42 63 43 22 45 52 46 33 47
REMARK SMILES IDX 51 48 34 49 37 50 50 51 68 52 35 53 36 54 49 56 69 57 38 58
REMARK SMILES IDX 23 59 24 60 32 61 25 62 31 63 26 64 27 65 28 66 29 67 30 68
REMARK SMILES IDX 53 69 54 70 62 71 55 72 61 73 56 74 57 75 58 76 59 77 60 78
REMARK SMILES IDX 39 79 40 80 48 81 41 82 47 83 42 84 43 85 44 86 45 87 46 88
REMARK H PARENT 1 14 1 15 1 16 67 44 37 55
REMARK Flexibility Score: inf
ROOT
ATOM      1  C   UNL A   1      31.738  29.792  25.613  1.00  0.00     0.202 C 
ENDROOT
BRANCH   1   2
ATOM      2  O   UNL A   1      31.333  28.453  25.336  1.00  0.00    -0.374 OA
BRANCH   2   3
ATOM      3  C   UNL A   1      32.292  27.591  24.723  1.00  0.00     0.202 C 
BRANCH   3   4
ATOM      4  C   UNL A   1      31.741  26.472  23.834  1.00  0.00     0.261 C 
BRANCH   4   5
ATOM      5  O   UNL A   1      32.328  25.199  24.153  1.00  0.00    -0.459 OA
BRANCH   5   6
ATOM      6  C   UNL A   1      31.896  24.148  23.414  1.00  0.00     0.368 C 
ATOM      7  O   UNL A   1      30.716  23.877  23.196  1.00  0.00    -0.245 OA
BRANCH   6   8
ATOM      8  C   UNL A   1      33.055  23.298  22.817  1.00  0.00     0.193 C 
ATOM      9  C   UNL A   1      32.961  21.877  23.367  1.00  0.00     0.082 C 
ATOM     10  C   UNL A   1      34.484  23.738  23.175  1.00  0.00     0.095 C 
ATOM     11  C   UNL A   1      33.733  21.960  24.678  1.00  0.00     0.022 C 
ATOM     12  C   UNL A   1      34.938  22.843  24.346  1.00  0.00     0.059 C 
BRANCH   8  13
ATOM     13  N   UNL A   1      32.887  23.303  21.340  1.00  0.00    -0.343 N 
ATOM     14  H   UNL A   1      33.157  22.395  20.964  1.00  0.00     0.345 HD
ATOM     15  H   UNL A   1      33.477  24.030  20.933  1.00  0.00     0.345 HD
ATOM     16  H   UNL A   1      31.911  23.490  21.110  1.00  0.00     0.345 HD
ENDBRANCH   8  13
BRANCH  12  17
ATOM     17  S   UNL A   1      35.515  23.867  25.727  1.00  0.00    -0.112 SA
BRANCH  17  18
ATOM     18  C   UNL A   1      37.179  23.376  25.998  1.00  0.00     0.060 A 
ATOM     19  C   UNL A   1      38.231  24.091  26.534  1.00  0.00     0.027 A 
ATOM     20  S   UNL A   1      37.665  21.784  25.577  1.00  0.00    -0.137 S 
ATOM     21  C   UNL A   1      39.448  23.343  26.552  1.00  0.00     0.013 A 
ATOM     22  C   UNL A   1      39.277  22.069  26.064  1.00  0.00     0.066 A 
ENDBRANCH  17  18
ENDBRANCH  12  17
ENDBRANCH   6   8
ENDBRANCH   5   6
ENDBRANCH   4   5
ENDBRANCH   3   4
ENDBRANCH   2   3
ENDBRANCH   1   2
BRANCH   1  23
ATOM     23  C   UNL A   1      33.200  30.012  26.030  1.00  0.00     0.261 C 
BRANCH  23  24
ATOM     24  O   UNL A   1      33.346  30.252  27.441  1.00  0.00    -0.460 OA
BRANCH  24  25
ATOM     25  C   UNL A   1      34.142  31.301  27.762  1.00  0.00     0.338 C 
ATOM     26  O   UNL A   1      33.819  32.481  27.808  1.00  0.00    -0.246 OA
BRANCH  25  27
ATOM     27  C   UNL A   1      35.447  30.824  28.253  1.00  0.00     0.060 A 
ATOM     28  C   UNL A   1      35.460  29.652  29.019  1.00  0.00     0.016 A 
ATOM     29  C   UNL A   1      36.626  31.534  28.024  1.00  0.00     0.016 A 
ATOM     30  C   UNL A   1      36.653  29.196  29.580  1.00  0.00     0.010 A 
ATOM     31  C   UNL A   1      37.819  31.084  28.603  1.00  0.00     0.010 A 
ATOM     32  C   UNL A   1      37.836  29.924  29.398  1.00  0.00    -0.014 A 
BRANCH  32  33
ATOM     33  C   UNL A   1      39.073  29.507  30.103  1.00  0.00     0.031 A 
ATOM     34  C   UNL A   1      39.498  30.231  31.352  1.00  0.00     0.074 A 
ATOM     35  C   UNL A   1      39.801  28.475  29.642  1.00  0.00     0.049 A 
ATOM     36  N   UNL A   1      40.557  30.040  32.096  1.00  0.00    -0.248 NA
ATOM     37  C   UNL A   1      38.612  31.307  31.825  1.00  0.00     0.031 C 
ATOM     38  C   UNL A   1      39.471  27.668  28.467  1.00  0.00     0.029 A 
ATOM     39  N   UNL A   1      40.974  27.932  30.105  1.00  0.00    -0.354 N 
ATOM     40  C   UNL A   1      40.471  30.975  33.122  1.00  0.00     0.074 A 
ATOM     41  C   UNL A   1      39.265  31.743  32.894  1.00  0.00     0.031 C 
ATOM     42  C   UNL A   1      40.427  26.739  28.296  1.00  0.00     0.029 A 
ATOM     43  C   UNL A   1      41.453  26.909  29.323  1.00  0.00     0.049 A 
ATOM     44  H   UNL A   1      41.428  28.246  30.919  1.00  0.00     0.167 HD
ATOM     45  C   UNL A   1      41.320  31.174  34.158  1.00  0.00     0.031 A 
ATOM     46  C   UNL A   1      42.601  26.208  29.407  1.00  0.00     0.031 A 
ATOM     47  C   UNL A   1      42.530  30.423  34.372  1.00  0.00     0.049 A 
ATOM     48  C   UNL A   1      43.572  26.509  30.518  1.00  0.00     0.074 A 
ATOM     49  C   UNL A   1      43.442  30.539  35.407  1.00  0.00     0.029 A 
ATOM     50  N   UNL A   1      43.006  29.430  33.530  1.00  0.00    -0.354 N 
ATOM     51  N   UNL A   1      43.461  27.374  31.498  1.00  0.00    -0.248 NA
ATOM     52  C   UNL A   1      44.827  25.742  30.529  1.00  0.00     0.031 C 
ATOM     53  C   UNL A   1      44.500  29.658  35.158  1.00  0.00     0.029 A 
ATOM     54  C   UNL A   1      44.218  28.952  33.999  1.00  0.00     0.049 A 
ATOM     55  H   UNL A   1      42.550  29.111  32.718  1.00  0.00     0.167 HD
ATOM     56  C   UNL A   1      44.625  27.244  32.250  1.00  0.00     0.074 A 
ATOM     57  C   UNL A   1      45.415  26.205  31.624  1.00  0.00     0.031 C 
ATOM     58  C   UNL A   1      45.003  27.927  33.359  1.00  0.00     0.031 A 
BRANCH  45  59
ATOM     59  C   UNL A   1      40.992  32.279  35.126  1.00  0.00    -0.014 A 
ATOM     60  C   UNL A   1      40.293  32.021  36.319  1.00  0.00     0.010 A 
ATOM     61  C   UNL A   1      41.436  33.588  34.863  1.00  0.00     0.010 A 
ATOM     62  C   UNL A   1      40.019  33.058  37.217  1.00  0.00     0.020 A 
ATOM     63  C   UNL A   1      41.185  34.623  35.768  1.00  0.00     0.020 A 
ATOM     64  C   UNL A   1      40.466  34.353  36.934  1.00  0.00     0.054 A 
BRANCH  64  65
ATOM     65  S   UNL A   1      40.121  35.674  38.130  1.00  0.00     0.124 S 
ATOM     66  O   UNL A   1      38.969  35.136  38.849  1.00  0.00    -0.237 OA
ATOM     67  O   UNL A   1      41.363  35.744  38.896  1.00  0.00    -0.237 OA
ATOM     68  O   UNL A   1      39.843  36.837  37.290  1.00  0.00    -0.744 OA
ENDBRANCH  64  65
ENDBRANCH  45  59
BRANCH  46  69
ATOM     69  C   UNL A   1      42.917  25.181  28.378  1.00  0.00    -0.014 A 
ATOM     70  C   UNL A   1      42.611  23.826  28.592  1.00  0.00     0.010 A 
ATOM     71  C   UNL A   1      43.534  25.560  27.170  1.00  0.00     0.010 A 
ATOM     72  C   UNL A   1      42.924  22.868  27.623  1.00  0.00     0.020 A 
ATOM     73  C   UNL A   1      43.824  24.610  26.189  1.00  0.00     0.020 A 
ATOM     74  C   UNL A   1      43.527  23.266  26.426  1.00  0.00     0.054 A 
BRANCH  74  75
ATOM     75  S   UNL A   1      43.876  22.016  25.159  1.00  0.00     0.124 S 
ATOM     76  O   UNL A   1      42.853  21.012  25.433  1.00  0.00    -0.237 OA
ATOM     77  O   UNL A   1      43.710  22.769  23.917  1.00  0.00    -0.237 OA
ATOM     78  O   UNL A   1      45.249  21.608  25.451  1.00  0.00    -0.744 OA
ENDBRANCH  74  75
ENDBRANCH  46  69
BRANCH  58  79
ATOM     79  C   UNL A   1      46.331  27.568  33.976  1.00  0.00    -0.014 A 
ATOM     80  C   UNL A   1      47.490  28.304  33.679  1.00  0.00     0.010 A 
ATOM     81  C   UNL A   1      46.407  26.514  34.906  1.00  0.00     0.010 A 
ATOM     82  C   UNL A   1      48.709  27.977  34.279  1.00  0.00     0.020 A 
ATOM     83  C   UNL A   1      47.618  26.200  35.527  1.00  0.00     0.020 A 
ATOM     84  C   UNL A   1      48.765  26.926  35.201  1.00  0.00     0.054 A 
BRANCH  84  85
ATOM     85  S   UNL A   1      50.350  26.549  36.000  1.00  0.00     0.124 S 
ATOM     86  O   UNL A   1      51.308  26.910  34.960  1.00  0.00    -0.237 OA
ATOM     87  O   UNL A   1      50.335  27.422  37.171  1.00  0.00    -0.237 OA
ATOM     88  O   UNL A   1      50.259  25.121  36.294  1.00  0.00    -0.744 OA
ENDBRANCH  84  85
ENDBRANCH  58  79
ENDBRANCH  32  33
ENDBRANCH  25  27
ENDBRANCH  24  25
ENDBRANCH  23  24
ENDBRANCH   1  23
TORSDOF 20
ENDMDL
