MODEL 1
REMARK VINA RESULT:     -10.4      0.000      0.000
REMARK SMILES CC[N@@H+](C)Cc1cc2c(cc1Cl)C=C(C(=O)OCCOCCOC(=O)c1ccc(-c3c4nc(c(-c5ccc(S(=O)(=O)[O-])cc5)c5ccc([nH]5)c(-c5ccc(S(=O)(=O)[O-])cc5)c5nc(c(-c6ccc(S(=O)(=O)[O-])cc6)c6ccc3[nH]6)C=C5)C=C4)cc1)[C@@H](C(F)(F)F)O2
REMARK SMILES IDX 20 1 19 2 18 3 17 4 15 5 16 6 14 7 6 8 7 9 11 10 8 11 10 12
REMARK SMILES IDX 12 13 9 14 91 15 13 16 86 17 5 18 3 19 4 20 2 22 1 23 87 24
REMARK SMILES IDX 88 25 89 26 90 27 21 28 22 29 23 30 24 31 25 32 26 33 27 34
REMARK SMILES IDX 85 35 28 36 84 37 29 38 30 39 31 40 78 41 32 42 83 43 77 44
REMARK SMILES IDX 79 45 33 46 82 47 76 48 75 49 34 51 64 52 45 53 63 54 46 55
REMARK SMILES IDX 49 56 62 57 80 58 47 59 48 60 61 62 81 63 50 64 35 65 36 66
REMARK SMILES IDX 44 67 37 68 43 69 38 70 39 71 40 72 41 73 42 74 65 75 66 76
REMARK SMILES IDX 74 77 67 78 73 79 68 80 69 81 70 82 71 83 72 84 51 85 52 86
REMARK SMILES IDX 60 87 53 88 59 89 54 90 55 91 56 92 57 93 58 94
REMARK H PARENT 3 21 79 50 49 61
REMARK Flexibility Score: inf
ROOT
ATOM      1  O   UNL A   1      34.815  29.820  27.214  1.00  0.00    -0.374 OA
ENDROOT
BRANCH   1   2
ATOM      2  C   UNL A   1      34.326  29.167  26.046  1.00  0.00     0.202 C 
BRANCH   2   3
ATOM      3  C   UNL A   1      32.816  28.940  25.926  1.00  0.00     0.261 C 
BRANCH   3   4
ATOM      4  O   UNL A   1      32.499  27.637  25.421  1.00  0.00    -0.460 OA
BRANCH   4   5
ATOM      5  C   UNL A   1      31.716  26.903  26.244  1.00  0.00     0.338 C 
ATOM      6  O   UNL A   1      30.869  27.320  27.019  1.00  0.00    -0.246 OA
BRANCH   5   7
ATOM      7  C   UNL A   1      31.921  25.468  25.979  1.00  0.00     0.087 C 
ATOM      8  C   UNL A   1      34.088  21.023  25.097  1.00  0.00     0.029 A 
ATOM      9  C   UNL A   1      32.799  21.560  24.905  1.00  0.00     0.058 A 
ATOM     10  C   UNL A   1      35.058  21.846  25.695  1.00  0.00     0.050 A 
ATOM     11  C   UNL A   1      32.473  22.843  25.340  1.00  0.00     0.128 A 
ATOM     12  C   UNL A   1      34.732  23.135  26.128  1.00  0.00     0.033 A 
ATOM     13  Cl  UNL A   1      36.707  21.372  25.894  1.00  0.00    -0.084 Cl
ATOM     14  C   UNL A   1      33.443  23.635  25.943  1.00  0.00     0.019 A 
ATOM     15  O   UNL A   1      31.179  23.233  25.156  1.00  0.00    -0.475 OA
ATOM     16  C   UNL A   1      33.132  25.000  26.308  1.00  0.00     0.027 C 
ATOM     17  C   UNL A   1      30.836  24.635  25.356  1.00  0.00     0.316 C 
BRANCH   8  18
ATOM     18  C   UNL A   1      34.358  19.596  24.659  1.00  0.00     0.300 C 
BRANCH  18  19
ATOM     19  N   UNL A   1      33.176  18.743  24.407  1.00  0.00    -0.334 N 
ATOM     20  C   UNL A   1      32.740  17.999  25.587  1.00  0.00     0.333 C 
ATOM     21  H   UNL A   1      32.446  19.417  24.174  1.00  0.00     0.348 HD
BRANCH  19  22
ATOM     22  C   UNL A   1      33.300  17.852  23.247  1.00  0.00     0.258 C 
ATOM     23  C   UNL A   1      32.231  18.109  22.193  1.00  0.00     0.071 C 
ENDBRANCH  19  22
ENDBRANCH  18  19
ENDBRANCH   8  18
BRANCH  17  24
ATOM     24  C   UNL A   1      30.347  25.203  24.015  1.00  0.00     0.430 C 
ATOM     25  F   UNL A   1      29.850  24.224  23.225  1.00  0.00    -0.167 F 
ATOM     26  F   UNL A   1      29.360  26.111  24.186  1.00  0.00    -0.167 F 
ATOM     27  F   UNL A   1      31.348  25.808  23.336  1.00  0.00    -0.167 F 
ENDBRANCH  17  24
ENDBRANCH   5   7
ENDBRANCH   4   5
ENDBRANCH   3   4
ENDBRANCH   2   3
ENDBRANCH   1   2
BRANCH   1  28
ATOM     28  C   UNL A   1      34.126  30.979  27.686  1.00  0.00     0.202 C 
BRANCH  28  29
ATOM     29  C   UNL A   1      34.808  31.869  28.733  1.00  0.00     0.261 C 
BRANCH  29  30
ATOM     30  O   UNL A   1      36.230  31.668  28.798  1.00  0.00    -0.460 OA
BRANCH  30  31
ATOM     31  C   UNL A   1      36.652  30.903  29.836  1.00  0.00     0.338 C 
ATOM     32  O   UNL A   1      36.026  30.618  30.845  1.00  0.00    -0.246 OA
BRANCH  31  33
ATOM     33  C   UNL A   1      37.931  30.266  29.475  1.00  0.00     0.060 A 
ATOM     34  C   UNL A   1      38.214  29.914  28.155  1.00  0.00     0.016 A 
ATOM     35  C   UNL A   1      38.876  30.060  30.489  1.00  0.00     0.016 A 
ATOM     36  C   UNL A   1      39.466  29.374  27.848  1.00  0.00     0.010 A 
ATOM     37  C   UNL A   1      40.120  29.513  30.181  1.00  0.00     0.010 A 
ATOM     38  C   UNL A   1      40.433  29.186  28.854  1.00  0.00    -0.014 A 
BRANCH  38  39
ATOM     39  C   UNL A   1      41.817  28.785  28.506  1.00  0.00     0.031 A 
ATOM     40  C   UNL A   1      42.945  29.771  28.526  1.00  0.00     0.074 A 
ATOM     41  C   UNL A   1      42.035  27.510  28.129  1.00  0.00     0.049 A 
ATOM     42  N   UNL A   1      44.212  29.565  28.272  1.00  0.00    -0.248 NA
ATOM     43  C   UNL A   1      42.619  31.162  28.873  1.00  0.00     0.031 C 
ATOM     44  C   UNL A   1      41.002  26.474  28.056  1.00  0.00     0.029 A 
ATOM     45  N   UNL A   1      43.183  26.863  27.744  1.00  0.00    -0.354 N 
ATOM     46  C   UNL A   1      44.839  30.793  28.445  1.00  0.00     0.074 A 
ATOM     47  C   UNL A   1      43.805  31.749  28.778  1.00  0.00     0.031 C 
ATOM     48  C   UNL A   1      41.568  25.317  27.684  1.00  0.00     0.029 A 
ATOM     49  C   UNL A   1      42.994  25.534  27.446  1.00  0.00     0.049 A 
ATOM     50  H   UNL A   1      44.059  27.309  27.688  1.00  0.00     0.167 HD
ATOM     51  C   UNL A   1      46.159  31.081  28.350  1.00  0.00     0.031 A 
ATOM     52  C   UNL A   1      43.861  24.591  27.027  1.00  0.00     0.031 A 
ATOM     53  C   UNL A   1      47.171  30.115  27.999  1.00  0.00     0.049 A 
ATOM     54  C   UNL A   1      45.313  24.951  26.871  1.00  0.00     0.074 A 
ATOM     55  C   UNL A   1      48.539  30.308  27.916  1.00  0.00     0.029 A 
ATOM     56  N   UNL A   1      46.935  28.789  27.666  1.00  0.00    -0.354 N 
ATOM     57  N   UNL A   1      45.901  26.099  27.113  1.00  0.00    -0.248 NA
ATOM     58  C   UNL A   1      46.222  23.897  26.402  1.00  0.00     0.031 C 
ATOM     59  C   UNL A   1      49.119  29.127  27.448  1.00  0.00     0.029 A 
ATOM     60  C   UNL A   1      48.127  28.165  27.335  1.00  0.00     0.049 A 
ATOM     61  H   UNL A   1      46.051  28.355  27.665  1.00  0.00     0.167 HD
ATOM     62  C   UNL A   1      47.251  25.897  26.851  1.00  0.00     0.074 A 
ATOM     63  C   UNL A   1      47.396  24.515  26.444  1.00  0.00     0.031 C 
ATOM     64  C   UNL A   1      48.272  26.783  26.941  1.00  0.00     0.031 A 
BRANCH  51  65
ATOM     65  C   UNL A   1      46.616  32.488  28.646  1.00  0.00    -0.014 A 
ATOM     66  C   UNL A   1      47.217  32.786  29.885  1.00  0.00     0.010 A 
ATOM     67  C   UNL A   1      46.307  33.543  27.770  1.00  0.00     0.010 A 
ATOM     68  C   UNL A   1      47.456  34.110  30.261  1.00  0.00     0.020 A 
ATOM     69  C   UNL A   1      46.576  34.868  28.128  1.00  0.00     0.020 A 
ATOM     70  C   UNL A   1      47.122  35.145  29.384  1.00  0.00     0.054 A 
BRANCH  70  71
ATOM     71  S   UNL A   1      47.388  36.860  29.911  1.00  0.00     0.124 S 
ATOM     72  O   UNL A   1      48.688  36.781  30.572  1.00  0.00    -0.237 OA
ATOM     73  O   UNL A   1      47.365  37.588  28.646  1.00  0.00    -0.237 OA
ATOM     74  O   UNL A   1      46.255  37.127  30.794  1.00  0.00    -0.744 OA
ENDBRANCH  70  71
ENDBRANCH  51  65
BRANCH  52  75
ATOM     75  C   UNL A   1      43.363  23.208  26.782  1.00  0.00    -0.014 A 
ATOM     76  C   UNL A   1      42.944  22.399  27.856  1.00  0.00     0.010 A 
ATOM     77  C   UNL A   1      43.405  22.655  25.490  1.00  0.00     0.010 A 
ATOM     78  C   UNL A   1      42.648  21.048  27.656  1.00  0.00     0.020 A 
ATOM     79  C   UNL A   1      43.073  21.312  25.280  1.00  0.00     0.020 A 
ATOM     80  C   UNL A   1      42.732  20.509  26.370  1.00  0.00     0.054 A 
BRANCH  80  81
ATOM     81  S   UNL A   1      42.421  18.736  26.150  1.00  0.00     0.124 S 
ATOM     82  O   UNL A   1      42.661  18.222  27.497  1.00  0.00    -0.237 OA
ATOM     83  O   UNL A   1      41.031  18.710  25.705  1.00  0.00    -0.237 OA
ATOM     84  O   UNL A   1      43.403  18.337  25.146  1.00  0.00    -0.744 OA
ENDBRANCH  80  81
ENDBRANCH  52  75
BRANCH  64  85
ATOM     85  C   UNL A   1      49.668  26.318  26.601  1.00  0.00    -0.014 A 
ATOM     86  C   UNL A   1      50.510  25.845  27.626  1.00  0.00     0.010 A 
ATOM     87  C   UNL A   1      50.204  26.522  25.318  1.00  0.00     0.010 A 
ATOM     88  C   UNL A   1      51.874  25.650  27.393  1.00  0.00     0.020 A 
ATOM     89  C   UNL A   1      51.561  26.295  25.071  1.00  0.00     0.020 A 
ATOM     90  C   UNL A   1      52.394  25.896  26.121  1.00  0.00     0.054 A 
BRANCH  90  91
ATOM     91  S   UNL A   1      54.182  25.732  25.865  1.00  0.00     0.124 S 
ATOM     92  O   UNL A   1      54.560  27.083  25.460  1.00  0.00    -0.237 OA
ATOM     93  O   UNL A   1      54.657  25.313  27.181  1.00  0.00    -0.237 OA
ATOM     94  O   UNL A   1      54.289  24.716  24.819  1.00  0.00    -0.744 OA
ENDBRANCH  90  91
ENDBRANCH  64  85
ENDBRANCH  38  39
ENDBRANCH  31  33
ENDBRANCH  30  31
ENDBRANCH  29  30
ENDBRANCH  28  29
ENDBRANCH   1  28
TORSDOF 21
ENDMDL
MODEL 2
REMARK VINA RESULT:     -10.3      1.383      2.035
REMARK SMILES CC[N@@H+](C)Cc1cc2c(cc1Cl)C=C(C(=O)OCCOCCOC(=O)c1ccc(-c3c4nc(c(-c5ccc(S(=O)(=O)[O-])cc5)c5ccc([nH]5)c(-c5ccc(S(=O)(=O)[O-])cc5)c5nc(c(-c6ccc(S(=O)(=O)[O-])cc6)c6ccc3[nH]6)C=C5)C=C4)cc1)[C@@H](C(F)(F)F)O2
REMARK SMILES IDX 20 1 19 2 18 3 17 4 15 5 16 6 14 7 6 8 7 9 11 10 8 11 10 12
REMARK SMILES IDX 12 13 9 14 91 15 13 16 86 17 5 18 3 19 4 20 2 22 1 23 87 24
REMARK SMILES IDX 88 25 89 26 90 27 21 28 22 29 23 30 24 31 25 32 26 33 27 34
REMARK SMILES IDX 85 35 28 36 84 37 29 38 30 39 31 40 78 41 32 42 83 43 77 44
REMARK SMILES IDX 79 45 33 46 82 47 76 48 75 49 34 51 64 52 45 53 63 54 46 55
REMARK SMILES IDX 49 56 62 57 80 58 47 59 48 60 61 62 81 63 50 64 35 65 36 66
REMARK SMILES IDX 44 67 37 68 43 69 38 70 39 71 40 72 41 73 42 74 65 75 66 76
REMARK SMILES IDX 74 77 67 78 73 79 68 80 69 81 70 82 71 83 72 84 51 85 52 86
REMARK SMILES IDX 60 87 53 88 59 89 54 90 55 91 56 92 57 93 58 94
REMARK H PARENT 3 21 79 50 49 61
REMARK Flexibility Score: inf
ROOT
ATOM      1  O   UNL A   1      33.840  32.557  28.031  1.00  0.00    -0.374 OA
ENDROOT
BRANCH   1   2
ATOM      2  C   UNL A   1      34.096  31.315  27.381  1.00  0.00     0.202 C 
BRANCH   2   3
ATOM      3  C   UNL A   1      32.934  30.327  27.234  1.00  0.00     0.261 C 
BRANCH   3   4
ATOM      4  O   UNL A   1      32.930  29.678  25.956  1.00  0.00    -0.460 OA
BRANCH   4   5
ATOM      5  C   UNL A   1      31.699  29.539  25.412  1.00  0.00     0.338 C 
ATOM      6  O   UNL A   1      30.960  30.434  25.032  1.00  0.00    -0.246 OA
BRANCH   5   7
ATOM      7  C   UNL A   1      31.406  28.111  25.199  1.00  0.00     0.087 C 
ATOM      8  C   UNL A   1      31.659  23.097  25.339  1.00  0.00     0.029 A 
ATOM      9  C   UNL A   1      31.030  24.041  24.503  1.00  0.00     0.058 A 
ATOM     10  C   UNL A   1      32.392  23.580  26.437  1.00  0.00     0.050 A 
ATOM     11  C   UNL A   1      31.081  25.406  24.779  1.00  0.00     0.128 A 
ATOM     12  C   UNL A   1      32.447  24.950  26.710  1.00  0.00     0.033 A 
ATOM     13  Cl  UNL A   1      33.310  22.558  27.484  1.00  0.00    -0.084 Cl
ATOM     14  C   UNL A   1      31.798  25.862  25.878  1.00  0.00     0.019 A 
ATOM     15  O   UNL A   1      30.383  26.220  23.936  1.00  0.00    -0.475 OA
ATOM     16  C   UNL A   1      31.933  27.283  26.110  1.00  0.00     0.027 C 
ATOM     17  C   UNL A   1      30.596  27.659  24.015  1.00  0.00     0.316 C 
BRANCH   8  18
ATOM     18  C   UNL A   1      31.508  21.622  25.019  1.00  0.00     0.300 C 
BRANCH  18  19
ATOM     19  N   UNL A   1      32.596  20.996  24.237  1.00  0.00    -0.334 N 
ATOM     20  C   UNL A   1      32.167  20.531  22.919  1.00  0.00     0.333 C 
ATOM     21  H   UNL A   1      33.256  21.762  24.099  1.00  0.00     0.348 HD
BRANCH  19  22
ATOM     22  C   UNL A   1      33.332  19.943  24.946  1.00  0.00     0.258 C 
ATOM     23  C   UNL A   1      34.832  20.200  24.987  1.00  0.00     0.071 C 
ENDBRANCH  19  22
ENDBRANCH  18  19
ENDBRANCH   8  18
BRANCH  17  24
ATOM     24  C   UNL A   1      31.185  28.130  22.678  1.00  0.00     0.430 C 
ATOM     25  F   UNL A   1      31.067  27.171  21.730  1.00  0.00    -0.167 F 
ATOM     26  F   UNL A   1      30.549  29.227  22.210  1.00  0.00    -0.167 F 
ATOM     27  F   UNL A   1      32.498  28.434  22.791  1.00  0.00    -0.167 F 
ENDBRANCH  17  24
ENDBRANCH   5   7
ENDBRANCH   4   5
ENDBRANCH   3   4
ENDBRANCH   2   3
ENDBRANCH   1   2
BRANCH   1  28
ATOM     28  C   UNL A   1      34.915  33.207  28.709  1.00  0.00     0.202 C 
BRANCH  28  29
ATOM     29  C   UNL A   1      35.268  32.759  30.134  1.00  0.00     0.261 C 
BRANCH  29  30
ATOM     30  O   UNL A   1      35.955  31.497  30.170  1.00  0.00    -0.460 OA
BRANCH  30  31
ATOM     31  C   UNL A   1      36.909  31.394  31.130  1.00  0.00     0.338 C 
ATOM     32  O   UNL A   1      36.779  31.607  32.325  1.00  0.00    -0.246 OA
BRANCH  31  33
ATOM     33  C   UNL A   1      38.108  30.763  30.549  1.00  0.00     0.060 A 
ATOM     34  C   UNL A   1      38.254  30.627  29.169  1.00  0.00     0.016 A 
ATOM     35  C   UNL A   1      39.121  30.341  31.421  1.00  0.00     0.016 A 
ATOM     36  C   UNL A   1      39.437  30.083  28.660  1.00  0.00     0.010 A 
ATOM     37  C   UNL A   1      40.295  29.792  30.911  1.00  0.00     0.010 A 
ATOM     38  C   UNL A   1      40.471  29.680  29.525  1.00  0.00    -0.014 A 
BRANCH  38  39
ATOM     39  C   UNL A   1      41.792  29.274  28.986  1.00  0.00     0.031 A 
ATOM     40  C   UNL A   1      42.925  30.248  28.878  1.00  0.00     0.074 A 
ATOM     41  C   UNL A   1      41.942  28.006  28.554  1.00  0.00     0.049 A 
ATOM     42  N   UNL A   1      44.144  30.037  28.452  1.00  0.00    -0.248 NA
ATOM     43  C   UNL A   1      42.665  31.634  29.297  1.00  0.00     0.031 C 
ATOM     44  C   UNL A   1      40.894  26.983  28.595  1.00  0.00     0.029 A 
ATOM     45  N   UNL A   1      43.019  27.358  28.004  1.00  0.00    -0.354 N 
ATOM     46  C   UNL A   1      44.804  31.253  28.567  1.00  0.00     0.074 A 
ATOM     47  C   UNL A   1      43.836  32.211  29.058  1.00  0.00     0.031 C 
ATOM     48  C   UNL A   1      41.391  25.830  28.125  1.00  0.00     0.029 A 
ATOM     49  C   UNL A   1      42.775  26.038  27.704  1.00  0.00     0.049 A 
ATOM     50  H   UNL A   1      43.886  27.797  27.841  1.00  0.00     0.167 HD
ATOM     51  C   UNL A   1      46.103  31.531  28.304  1.00  0.00     0.031 A 
ATOM     52  C   UNL A   1      43.567  25.097  27.151  1.00  0.00     0.031 A 
ATOM     53  C   UNL A   1      47.047  30.565  27.799  1.00  0.00     0.049 A 
ATOM     54  C   UNL A   1      44.989  25.448  26.811  1.00  0.00     0.074 A 
ATOM     55  C   UNL A   1      48.394  30.746  27.538  1.00  0.00     0.029 A 
ATOM     56  N   UNL A   1      46.752  29.249  27.470  1.00  0.00    -0.354 N 
ATOM     57  N   UNL A   1      45.619  26.583  26.998  1.00  0.00    -0.248 NA
ATOM     58  C   UNL A   1      45.814  24.396  26.200  1.00  0.00     0.031 C 
ATOM     59  C   UNL A   1      48.891  29.572  26.970  1.00  0.00     0.029 A 
ATOM     60  C   UNL A   1      47.881  28.622  26.969  1.00  0.00     0.049 A 
ATOM     61  H   UNL A   1      45.870  28.824  27.577  1.00  0.00     0.167 HD
ATOM     62  C   UNL A   1      46.919  26.375  26.553  1.00  0.00     0.074 A 
ATOM     63  C   UNL A   1      46.992  25.002  26.099  1.00  0.00     0.031 C 
ATOM     64  C   UNL A   1      47.955  27.249  26.526  1.00  0.00     0.031 A 
BRANCH  51  65
ATOM     65  C   UNL A   1      46.614  32.926  28.569  1.00  0.00    -0.014 A 
ATOM     66  C   UNL A   1      46.588  33.891  27.543  1.00  0.00     0.010 A 
ATOM     67  C   UNL A   1      47.265  33.236  29.777  1.00  0.00     0.010 A 
ATOM     68  C   UNL A   1      47.242  35.115  27.700  1.00  0.00     0.020 A 
ATOM     69  C   UNL A   1      47.891  34.474  29.950  1.00  0.00     0.020 A 
ATOM     70  C   UNL A   1      47.901  35.394  28.900  1.00  0.00     0.054 A 
BRANCH  70  71
ATOM     71  S   UNL A   1      48.790  36.967  29.065  1.00  0.00     0.124 S 
ATOM     72  O   UNL A   1      47.742  37.945  28.788  1.00  0.00    -0.237 OA
ATOM     73  O   UNL A   1      49.263  36.920  30.446  1.00  0.00    -0.237 OA
ATOM     74  O   UNL A   1      49.840  36.874  28.053  1.00  0.00    -0.744 OA
ENDBRANCH  70  71
ENDBRANCH  51  65
BRANCH  52  75
ATOM     75  C   UNL A   1      43.022  23.726  26.943  1.00  0.00    -0.014 A 
ATOM     76  C   UNL A   1      43.011  22.794  27.999  1.00  0.00     0.010 A 
ATOM     77  C   UNL A   1      42.613  23.310  25.664  1.00  0.00     0.010 A 
ATOM     78  C   UNL A   1      42.673  21.459  27.766  1.00  0.00     0.020 A 
ATOM     79  C   UNL A   1      42.237  21.981  25.434  1.00  0.00     0.020 A 
ATOM     80  C   UNL A   1      42.304  21.058  26.480  1.00  0.00     0.054 A 
BRANCH  80  81
ATOM     81  S   UNL A   1      41.947  19.304  26.187  1.00  0.00     0.124 S 
ATOM     82  O   UNL A   1      42.336  18.704  27.461  1.00  0.00    -0.237 OA
ATOM     83  O   UNL A   1      40.514  19.314  25.907  1.00  0.00    -0.237 OA
ATOM     84  O   UNL A   1      42.799  18.965  25.051  1.00  0.00    -0.744 OA
ENDBRANCH  80  81
ENDBRANCH  52  75
BRANCH  64  85
ATOM     85  C   UNL A   1      49.286  26.780  25.992  1.00  0.00    -0.014 A 
ATOM     86  C   UNL A   1      50.256  26.284  26.887  1.00  0.00     0.010 A 
ATOM     87  C   UNL A   1      49.644  26.999  24.651  1.00  0.00     0.010 A 
ATOM     88  C   UNL A   1      51.574  26.084  26.466  1.00  0.00     0.020 A 
ATOM     89  C   UNL A   1      50.953  26.765  24.219  1.00  0.00     0.020 A 
ATOM     90  C   UNL A   1      51.918  26.345  25.139  1.00  0.00     0.054 A 
BRANCH  90  91
ATOM     91  S   UNL A   1      53.653  26.172  24.639  1.00  0.00     0.124 S 
ATOM     92  O   UNL A   1      53.670  26.854  23.348  1.00  0.00    -0.237 OA
ATOM     93  O   UNL A   1      54.366  26.848  25.718  1.00  0.00    -0.237 OA
ATOM     94  O   UNL A   1      53.851  24.725  24.580  1.00  0.00    -0.744 OA
ENDBRANCH  90  91
ENDBRANCH  64  85
ENDBRANCH  38  39
ENDBRANCH  31  33
ENDBRANCH  30  31
ENDBRANCH  29  30
ENDBRANCH  28  29
ENDBRANCH   1  28
TORSDOF 21
ENDMDL
MODEL 3
REMARK VINA RESULT:     -10.3      5.243      7.105
REMARK SMILES CC[N@@H+](C)Cc1cc2c(cc1Cl)C=C(C(=O)OCCOCCOC(=O)c1ccc(-c3c4nc(c(-c5ccc(S(=O)(=O)[O-])cc5)c5ccc([nH]5)c(-c5ccc(S(=O)(=O)[O-])cc5)c5nc(c(-c6ccc(S(=O)(=O)[O-])cc6)c6ccc3[nH]6)C=C5)C=C4)cc1)[C@@H](C(F)(F)F)O2
REMARK SMILES IDX 20 1 19 2 18 3 17 4 15 5 16 6 14 7 6 8 7 9 11 10 8 11 10 12
REMARK SMILES IDX 12 13 9 14 91 15 13 16 86 17 5 18 3 19 4 20 2 22 1 23 87 24
REMARK SMILES IDX 88 25 89 26 90 27 21 28 22 29 23 30 24 31 25 32 26 33 27 34
REMARK SMILES IDX 85 35 28 36 84 37 29 38 30 39 31 40 78 41 32 42 83 43 77 44
REMARK SMILES IDX 79 45 33 46 82 47 76 48 75 49 34 51 64 52 45 53 63 54 46 55
REMARK SMILES IDX 49 56 62 57 80 58 47 59 48 60 61 62 81 63 50 64 35 65 36 66
REMARK SMILES IDX 44 67 37 68 43 69 38 70 39 71 40 72 41 73 42 74 65 75 66 76
REMARK SMILES IDX 74 77 67 78 73 79 68 80 69 81 70 82 71 83 72 84 51 85 52 86
REMARK SMILES IDX 60 87 53 88 59 89 54 90 55 91 56 92 57 93 58 94
REMARK H PARENT 3 21 79 50 49 61
REMARK Flexibility Score: inf
ROOT
ATOM      1  O   UNL A   1      32.944  30.690  27.330  1.00  0.00    -0.374 OA
ENDROOT
BRANCH   1   2
ATOM      2  C   UNL A   1      33.554  29.712  26.492  1.00  0.00     0.202 C 
BRANCH   2   3
ATOM      3  C   UNL A   1      32.645  28.869  25.591  1.00  0.00     0.261 C 
BRANCH   3   4
ATOM      4  O   UNL A   1      32.886  27.464  25.736  1.00  0.00    -0.460 OA
BRANCH   4   5
ATOM      5  C   UNL A   1      31.904  26.801  26.390  1.00  0.00     0.338 C 
ATOM      6  O   UNL A   1      31.043  27.285  27.109  1.00  0.00    -0.246 OA
BRANCH   5   7
ATOM      7  C   UNL A   1      31.916  25.381  26.000  1.00  0.00     0.087 C 
ATOM      8  C   UNL A   1      33.464  20.810  24.605  1.00  0.00     0.029 A 
ATOM      9  C   UNL A   1      32.239  21.505  24.562  1.00  0.00     0.058 A 
ATOM     10  C   UNL A   1      34.567  21.463  25.182  1.00  0.00     0.050 A 
ATOM     11  C   UNL A   1      32.102  22.774  25.119  1.00  0.00     0.128 A 
ATOM     12  C   UNL A   1      34.430  22.739  25.737  1.00  0.00     0.033 A 
ATOM     13  Cl  UNL A   1      36.157  20.790  25.207  1.00  0.00    -0.084 Cl
ATOM     14  C   UNL A   1      33.200  23.396  25.699  1.00  0.00     0.019 A 
ATOM     15  O   UNL A   1      30.853  23.323  25.073  1.00  0.00    -0.475 OA
ATOM     16  C   UNL A   1      33.083  24.751  26.191  1.00  0.00     0.027 C 
ATOM     17  C   UNL A   1      30.696  24.733  25.407  1.00  0.00     0.316 C 
BRANCH   8  18
ATOM     18  C   UNL A   1      33.528  19.404  24.038  1.00  0.00     0.300 C 
BRANCH  18  19
ATOM     19  N   UNL A   1      33.781  18.310  25.000  1.00  0.00    -0.334 N 
ATOM     20  C   UNL A   1      34.781  17.351  24.534  1.00  0.00     0.333 C 
ATOM     21  H   UNL A   1      34.167  18.795  25.811  1.00  0.00     0.348 HD
BRANCH  19  22
ATOM     22  C   UNL A   1      32.575  17.617  25.471  1.00  0.00     0.258 C 
ATOM     23  C   UNL A   1      32.812  16.136  25.728  1.00  0.00     0.071 C 
ENDBRANCH  19  22
ENDBRANCH  18  19
ENDBRANCH   8  18
BRANCH  17  24
ATOM     24  C   UNL A   1      30.182  25.465  24.159  1.00  0.00     0.430 C 
ATOM     25  F   UNL A   1      29.208  26.348  24.481  1.00  0.00    -0.167 F 
ATOM     26  F   UNL A   1      31.163  26.166  23.549  1.00  0.00    -0.167 F 
ATOM     27  F   UNL A   1      29.668  24.603  23.252  1.00  0.00    -0.167 F 
ENDBRANCH  17  24
ENDBRANCH   5   7
ENDBRANCH   4   5
ENDBRANCH   3   4
ENDBRANCH   2   3
ENDBRANCH   1   2
BRANCH   1  28
ATOM     28  C   UNL A   1      31.838  31.433  26.818  1.00  0.00     0.202 C 
BRANCH  28  29
ATOM     29  C   UNL A   1      31.871  32.965  26.908  1.00  0.00     0.261 C 
BRANCH  29  30
ATOM     30  O   UNL A   1      33.190  33.484  27.143  1.00  0.00    -0.460 OA
BRANCH  30  31
ATOM     31  C   UNL A   1      33.399  33.968  28.393  1.00  0.00     0.338 C 
ATOM     32  O   UNL A   1      32.622  34.623  29.070  1.00  0.00    -0.246 OA
BRANCH  31  33
ATOM     33  C   UNL A   1      34.650  33.399  28.926  1.00  0.00     0.060 A 
ATOM     34  C   UNL A   1      35.893  33.853  28.487  1.00  0.00     0.016 A 
ATOM     35  C   UNL A   1      34.558  32.415  29.920  1.00  0.00     0.016 A 
ATOM     36  C   UNL A   1      37.053  33.332  29.068  1.00  0.00     0.010 A 
ATOM     37  C   UNL A   1      35.716  31.891  30.490  1.00  0.00     0.010 A 
ATOM     38  C   UNL A   1      36.972  32.362  30.085  1.00  0.00    -0.014 A 
BRANCH  38  39
ATOM     39  C   UNL A   1      38.186  31.942  30.826  1.00  0.00     0.031 A 
ATOM     40  C   UNL A   1      38.597  32.616  32.099  1.00  0.00     0.074 A 
ATOM     41  C   UNL A   1      38.941  30.955  30.304  1.00  0.00     0.049 A 
ATOM     42  N   UNL A   1      39.617  32.344  32.872  1.00  0.00    -0.248 NA
ATOM     43  C   UNL A   1      37.767  33.736  32.568  1.00  0.00     0.031 C 
ATOM     44  C   UNL A   1      38.641  30.246  29.058  1.00  0.00     0.029 A 
ATOM     45  N   UNL A   1      40.103  30.374  30.747  1.00  0.00    -0.354 N 
ATOM     46  C   UNL A   1      39.544  33.243  33.929  1.00  0.00     0.074 A 
ATOM     47  C   UNL A   1      38.407  34.101  33.672  1.00  0.00     0.031 C 
ATOM     48  C   UNL A   1      39.573  29.304  28.855  1.00  0.00     0.029 A 
ATOM     49  C   UNL A   1      40.565  29.370  29.927  1.00  0.00     0.049 A 
ATOM     50  H   UNL A   1      40.562  30.649  31.573  1.00  0.00     0.167 HD
ATOM     51  C   UNL A   1      40.344  33.325  35.018  1.00  0.00     0.031 A 
ATOM     52  C   UNL A   1      41.660  28.589  30.018  1.00  0.00     0.031 A 
ATOM     53  C   UNL A   1      41.484  32.470  35.246  1.00  0.00     0.049 A 
ATOM     54  C   UNL A   1      42.568  28.741  31.207  1.00  0.00     0.074 A 
ATOM     55  C   UNL A   1      42.331  32.455  36.340  1.00  0.00     0.029 A 
ATOM     56  N   UNL A   1      41.942  31.493  34.374  1.00  0.00    -0.354 N 
ATOM     57  N   UNL A   1      42.440  29.545  32.236  1.00  0.00    -0.248 NA
ATOM     58  C   UNL A   1      43.755  27.878  31.262  1.00  0.00     0.031 C 
ATOM     59  C   UNL A   1      43.350  31.534  36.090  1.00  0.00     0.029 A 
ATOM     60  C   UNL A   1      43.084  30.900  34.887  1.00  0.00     0.049 A 
ATOM     61  H   UNL A   1      41.518  31.255  33.518  1.00  0.00     0.167 HD
ATOM     62  C   UNL A   1      43.516  29.267  33.072  1.00  0.00     0.074 A 
ATOM     63  C   UNL A   1      44.277  28.212  32.437  1.00  0.00     0.031 C 
ATOM     64  C   UNL A   1      43.837  29.840  34.257  1.00  0.00     0.031 A 
BRANCH  51  65
ATOM     65  C   UNL A   1      40.027  34.354  36.075  1.00  0.00    -0.014 A 
ATOM     66  C   UNL A   1      40.775  35.546  36.142  1.00  0.00     0.010 A 
ATOM     67  C   UNL A   1      39.103  34.073  37.097  1.00  0.00     0.010 A 
ATOM     68  C   UNL A   1      40.640  36.411  37.231  1.00  0.00     0.020 A 
ATOM     69  C   UNL A   1      38.940  34.953  38.171  1.00  0.00     0.020 A 
ATOM     70  C   UNL A   1      39.731  36.102  38.246  1.00  0.00     0.054 A 
BRANCH  70  71
ATOM     71  S   UNL A   1      39.609  37.209  39.678  1.00  0.00     0.124 S 
ATOM     72  O   UNL A   1      38.487  38.068  39.310  1.00  0.00    -0.237 OA
ATOM     73  O   UNL A   1      39.359  36.280  40.776  1.00  0.00    -0.237 OA
ATOM     74  O   UNL A   1      40.913  37.868  39.714  1.00  0.00    -0.744 OA
ENDBRANCH  70  71
ENDBRANCH  51  65
BRANCH  52  75
ATOM     75  C   UNL A   1      41.907  27.565  28.964  1.00  0.00    -0.014 A 
ATOM     76  C   UNL A   1      41.095  26.418  28.878  1.00  0.00     0.010 A 
ATOM     77  C   UNL A   1      43.019  27.677  28.111  1.00  0.00     0.010 A 
ATOM     78  C   UNL A   1      41.430  25.372  28.015  1.00  0.00     0.020 A 
ATOM     79  C   UNL A   1      43.337  26.647  27.218  1.00  0.00     0.020 A 
ATOM     80  C   UNL A   1      42.559  25.487  27.202  1.00  0.00     0.054 A 
BRANCH  80  81
ATOM     81  S   UNL A   1      43.017  24.083  26.149  1.00  0.00     0.124 S 
ATOM     82  O   UNL A   1      43.327  24.748  24.885  1.00  0.00    -0.237 OA
ATOM     83  O   UNL A   1      44.160  23.515  26.858  1.00  0.00    -0.237 OA
ATOM     84  O   UNL A   1      41.816  23.254  26.140  1.00  0.00    -0.744 OA
ENDBRANCH  80  81
ENDBRANCH  52  75
BRANCH  64  85
ATOM     85  C   UNL A   1      45.068  29.358  34.986  1.00  0.00    -0.014 A 
ATOM     86  C   UNL A   1      46.299  30.008  34.772  1.00  0.00     0.010 A 
ATOM     87  C   UNL A   1      45.047  28.164  35.727  1.00  0.00     0.010 A 
ATOM     88  C   UNL A   1      47.492  29.438  35.224  1.00  0.00     0.020 A 
ATOM     89  C   UNL A   1      46.235  27.609  36.212  1.00  0.00     0.020 A 
ATOM     90  C   UNL A   1      47.453  28.231  35.924  1.00  0.00     0.054 A 
BRANCH  90  91
ATOM     91  S   UNL A   1      49.019  27.459  36.417  1.00  0.00     0.124 S 
ATOM     92  O   UNL A   1      49.217  27.997  37.760  1.00  0.00    -0.237 OA
ATOM     93  O   UNL A   1      48.710  26.034  36.349  1.00  0.00    -0.237 OA
ATOM     94  O   UNL A   1      49.968  27.933  35.411  1.00  0.00    -0.744 OA
ENDBRANCH  90  91
ENDBRANCH  64  85
ENDBRANCH  38  39
ENDBRANCH  31  33
ENDBRANCH  30  31
ENDBRANCH  29  30
ENDBRANCH  28  29
ENDBRANCH   1  28
TORSDOF 21
ENDMDL
