MODEL 1
REMARK VINA RESULT:     -11.7      0.000      0.000
REMARK SMILES Cc1cccc2c1[C@H]1c3c(C)cccc3[C@H](CC(=O)OCCOCCOC(=O)c3ccc(-c4c5nc(c(-c6ccc(S(=O)(=O)[O-])cc6)c6ccc([nH]6)c(-c6ccc(S(=O)(=O)[O-])cc6)c6nc(c(-c7ccc(S(=O)(=O)[O-])cc7)c7ccc4[nH]7)C=C6)C=C5)cc3)C[C@H]1CC2
REMARK SMILES IDX 24 1 23 2 22 3 21 4 20 5 18 6 19 7 17 8 16 9 1 10 2 11 3 12
REMARK SMILES IDX 7 13 4 14 6 15 8 16 5 17 92 18 9 19 90 20 91 21 10 22 15 23
REMARK SMILES IDX 89 24 12 25 11 26 14 27 13 28 25 29 26 30 27 31 28 32 29 33
REMARK SMILES IDX 30 34 88 35 31 36 87 37 32 38 33 39 34 40 81 41 35 42 86 43
REMARK SMILES IDX 80 44 82 45 36 46 85 47 79 48 78 49 37 51 67 52 48 53 66 54
REMARK SMILES IDX 49 55 52 56 65 57 83 58 50 59 51 60 64 62 84 63 53 64 38 65
REMARK SMILES IDX 39 66 47 67 40 68 46 69 41 70 42 71 43 72 44 73 45 74 68 75
REMARK SMILES IDX 69 76 77 77 70 78 76 79 71 80 72 81 73 82 74 83 75 84 54 85
REMARK SMILES IDX 55 86 63 87 56 88 62 89 57 90 58 91 59 92 60 93 61 94
REMARK H PARENT 82 50 52 61
REMARK Flexibility Score: inf
ROOT
ATOM      1  C   UNL A   1      44.102  23.096  25.984  1.00  0.00     0.202 C 
ENDROOT
BRANCH   1   2
ATOM      2  O   UNL A   1      43.124  22.314  26.672  1.00  0.00    -0.374 OA
BRANCH   2   3
ATOM      3  C   UNL A   1      41.818  22.292  26.109  1.00  0.00     0.202 C 
BRANCH   3   4
ATOM      4  C   UNL A   1      40.642  22.577  27.050  1.00  0.00     0.261 C 
BRANCH   4   5
ATOM      5  O   UNL A   1      39.556  23.356  26.529  1.00  0.00    -0.463 OA
BRANCH   5   6
ATOM      6  C   UNL A   1      38.492  22.629  26.086  1.00  0.00     0.306 C 
ATOM      7  O   UNL A   1      38.549  21.484  25.654  1.00  0.00    -0.252 OA
BRANCH   6   8
ATOM      8  C   UNL A   1      37.243  23.472  26.015  1.00  0.00     0.131 C 
BRANCH   8   9
ATOM      9  C   UNL A   1      35.991  22.889  25.342  1.00  0.00     0.031 C 
ATOM     10  C   UNL A   1      34.182  28.122  24.158  1.00  0.00     0.044 C 
ATOM     11  C   UNL A   1      33.112  27.241  23.566  1.00  0.00    -0.047 A 
ATOM     12  C   UNL A   1      31.974  27.864  23.026  1.00  0.00     0.004 A 
ATOM     13  C   UNL A   1      33.214  25.828  23.526  1.00  0.00    -0.034 A 
ATOM     14  C   UNL A   1      30.952  27.114  22.449  1.00  0.00     0.001 A 
ATOM     15  C   UNL A   1      32.225  25.084  22.834  1.00  0.00    -0.044 A 
ATOM     16  C   UNL A   1      34.306  25.065  24.275  1.00  0.00     0.053 C 
ATOM     17  C   UNL A   1      31.087  25.735  22.334  1.00  0.00     0.004 A 
ATOM     18  C   UNL A   1      32.339  23.597  22.607  1.00  0.00     0.036 C 
ATOM     19  C   UNL A   1      33.890  24.378  25.597  1.00  0.00    -0.034 A 
ATOM     20  C   UNL A   1      34.787  23.957  23.298  1.00  0.00     0.002 C 
ATOM     21  C   UNL A   1      33.664  22.944  23.004  1.00  0.00     0.009 C 
ATOM     22  C   UNL A   1      32.705  24.673  26.319  1.00  0.00    -0.047 A 
ATOM     23  C   UNL A   1      34.666  23.253  25.999  1.00  0.00    -0.040 A 
ATOM     24  C   UNL A   1      36.042  23.274  23.842  1.00  0.00     0.013 C 
ATOM     25  C   UNL A   1      32.187  23.711  27.200  1.00  0.00     0.004 A 
ATOM     26  C   UNL A   1      31.906  25.942  26.194  1.00  0.00     0.044 C 
ATOM     27  C   UNL A   1      34.132  22.344  26.927  1.00  0.00     0.004 A 
ATOM     28  C   UNL A   1      32.879  22.546  27.484  1.00  0.00     0.001 A 
ENDBRANCH   8   9
ENDBRANCH   6   8
ENDBRANCH   5   6
ENDBRANCH   4   5
ENDBRANCH   3   4
ENDBRANCH   2   3
ENDBRANCH   1   2
BRANCH   1  29
ATOM     29  C   UNL A   1      43.535  24.155  25.035  1.00  0.00     0.261 C 
BRANCH  29  30
ATOM     30  O   UNL A   1      43.493  25.430  25.703  1.00  0.00    -0.460 OA
BRANCH  30  31
ATOM     31  C   UNL A   1      42.252  25.942  25.852  1.00  0.00     0.338 C 
ATOM     32  O   UNL A   1      41.356  25.948  25.027  1.00  0.00    -0.246 OA
BRANCH  31  33
ATOM     33  C   UNL A   1      42.121  26.520  27.200  1.00  0.00     0.060 A 
ATOM     34  C   UNL A   1      41.185  26.025  28.110  1.00  0.00     0.016 A 
ATOM     35  C   UNL A   1      42.853  27.664  27.500  1.00  0.00     0.016 A 
ATOM     36  C   UNL A   1      40.943  26.724  29.302  1.00  0.00     0.010 A 
ATOM     37  C   UNL A   1      42.666  28.312  28.720  1.00  0.00     0.010 A 
ATOM     38  C   UNL A   1      41.661  27.893  29.604  1.00  0.00    -0.014 A 
BRANCH  38  39
ATOM     39  C   UNL A   1      41.267  28.788  30.729  1.00  0.00     0.031 A 
ATOM     40  C   UNL A   1      42.078  28.766  32.006  1.00  0.00     0.074 A 
ATOM     41  C   UNL A   1      40.199  29.604  30.640  1.00  0.00     0.049 A 
ATOM     42  N   UNL A   1      41.888  29.429  33.121  1.00  0.00    -0.248 NA
ATOM     43  C   UNL A   1      43.237  27.856  32.049  1.00  0.00     0.031 C 
ATOM     44  C   UNL A   1      39.304  29.711  29.488  1.00  0.00     0.029 A 
ATOM     45  N   UNL A   1      39.691  30.507  31.543  1.00  0.00    -0.354 N 
ATOM     46  C   UNL A   1      42.877  28.990  33.996  1.00  0.00     0.074 A 
ATOM     47  C   UNL A   1      43.630  27.968  33.308  1.00  0.00     0.031 C 
ATOM     48  C   UNL A   1      38.379  30.654  29.739  1.00  0.00     0.029 A 
ATOM     49  C   UNL A   1      38.601  31.203  31.077  1.00  0.00     0.049 A 
ATOM     50  H   UNL A   1      40.072  30.643  32.440  1.00  0.00     0.167 HD
ATOM     51  C   UNL A   1      43.163  29.419  35.247  1.00  0.00     0.031 A 
ATOM     52  C   UNL A   1      37.870  32.181  31.651  1.00  0.00     0.031 A 
ATOM     53  C   UNL A   1      42.466  30.478  35.918  1.00  0.00     0.049 A 
ATOM     54  C   UNL A   1      38.228  32.677  33.026  1.00  0.00     0.074 A 
ATOM     55  C   UNL A   1      42.730  31.027  37.161  1.00  0.00     0.029 A 
ATOM     56  N   UNL A   1      41.384  31.165  35.396  1.00  0.00    -0.354 N 
ATOM     57  N   UNL A   1      39.185  32.268  33.822  1.00  0.00    -0.248 NA
ATOM     58  C   UNL A   1      37.414  33.773  33.576  1.00  0.00     0.031 C 
ATOM     59  C   UNL A   1      41.790  32.033  37.400  1.00  0.00     0.029 A 
ATOM     60  C   UNL A   1      40.966  32.133  36.290  1.00  0.00     0.049 A 
ATOM     61  H   UNL A   1      40.972  30.990  34.518  1.00  0.00     0.167 HD
ATOM     62  C   UNL A   1      39.104  33.072  34.955  1.00  0.00     0.074 A 
ATOM     63  C   UNL A   1      38.006  33.991  34.744  1.00  0.00     0.031 C 
ATOM     64  C   UNL A   1      39.879  33.048  36.067  1.00  0.00     0.031 A 
BRANCH  51  65
ATOM     65  C   UNL A   1      44.308  28.757  35.966  1.00  0.00    -0.014 A 
ATOM     66  C   UNL A   1      45.625  29.223  35.804  1.00  0.00     0.010 A 
ATOM     67  C   UNL A   1      44.059  27.693  36.852  1.00  0.00     0.010 A 
ATOM     68  C   UNL A   1      46.679  28.614  36.489  1.00  0.00     0.020 A 
ATOM     69  C   UNL A   1      45.109  27.098  37.559  1.00  0.00     0.020 A 
ATOM     70  C   UNL A   1      46.413  27.557  37.364  1.00  0.00     0.054 A 
BRANCH  70  71
ATOM     71  S   UNL A   1      47.804  26.804  38.252  1.00  0.00     0.124 S 
ATOM     72  O   UNL A   1      48.808  27.864  38.200  1.00  0.00    -0.237 OA
ATOM     73  O   UNL A   1      47.231  26.545  39.570  1.00  0.00    -0.237 OA
ATOM     74  O   UNL A   1      48.118  25.615  37.463  1.00  0.00    -0.744 OA
ENDBRANCH  70  71
ENDBRANCH  51  65
BRANCH  52  75
ATOM     75  C   UNL A   1      36.754  32.797  30.886  1.00  0.00    -0.014 A 
ATOM     76  C   UNL A   1      35.422  32.482  31.208  1.00  0.00     0.010 A 
ATOM     77  C   UNL A   1      37.012  33.742  29.877  1.00  0.00     0.010 A 
ATOM     78  C   UNL A   1      34.366  33.115  30.547  1.00  0.00     0.020 A 
ATOM     79  C   UNL A   1      35.958  34.388  29.225  1.00  0.00     0.020 A 
ATOM     80  C   UNL A   1      34.641  34.075  29.569  1.00  0.00     0.054 A 
BRANCH  80  81
ATOM     81  S   UNL A   1      33.250  34.943  28.793  1.00  0.00     0.124 S 
ATOM     82  O   UNL A   1      33.913  36.062  28.132  1.00  0.00    -0.237 OA
ATOM     83  O   UNL A   1      32.706  33.917  27.907  1.00  0.00    -0.237 OA
ATOM     84  O   UNL A   1      32.394  35.301  29.922  1.00  0.00    -0.744 OA
ENDBRANCH  80  81
ENDBRANCH  52  75
BRANCH  64  85
ATOM     85  C   UNL A   1      39.604  34.054  37.151  1.00  0.00    -0.014 A 
ATOM     86  C   UNL A   1      38.816  33.715  38.263  1.00  0.00     0.010 A 
ATOM     87  C   UNL A   1      40.258  35.299  37.121  1.00  0.00     0.010 A 
ATOM     88  C   UNL A   1      38.695  34.604  39.334  1.00  0.00     0.020 A 
ATOM     89  C   UNL A   1      40.151  36.184  38.197  1.00  0.00     0.020 A 
ATOM     90  C   UNL A   1      39.373  35.828  39.300  1.00  0.00     0.054 A 
BRANCH  90  91
ATOM     91  S   UNL A   1      39.258  36.922  40.743  1.00  0.00     0.124 S 
ATOM     92  O   UNL A   1      38.487  38.045  40.217  1.00  0.00    -0.237 OA
ATOM     93  O   UNL A   1      38.566  36.085  41.718  1.00  0.00    -0.237 OA
ATOM     94  O   UNL A   1      40.652  37.224  41.063  1.00  0.00    -0.744 OA
ENDBRANCH  90  91
ENDBRANCH  64  85
ENDBRANCH  38  39
ENDBRANCH  31  33
ENDBRANCH  30  31
ENDBRANCH  29  30
ENDBRANCH   1  29
TORSDOF 18
ENDMDL
MODEL 2
REMARK VINA RESULT:     -11.6      6.012      8.448
REMARK SMILES Cc1cccc2c1[C@H]1c3c(C)cccc3[C@H](CC(=O)OCCOCCOC(=O)c3ccc(-c4c5nc(c(-c6ccc(S(=O)(=O)[O-])cc6)c6ccc([nH]6)c(-c6ccc(S(=O)(=O)[O-])cc6)c6nc(c(-c7ccc(S(=O)(=O)[O-])cc7)c7ccc4[nH]7)C=C6)C=C5)cc3)C[C@H]1CC2
REMARK SMILES IDX 24 1 23 2 22 3 21 4 20 5 18 6 19 7 17 8 16 9 1 10 2 11 3 12
REMARK SMILES IDX 7 13 4 14 6 15 8 16 5 17 92 18 9 19 90 20 91 21 10 22 15 23
REMARK SMILES IDX 89 24 12 25 11 26 14 27 13 28 25 29 26 30 27 31 28 32 29 33
REMARK SMILES IDX 30 34 88 35 31 36 87 37 32 38 33 39 34 40 81 41 35 42 86 43
REMARK SMILES IDX 80 44 82 45 36 46 85 47 79 48 78 49 37 51 67 52 48 53 66 54
REMARK SMILES IDX 49 55 52 56 65 57 83 58 50 59 51 60 64 62 84 63 53 64 38 65
REMARK SMILES IDX 39 66 47 67 40 68 46 69 41 70 42 71 43 72 44 73 45 74 68 75
REMARK SMILES IDX 69 76 77 77 70 78 76 79 71 80 72 81 73 82 74 83 75 84 54 85
REMARK SMILES IDX 55 86 63 87 56 88 62 89 57 90 58 91 59 92 60 93 61 94
REMARK H PARENT 82 50 52 61
REMARK Flexibility Score: inf
ROOT
ATOM      1  C   UNL A   1      42.541  18.649  26.178  1.00  0.00     0.202 C 
ENDROOT
BRANCH   1   2
ATOM      2  O   UNL A   1      41.652  19.505  25.458  1.00  0.00    -0.374 OA
BRANCH   2   3
ATOM      3  C   UNL A   1      40.432  19.844  26.107  1.00  0.00     0.202 C 
BRANCH   3   4
ATOM      4  C   UNL A   1      40.235  21.308  26.514  1.00  0.00     0.261 C 
BRANCH   4   5
ATOM      5  O   UNL A   1      38.943  21.887  26.281  1.00  0.00    -0.463 OA
BRANCH   5   6
ATOM      6  C   UNL A   1      38.890  23.241  26.422  1.00  0.00     0.306 C 
ATOM      7  O   UNL A   1      39.859  23.974  26.582  1.00  0.00    -0.252 OA
BRANCH   6   8
ATOM      8  C   UNL A   1      37.467  23.725  26.544  1.00  0.00     0.131 C 
BRANCH   8   9
ATOM      9  C   UNL A   1      36.369  23.013  25.739  1.00  0.00     0.031 C 
ATOM     10  C   UNL A   1      34.084  28.021  24.412  1.00  0.00     0.044 C 
ATOM     11  C   UNL A   1      33.193  27.033  23.704  1.00  0.00    -0.047 A 
ATOM     12  C   UNL A   1      32.051  27.528  23.052  1.00  0.00     0.004 A 
ATOM     13  C   UNL A   1      33.466  25.642  23.664  1.00  0.00    -0.034 A 
ATOM     14  C   UNL A   1      31.191  26.676  22.364  1.00  0.00     0.001 A 
ATOM     15  C   UNL A   1      32.649  24.802  22.866  1.00  0.00    -0.044 A 
ATOM     16  C   UNL A   1      34.557  24.997  24.517  1.00  0.00     0.053 C 
ATOM     17  C   UNL A   1      31.500  25.325  22.254  1.00  0.00     0.004 A 
ATOM     18  C   UNL A   1      32.962  23.343  22.640  1.00  0.00     0.036 C 
ATOM     19  C   UNL A   1      34.091  24.240  25.782  1.00  0.00    -0.034 A 
ATOM     20  C   UNL A   1      35.265  23.974  23.587  1.00  0.00     0.002 C 
ATOM     21  C   UNL A   1      34.307  22.842  23.169  1.00  0.00     0.009 C 
ATOM     22  C   UNL A   1      32.811  24.379  26.378  1.00  0.00    -0.047 A 
ATOM     23  C   UNL A   1      34.950  23.205  26.255  1.00  0.00    -0.040 A 
ATOM     24  C   UNL A   1      36.529  23.431  24.255  1.00  0.00     0.013 C 
ATOM     25  C   UNL A   1      32.322  23.345  27.192  1.00  0.00     0.004 A 
ATOM     26  C   UNL A   1      31.884  25.548  26.180  1.00  0.00     0.044 C 
ATOM     27  C   UNL A   1      34.434  22.221  27.114  1.00  0.00     0.004 A 
ATOM     28  C   UNL A   1      33.114  22.264  27.538  1.00  0.00     0.001 A 
ENDBRANCH   8   9
ENDBRANCH   6   8
ENDBRANCH   5   6
ENDBRANCH   4   5
ENDBRANCH   3   4
ENDBRANCH   2   3
ENDBRANCH   1   2
BRANCH   1  29
ATOM     29  C   UNL A   1      43.877  18.371  25.483  1.00  0.00     0.261 C 
BRANCH  29  30
ATOM     30  O   UNL A   1      44.011  19.226  24.333  1.00  0.00    -0.460 OA
BRANCH  30  31
ATOM     31  C   UNL A   1      45.168  19.922  24.286  1.00  0.00     0.338 C 
ATOM     32  O   UNL A   1      46.244  19.530  23.873  1.00  0.00    -0.246 OA
BRANCH  31  33
ATOM     33  C   UNL A   1      44.947  21.274  24.827  1.00  0.00     0.060 A 
ATOM     34  C   UNL A   1      44.511  22.317  24.006  1.00  0.00     0.016 A 
ATOM     35  C   UNL A   1      45.316  21.525  26.143  1.00  0.00     0.016 A 
ATOM     36  C   UNL A   1      44.507  23.630  24.501  1.00  0.00     0.010 A 
ATOM     37  C   UNL A   1      45.237  22.820  26.655  1.00  0.00     0.010 A 
ATOM     38  C   UNL A   1      44.901  23.897  25.822  1.00  0.00    -0.014 A 
BRANCH  38  39
ATOM     39  C   UNL A   1      45.143  25.287  26.304  1.00  0.00     0.031 A 
ATOM     40  C   UNL A   1      46.525  25.885  26.164  1.00  0.00     0.074 A 
ATOM     41  C   UNL A   1      44.163  26.016  26.873  1.00  0.00     0.049 A 
ATOM     42  N   UNL A   1      46.965  27.057  26.552  1.00  0.00    -0.248 NA
ATOM     43  C   UNL A   1      47.559  25.045  25.532  1.00  0.00     0.031 C 
ATOM     44  C   UNL A   1      42.792  25.564  27.106  1.00  0.00     0.029 A 
ATOM     45  N   UNL A   1      44.177  27.303  27.356  1.00  0.00    -0.354 N 
ATOM     46  C   UNL A   1      48.322  27.074  26.243  1.00  0.00     0.074 A 
ATOM     47  C   UNL A   1      48.647  25.781  25.687  1.00  0.00     0.031 C 
ATOM     48  C   UNL A   1      42.087  26.570  27.653  1.00  0.00     0.029 A 
ATOM     49  C   UNL A   1      42.960  27.730  27.830  1.00  0.00     0.049 A 
ATOM     50  H   UNL A   1      44.984  27.866  27.362  1.00  0.00     0.167 HD
ATOM     51  C   UNL A   1      49.216  28.081  26.373  1.00  0.00     0.031 A 
ATOM     52  C   UNL A   1      42.582  28.922  28.335  1.00  0.00     0.031 A 
ATOM     53  C   UNL A   1      48.894  29.391  26.862  1.00  0.00     0.049 A 
ATOM     54  C   UNL A   1      43.577  30.047  28.433  1.00  0.00     0.074 A 
ATOM     55  C   UNL A   1      49.720  30.496  26.963  1.00  0.00     0.029 A 
ATOM     56  N   UNL A   1      47.642  29.779  27.309  1.00  0.00    -0.354 N 
ATOM     57  N   UNL A   1      44.846  30.049  28.106  1.00  0.00    -0.248 NA
ATOM     58  C   UNL A   1      43.087  31.332  28.956  1.00  0.00     0.031 C 
ATOM     59  C   UNL A   1      48.972  31.550  27.495  1.00  0.00     0.029 A 
ATOM     60  C   UNL A   1      47.672  31.109  27.689  1.00  0.00     0.049 A 
ATOM     61  H   UNL A   1      46.849  29.197  27.350  1.00  0.00     0.167 HD
ATOM     62  C   UNL A   1      45.301  31.340  28.361  1.00  0.00     0.074 A 
ATOM     63  C   UNL A   1      44.173  32.091  28.869  1.00  0.00     0.031 C 
ATOM     64  C   UNL A   1      46.543  31.850  28.184  1.00  0.00     0.031 A 
BRANCH  51  65
ATOM     65  C   UNL A   1      50.635  27.814  25.947  1.00  0.00    -0.014 A 
ATOM     66  C   UNL A   1      51.605  27.417  26.884  1.00  0.00     0.010 A 
ATOM     67  C   UNL A   1      50.990  27.910  24.589  1.00  0.00     0.010 A 
ATOM     68  C   UNL A   1      52.915  27.154  26.476  1.00  0.00     0.020 A 
ATOM     69  C   UNL A   1      52.293  27.623  24.174  1.00  0.00     0.020 A 
ATOM     70  C   UNL A   1      53.249  27.255  25.123  1.00  0.00     0.054 A 
BRANCH  70  71
ATOM     71  S   UNL A   1      54.955  26.887  24.628  1.00  0.00     0.124 S 
ATOM     72  O   UNL A   1      55.678  28.047  25.141  1.00  0.00    -0.237 OA
ATOM     73  O   UNL A   1      55.216  25.627  25.319  1.00  0.00    -0.237 OA
ATOM     74  O   UNL A   1      54.883  26.796  23.172  1.00  0.00    -0.744 OA
ENDBRANCH  70  71
ENDBRANCH  51  65
BRANCH  52  75
ATOM     75  C   UNL A   1      41.164  29.124  28.734  1.00  0.00    -0.014 A 
ATOM     76  C   UNL A   1      40.821  29.208  30.095  1.00  0.00     0.010 A 
ATOM     77  C   UNL A   1      40.162  29.293  27.762  1.00  0.00     0.010 A 
ATOM     78  C   UNL A   1      39.504  29.475  30.478  1.00  0.00     0.020 A 
ATOM     79  C   UNL A   1      38.847  29.576  28.141  1.00  0.00     0.020 A 
ATOM     80  C   UNL A   1      38.527  29.672  29.497  1.00  0.00     0.054 A 
BRANCH  80  81
ATOM     81  S   UNL A   1      36.846  30.106  30.025  1.00  0.00     0.124 S 
ATOM     82  O   UNL A   1      36.997  31.503  30.419  1.00  0.00    -0.237 OA
ATOM     83  O   UNL A   1      36.074  29.871  28.807  1.00  0.00    -0.237 OA
ATOM     84  O   UNL A   1      36.576  29.173  31.116  1.00  0.00    -0.744 OA
ENDBRANCH  80  81
ENDBRANCH  52  75
BRANCH  64  85
ATOM     85  C   UNL A   1      46.772  33.300  28.510  1.00  0.00    -0.014 A 
ATOM     86  C   UNL A   1      47.265  33.685  29.767  1.00  0.00     0.010 A 
ATOM     87  C   UNL A   1      46.628  34.268  27.498  1.00  0.00     0.010 A 
ATOM     88  C   UNL A   1      47.619  35.016  30.006  1.00  0.00     0.020 A 
ATOM     89  C   UNL A   1      46.995  35.596  27.729  1.00  0.00     0.020 A 
ATOM     90  C   UNL A   1      47.493  35.961  28.981  1.00  0.00     0.054 A 
BRANCH  90  91
ATOM     91  S   UNL A   1      48.038  37.661  29.300  1.00  0.00     0.124 S 
ATOM     92  O   UNL A   1      48.522  37.577  30.676  1.00  0.00    -0.237 OA
ATOM     93  O   UNL A   1      49.067  37.858  28.282  1.00  0.00    -0.237 OA
ATOM     94  O   UNL A   1      46.825  38.457  29.117  1.00  0.00    -0.744 OA
ENDBRANCH  90  91
ENDBRANCH  64  85
ENDBRANCH  38  39
ENDBRANCH  31  33
ENDBRANCH  30  31
ENDBRANCH  29  30
ENDBRANCH   1  29
TORSDOF 18
ENDMDL
MODEL 3
REMARK VINA RESULT:     -11.5      1.599      2.222
REMARK SMILES Cc1cccc2c1[C@H]1c3c(C)cccc3[C@H](CC(=O)OCCOCCOC(=O)c3ccc(-c4c5nc(c(-c6ccc(S(=O)(=O)[O-])cc6)c6ccc([nH]6)c(-c6ccc(S(=O)(=O)[O-])cc6)c6nc(c(-c7ccc(S(=O)(=O)[O-])cc7)c7ccc4[nH]7)C=C6)C=C5)cc3)C[C@H]1CC2
REMARK SMILES IDX 24 1 23 2 22 3 21 4 20 5 18 6 19 7 17 8 16 9 1 10 2 11 3 12
REMARK SMILES IDX 7 13 4 14 6 15 8 16 5 17 92 18 9 19 90 20 91 21 10 22 15 23
REMARK SMILES IDX 89 24 12 25 11 26 14 27 13 28 25 29 26 30 27 31 28 32 29 33
REMARK SMILES IDX 30 34 88 35 31 36 87 37 32 38 33 39 34 40 81 41 35 42 86 43
REMARK SMILES IDX 80 44 82 45 36 46 85 47 79 48 78 49 37 51 67 52 48 53 66 54
REMARK SMILES IDX 49 55 52 56 65 57 83 58 50 59 51 60 64 62 84 63 53 64 38 65
REMARK SMILES IDX 39 66 47 67 40 68 46 69 41 70 42 71 43 72 44 73 45 74 68 75
REMARK SMILES IDX 69 76 77 77 70 78 76 79 71 80 72 81 73 82 74 83 75 84 54 85
REMARK SMILES IDX 55 86 63 87 56 88 62 89 57 90 58 91 59 92 60 93 61 94
REMARK H PARENT 82 50 52 61
REMARK Flexibility Score: inf
ROOT
ATOM      1  C   UNL A   1      41.910  22.686  26.765  1.00  0.00     0.202 C 
ENDROOT
BRANCH   1   2
ATOM      2  O   UNL A   1      40.968  21.847  26.092  1.00  0.00    -0.374 OA
BRANCH   2   3
ATOM      3  C   UNL A   1      39.643  21.837  26.609  1.00  0.00     0.202 C 
BRANCH   3   4
ATOM      4  C   UNL A   1      38.536  21.298  25.696  1.00  0.00     0.261 C 
BRANCH   4   5
ATOM      5  O   UNL A   1      37.828  22.250  24.888  1.00  0.00    -0.463 OA
BRANCH   5   6
ATOM      6  C   UNL A   1      37.083  23.150  25.588  1.00  0.00     0.306 C 
ATOM      7  O   UNL A   1      37.502  24.201  26.060  1.00  0.00    -0.252 OA
BRANCH   6   8
ATOM      8  C   UNL A   1      35.702  22.614  25.876  1.00  0.00     0.131 C 
BRANCH   8   9
ATOM      9  C   UNL A   1      34.616  22.739  24.797  1.00  0.00     0.031 C 
ATOM     10  C   UNL A   1      34.092  28.257  25.955  1.00  0.00     0.044 C 
ATOM     11  C   UNL A   1      33.107  28.040  24.836  1.00  0.00    -0.047 A 
ATOM     12  C   UNL A   1      32.285  29.120  24.465  1.00  0.00     0.004 A 
ATOM     13  C   UNL A   1      32.985  26.808  24.144  1.00  0.00    -0.034 A 
ATOM     14  C   UNL A   1      31.363  28.997  23.430  1.00  0.00     0.001 A 
ATOM     15  C   UNL A   1      32.128  26.731  23.018  1.00  0.00    -0.044 A 
ATOM     16  C   UNL A   1      33.681  25.533  24.618  1.00  0.00     0.053 C 
ATOM     17  C   UNL A   1      31.300  27.818  22.697  1.00  0.00     0.004 A 
ATOM     18  C   UNL A   1      32.059  25.511  22.133  1.00  0.00     0.036 C 
ATOM     19  C   UNL A   1      32.800  24.496  25.354  1.00  0.00    -0.034 A 
ATOM     20  C   UNL A   1      34.233  24.856  23.333  1.00  0.00     0.002 C 
ATOM     21  C   UNL A   1      33.092  24.414  22.398  1.00  0.00     0.009 C 
ATOM     22  C   UNL A   1      31.523  24.772  25.907  1.00  0.00    -0.047 A 
ATOM     23  C   UNL A   1      33.237  23.140  25.301  1.00  0.00    -0.040 A 
ATOM     24  C   UNL A   1      35.153  23.691  23.698  1.00  0.00     0.013 C 
ATOM     25  C   UNL A   1      30.626  23.712  26.114  1.00  0.00     0.004 A 
ATOM     26  C   UNL A   1      31.009  26.140  26.263  1.00  0.00     0.044 C 
ATOM     27  C   UNL A   1      32.321  22.111  25.571  1.00  0.00     0.004 A 
ATOM     28  C   UNL A   1      31.010  22.395  25.925  1.00  0.00     0.001 A 
ENDBRANCH   8   9
ENDBRANCH   6   8
ENDBRANCH   5   6
ENDBRANCH   4   5
ENDBRANCH   3   4
ENDBRANCH   2   3
ENDBRANCH   1   2
BRANCH   1  29
ATOM     29  C   UNL A   1      42.001  24.116  26.229  1.00  0.00     0.261 C 
BRANCH  29  30
ATOM     30  O   UNL A   1      40.980  24.928  26.837  1.00  0.00    -0.460 OA
BRANCH  30  31
ATOM     31  C   UNL A   1      40.925  26.196  26.375  1.00  0.00     0.338 C 
ATOM     32  O   UNL A   1      41.159  26.575  25.241  1.00  0.00    -0.246 OA
BRANCH  31  33
ATOM     33  C   UNL A   1      40.533  27.099  27.470  1.00  0.00     0.060 A 
ATOM     34  C   UNL A   1      40.873  28.453  27.446  1.00  0.00     0.016 A 
ATOM     35  C   UNL A   1      39.938  26.546  28.598  1.00  0.00     0.016 A 
ATOM     36  C   UNL A   1      40.666  29.238  28.590  1.00  0.00     0.010 A 
ATOM     37  C   UNL A   1      39.663  27.347  29.706  1.00  0.00     0.010 A 
ATOM     38  C   UNL A   1      40.088  28.683  29.743  1.00  0.00    -0.014 A 
BRANCH  38  39
ATOM     39  C   UNL A   1      40.077  29.410  31.044  1.00  0.00     0.031 A 
ATOM     40  C   UNL A   1      41.189  29.157  32.039  1.00  0.00     0.074 A 
ATOM     41  C   UNL A   1      39.094  30.276  31.360  1.00  0.00     0.049 A 
ATOM     42  N   UNL A   1      41.352  29.647  33.243  1.00  0.00    -0.248 NA
ATOM     43  C   UNL A   1      42.239  28.202  31.641  1.00  0.00     0.031 C 
ATOM     44  C   UNL A   1      37.941  30.597  30.520  1.00  0.00     0.029 A 
ATOM     45  N   UNL A   1      38.915  31.049  32.482  1.00  0.00    -0.354 N 
ATOM     46  C   UNL A   1      42.496  29.037  33.749  1.00  0.00     0.074 A 
ATOM     47  C   UNL A   1      42.956  28.102  32.749  1.00  0.00     0.031 C 
ATOM     48  C   UNL A   1      37.195  31.529  31.140  1.00  0.00     0.029 A 
ATOM     49  C   UNL A   1      37.803  31.854  32.430  1.00  0.00     0.049 A 
ATOM     50  H   UNL A   1      39.528  31.028  33.253  1.00  0.00     0.167 HD
ATOM     51  C   UNL A   1      43.133  29.254  34.923  1.00  0.00     0.031 A 
ATOM     52  C   UNL A   1      37.331  32.762  33.308  1.00  0.00     0.031 A 
ATOM     53  C   UNL A   1      42.726  30.226  35.896  1.00  0.00     0.049 A 
ATOM     54  C   UNL A   1      38.075  33.024  34.590  1.00  0.00     0.074 A 
ATOM     55  C   UNL A   1      43.350  30.564  37.084  1.00  0.00     0.029 A 
ATOM     56  N   UNL A   1      41.605  31.031  35.785  1.00  0.00    -0.354 N 
ATOM     57  N   UNL A   1      39.171  32.457  35.033  1.00  0.00    -0.248 NA
ATOM     58  C   UNL A   1      37.527  34.056  35.484  1.00  0.00     0.031 C 
ATOM     59  C   UNL A   1      42.592  31.561  37.705  1.00  0.00     0.029 A 
ATOM     60  C   UNL A   1      41.517  31.866  36.884  1.00  0.00     0.049 A 
ATOM     61  H   UNL A   1      40.965  31.011  35.037  1.00  0.00     0.167 HD
ATOM     62  C   UNL A   1      39.455  33.079  36.245  1.00  0.00     0.074 A 
ATOM     63  C   UNL A   1      38.420  34.065  36.467  1.00  0.00     0.031 C 
ATOM     64  C   UNL A   1      40.489  32.851  37.092  1.00  0.00     0.031 A 
BRANCH  51  65
ATOM     65  C   UNL A   1      44.367  28.441  35.207  1.00  0.00    -0.014 A 
ATOM     66  C   UNL A   1      45.641  28.915  34.844  1.00  0.00     0.010 A 
ATOM     67  C   UNL A   1      44.259  27.216  35.889  1.00  0.00     0.010 A 
ATOM     68  C   UNL A   1      46.782  28.161  35.127  1.00  0.00     0.020 A 
ATOM     69  C   UNL A   1      45.402  26.471  36.198  1.00  0.00     0.020 A 
ATOM     70  C   UNL A   1      46.655  26.946  35.806  1.00  0.00     0.054 A 
BRANCH  70  71
ATOM     71  S   UNL A   1      48.161  26.005  36.175  1.00  0.00     0.124 S 
ATOM     72  O   UNL A   1      47.641  24.906  36.985  1.00  0.00    -0.237 OA
ATOM     73  O   UNL A   1      48.633  25.635  34.844  1.00  0.00    -0.237 OA
ATOM     74  O   UNL A   1      49.002  26.960  36.892  1.00  0.00    -0.744 OA
ENDBRANCH  70  71
ENDBRANCH  51  65
BRANCH  52  75
ATOM     75  C   UNL A   1      36.109  33.536  32.966  1.00  0.00    -0.014 A 
ATOM     76  C   UNL A   1      34.838  32.997  33.231  1.00  0.00     0.010 A 
ATOM     77  C   UNL A   1      36.207  34.833  32.432  1.00  0.00     0.010 A 
ATOM     78  C   UNL A   1      33.685  33.749  32.986  1.00  0.00     0.020 A 
ATOM     79  C   UNL A   1      35.058  35.593  32.199  1.00  0.00     0.020 A 
ATOM     80  C   UNL A   1      33.804  35.048  32.484  1.00  0.00     0.054 A 
BRANCH  80  81
ATOM     81  S   UNL A   1      32.294  36.030  32.260  1.00  0.00     0.124 S 
ATOM     82  O   UNL A   1      31.250  35.081  32.634  1.00  0.00    -0.237 OA
ATOM     83  O   UNL A   1      32.508  37.135  33.191  1.00  0.00    -0.237 OA
ATOM     84  O   UNL A   1      32.329  36.397  30.846  1.00  0.00    -0.744 OA
ENDBRANCH  80  81
ENDBRANCH  52  75
BRANCH  64  85
ATOM     85  C   UNL A   1      40.590  33.687  38.337  1.00  0.00    -0.014 A 
ATOM     86  C   UNL A   1      41.347  34.870  38.349  1.00  0.00     0.010 A 
ATOM     87  C   UNL A   1      39.804  33.358  39.457  1.00  0.00     0.010 A 
ATOM     88  C   UNL A   1      41.309  35.717  39.459  1.00  0.00     0.020 A 
ATOM     89  C   UNL A   1      39.753  34.210  40.564  1.00  0.00     0.020 A 
ATOM     90  C   UNL A   1      40.503  35.388  40.555  1.00  0.00     0.054 A 
BRANCH  90  91
ATOM     91  S   UNL A   1      40.415  36.550  41.946  1.00  0.00     0.124 S 
ATOM     92  O   UNL A   1      40.163  35.659  43.075  1.00  0.00    -0.237 OA
ATOM     93  O   UNL A   1      41.735  37.173  41.919  1.00  0.00    -0.237 OA
ATOM     94  O   UNL A   1      39.305  37.433  41.593  1.00  0.00    -0.744 OA
ENDBRANCH  90  91
ENDBRANCH  64  85
ENDBRANCH  38  39
ENDBRANCH  31  33
ENDBRANCH  30  31
ENDBRANCH  29  30
ENDBRANCH   1  29
TORSDOF 18
ENDMDL
