MODEL 1
REMARK VINA RESULT:     -10.3      0.000      0.000
REMARK SMILES C[C@H](NC(=O)N1CC[C@H](C(=O)OCCOCCOC(=O)c2ccc(-c3c4nc(c(-c5ccc(S(=O)(=O)[O-])cc5)c5ccc([nH]5)c(-c5ccc(S(=O)(=O)[O-])cc5)c5nc(c(-c6ccc(S(=O)(=O)[O-])cc6)c6ccc3[nH]6)C=C5)C=C4)cc2)[C@@H]1C)[C@@H]1CCCO1
REMARK SMILES IDX 15 1 14 2 13 3 12 4 10 5 11 6 9 7 6 8 7 9 81 10 8 11 82 12
REMARK SMILES IDX 4 13 3 14 5 16 2 17 1 18 83 19 84 20 87 21 85 22 86 23 16 24
REMARK SMILES IDX 17 25 18 26 19 27 20 28 21 29 22 30 80 31 23 32 79 33 24 34
REMARK SMILES IDX 25 35 26 36 73 37 27 38 78 39 72 40 74 41 28 42 77 43 71 44
REMARK SMILES IDX 70 45 29 47 59 48 40 49 58 50 41 51 44 52 57 53 75 54 42 55
REMARK SMILES IDX 43 56 56 58 76 59 45 60 30 61 31 62 39 63 32 64 38 65 33 66
REMARK SMILES IDX 34 67 35 68 36 69 37 70 60 71 61 72 69 73 62 74 68 75 63 76
REMARK SMILES IDX 64 77 65 78 66 79 67 80 46 81 47 82 55 83 48 84 54 85 49 86
REMARK SMILES IDX 50 87 51 88 52 89 53 90
REMARK H PARENT 3 15 74 46 44 57
REMARK Flexibility Score: inf
ROOT
ATOM      1  O   UNL A   1      34.625  30.745  27.648  1.00  0.00    -0.374 OA
ENDROOT
BRANCH   1   2
ATOM      2  C   UNL A   1      33.399  30.033  27.450  1.00  0.00     0.202 C 
BRANCH   2   3
ATOM      3  C   UNL A   1      32.681  30.197  26.106  1.00  0.00     0.261 C 
BRANCH   3   4
ATOM      4  O   UNL A   1      31.507  29.362  26.032  1.00  0.00    -0.463 OA
BRANCH   4   5
ATOM      5  C   UNL A   1      31.143  28.922  24.795  1.00  0.00     0.311 C 
ATOM      6  O   UNL A   1      30.664  29.614  23.909  1.00  0.00    -0.252 OA
BRANCH   5   7
ATOM      7  C   UNL A   1      31.413  27.441  24.669  1.00  0.00     0.123 C 
ATOM      8  N   UNL A   1      32.364  26.114  22.950  1.00  0.00    -0.321 N 
ATOM      9  C   UNL A   1      31.053  26.502  22.485  1.00  0.00     0.122 C 
ATOM     10  C   UNL A   1      32.758  27.000  24.040  1.00  0.00     0.098 C 
ATOM     11  C   UNL A   1      30.327  26.808  23.779  1.00  0.00     0.039 C 
ATOM     12  C   UNL A   1      33.724  28.066  23.513  1.00  0.00     0.032 C 
BRANCH   8  13
ATOM     13  C   UNL A   1      33.215  25.427  22.146  1.00  0.00     0.317 C 
ATOM     14  N   UNL A   1      34.121  24.585  22.696  1.00  0.00    -0.333 N 
ATOM     15  H   UNL A   1      35.057  24.746  22.438  1.00  0.00     0.165 HD
ATOM     16  O   UNL A   1      33.231  25.578  20.924  1.00  0.00    -0.249 OA
BRANCH  14  17
ATOM     17  C   UNL A   1      33.908  23.461  23.623  1.00  0.00     0.109 C 
ATOM     18  C   UNL A   1      33.044  22.313  23.106  1.00  0.00     0.034 C 
BRANCH  17  19
ATOM     19  C   UNL A   1      35.166  23.043  24.429  1.00  0.00     0.140 C 
ATOM     20  C   UNL A   1      36.472  22.814  23.674  1.00  0.00     0.036 C 
ATOM     21  O   UNL A   1      34.871  21.797  25.110  1.00  0.00    -0.376 OA
ATOM     22  C   UNL A   1      37.149  21.755  24.514  1.00  0.00     0.031 C 
ATOM     23  C   UNL A   1      35.977  20.905  24.945  1.00  0.00     0.160 C 
ENDBRANCH  17  19
ENDBRANCH  14  17
ENDBRANCH   8  13
ENDBRANCH   5   7
ENDBRANCH   4   5
ENDBRANCH   3   4
ENDBRANCH   2   3
ENDBRANCH   1   2
BRANCH   1  24
ATOM     24  C   UNL A   1      34.536  32.119  27.989  1.00  0.00     0.202 C 
BRANCH  24  25
ATOM     25  C   UNL A   1      35.133  32.611  29.318  1.00  0.00     0.261 C 
BRANCH  25  26
ATOM     26  O   UNL A   1      36.550  32.524  29.381  1.00  0.00    -0.460 OA
BRANCH  26  27
ATOM     27  C   UNL A   1      36.980  31.827  30.459  1.00  0.00     0.338 C 
ATOM     28  O   UNL A   1      36.444  31.735  31.554  1.00  0.00    -0.246 OA
BRANCH  27  29
ATOM     29  C   UNL A   1      38.143  31.039  30.052  1.00  0.00     0.060 A 
ATOM     30  C   UNL A   1      39.103  30.756  31.029  1.00  0.00     0.016 A 
ATOM     31  C   UNL A   1      38.290  30.602  28.734  1.00  0.00     0.016 A 
ATOM     32  C   UNL A   1      40.255  30.075  30.673  1.00  0.00     0.010 A 
ATOM     33  C   UNL A   1      39.451  29.925  28.377  1.00  0.00     0.010 A 
ATOM     34  C   UNL A   1      40.451  29.699  29.337  1.00  0.00    -0.014 A 
BRANCH  34  35
ATOM     35  C   UNL A   1      41.784  29.231  28.919  1.00  0.00     0.031 A 
ATOM     36  C   UNL A   1      42.904  30.229  28.869  1.00  0.00     0.074 A 
ATOM     37  C   UNL A   1      41.981  27.934  28.624  1.00  0.00     0.049 A 
ATOM     38  N   UNL A   1      44.150  30.052  28.524  1.00  0.00    -0.248 NA
ATOM     39  C   UNL A   1      42.577  31.616  29.253  1.00  0.00     0.031 C 
ATOM     40  C   UNL A   1      40.955  26.892  28.673  1.00  0.00     0.029 A 
ATOM     41  N   UNL A   1      43.112  27.276  28.222  1.00  0.00    -0.354 N 
ATOM     42  C   UNL A   1      44.750  31.302  28.629  1.00  0.00     0.074 A 
ATOM     43  C   UNL A   1      43.729  32.235  29.050  1.00  0.00     0.031 C 
ATOM     44  C   UNL A   1      41.505  25.723  28.302  1.00  0.00     0.029 A 
ATOM     45  C   UNL A   1      42.907  25.944  27.961  1.00  0.00     0.049 A 
ATOM     46  H   UNL A   1      43.988  27.717  28.130  1.00  0.00     0.167 HD
ATOM     47  C   UNL A   1      46.040  31.635  28.395  1.00  0.00     0.031 A 
ATOM     48  C   UNL A   1      43.755  25.018  27.474  1.00  0.00     0.031 A 
ATOM     49  C   UNL A   1      47.038  30.686  27.981  1.00  0.00     0.049 A 
ATOM     50  C   UNL A   1      45.178  25.426  27.190  1.00  0.00     0.074 A 
ATOM     51  C   UNL A   1      48.386  30.902  27.758  1.00  0.00     0.029 A 
ATOM     52  N   UNL A   1      46.795  29.347  27.719  1.00  0.00    -0.354 N 
ATOM     53  N   UNL A   1      45.746  26.600  27.346  1.00  0.00    -0.248 NA
ATOM     54  C   UNL A   1      46.077  24.384  26.678  1.00  0.00     0.031 C 
ATOM     55  C   UNL A   1      48.942  29.708  27.292  1.00  0.00     0.029 A 
ATOM     56  C   UNL A   1      47.959  28.730  27.299  1.00  0.00     0.049 A 
ATOM     57  H   UNL A   1      45.923  28.900  27.818  1.00  0.00     0.167 HD
ATOM     58  C   UNL A   1      47.076  26.429  26.978  1.00  0.00     0.074 A 
ATOM     59  C   UNL A   1      47.230  25.035  26.611  1.00  0.00     0.031 C 
ATOM     60  C   UNL A   1      48.082  27.339  26.943  1.00  0.00     0.031 A 
BRANCH  47  61
ATOM     61  C   UNL A   1      46.436  33.080  28.534  1.00  0.00    -0.014 A 
ATOM     62  C   UNL A   1      46.942  33.594  29.741  1.00  0.00     0.010 A 
ATOM     63  C   UNL A   1      46.365  33.921  27.408  1.00  0.00     0.010 A 
ATOM     64  C   UNL A   1      47.356  34.927  29.823  1.00  0.00     0.020 A 
ATOM     65  C   UNL A   1      46.802  35.246  27.479  1.00  0.00     0.020 A 
ATOM     66  C   UNL A   1      47.289  35.743  28.689  1.00  0.00     0.054 A 
BRANCH  66  67
ATOM     67  S   UNL A   1      47.895  37.448  28.806  1.00  0.00     0.124 S 
ATOM     68  O   UNL A   1      47.101  38.121  27.780  1.00  0.00    -0.237 OA
ATOM     69  O   UNL A   1      47.571  37.807  30.185  1.00  0.00    -0.237 OA
ATOM     70  O   UNL A   1      49.320  37.333  28.512  1.00  0.00    -0.744 OA
ENDBRANCH  66  67
ENDBRANCH  47  61
BRANCH  48  71
ATOM     71  C   UNL A   1      43.275  23.639  27.191  1.00  0.00    -0.014 A 
ATOM     72  C   UNL A   1      42.924  22.761  28.230  1.00  0.00     0.010 A 
ATOM     73  C   UNL A   1      43.177  23.191  25.859  1.00  0.00     0.010 A 
ATOM     74  C   UNL A   1      42.517  21.454  27.946  1.00  0.00     0.020 A 
ATOM     75  C   UNL A   1      42.739  21.897  25.569  1.00  0.00     0.020 A 
ATOM     76  C   UNL A   1      42.429  21.030  26.616  1.00  0.00     0.054 A 
BRANCH  76  77
ATOM     77  S   UNL A   1      41.877  19.337  26.268  1.00  0.00     0.124 S 
ATOM     78  O   UNL A   1      40.429  19.500  26.195  1.00  0.00    -0.237 OA
ATOM     79  O   UNL A   1      42.548  19.041  25.004  1.00  0.00    -0.237 OA
ATOM     80  O   UNL A   1      42.366  18.577  27.417  1.00  0.00    -0.744 OA
ENDBRANCH  76  77
ENDBRANCH  48  71
BRANCH  60  81
ATOM     81  C   UNL A   1      49.444  26.847  26.535  1.00  0.00    -0.014 A 
ATOM     82  C   UNL A   1      50.281  26.174  27.440  1.00  0.00     0.010 A 
ATOM     83  C   UNL A   1      49.865  27.014  25.202  1.00  0.00     0.010 A 
ATOM     84  C   UNL A   1      51.532  25.708  27.029  1.00  0.00     0.020 A 
ATOM     85  C   UNL A   1      51.100  26.520  24.779  1.00  0.00     0.020 A 
ATOM     86  C   UNL A   1      51.933  25.883  25.702  1.00  0.00     0.054 A 
BRANCH  86  87
ATOM     87  S   UNL A   1      53.545  25.235  25.185  1.00  0.00     0.124 S 
ATOM     88  O   UNL A   1      53.598  25.638  23.783  1.00  0.00    -0.237 OA
ATOM     89  O   UNL A   1      54.469  25.933  26.075  1.00  0.00    -0.237 OA
ATOM     90  O   UNL A   1      53.431  23.797  25.417  1.00  0.00    -0.744 OA
ENDBRANCH  86  87
ENDBRANCH  60  81
ENDBRANCH  34  35
ENDBRANCH  27  29
ENDBRANCH  26  27
ENDBRANCH  25  26
ENDBRANCH  24  25
ENDBRANCH   1  24
TORSDOF 20
ENDMDL
MODEL 2
REMARK VINA RESULT:     -10.2      1.841      2.322
REMARK SMILES C[C@H](NC(=O)N1CC[C@H](C(=O)OCCOCCOC(=O)c2ccc(-c3c4nc(c(-c5ccc(S(=O)(=O)[O-])cc5)c5ccc([nH]5)c(-c5ccc(S(=O)(=O)[O-])cc5)c5nc(c(-c6ccc(S(=O)(=O)[O-])cc6)c6ccc3[nH]6)C=C5)C=C4)cc2)[C@@H]1C)[C@@H]1CCCO1
REMARK SMILES IDX 15 1 14 2 13 3 12 4 10 5 11 6 9 7 6 8 7 9 81 10 8 11 82 12
REMARK SMILES IDX 4 13 3 14 5 16 2 17 1 18 83 19 84 20 87 21 85 22 86 23 16 24
REMARK SMILES IDX 17 25 18 26 19 27 20 28 21 29 22 30 80 31 23 32 79 33 24 34
REMARK SMILES IDX 25 35 26 36 73 37 27 38 78 39 72 40 74 41 28 42 77 43 71 44
REMARK SMILES IDX 70 45 29 47 59 48 40 49 58 50 41 51 44 52 57 53 75 54 42 55
REMARK SMILES IDX 43 56 56 58 76 59 45 60 30 61 31 62 39 63 32 64 38 65 33 66
REMARK SMILES IDX 34 67 35 68 36 69 37 70 60 71 61 72 69 73 62 74 68 75 63 76
REMARK SMILES IDX 64 77 65 78 66 79 67 80 46 81 47 82 55 83 48 84 54 85 49 86
REMARK SMILES IDX 50 87 51 88 52 89 53 90
REMARK H PARENT 3 15 74 46 44 57
REMARK Flexibility Score: inf
ROOT
ATOM      1  O   UNL A   1      34.514  30.713  27.266  1.00  0.00    -0.374 OA
ENDROOT
BRANCH   1   2
ATOM      2  C   UNL A   1      33.086  30.668  27.357  1.00  0.00     0.202 C 
BRANCH   2   3
ATOM      3  C   UNL A   1      32.287  30.493  26.062  1.00  0.00     0.261 C 
BRANCH   3   4
ATOM      4  O   UNL A   1      31.891  29.120  25.870  1.00  0.00    -0.463 OA
BRANCH   4   5
ATOM      5  C   UNL A   1      31.230  28.827  24.715  1.00  0.00     0.311 C 
ATOM      6  O   UNL A   1      30.765  29.647  23.937  1.00  0.00    -0.252 OA
BRANCH   5   7
ATOM      7  C   UNL A   1      31.145  27.331  24.528  1.00  0.00     0.123 C 
ATOM      8  N   UNL A   1      32.078  25.848  22.931  1.00  0.00    -0.321 N 
ATOM      9  C   UNL A   1      31.030  26.573  22.249  1.00  0.00     0.122 C 
ATOM     10  C   UNL A   1      32.441  26.574  24.142  1.00  0.00     0.098 C 
ATOM     11  C   UNL A   1      30.147  27.022  23.396  1.00  0.00     0.039 C 
ATOM     12  C   UNL A   1      33.729  27.368  23.900  1.00  0.00     0.032 C 
BRANCH   8  13
ATOM     13  C   UNL A   1      32.881  24.986  22.257  1.00  0.00     0.317 C 
ATOM     14  N   UNL A   1      33.135  23.763  22.779  1.00  0.00    -0.333 N 
ATOM     15  H   UNL A   1      34.087  23.537  22.879  1.00  0.00     0.165 HD
ATOM     16  O   UNL A   1      33.437  25.292  21.202  1.00  0.00    -0.249 OA
BRANCH  14  17
ATOM     17  C   UNL A   1      32.192  22.721  23.217  1.00  0.00     0.109 C 
ATOM     18  C   UNL A   1      32.135  21.458  22.360  1.00  0.00     0.034 C 
BRANCH  17  19
ATOM     19  C   UNL A   1      32.150  22.492  24.750  1.00  0.00     0.140 C 
ATOM     20  C   UNL A   1      30.940  22.997  25.529  1.00  0.00     0.036 C 
ATOM     21  O   UNL A   1      33.307  23.143  25.335  1.00  0.00    -0.376 OA
ATOM     22  C   UNL A   1      31.538  23.322  26.879  1.00  0.00     0.031 C 
ATOM     23  C   UNL A   1      32.892  23.868  26.496  1.00  0.00     0.160 C 
ENDBRANCH  17  19
ENDBRANCH  14  17
ENDBRANCH   8  13
ENDBRANCH   5   7
ENDBRANCH   4   5
ENDBRANCH   3   4
ENDBRANCH   2   3
ENDBRANCH   1   2
BRANCH   1  24
ATOM     24  C   UNL A   1      35.194  31.638  28.099  1.00  0.00     0.202 C 
BRANCH  24  25
ATOM     25  C   UNL A   1      36.133  31.118  29.200  1.00  0.00     0.261 C 
BRANCH  25  26
ATOM     26  O   UNL A   1      36.435  29.734  29.096  1.00  0.00    -0.460 OA
BRANCH  26  27
ATOM     27  C   UNL A   1      37.214  29.294  30.112  1.00  0.00     0.338 C 
ATOM     28  O   UNL A   1      36.891  29.104  31.275  1.00  0.00    -0.246 OA
BRANCH  27  29
ATOM     29  C   UNL A   1      38.510  28.910  29.552  1.00  0.00     0.060 A 
ATOM     30  C   UNL A   1      39.435  28.321  30.418  1.00  0.00     0.016 A 
ATOM     31  C   UNL A   1      38.809  29.140  28.208  1.00  0.00     0.016 A 
ATOM     32  C   UNL A   1      40.701  28.006  29.950  1.00  0.00     0.010 A 
ATOM     33  C   UNL A   1      40.082  28.830  27.741  1.00  0.00     0.010 A 
ATOM     34  C   UNL A   1      41.040  28.304  28.623  1.00  0.00    -0.014 A 
BRANCH  34  35
ATOM     35  C   UNL A   1      42.454  28.226  28.217  1.00  0.00     0.031 A 
ATOM     36  C   UNL A   1      43.317  29.439  28.412  1.00  0.00     0.074 A 
ATOM     37  C   UNL A   1      42.950  27.081  27.716  1.00  0.00     0.049 A 
ATOM     38  N   UNL A   1      44.578  29.608  28.122  1.00  0.00    -0.248 NA
ATOM     39  C   UNL A   1      42.672  30.625  29.008  1.00  0.00     0.031 C 
ATOM     40  C   UNL A   1      42.189  25.847  27.518  1.00  0.00     0.029 A 
ATOM     41  N   UNL A   1      44.211  26.775  27.280  1.00  0.00    -0.354 N 
ATOM     42  C   UNL A   1      44.873  30.919  28.479  1.00  0.00     0.074 A 
ATOM     43  C   UNL A   1      43.656  31.511  28.988  1.00  0.00     0.031 C 
ATOM     44  C   UNL A   1      43.000  24.917  26.988  1.00  0.00     0.029 A 
ATOM     45  C   UNL A   1      44.322  25.501  26.780  1.00  0.00     0.049 A 
ATOM     46  H   UNL A   1      44.964  27.408  27.321  1.00  0.00     0.167 HD
ATOM     47  C   UNL A   1      46.057  31.566  28.389  1.00  0.00     0.031 A 
ATOM     48  C   UNL A   1      45.371  24.890  26.197  1.00  0.00     0.031 A 
ATOM     49  C   UNL A   1      47.256  30.954  27.882  1.00  0.00     0.049 A 
ATOM     50  C   UNL A   1      46.669  25.647  26.079  1.00  0.00     0.074 A 
ATOM     51  C   UNL A   1      48.523  31.499  27.787  1.00  0.00     0.029 A 
ATOM     52  N   UNL A   1      47.332  29.664  27.378  1.00  0.00    -0.354 N 
ATOM     53  N   UNL A   1      46.949  26.869  26.471  1.00  0.00    -0.248 NA
ATOM     54  C   UNL A   1      47.795  24.941  25.453  1.00  0.00     0.031 C 
ATOM     55  C   UNL A   1      49.349  30.563  27.159  1.00  0.00     0.029 A 
ATOM     56  C   UNL A   1      48.616  29.407  26.934  1.00  0.00     0.049 A 
ATOM     57  H   UNL A   1      46.583  29.025  27.343  1.00  0.00     0.167 HD
ATOM     58  C   UNL A   1      48.291  27.066  26.165  1.00  0.00     0.074 A 
ATOM     59  C   UNL A   1      48.768  25.832  25.574  1.00  0.00     0.031 C 
ATOM     60  C   UNL A   1      49.062  28.166  26.352  1.00  0.00     0.031 A 
BRANCH  47  61
ATOM     61  C   UNL A   1      46.109  33.012  28.800  1.00  0.00    -0.014 A 
ATOM     62  C   UNL A   1      45.828  34.048  27.891  1.00  0.00     0.010 A 
ATOM     63  C   UNL A   1      46.376  33.334  30.143  1.00  0.00     0.010 A 
ATOM     64  C   UNL A   1      45.828  35.380  28.317  1.00  0.00     0.020 A 
ATOM     65  C   UNL A   1      46.352  34.661  30.578  1.00  0.00     0.020 A 
ATOM     66  C   UNL A   1      46.083  35.678  29.660  1.00  0.00     0.054 A 
BRANCH  66  67
ATOM     67  S   UNL A   1      46.012  37.408  30.197  1.00  0.00     0.124 S 
ATOM     68  O   UNL A   1      46.671  38.096  29.090  1.00  0.00    -0.237 OA
ATOM     69  O   UNL A   1      44.575  37.645  30.317  1.00  0.00    -0.237 OA
ATOM     70  O   UNL A   1      46.748  37.412  31.458  1.00  0.00    -0.744 OA
ENDBRANCH  66  67
ENDBRANCH  47  61
BRANCH  48  71
ATOM     71  C   UNL A   1      45.226  23.514  25.649  1.00  0.00    -0.014 A 
ATOM     72  C   UNL A   1      45.354  22.384  26.474  1.00  0.00     0.010 A 
ATOM     73  C   UNL A   1      44.966  23.330  24.277  1.00  0.00     0.010 A 
ATOM     74  C   UNL A   1      45.258  21.098  25.934  1.00  0.00     0.020 A 
ATOM     75  C   UNL A   1      44.837  22.048  23.739  1.00  0.00     0.020 A 
ATOM     76  C   UNL A   1      45.003  20.939  24.568  1.00  0.00     0.054 A 
BRANCH  76  77
ATOM     77  S   UNL A   1      44.860  19.261  23.891  1.00  0.00     0.124 S 
ATOM     78  O   UNL A   1      44.345  19.519  22.550  1.00  0.00    -0.237 OA
ATOM     79  O   UNL A   1      46.237  18.776  23.959  1.00  0.00    -0.237 OA
ATOM     80  O   UNL A   1      43.930  18.603  24.805  1.00  0.00    -0.744 OA
ENDBRANCH  76  77
ENDBRANCH  48  71
BRANCH  60  81
ATOM     81  C   UNL A   1      50.510  28.071  25.954  1.00  0.00    -0.014 A 
ATOM     82  C   UNL A   1      51.496  27.666  26.868  1.00  0.00     0.010 A 
ATOM     83  C   UNL A   1      50.875  28.338  24.620  1.00  0.00     0.010 A 
ATOM     84  C   UNL A   1      52.830  27.564  26.466  1.00  0.00     0.020 A 
ATOM     85  C   UNL A   1      52.202  28.203  24.207  1.00  0.00     0.020 A 
ATOM     86  C   UNL A   1      53.174  27.833  25.138  1.00  0.00     0.054 A 
BRANCH  86  87
ATOM     87  S   UNL A   1      54.906  27.656  24.633  1.00  0.00     0.124 S 
ATOM     88  O   UNL A   1      54.934  26.290  24.120  1.00  0.00    -0.237 OA
ATOM     89  O   UNL A   1      55.054  28.708  23.631  1.00  0.00    -0.237 OA
ATOM     90  O   UNL A   1      55.652  27.873  25.871  1.00  0.00    -0.744 OA
ENDBRANCH  86  87
ENDBRANCH  60  81
ENDBRANCH  34  35
ENDBRANCH  27  29
ENDBRANCH  26  27
ENDBRANCH  25  26
ENDBRANCH  24  25
ENDBRANCH   1  24
TORSDOF 20
ENDMDL
MODEL 3
REMARK VINA RESULT:     -10.0      1.681      8.430
REMARK SMILES C[C@H](NC(=O)N1CC[C@H](C(=O)OCCOCCOC(=O)c2ccc(-c3c4nc(c(-c5ccc(S(=O)(=O)[O-])cc5)c5ccc([nH]5)c(-c5ccc(S(=O)(=O)[O-])cc5)c5nc(c(-c6ccc(S(=O)(=O)[O-])cc6)c6ccc3[nH]6)C=C5)C=C4)cc2)[C@@H]1C)[C@@H]1CCCO1
REMARK SMILES IDX 15 1 14 2 13 3 12 4 10 5 11 6 9 7 6 8 7 9 81 10 8 11 82 12
REMARK SMILES IDX 4 13 3 14 5 16 2 17 1 18 83 19 84 20 87 21 85 22 86 23 16 24
REMARK SMILES IDX 17 25 18 26 19 27 20 28 21 29 22 30 80 31 23 32 79 33 24 34
REMARK SMILES IDX 25 35 26 36 73 37 27 38 78 39 72 40 74 41 28 42 77 43 71 44
REMARK SMILES IDX 70 45 29 47 59 48 40 49 58 50 41 51 44 52 57 53 75 54 42 55
REMARK SMILES IDX 43 56 56 58 76 59 45 60 30 61 31 62 39 63 32 64 38 65 33 66
REMARK SMILES IDX 34 67 35 68 36 69 37 70 60 71 61 72 69 73 62 74 68 75 63 76
REMARK SMILES IDX 64 77 65 78 66 79 67 80 46 81 47 82 55 83 48 84 54 85 49 86
REMARK SMILES IDX 50 87 51 88 52 89 53 90
REMARK H PARENT 3 15 74 46 44 57
REMARK Flexibility Score: inf
ROOT
ATOM      1  O   UNL A   1      32.582  29.832  26.893  1.00  0.00    -0.374 OA
ENDROOT
BRANCH   1   2
ATOM      2  C   UNL A   1      31.705  30.160  25.810  1.00  0.00     0.202 C 
BRANCH   2   3
ATOM      3  C   UNL A   1      31.459  29.098  24.734  1.00  0.00     0.261 C 
BRANCH   3   4
ATOM      4  O   UNL A   1      32.587  28.208  24.606  1.00  0.00    -0.463 OA
BRANCH   4   5
ATOM      5  C   UNL A   1      32.345  26.986  24.053  1.00  0.00     0.311 C 
ATOM      6  O   UNL A   1      32.972  26.491  23.129  1.00  0.00    -0.252 OA
BRANCH   5   7
ATOM      7  C   UNL A   1      31.178  26.323  24.746  1.00  0.00     0.123 C 
ATOM      8  N   UNL A   1      30.872  24.169  25.686  1.00  0.00    -0.321 N 
ATOM      9  C   UNL A   1      30.867  23.991  24.253  1.00  0.00     0.122 C 
ATOM     10  C   UNL A   1      31.474  25.460  25.998  1.00  0.00     0.098 C 
ATOM     11  C   UNL A   1      30.484  25.369  23.756  1.00  0.00     0.039 C 
ATOM     12  C   UNL A   1      32.926  25.257  26.443  1.00  0.00     0.032 C 
BRANCH   8  13
ATOM     13  C   UNL A   1      30.820  23.100  26.522  1.00  0.00     0.317 C 
ATOM     14  N   UNL A   1      31.515  21.979  26.216  1.00  0.00    -0.333 N 
ATOM     15  H   UNL A   1      30.986  21.149  26.191  1.00  0.00     0.165 HD
ATOM     16  O   UNL A   1      30.119  23.089  27.533  1.00  0.00    -0.249 OA
BRANCH  14  17
ATOM     17  C   UNL A   1      32.948  21.821  25.918  1.00  0.00     0.109 C 
ATOM     18  C   UNL A   1      33.882  21.723  27.122  1.00  0.00     0.034 C 
BRANCH  17  19
ATOM     19  C   UNL A   1      33.260  20.851  24.748  1.00  0.00     0.140 C 
ATOM     20  C   UNL A   1      32.198  20.641  23.673  1.00  0.00     0.036 C 
ATOM     21  O   UNL A   1      33.532  19.542  25.308  1.00  0.00    -0.376 OA
ATOM     22  C   UNL A   1      32.458  19.217  23.238  1.00  0.00     0.031 C 
ATOM     23  C   UNL A   1      32.832  18.556  24.543  1.00  0.00     0.160 C 
ENDBRANCH  17  19
ENDBRANCH  14  17
ENDBRANCH   8  13
ENDBRANCH   5   7
ENDBRANCH   4   5
ENDBRANCH   3   4
ENDBRANCH   2   3
ENDBRANCH   1   2
BRANCH   1  24
ATOM     24  C   UNL A   1      33.819  30.522  26.965  1.00  0.00     0.202 C 
BRANCH  24  25
ATOM     25  C   UNL A   1      34.868  30.090  28.003  1.00  0.00     0.261 C 
BRANCH  25  26
ATOM     26  O   UNL A   1      36.086  30.818  27.931  1.00  0.00    -0.460 OA
BRANCH  26  27
ATOM     27  C   UNL A   1      36.812  30.731  29.070  1.00  0.00     0.338 C 
ATOM     28  O   UNL A   1      36.453  30.994  30.209  1.00  0.00    -0.246 OA
BRANCH  27  29
ATOM     29  C   UNL A   1      38.088  30.095  28.744  1.00  0.00     0.060 A 
ATOM     30  C   UNL A   1      38.979  29.864  29.796  1.00  0.00     0.016 A 
ATOM     31  C   UNL A   1      38.402  29.748  27.428  1.00  0.00     0.016 A 
ATOM     32  C   UNL A   1      40.229  29.330  29.524  1.00  0.00     0.010 A 
ATOM     33  C   UNL A   1      39.660  29.219  27.156  1.00  0.00     0.010 A 
ATOM     34  C   UNL A   1      40.586  29.050  28.198  1.00  0.00    -0.014 A 
BRANCH  34  35
ATOM     35  C   UNL A   1      41.997  28.750  27.891  1.00  0.00     0.031 A 
ATOM     36  C   UNL A   1      42.358  27.340  27.522  1.00  0.00     0.074 A 
ATOM     37  C   UNL A   1      42.915  29.731  27.915  1.00  0.00     0.049 A 
ATOM     38  N   UNL A   1      43.526  26.841  27.224  1.00  0.00    -0.248 NA
ATOM     39  C   UNL A   1      41.257  26.358  27.490  1.00  0.00     0.031 C 
ATOM     40  C   UNL A   1      42.646  31.133  28.237  1.00  0.00     0.029 A 
ATOM     41  N   UNL A   1      44.261  29.694  27.667  1.00  0.00    -0.354 N 
ATOM     42  C   UNL A   1      43.308  25.489  26.989  1.00  0.00     0.074 A 
ATOM     43  C   UNL A   1      41.900  25.237  27.199  1.00  0.00     0.031 C 
ATOM     44  C   UNL A   1      43.798  31.822  28.176  1.00  0.00     0.029 A 
ATOM     45  C   UNL A   1      44.884  30.904  27.846  1.00  0.00     0.049 A 
ATOM     46  H   UNL A   1      44.735  28.877  27.388  1.00  0.00     0.167 HD
ATOM     47  C   UNL A   1      44.207  24.545  26.629  1.00  0.00     0.031 A 
ATOM     48  C   UNL A   1      46.191  31.223  27.775  1.00  0.00     0.031 A 
ATOM     49  C   UNL A   1      45.603  24.821  26.422  1.00  0.00     0.049 A 
ATOM     50  C   UNL A   1      47.175  30.142  27.405  1.00  0.00     0.074 A 
ATOM     51  C   UNL A   1      46.597  23.951  26.012  1.00  0.00     0.029 A 
ATOM     52  N   UNL A   1      46.202  26.056  26.618  1.00  0.00    -0.354 N 
ATOM     53  N   UNL A   1      46.946  28.878  27.133  1.00  0.00    -0.248 NA
ATOM     54  C   UNL A   1      48.588  30.533  27.320  1.00  0.00     0.031 C 
ATOM     55  C   UNL A   1      47.810  24.645  26.030  1.00  0.00     0.029 A 
ATOM     56  C   UNL A   1      47.559  25.965  26.375  1.00  0.00     0.049 A 
ATOM     57  H   UNL A   1      45.730  26.877  26.889  1.00  0.00     0.167 HD
ATOM     58  C   UNL A   1      48.184  28.330  26.816  1.00  0.00     0.074 A 
ATOM     59  C   UNL A   1      49.152  29.405  26.912  1.00  0.00     0.031 C 
ATOM     60  C   UNL A   1      48.498  27.054  26.477  1.00  0.00     0.031 A 
BRANCH  47  61
ATOM     61  C   UNL A   1      43.726  23.126  26.482  1.00  0.00    -0.014 A 
ATOM     62  C   UNL A   1      44.033  22.358  25.344  1.00  0.00     0.010 A 
ATOM     63  C   UNL A   1      43.013  22.531  27.538  1.00  0.00     0.010 A 
ATOM     64  C   UNL A   1      43.620  21.024  25.261  1.00  0.00     0.020 A 
ATOM     65  C   UNL A   1      42.622  21.192  27.470  1.00  0.00     0.020 A 
ATOM     66  C   UNL A   1      42.923  20.448  26.328  1.00  0.00     0.054 A 
BRANCH  66  67
ATOM     67  S   UNL A   1      42.460  18.698  26.221  1.00  0.00     0.124 S 
ATOM     68  O   UNL A   1      42.556  18.274  27.616  1.00  0.00    -0.237 OA
ATOM     69  O   UNL A   1      41.106  18.760  25.676  1.00  0.00    -0.237 OA
ATOM     70  O   UNL A   1      43.463  18.125  25.328  1.00  0.00    -0.744 OA
ENDBRANCH  66  67
ENDBRANCH  47  61
BRANCH  48  71
ATOM     71  C   UNL A   1      46.643  32.603  28.096  1.00  0.00    -0.014 A 
ATOM     72  C   UNL A   1      47.175  32.921  29.357  1.00  0.00     0.010 A 
ATOM     73  C   UNL A   1      46.529  33.620  27.129  1.00  0.00     0.010 A 
ATOM     74  C   UNL A   1      47.553  34.234  29.656  1.00  0.00     0.020 A 
ATOM     75  C   UNL A   1      46.937  34.926  27.411  1.00  0.00     0.020 A 
ATOM     76  C   UNL A   1      47.429  35.229  28.680  1.00  0.00     0.054 A 
BRANCH  76  77
ATOM     77  S   UNL A   1      47.947  36.921  29.081  1.00  0.00     0.124 S 
ATOM     78  O   UNL A   1      47.784  36.952  30.531  1.00  0.00    -0.237 OA
ATOM     79  O   UNL A   1      49.325  36.951  28.597  1.00  0.00    -0.237 OA
ATOM     80  O   UNL A   1      47.011  37.751  28.326  1.00  0.00    -0.744 OA
ENDBRANCH  76  77
ENDBRANCH  48  71
BRANCH  60  81
ATOM     81  C   UNL A   1      49.936  26.761  26.145  1.00  0.00    -0.014 A 
ATOM     82  C   UNL A   1      50.826  26.272  27.115  1.00  0.00     0.010 A 
ATOM     83  C   UNL A   1      50.383  26.925  24.820  1.00  0.00     0.010 A 
ATOM     84  C   UNL A   1      52.150  25.985  26.775  1.00  0.00     0.020 A 
ATOM     85  C   UNL A   1      51.696  26.608  24.469  1.00  0.00     0.020 A 
ATOM     86  C   UNL A   1      52.576  26.155  25.454  1.00  0.00     0.054 A 
BRANCH  86  87
ATOM     87  S   UNL A   1      54.289  25.740  25.031  1.00  0.00     0.124 S 
ATOM     88  O   UNL A   1      54.283  24.284  25.133  1.00  0.00    -0.237 OA
ATOM     89  O   UNL A   1      54.422  26.277  23.679  1.00  0.00    -0.237 OA
ATOM     90  O   UNL A   1      55.076  26.433  26.049  1.00  0.00    -0.744 OA
ENDBRANCH  86  87
ENDBRANCH  60  81
ENDBRANCH  34  35
ENDBRANCH  27  29
ENDBRANCH  26  27
ENDBRANCH  25  26
ENDBRANCH  24  25
ENDBRANCH   1  24
TORSDOF 20
ENDMDL
