MODEL 1
REMARK VINA RESULT:     -10.9      0.000      0.000
REMARK SMILES Cc1ccc(NC(=O)C[C@H]2C(=O)NCCN2C(=O)CCC(=O)OCCOCCOC(=O)c2ccc(-c3c4nc(c(-c5ccc(S(=O)(=O)[O-])cc5)c5ccc([nH]5)c(-c5ccc(S(=O)(=O)[O-])cc5)c5nc(c(-c6ccc(S(=O)(=O)[O-])cc6)c6ccc3[nH]6)C=C5)C=C4)cc2)c(C)c1
REMARK SMILES IDX 24 1 23 2 21 3 22 4 20 5 19 6 17 7 18 8 16 9 10 10 11 11
REMARK SMILES IDX 12 12 13 13 15 14 14 15 9 17 7 18 6 19 8 21 5 22 1 23 2 24
REMARK SMILES IDX 3 25 94 26 4 27 92 28 93 29 25 30 26 31 27 32 28 33 29 34
REMARK SMILES IDX 30 35 31 36 32 37 33 38 91 39 34 40 90 41 35 42 36 43 37 44
REMARK SMILES IDX 84 45 38 46 89 47 83 48 85 49 39 50 88 51 82 52 81 53 40 55
REMARK SMILES IDX 70 56 51 57 69 58 52 59 55 60 68 61 86 62 53 63 54 64 67 66
REMARK SMILES IDX 87 67 56 68 41 69 42 70 50 71 43 72 49 73 44 74 45 75 46 76
REMARK SMILES IDX 47 77 48 78 71 79 72 80 80 81 73 82 79 83 74 84 75 85 76 86
REMARK SMILES IDX 77 87 78 88 57 89 58 90 66 91 59 92 65 93 60 94 61 95 62 96
REMARK SMILES IDX 63 97 64 98
REMARK H PARENT 13 16 6 20 85 54 55 65
REMARK Flexibility Score: inf
ROOT
ATOM      1  C   UNL A   1      39.998  21.533  26.708  1.00  0.00     0.261 C 
ENDROOT
BRANCH   1   2
ATOM      2  O   UNL A   1      38.813  21.689  25.898  1.00  0.00    -0.463 OA
BRANCH   2   3
ATOM      3  C   UNL A   1      38.248  20.616  25.296  1.00  0.00     0.306 C 
ATOM      4  O   UNL A   1      38.725  19.491  25.268  1.00  0.00    -0.252 OA
BRANCH   3   5
ATOM      5  C   UNL A   1      36.933  20.995  24.622  1.00  0.00     0.132 C 
BRANCH   5   6
ATOM      6  C   UNL A   1      35.833  21.474  25.559  1.00  0.00     0.112 C 
BRANCH   6   7
ATOM      7  C   UNL A   1      34.351  21.494  25.153  1.00  0.00     0.223 C 
ATOM      8  O   UNL A   1      33.879  20.417  24.760  1.00  0.00    -0.275 OA
BRANCH   7   9
ATOM      9  N   UNL A   1      33.510  22.585  25.349  1.00  0.00    -0.328 N 
ATOM     10  C   UNL A   1      32.568  23.115  24.366  1.00  0.00     0.183 C 
ATOM     11  C   UNL A   1      33.099  24.386  23.700  1.00  0.00     0.243 C 
ATOM     12  O   UNL A   1      32.570  24.884  22.708  1.00  0.00    -0.273 OA
ATOM     13  N   UNL A   1      34.203  24.963  24.245  1.00  0.00    -0.353 N 
ATOM     14  C   UNL A   1      33.997  23.613  26.280  1.00  0.00     0.141 C 
ATOM     15  C   UNL A   1      34.846  24.602  25.492  1.00  0.00     0.137 C 
ATOM     16  H   UNL A   1      34.608  25.704  23.739  1.00  0.00     0.163 HD
BRANCH  10  17
ATOM     17  C   UNL A   1      31.072  23.238  24.673  1.00  0.00     0.135 C 
BRANCH  17  18
ATOM     18  C   UNL A   1      30.611  23.696  26.035  1.00  0.00     0.227 C 
ATOM     19  N   UNL A   1      30.489  25.007  26.402  1.00  0.00    -0.326 N 
ATOM     20  H   UNL A   1      30.410  25.166  27.370  1.00  0.00     0.169 HD
ATOM     21  O   UNL A   1      30.302  22.849  26.880  1.00  0.00    -0.275 OA
BRANCH  19  22
ATOM     22  C   UNL A   1      30.460  26.160  25.602  1.00  0.00     0.044 A 
ATOM     23  C   UNL A   1      30.502  28.864  22.265  1.00  0.00     0.044 C 
ATOM     24  C   UNL A   1      30.417  28.034  23.513  1.00  0.00    -0.051 A 
ATOM     25  C   UNL A   1      29.343  27.164  23.693  1.00  0.00     0.005 A 
ATOM     26  C   UNL A   1      31.445  28.046  24.467  1.00  0.00     0.009 A 
ATOM     27  C   UNL A   1      29.352  26.254  24.748  1.00  0.00     0.026 A 
ATOM     28  C   UNL A   1      31.456  27.142  25.549  1.00  0.00    -0.027 A 
ATOM     29  C   UNL A   1      32.475  27.347  26.634  1.00  0.00     0.046 C 
ENDBRANCH  19  22
ENDBRANCH  17  18
ENDBRANCH  10  17
ENDBRANCH   7   9
ENDBRANCH   6   7
ENDBRANCH   5   6
ENDBRANCH   3   5
ENDBRANCH   2   3
ENDBRANCH   1   2
BRANCH   1  30
ATOM     30  C   UNL A   1      41.120  22.489  26.265  1.00  0.00     0.202 C 
BRANCH  30  31
ATOM     31  O   UNL A   1      42.292  21.807  25.806  1.00  0.00    -0.374 OA
BRANCH  31  32
ATOM     32  C   UNL A   1      43.505  22.494  26.107  1.00  0.00     0.202 C 
BRANCH  32  33
ATOM     33  C   UNL A   1      43.604  23.855  25.423  1.00  0.00     0.261 C 
BRANCH  33  34
ATOM     34  O   UNL A   1      43.290  24.899  26.365  1.00  0.00    -0.460 OA
BRANCH  34  35
ATOM     35  C   UNL A   1      42.690  26.006  25.867  1.00  0.00     0.338 C 
ATOM     36  O   UNL A   1      42.507  26.283  24.694  1.00  0.00    -0.246 OA
BRANCH  35  37
ATOM     37  C   UNL A   1      42.181  26.804  27.004  1.00  0.00     0.060 A 
ATOM     38  C   UNL A   1      42.534  28.155  27.087  1.00  0.00     0.016 A 
ATOM     39  C   UNL A   1      41.307  26.251  27.947  1.00  0.00     0.016 A 
ATOM     40  C   UNL A   1      42.004  28.961  28.102  1.00  0.00     0.010 A 
ATOM     41  C   UNL A   1      40.734  27.073  28.925  1.00  0.00     0.010 A 
ATOM     42  C   UNL A   1      41.102  28.431  29.035  1.00  0.00    -0.014 A 
BRANCH  42  43
ATOM     43  C   UNL A   1      40.724  29.212  30.247  1.00  0.00     0.031 A 
ATOM     44  C   UNL A   1      41.548  28.996  31.495  1.00  0.00     0.074 A 
ATOM     45  C   UNL A   1      39.714  30.108  30.264  1.00  0.00     0.049 A 
ATOM     46  N   UNL A   1      41.451  29.566  32.668  1.00  0.00    -0.248 NA
ATOM     47  C   UNL A   1      42.600  27.966  31.421  1.00  0.00     0.031 C 
ATOM     48  C   UNL A   1      38.799  30.403  29.158  1.00  0.00     0.029 A 
ATOM     49  N   UNL A   1      39.294  30.952  31.268  1.00  0.00    -0.354 N 
ATOM     50  C   UNL A   1      42.411  28.948  33.459  1.00  0.00     0.074 A 
ATOM     51  C   UNL A   1      43.000  27.891  32.675  1.00  0.00     0.031 C 
ATOM     52  C   UNL A   1      37.950  31.380  29.536  1.00  0.00     0.029 A 
ATOM     53  C   UNL A   1      38.256  31.783  30.908  1.00  0.00     0.049 A 
ATOM     54  H   UNL A   1      39.701  30.961  32.165  1.00  0.00     0.167 HD
ATOM     55  C   UNL A   1      42.832  29.262  34.706  1.00  0.00     0.031 A 
ATOM     56  C   UNL A   1      37.647  32.773  31.598  1.00  0.00     0.031 A 
ATOM     57  C   UNL A   1      42.305  30.344  35.479  1.00  0.00     0.049 A 
ATOM     58  C   UNL A   1      38.136  33.121  32.986  1.00  0.00     0.074 A 
ATOM     59  C   UNL A   1      42.695  30.777  36.731  1.00  0.00     0.029 A 
ATOM     60  N   UNL A   1      41.281  31.175  35.059  1.00  0.00    -0.354 N 
ATOM     61  N   UNL A   1      39.106  32.577  33.685  1.00  0.00    -0.248 NA
ATOM     62  C   UNL A   1      37.464  34.240  33.668  1.00  0.00     0.031 C 
ATOM     63  C   UNL A   1      41.884  31.861  37.082  1.00  0.00     0.029 A 
ATOM     64  C   UNL A   1      41.019  32.121  36.031  1.00  0.00     0.049 A 
ATOM     65  H   UNL A   1      40.809  31.103  34.197  1.00  0.00     0.167 HD
ATOM     66  C   UNL A   1      39.185  33.314  34.865  1.00  0.00     0.074 A 
ATOM     67  C   UNL A   1      38.172  34.344  34.785  1.00  0.00     0.031 C 
ATOM     68  C   UNL A   1      40.023  33.155  35.919  1.00  0.00     0.031 A 
BRANCH  55  69
ATOM     69  C   UNL A   1      43.940  28.416  35.269  1.00  0.00    -0.014 A 
ATOM     70  C   UNL A   1      45.287  28.745  35.027  1.00  0.00     0.010 A 
ATOM     71  C   UNL A   1      43.633  27.249  35.987  1.00  0.00     0.010 A 
ATOM     72  C   UNL A   1      46.307  27.880  35.424  1.00  0.00     0.020 A 
ATOM     73  C   UNL A   1      44.654  26.397  36.416  1.00  0.00     0.020 A 
ATOM     74  C   UNL A   1      45.982  26.704  36.105  1.00  0.00     0.054 A 
BRANCH  74  75
ATOM     75  S   UNL A   1      47.319  25.577  36.583  1.00  0.00     0.124 S 
ATOM     76  O   UNL A   1      48.384  25.971  35.664  1.00  0.00    -0.237 OA
ATOM     77  O   UNL A   1      47.543  25.918  37.986  1.00  0.00    -0.237 OA
ATOM     78  O   UNL A   1      46.752  24.252  36.350  1.00  0.00    -0.744 OA
ENDBRANCH  74  75
ENDBRANCH  55  69
BRANCH  56  79
ATOM     79  C   UNL A   1      36.535  33.561  30.989  1.00  0.00    -0.014 A 
ATOM     80  C   UNL A   1      35.382  33.867  31.737  1.00  0.00     0.010 A 
ATOM     81  C   UNL A   1      36.590  33.955  29.640  1.00  0.00     0.010 A 
ATOM     82  C   UNL A   1      34.294  34.514  31.142  1.00  0.00     0.020 A 
ATOM     83  C   UNL A   1      35.512  34.622  29.045  1.00  0.00     0.020 A 
ATOM     84  C   UNL A   1      34.363  34.882  29.796  1.00  0.00     0.054 A 
BRANCH  84  85
ATOM     85  S   UNL A   1      32.942  35.726  29.042  1.00  0.00     0.124 S 
ATOM     86  O   UNL A   1      32.364  34.671  28.217  1.00  0.00    -0.237 OA
ATOM     87  O   UNL A   1      32.153  36.123  30.206  1.00  0.00    -0.237 OA
ATOM     88  O   UNL A   1      33.552  36.833  28.307  1.00  0.00    -0.744 OA
ENDBRANCH  84  85
ENDBRANCH  56  79
BRANCH  68  89
ATOM     89  C   UNL A   1      39.927  34.139  37.053  1.00  0.00    -0.014 A 
ATOM     90  C   UNL A   1      40.514  35.413  36.964  1.00  0.00     0.010 A 
ATOM     91  C   UNL A   1      39.157  33.815  38.185  1.00  0.00     0.010 A 
ATOM     92  C   UNL A   1      40.351  36.338  37.998  1.00  0.00     0.020 A 
ATOM     93  C   UNL A   1      38.971  34.747  39.210  1.00  0.00     0.020 A 
ATOM     94  C   UNL A   1      39.580  36.000  39.114  1.00  0.00     0.054 A 
BRANCH  94  95
ATOM     95  S   UNL A   1      39.327  37.239  40.415  1.00  0.00     0.124 S 
ATOM     96  O   UNL A   1      38.704  38.333  39.676  1.00  0.00    -0.237 OA
ATOM     97  O   UNL A   1      38.457  36.543  41.360  1.00  0.00    -0.237 OA
ATOM     98  O   UNL A   1      40.678  37.506  40.905  1.00  0.00    -0.744 OA
ENDBRANCH  94  95
ENDBRANCH  68  89
ENDBRANCH  42  43
ENDBRANCH  35  37
ENDBRANCH  34  35
ENDBRANCH  33  34
ENDBRANCH  32  33
ENDBRANCH  31  32
ENDBRANCH  30  31
ENDBRANCH   1  30
TORSDOF 23
ENDMDL
MODEL 2
REMARK VINA RESULT:     -10.8      5.545     11.843
REMARK SMILES Cc1ccc(NC(=O)C[C@H]2C(=O)NCCN2C(=O)CCC(=O)OCCOCCOC(=O)c2ccc(-c3c4nc(c(-c5ccc(S(=O)(=O)[O-])cc5)c5ccc([nH]5)c(-c5ccc(S(=O)(=O)[O-])cc5)c5nc(c(-c6ccc(S(=O)(=O)[O-])cc6)c6ccc3[nH]6)C=C5)C=C4)cc2)c(C)c1
REMARK SMILES IDX 24 1 23 2 21 3 22 4 20 5 19 6 17 7 18 8 16 9 10 10 11 11
REMARK SMILES IDX 12 12 13 13 15 14 14 15 9 17 7 18 6 19 8 21 5 22 1 23 2 24
REMARK SMILES IDX 3 25 94 26 4 27 92 28 93 29 25 30 26 31 27 32 28 33 29 34
REMARK SMILES IDX 30 35 31 36 32 37 33 38 91 39 34 40 90 41 35 42 36 43 37 44
REMARK SMILES IDX 84 45 38 46 89 47 83 48 85 49 39 50 88 51 82 52 81 53 40 55
REMARK SMILES IDX 70 56 51 57 69 58 52 59 55 60 68 61 86 62 53 63 54 64 67 66
REMARK SMILES IDX 87 67 56 68 41 69 42 70 50 71 43 72 49 73 44 74 45 75 46 76
REMARK SMILES IDX 47 77 48 78 71 79 72 80 80 81 73 82 79 83 74 84 75 85 76 86
REMARK SMILES IDX 77 87 78 88 57 89 58 90 66 91 59 92 65 93 60 94 61 95 62 96
REMARK SMILES IDX 63 97 64 98
REMARK H PARENT 13 16 6 20 85 54 55 65
REMARK Flexibility Score: inf
ROOT
ATOM      1  C   UNL A   1      34.225  31.861  28.290  1.00  0.00     0.261 C 
ENDROOT
BRANCH   1   2
ATOM      2  O   UNL A   1      33.622  30.962  27.334  1.00  0.00    -0.463 OA
BRANCH   2   3
ATOM      3  C   UNL A   1      34.149  29.732  27.122  1.00  0.00     0.306 C 
ATOM      4  O   UNL A   1      34.952  29.174  27.854  1.00  0.00    -0.252 OA
BRANCH   3   5
ATOM      5  C   UNL A   1      33.627  29.129  25.822  1.00  0.00     0.132 C 
BRANCH   5   6
ATOM      6  C   UNL A   1      33.157  27.685  25.913  1.00  0.00     0.112 C 
BRANCH   6   7
ATOM      7  C   UNL A   1      33.188  26.727  24.712  1.00  0.00     0.223 C 
ATOM      8  O   UNL A   1      34.279  26.613  24.134  1.00  0.00    -0.275 OA
BRANCH   7   9
ATOM      9  N   UNL A   1      32.129  25.897  24.357  1.00  0.00    -0.328 N 
ATOM     10  C   UNL A   1      32.182  24.438  24.292  1.00  0.00     0.183 C 
ATOM     11  C   UNL A   1      32.294  23.937  22.851  1.00  0.00     0.243 C 
ATOM     12  O   UNL A   1      32.553  22.768  22.575  1.00  0.00    -0.273 OA
ATOM     13  N   UNL A   1      32.097  24.845  21.857  1.00  0.00    -0.353 N 
ATOM     14  C   UNL A   1      31.147  26.471  23.425  1.00  0.00     0.141 C 
ATOM     15  C   UNL A   1      31.630  26.208  22.005  1.00  0.00     0.137 C 
ATOM     16  H   UNL A   1      32.293  24.543  20.941  1.00  0.00     0.163 HD
BRANCH  10  17
ATOM     17  C   UNL A   1      31.222  23.564  25.106  1.00  0.00     0.135 C 
BRANCH  17  18
ATOM     18  C   UNL A   1      31.623  23.060  26.470  1.00  0.00     0.227 C 
ATOM     19  N   UNL A   1      32.246  21.864  26.692  1.00  0.00    -0.326 N 
ATOM     20  H   UNL A   1      32.238  21.553  27.626  1.00  0.00     0.169 HD
ATOM     21  O   UNL A   1      31.400  23.765  27.460  1.00  0.00    -0.275 OA
BRANCH  19  22
ATOM     22  C   UNL A   1      32.895  21.012  25.784  1.00  0.00     0.044 A 
ATOM     23  C   UNL A   1      34.544  17.565  23.824  1.00  0.00     0.044 C 
ATOM     24  C   UNL A   1      33.972  18.841  24.369  1.00  0.00    -0.051 A 
ATOM     25  C   UNL A   1      32.591  18.994  24.467  1.00  0.00     0.005 A 
ATOM     26  C   UNL A   1      34.802  19.855  24.868  1.00  0.00     0.009 A 
ATOM     27  C   UNL A   1      32.056  20.088  25.145  1.00  0.00     0.026 A 
ATOM     28  C   UNL A   1      34.272  20.976  25.540  1.00  0.00    -0.027 A 
ATOM     29  C   UNL A   1      35.201  22.111  25.867  1.00  0.00     0.046 C 
ENDBRANCH  19  22
ENDBRANCH  17  18
ENDBRANCH  10  17
ENDBRANCH   7   9
ENDBRANCH   6   7
ENDBRANCH   5   6
ENDBRANCH   3   5
ENDBRANCH   2   3
ENDBRANCH   1   2
BRANCH   1  30
ATOM     30  C   UNL A   1      35.500  32.514  27.729  1.00  0.00     0.202 C 
BRANCH  30  31
ATOM     31  O   UNL A   1      36.074  33.482  28.614  1.00  0.00    -0.374 OA
BRANCH  31  32
ATOM     32  C   UNL A   1      35.431  33.544  29.885  1.00  0.00     0.202 C 
BRANCH  32  33
ATOM     33  C   UNL A   1      36.402  33.383  31.052  1.00  0.00     0.261 C 
BRANCH  33  34
ATOM     34  O   UNL A   1      36.494  31.994  31.422  1.00  0.00    -0.460 OA
BRANCH  34  35
ATOM     35  C   UNL A   1      37.469  31.662  32.300  1.00  0.00     0.338 C 
ATOM     36  O   UNL A   1      37.423  31.733  33.516  1.00  0.00    -0.246 OA
BRANCH  35  37
ATOM     37  C   UNL A   1      38.597  31.082  31.539  1.00  0.00     0.060 A 
ATOM     38  C   UNL A   1      39.672  30.534  32.246  1.00  0.00     0.016 A 
ATOM     39  C   UNL A   1      38.572  31.014  30.141  1.00  0.00     0.016 A 
ATOM     40  C   UNL A   1      40.717  29.901  31.561  1.00  0.00     0.010 A 
ATOM     41  C   UNL A   1      39.590  30.330  29.463  1.00  0.00     0.010 A 
ATOM     42  C   UNL A   1      40.692  29.796  30.164  1.00  0.00    -0.014 A 
BRANCH  42  43
ATOM     43  C   UNL A   1      41.902  29.343  29.420  1.00  0.00     0.031 A 
ATOM     44  C   UNL A   1      43.035  30.332  29.272  1.00  0.00     0.074 A 
ATOM     45  C   UNL A   1      42.033  28.100  28.908  1.00  0.00     0.049 A 
ATOM     46  N   UNL A   1      44.202  30.184  28.701  1.00  0.00    -0.248 NA
ATOM     47  C   UNL A   1      42.803  31.685  29.807  1.00  0.00     0.031 C 
ATOM     48  C   UNL A   1      41.019  27.043  28.929  1.00  0.00     0.029 A 
ATOM     49  N   UNL A   1      43.103  27.512  28.270  1.00  0.00    -0.354 N 
ATOM     50  C   UNL A   1      44.820  31.425  28.797  1.00  0.00     0.074 A 
ATOM     51  C   UNL A   1      43.864  32.337  29.375  1.00  0.00     0.031 C 
ATOM     52  C   UNL A   1      41.528  25.932  28.359  1.00  0.00     0.029 A 
ATOM     53  C   UNL A   1      42.902  26.192  27.933  1.00  0.00     0.049 A 
ATOM     54  H   UNL A   1      43.939  27.994  28.072  1.00  0.00     0.167 HD
ATOM     55  C   UNL A   1      46.091  31.779  28.503  1.00  0.00     0.031 A 
ATOM     56  C   UNL A   1      43.741  25.293  27.373  1.00  0.00     0.031 A 
ATOM     57  C   UNL A   1      47.073  30.877  27.986  1.00  0.00     0.049 A 
ATOM     58  C   UNL A   1      45.164  25.700  27.060  1.00  0.00     0.074 A 
ATOM     59  C   UNL A   1      48.402  31.123  27.701  1.00  0.00     0.029 A 
ATOM     60  N   UNL A   1      46.832  29.546  27.693  1.00  0.00    -0.354 N 
ATOM     61  N   UNL A   1      45.754  26.860  27.239  1.00  0.00    -0.248 NA
ATOM     62  C   UNL A   1      46.045  24.663  26.495  1.00  0.00     0.031 C 
ATOM     63  C   UNL A   1      48.962  29.939  27.208  1.00  0.00     0.029 A 
ATOM     64  C   UNL A   1      47.988  28.953  27.225  1.00  0.00     0.049 A 
ATOM     65  H   UNL A   1      45.965  29.090  27.803  1.00  0.00     0.167 HD
ATOM     66  C   UNL A   1      47.079  26.677  26.848  1.00  0.00     0.074 A 
ATOM     67  C   UNL A   1      47.208  25.298  26.431  1.00  0.00     0.031 C 
ATOM     68  C   UNL A   1      48.100  27.570  26.839  1.00  0.00     0.031 A 
BRANCH  55  69
ATOM     69  C   UNL A   1      46.465  33.210  28.773  1.00  0.00    -0.014 A 
ATOM     70  C   UNL A   1      46.404  34.174  27.748  1.00  0.00     0.010 A 
ATOM     71  C   UNL A   1      46.946  33.580  30.039  1.00  0.00     0.010 A 
ATOM     72  C   UNL A   1      46.890  35.463  27.963  1.00  0.00     0.020 A 
ATOM     73  C   UNL A   1      47.403  34.880  30.268  1.00  0.00     0.020 A 
ATOM     74  C   UNL A   1      47.400  35.804  29.218  1.00  0.00     0.054 A 
BRANCH  74  75
ATOM     75  S   UNL A   1      48.058  37.475  29.466  1.00  0.00     0.124 S 
ATOM     76  O   UNL A   1      47.467  37.841  30.751  1.00  0.00    -0.237 OA
ATOM     77  O   UNL A   1      49.501  37.255  29.479  1.00  0.00    -0.237 OA
ATOM     78  O   UNL A   1      47.553  38.217  28.314  1.00  0.00    -0.744 OA
ENDBRANCH  74  75
ENDBRANCH  55  69
BRANCH  56  79
ATOM     79  C   UNL A   1      43.301  23.892  27.108  1.00  0.00    -0.014 A 
ATOM     80  C   UNL A   1      42.802  23.526  25.843  1.00  0.00     0.010 A 
ATOM     81  C   UNL A   1      43.312  22.930  28.135  1.00  0.00     0.010 A 
ATOM     82  C   UNL A   1      42.291  22.243  25.620  1.00  0.00     0.020 A 
ATOM     83  C   UNL A   1      42.822  21.638  27.910  1.00  0.00     0.020 A 
ATOM     84  C   UNL A   1      42.298  21.307  26.658  1.00  0.00     0.054 A 
BRANCH  84  85
ATOM     85  S   UNL A   1      41.635  19.645  26.348  1.00  0.00     0.124 S 
ATOM     86  O   UNL A   1      41.825  18.995  27.640  1.00  0.00    -0.237 OA
ATOM     87  O   UNL A   1      40.249  19.919  25.976  1.00  0.00    -0.237 OA
ATOM     88  O   UNL A   1      42.474  19.139  25.263  1.00  0.00    -0.744 OA
ENDBRANCH  84  85
ENDBRANCH  56  79
BRANCH  68  89
ATOM     89  C   UNL A   1      49.460  27.085  26.416  1.00  0.00    -0.014 A 
ATOM     90  C   UNL A   1      50.429  26.717  27.365  1.00  0.00     0.010 A 
ATOM     91  C   UNL A   1      49.735  26.907  25.048  1.00  0.00     0.010 A 
ATOM     92  C   UNL A   1      51.660  26.200  26.951  1.00  0.00     0.020 A 
ATOM     93  C   UNL A   1      50.954  26.367  24.631  1.00  0.00     0.020 A 
ATOM     94  C   UNL A   1      51.914  26.027  25.587  1.00  0.00     0.054 A 
BRANCH  94  95
ATOM     95  S   UNL A   1      53.492  25.294  25.075  1.00  0.00     0.124 S 
ATOM     96  O   UNL A   1      54.417  25.844  26.061  1.00  0.00    -0.237 OA
ATOM     97  O   UNL A   1      53.233  23.860  25.188  1.00  0.00    -0.237 OA
ATOM     98  O   UNL A   1      53.673  25.780  23.708  1.00  0.00    -0.744 OA
ENDBRANCH  94  95
ENDBRANCH  68  89
ENDBRANCH  42  43
ENDBRANCH  35  37
ENDBRANCH  34  35
ENDBRANCH  33  34
ENDBRANCH  32  33
ENDBRANCH  31  32
ENDBRANCH  30  31
ENDBRANCH   1  30
TORSDOF 23
ENDMDL
MODEL 3
REMARK VINA RESULT:     -10.3      4.509      9.380
REMARK SMILES Cc1ccc(NC(=O)C[C@H]2C(=O)NCCN2C(=O)CCC(=O)OCCOCCOC(=O)c2ccc(-c3c4nc(c(-c5ccc(S(=O)(=O)[O-])cc5)c5ccc([nH]5)c(-c5ccc(S(=O)(=O)[O-])cc5)c5nc(c(-c6ccc(S(=O)(=O)[O-])cc6)c6ccc3[nH]6)C=C5)C=C4)cc2)c(C)c1
REMARK SMILES IDX 24 1 23 2 21 3 22 4 20 5 19 6 17 7 18 8 16 9 10 10 11 11
REMARK SMILES IDX 12 12 13 13 15 14 14 15 9 17 7 18 6 19 8 21 5 22 1 23 2 24
REMARK SMILES IDX 3 25 94 26 4 27 92 28 93 29 25 30 26 31 27 32 28 33 29 34
REMARK SMILES IDX 30 35 31 36 32 37 33 38 91 39 34 40 90 41 35 42 36 43 37 44
REMARK SMILES IDX 84 45 38 46 89 47 83 48 85 49 39 50 88 51 82 52 81 53 40 55
REMARK SMILES IDX 70 56 51 57 69 58 52 59 55 60 68 61 86 62 53 63 54 64 67 66
REMARK SMILES IDX 87 67 56 68 41 69 42 70 50 71 43 72 49 73 44 74 45 75 46 76
REMARK SMILES IDX 47 77 48 78 71 79 72 80 80 81 73 82 79 83 74 84 75 85 76 86
REMARK SMILES IDX 77 87 78 88 57 89 58 90 66 91 59 92 65 93 60 94 61 95 62 96
REMARK SMILES IDX 63 97 64 98
REMARK H PARENT 13 16 6 20 85 54 55 65
REMARK Flexibility Score: inf
ROOT
ATOM      1  C   UNL A   1      33.948  31.719  28.181  1.00  0.00     0.261 C 
ENDROOT
BRANCH   1   2
ATOM      2  O   UNL A   1      33.681  30.823  27.079  1.00  0.00    -0.463 OA
BRANCH   2   3
ATOM      3  C   UNL A   1      34.287  29.614  27.016  1.00  0.00     0.306 C 
ATOM      4  O   UNL A   1      35.024  29.149  27.872  1.00  0.00    -0.252 OA
BRANCH   3   5
ATOM      5  C   UNL A   1      33.952  28.901  25.710  1.00  0.00     0.132 C 
BRANCH   5   6
ATOM      6  C   UNL A   1      33.407  27.488  25.857  1.00  0.00     0.112 C 
BRANCH   6   7
ATOM      7  C   UNL A   1      33.334  26.502  24.680  1.00  0.00     0.223 C 
ATOM      8  O   UNL A   1      34.395  26.299  24.073  1.00  0.00    -0.275 OA
BRANCH   7   9
ATOM      9  N   UNL A   1      32.210  25.740  24.378  1.00  0.00    -0.328 N 
ATOM     10  C   UNL A   1      32.176  24.282  24.281  1.00  0.00     0.183 C 
ATOM     11  C   UNL A   1      32.167  23.811  22.826  1.00  0.00     0.243 C 
ATOM     12  O   UNL A   1      32.342  22.636  22.510  1.00  0.00    -0.273 OA
ATOM     13  N   UNL A   1      31.958  24.751  21.866  1.00  0.00    -0.353 N 
ATOM     14  C   UNL A   1      31.203  26.389  23.525  1.00  0.00     0.141 C 
ATOM     15  C   UNL A   1      31.579  26.134  22.072  1.00  0.00     0.137 C 
ATOM     16  H   UNL A   1      32.077  24.461  20.932  1.00  0.00     0.163 HD
BRANCH  10  17
ATOM     17  C   UNL A   1      31.223  23.443  25.138  1.00  0.00     0.135 C 
BRANCH  17  18
ATOM     18  C   UNL A   1      31.647  22.971  26.507  1.00  0.00     0.227 C 
ATOM     19  N   UNL A   1      32.302  21.796  26.743  1.00  0.00    -0.326 N 
ATOM     20  H   UNL A   1      32.309  21.500  27.682  1.00  0.00     0.169 HD
ATOM     21  O   UNL A   1      31.411  23.686  27.487  1.00  0.00    -0.275 OA
BRANCH  19  22
ATOM     22  C   UNL A   1      32.968  20.948  25.844  1.00  0.00     0.044 A 
ATOM     23  C   UNL A   1      34.657  17.509  23.903  1.00  0.00     0.044 C 
ATOM     24  C   UNL A   1      34.074  18.783  24.441  1.00  0.00    -0.051 A 
ATOM     25  C   UNL A   1      32.690  18.932  24.517  1.00  0.00     0.005 A 
ATOM     26  C   UNL A   1      34.893  19.797  24.957  1.00  0.00     0.009 A 
ATOM     27  C   UNL A   1      32.142  20.023  25.189  1.00  0.00     0.026 A 
ATOM     28  C   UNL A   1      34.350  20.915  25.622  1.00  0.00    -0.027 A 
ATOM     29  C   UNL A   1      35.270  22.052  25.967  1.00  0.00     0.046 C 
ENDBRANCH  19  22
ENDBRANCH  17  18
ENDBRANCH  10  17
ENDBRANCH   7   9
ENDBRANCH   6   7
ENDBRANCH   5   6
ENDBRANCH   3   5
ENDBRANCH   2   3
ENDBRANCH   1   2
BRANCH   1  30
ATOM     30  C   UNL A   1      35.310  32.418  28.027  1.00  0.00     0.202 C 
BRANCH  30  31
ATOM     31  O   UNL A   1      35.200  33.834  27.851  1.00  0.00    -0.374 OA
BRANCH  31  32
ATOM     32  C   UNL A   1      33.857  34.285  27.691  1.00  0.00     0.202 C 
BRANCH  32  33
ATOM     33  C   UNL A   1      33.501  35.438  28.626  1.00  0.00     0.261 C 
BRANCH  33  34
ATOM     34  O   UNL A   1      32.677  34.956  29.704  1.00  0.00    -0.460 OA
BRANCH  34  35
ATOM     35  C   UNL A   1      32.710  35.664  30.858  1.00  0.00     0.338 C 
ATOM     36  O   UNL A   1      31.880  36.461  31.259  1.00  0.00    -0.246 OA
BRANCH  35  37
ATOM     37  C   UNL A   1      33.893  35.227  31.632  1.00  0.00     0.060 A 
ATOM     38  C   UNL A   1      34.418  36.090  32.599  1.00  0.00     0.016 A 
ATOM     39  C   UNL A   1      34.443  33.952  31.460  1.00  0.00     0.016 A 
ATOM     40  C   UNL A   1      35.484  35.677  33.408  1.00  0.00     0.010 A 
ATOM     41  C   UNL A   1      35.471  33.521  32.309  1.00  0.00     0.010 A 
ATOM     42  C   UNL A   1      36.026  34.392  33.271  1.00  0.00    -0.014 A 
BRANCH  42  43
ATOM     43  C   UNL A   1      37.302  34.035  33.955  1.00  0.00     0.031 A 
ATOM     44  C   UNL A   1      38.558  34.026  33.116  1.00  0.00     0.074 A 
ATOM     45  C   UNL A   1      37.380  33.752  35.273  1.00  0.00     0.049 A 
ATOM     46  N   UNL A   1      39.794  33.782  33.467  1.00  0.00    -0.248 NA
ATOM     47  C   UNL A   1      38.392  34.292  31.676  1.00  0.00     0.031 C 
ATOM     48  C   UNL A   1      36.257  33.676  36.211  1.00  0.00     0.029 A 
ATOM     49  N   UNL A   1      38.479  33.481  36.057  1.00  0.00    -0.354 N 
ATOM     50  C   UNL A   1      40.532  33.847  32.291  1.00  0.00     0.074 A 
ATOM     51  C   UNL A   1      39.599  34.041  31.208  1.00  0.00     0.031 C 
ATOM     52  C   UNL A   1      36.730  33.411  37.445  1.00  0.00     0.029 A 
ATOM     53  C   UNL A   1      38.187  33.297  37.391  1.00  0.00     0.049 A 
ATOM     54  H   UNL A   1      39.394  33.425  35.697  1.00  0.00     0.167 HD
ATOM     55  C   UNL A   1      41.872  33.821  32.113  1.00  0.00     0.031 A 
ATOM     56  C   UNL A   1      39.005  33.090  38.446  1.00  0.00     0.031 A 
ATOM     57  C   UNL A   1      42.818  33.692  33.178  1.00  0.00     0.049 A 
ATOM     58  C   UNL A   1      40.503  33.076  38.234  1.00  0.00     0.074 A 
ATOM     59  C   UNL A   1      44.198  33.704  33.110  1.00  0.00     0.029 A 
ATOM     60  N   UNL A   1      42.476  33.541  34.510  1.00  0.00    -0.354 N 
ATOM     61  N   UNL A   1      41.184  33.225  37.121  1.00  0.00    -0.248 NA
ATOM     62  C   UNL A   1      41.344  32.894  39.429  1.00  0.00     0.031 C 
ATOM     63  C   UNL A   1      44.693  33.534  34.407  1.00  0.00     0.029 A 
ATOM     64  C   UNL A   1      43.619  33.455  35.280  1.00  0.00     0.049 A 
ATOM     65  H   UNL A   1      41.554  33.501  34.858  1.00  0.00     0.167 HD
ATOM     66  C   UNL A   1      42.528  33.197  37.491  1.00  0.00     0.074 A 
ATOM     67  C   UNL A   1      42.564  33.024  38.927  1.00  0.00     0.031 C 
ATOM     68  C   UNL A   1      43.633  33.309  36.712  1.00  0.00     0.031 A 
BRANCH  55  69
ATOM     69  C   UNL A   1      42.360  33.968  30.698  1.00  0.00    -0.014 A 
ATOM     70  C   UNL A   1      42.893  32.865  30.005  1.00  0.00     0.010 A 
ATOM     71  C   UNL A   1      42.351  35.230  30.083  1.00  0.00     0.010 A 
ATOM     72  C   UNL A   1      43.479  33.036  28.751  1.00  0.00     0.020 A 
ATOM     73  C   UNL A   1      42.906  35.399  28.812  1.00  0.00     0.020 A 
ATOM     74  C   UNL A   1      43.493  34.305  28.168  1.00  0.00     0.054 A 
BRANCH  74  75
ATOM     75  S   UNL A   1      44.290  34.512  26.553  1.00  0.00     0.124 S 
ATOM     76  O   UNL A   1      45.365  35.449  26.867  1.00  0.00    -0.237 OA
ATOM     77  O   UNL A   1      44.716  33.154  26.227  1.00  0.00    -0.237 OA
ATOM     78  O   UNL A   1      43.223  35.046  25.710  1.00  0.00    -0.744 OA
ENDBRANCH  74  75
ENDBRANCH  55  69
BRANCH  56  79
ATOM     79  C   UNL A   1      38.455  32.929  39.825  1.00  0.00    -0.014 A 
ATOM     80  C   UNL A   1      37.943  31.688  40.249  1.00  0.00     0.010 A 
ATOM     81  C   UNL A   1      38.378  34.028  40.699  1.00  0.00     0.010 A 
ATOM     82  C   UNL A   1      37.332  31.557  41.501  1.00  0.00     0.020 A 
ATOM     83  C   UNL A   1      37.787  33.897  41.962  1.00  0.00     0.020 A 
ATOM     84  C   UNL A   1      37.251  32.666  42.348  1.00  0.00     0.054 A 
BRANCH  84  85
ATOM     85  S   UNL A   1      36.458  32.475  43.971  1.00  0.00     0.124 S 
ATOM     86  O   UNL A   1      35.118  32.994  43.719  1.00  0.00    -0.237 OA
ATOM     87  O   UNL A   1      36.546  31.035  44.201  1.00  0.00    -0.237 OA
ATOM     88  O   UNL A   1      37.289  33.290  44.855  1.00  0.00    -0.744 OA
ENDBRANCH  84  85
ENDBRANCH  56  79
BRANCH  68  89
ATOM     89  C   UNL A   1      44.977  33.301  37.388  1.00  0.00    -0.014 A 
ATOM     90  C   UNL A   1      45.566  34.489  37.853  1.00  0.00     0.010 A 
ATOM     91  C   UNL A   1      45.614  32.072  37.643  1.00  0.00     0.010 A 
ATOM     92  C   UNL A   1      46.781  34.451  38.542  1.00  0.00     0.020 A 
ATOM     93  C   UNL A   1      46.816  32.028  38.353  1.00  0.00     0.020 A 
ATOM     94  C   UNL A   1      47.398  33.220  38.789  1.00  0.00     0.054 A 
BRANCH  94  95
ATOM     95  S   UNL A   1      48.941  33.189  39.742  1.00  0.00     0.124 S 
ATOM     96  O   UNL A   1      49.539  34.474  39.395  1.00  0.00    -0.237 OA
ATOM     97  O   UNL A   1      48.467  33.068  41.119  1.00  0.00    -0.237 OA
ATOM     98  O   UNL A   1      49.642  32.014  39.227  1.00  0.00    -0.744 OA
ENDBRANCH  94  95
ENDBRANCH  68  89
ENDBRANCH  42  43
ENDBRANCH  35  37
ENDBRANCH  34  35
ENDBRANCH  33  34
ENDBRANCH  32  33
ENDBRANCH  31  32
ENDBRANCH  30  31
ENDBRANCH   1  30
TORSDOF 23
ENDMDL
