MODEL 1
REMARK VINA RESULT:     -10.5      0.000      0.000
REMARK SMILES CSc1nc2nnc(C(=O)OCCOCCOC(=O)c3ccc(-c4c5nc(c(-c6ccc(S(=O)(=O)[O-])cc6)c6ccc([nH]6)c(-c6ccc(S(=O)(=O)[O-])cc6)c6nc(c(-c7ccc(S(=O)(=O)[O-])cc7)c7ccc4[nH]7)C=C6)C=C5)cc3)c(O)n2n1
REMARK SMILES IDX 15 1 14 2 13 3 12 4 11 5 9 6 10 7 8 8 3 9 4 10 83 11 5 12
REMARK SMILES IDX 82 13 6 14 80 15 7 16 2 17 1 18 81 19 16 21 17 22 18 23
REMARK SMILES IDX 19 24 20 25 21 26 79 27 22 28 78 29 23 30 24 31 25 32 72 33
REMARK SMILES IDX 26 34 77 35 71 36 73 37 27 38 76 39 70 40 69 41 28 43 58 44
REMARK SMILES IDX 39 45 57 46 40 47 43 48 56 49 74 50 41 51 42 52 55 54 75 55
REMARK SMILES IDX 44 56 29 57 30 58 38 59 31 60 37 61 32 62 33 63 34 64 35 65
REMARK SMILES IDX 36 66 59 67 60 68 68 69 61 70 67 71 62 72 63 73 64 74 65 75
REMARK SMILES IDX 66 76 45 77 46 78 54 79 47 80 53 81 48 82 49 83 50 84 51 85
REMARK SMILES IDX 52 86
REMARK H PARENT 81 20 73 42 43 53
REMARK Flexibility Score: inf
ROOT
ATOM      1  C   UNL A   1      46.440  19.277  25.396  1.00  0.00     0.202 C 
ENDROOT
BRANCH   1   2
ATOM      2  O   UNL A   1      45.450  18.270  25.210  1.00  0.00    -0.374 OA
BRANCH   2   3
ATOM      3  C   UNL A   1      44.117  18.597  24.820  1.00  0.00     0.202 C 
BRANCH   3   4
ATOM      4  C   UNL A   1      43.060  18.881  25.892  1.00  0.00     0.261 C 
BRANCH   4   5
ATOM      5  O   UNL A   1      41.949  19.659  25.425  1.00  0.00    -0.458 OA
BRANCH   5   6
ATOM      6  C   UNL A   1      41.056  19.962  26.397  1.00  0.00     0.364 C 
ATOM      7  O   UNL A   1      41.315  20.118  27.586  1.00  0.00    -0.244 OA
BRANCH   6   8
ATOM      8  C   UNL A   1      39.735  20.333  25.843  1.00  0.00     0.232 A 
ATOM      9  C   UNL A   1      36.257  22.817  25.175  1.00  0.00     0.210 A 
ATOM     10  N   UNL A   1      36.073  21.504  24.854  1.00  0.00    -0.182 NA
ATOM     11  N   UNL A   1      37.498  23.156  25.514  1.00  0.00    -0.134 NA
ATOM     12  C   UNL A   1      37.266  20.975  25.040  1.00  0.00     0.275 A 
ATOM     13  N   UNL A   1      38.132  21.966  25.483  1.00  0.00    -0.159 N 
ATOM     14  N   UNL A   1      37.717  19.687  24.932  1.00  0.00    -0.108 NA
ATOM     15  C   UNL A   1      39.415  21.642  25.906  1.00  0.00     0.251 A 
ATOM     16  N   UNL A   1      38.889  19.379  25.310  1.00  0.00    -0.134 NA
BRANCH   9  17
ATOM     17  S   UNL A   1      34.958  23.980  25.214  1.00  0.00    -0.088 SA
ATOM     18  C   UNL A   1      33.531  22.867  25.264  1.00  0.00     0.094 C 
ENDBRANCH   9  17
BRANCH  15  19
ATOM     19  O   UNL A   1      40.234  22.658  26.384  1.00  0.00    -0.491 OA
ATOM     20  H   UNL A   1      40.633  22.579  27.228  1.00  0.00     0.295 HD
ENDBRANCH  15  19
ENDBRANCH   6   8
ENDBRANCH   5   6
ENDBRANCH   4   5
ENDBRANCH   3   4
ENDBRANCH   2   3
ENDBRANCH   1   2
BRANCH   1  21
ATOM     21  C   UNL A   1      46.412  20.560  24.578  1.00  0.00     0.261 C 
BRANCH  21  22
ATOM     22  O   UNL A   1      45.951  21.647  25.352  1.00  0.00    -0.460 OA
BRANCH  22  23
ATOM     23  C   UNL A   1      45.157  22.492  24.654  1.00  0.00     0.338 C 
ATOM     24  O   UNL A   1      45.301  22.858  23.504  1.00  0.00    -0.246 OA
BRANCH  23  25
ATOM     25  C   UNL A   1      44.097  22.967  25.547  1.00  0.00     0.060 A 
ATOM     26  C   UNL A   1      43.232  23.912  24.992  1.00  0.00     0.016 A 
ATOM     27  C   UNL A   1      44.273  22.811  26.926  1.00  0.00     0.016 A 
ATOM     28  C   UNL A   1      42.820  24.939  25.801  1.00  0.00     0.010 A 
ATOM     29  C   UNL A   1      43.890  23.850  27.723  1.00  0.00     0.010 A 
ATOM     30  C   UNL A   1      43.282  24.946  27.117  1.00  0.00    -0.014 A 
BRANCH  30  31
ATOM     31  C   UNL A   1      43.138  26.154  27.887  1.00  0.00     0.031 A 
ATOM     32  C   UNL A   1      44.201  27.128  27.589  1.00  0.00     0.074 A 
ATOM     33  C   UNL A   1      42.047  26.372  28.642  1.00  0.00     0.049 A 
ATOM     34  N   UNL A   1      45.241  27.395  28.305  1.00  0.00    -0.248 NA
ATOM     35  C   UNL A   1      44.254  27.664  26.215  1.00  0.00     0.031 C 
ATOM     36  C   UNL A   1      40.809  25.591  28.720  1.00  0.00     0.029 A 
ATOM     37  N   UNL A   1      41.768  27.446  29.413  1.00  0.00    -0.354 N 
ATOM     38  C   UNL A   1      45.952  28.316  27.552  1.00  0.00     0.074 A 
ATOM     39  C   UNL A   1      45.478  28.186  26.200  1.00  0.00     0.031 C 
ATOM     40  C   UNL A   1      39.838  26.366  29.263  1.00  0.00     0.029 A 
ATOM     41  C   UNL A   1      40.418  27.640  29.660  1.00  0.00     0.049 A 
ATOM     42  H   UNL A   1      42.465  28.042  29.769  1.00  0.00     0.167 HD
ATOM     43  C   UNL A   1      46.612  29.357  28.125  1.00  0.00     0.031 A 
ATOM     44  C   UNL A   1      39.845  28.819  30.026  1.00  0.00     0.031 A 
ATOM     45  C   UNL A   1      46.743  29.191  29.549  1.00  0.00     0.049 A 
ATOM     46  C   UNL A   1      40.951  29.688  30.533  1.00  0.00     0.074 A 
ATOM     47  C   UNL A   1      47.307  28.220  30.352  1.00  0.00     0.029 A 
ATOM     48  N   UNL A   1      45.848  29.874  30.346  1.00  0.00    -0.354 N 
ATOM     49  N   UNL A   1      41.650  29.404  31.602  1.00  0.00    -0.248 NA
ATOM     50  C   UNL A   1      41.622  30.561  29.576  1.00  0.00     0.031 C 
ATOM     51  C   UNL A   1      46.387  28.053  31.428  1.00  0.00     0.029 A 
ATOM     52  C   UNL A   1      45.358  28.984  31.271  1.00  0.00     0.049 A 
ATOM     53  H   UNL A   1      45.605  30.825  30.266  1.00  0.00     0.167 HD
ATOM     54  C   UNL A   1      42.967  29.702  31.269  1.00  0.00     0.074 A 
ATOM     55  C   UNL A   1      42.878  30.478  30.031  1.00  0.00     0.031 C 
ATOM     56  C   UNL A   1      44.022  29.043  31.839  1.00  0.00     0.031 A 
BRANCH  43  57
ATOM     57  C   UNL A   1      46.763  30.687  27.439  1.00  0.00    -0.014 A 
ATOM     58  C   UNL A   1      48.049  31.170  27.153  1.00  0.00     0.010 A 
ATOM     59  C   UNL A   1      45.684  31.583  27.261  1.00  0.00     0.010 A 
ATOM     60  C   UNL A   1      48.242  32.492  26.730  1.00  0.00     0.020 A 
ATOM     61  C   UNL A   1      45.858  32.880  26.789  1.00  0.00     0.020 A 
ATOM     62  C   UNL A   1      47.142  33.336  26.552  1.00  0.00     0.054 A 
BRANCH  62  63
ATOM     63  S   UNL A   1      47.406  35.059  26.078  1.00  0.00     0.124 S 
ATOM     64  O   UNL A   1      47.749  35.673  27.357  1.00  0.00    -0.237 OA
ATOM     65  O   UNL A   1      48.496  34.947  25.112  1.00  0.00    -0.237 OA
ATOM     66  O   UNL A   1      46.120  35.461  25.514  1.00  0.00    -0.744 OA
ENDBRANCH  62  63
ENDBRANCH  43  57
BRANCH  44  67
ATOM     67  C   UNL A   1      38.537  29.346  29.529  1.00  0.00    -0.014 A 
ATOM     68  C   UNL A   1      37.469  29.638  30.400  1.00  0.00     0.010 A 
ATOM     69  C   UNL A   1      38.416  29.798  28.196  1.00  0.00     0.010 A 
ATOM     70  C   UNL A   1      36.354  30.384  29.963  1.00  0.00     0.020 A 
ATOM     71  C   UNL A   1      37.309  30.530  27.750  1.00  0.00     0.020 A 
ATOM     72  C   UNL A   1      36.290  30.840  28.642  1.00  0.00     0.054 A 
BRANCH  72  73
ATOM     73  S   UNL A   1      34.930  31.928  28.117  1.00  0.00     0.124 S 
ATOM     74  O   UNL A   1      34.184  31.074  27.197  1.00  0.00    -0.237 OA
ATOM     75  O   UNL A   1      34.264  32.232  29.379  1.00  0.00    -0.237 OA
ATOM     76  O   UNL A   1      35.614  33.059  27.492  1.00  0.00    -0.744 OA
ENDBRANCH  72  73
ENDBRANCH  44  67
BRANCH  56  77
ATOM     77  C   UNL A   1      43.763  28.104  33.003  1.00  0.00    -0.014 A 
ATOM     78  C   UNL A   1      43.520  28.541  34.322  1.00  0.00     0.010 A 
ATOM     79  C   UNL A   1      43.548  26.747  32.705  1.00  0.00     0.010 A 
ATOM     80  C   UNL A   1      43.087  27.642  35.311  1.00  0.00     0.020 A 
ATOM     81  C   UNL A   1      43.101  25.851  33.679  1.00  0.00     0.020 A 
ATOM     82  C   UNL A   1      42.876  26.300  34.980  1.00  0.00     0.054 A 
BRANCH  82  83
ATOM     83  S   UNL A   1      42.260  25.150  36.245  1.00  0.00     0.124 S 
ATOM     84  O   UNL A   1      43.231  25.315  37.324  1.00  0.00    -0.237 OA
ATOM     85  O   UNL A   1      40.919  25.661  36.522  1.00  0.00    -0.237 OA
ATOM     86  O   UNL A   1      42.293  23.849  35.578  1.00  0.00    -0.744 OA
ENDBRANCH  82  83
ENDBRANCH  56  77
ENDBRANCH  30  31
ENDBRANCH  23  25
ENDBRANCH  22  23
ENDBRANCH  21  22
ENDBRANCH   1  21
TORSDOF 19
ENDMDL
MODEL 2
REMARK VINA RESULT:     -10.2      3.075      4.943
REMARK SMILES CSc1nc2nnc(C(=O)OCCOCCOC(=O)c3ccc(-c4c5nc(c(-c6ccc(S(=O)(=O)[O-])cc6)c6ccc([nH]6)c(-c6ccc(S(=O)(=O)[O-])cc6)c6nc(c(-c7ccc(S(=O)(=O)[O-])cc7)c7ccc4[nH]7)C=C6)C=C5)cc3)c(O)n2n1
REMARK SMILES IDX 15 1 14 2 13 3 12 4 11 5 9 6 10 7 8 8 3 9 4 10 83 11 5 12
REMARK SMILES IDX 82 13 6 14 80 15 7 16 2 17 1 18 81 19 16 21 17 22 18 23
REMARK SMILES IDX 19 24 20 25 21 26 79 27 22 28 78 29 23 30 24 31 25 32 72 33
REMARK SMILES IDX 26 34 77 35 71 36 73 37 27 38 76 39 70 40 69 41 28 43 58 44
REMARK SMILES IDX 39 45 57 46 40 47 43 48 56 49 74 50 41 51 42 52 55 54 75 55
REMARK SMILES IDX 44 56 29 57 30 58 38 59 31 60 37 61 32 62 33 63 34 64 35 65
REMARK SMILES IDX 36 66 59 67 60 68 68 69 61 70 67 71 62 72 63 73 64 74 65 75
REMARK SMILES IDX 66 76 45 77 46 78 54 79 47 80 53 81 48 82 49 83 50 84 51 85
REMARK SMILES IDX 52 86
REMARK H PARENT 81 20 73 42 43 53
REMARK Flexibility Score: inf
ROOT
ATOM      1  C   UNL A   1      36.606  21.726  25.696  1.00  0.00     0.202 C 
ENDROOT
BRANCH   1   2
ATOM      2  O   UNL A   1      35.870  20.989  24.724  1.00  0.00    -0.374 OA
BRANCH   2   3
ATOM      3  C   UNL A   1      34.484  20.701  24.898  1.00  0.00     0.202 C 
BRANCH   3   4
ATOM      4  C   UNL A   1      33.481  21.852  25.033  1.00  0.00     0.261 C 
BRANCH   4   5
ATOM      5  O   UNL A   1      33.117  22.459  23.785  1.00  0.00    -0.458 OA
BRANCH   5   6
ATOM      6  C   UNL A   1      33.905  23.508  23.446  1.00  0.00     0.364 C 
ATOM      7  O   UNL A   1      34.873  23.465  22.694  1.00  0.00    -0.244 OA
BRANCH   6   8
ATOM      8  C   UNL A   1      33.334  24.798  23.891  1.00  0.00     0.232 A 
ATOM      9  C   UNL A   1      30.686  28.219  23.805  1.00  0.00     0.210 A 
ATOM     10  N   UNL A   1      31.805  28.400  24.564  1.00  0.00    -0.182 NA
ATOM     11  N   UNL A   1      30.514  26.992  23.321  1.00  0.00    -0.134 NA
ATOM     12  C   UNL A   1      32.395  27.223  24.523  1.00  0.00     0.275 A 
ATOM     13  N   UNL A   1      31.637  26.368  23.733  1.00  0.00    -0.159 N 
ATOM     14  N   UNL A   1      33.579  26.779  25.048  1.00  0.00    -0.108 NA
ATOM     15  C   UNL A   1      32.117  25.109  23.396  1.00  0.00     0.251 A 
ATOM     16  N   UNL A   1      34.026  25.629  24.753  1.00  0.00    -0.134 NA
BRANCH   9  17
ATOM     17  S   UNL A   1      29.575  29.506  23.420  1.00  0.00    -0.088 SA
ATOM     18  C   UNL A   1      30.078  29.867  21.718  1.00  0.00     0.094 C 
ENDBRANCH   9  17
BRANCH  15  19
ATOM     19  O   UNL A   1      31.347  24.302  22.566  1.00  0.00    -0.491 OA
ATOM     20  H   UNL A   1      30.993  24.651  21.772  1.00  0.00     0.295 HD
ENDBRANCH  15  19
ENDBRANCH   6   8
ENDBRANCH   5   6
ENDBRANCH   4   5
ENDBRANCH   3   4
ENDBRANCH   2   3
ENDBRANCH   1   2
BRANCH   1  21
ATOM     21  C   UNL A   1      38.121  21.833  25.613  1.00  0.00     0.261 C 
BRANCH  21  22
ATOM     22  O   UNL A   1      38.593  22.951  26.336  1.00  0.00    -0.460 OA
BRANCH  22  23
ATOM     23  C   UNL A   1      39.797  22.734  26.914  1.00  0.00     0.338 C 
ATOM     24  O   UNL A   1      40.155  21.746  27.525  1.00  0.00    -0.246 OA
BRANCH  23  25
ATOM     25  C   UNL A   1      40.611  23.941  26.742  1.00  0.00     0.060 A 
ATOM     26  C   UNL A   1      41.801  23.964  27.471  1.00  0.00     0.016 A 
ATOM     27  C   UNL A   1      39.986  25.098  26.264  1.00  0.00     0.016 A 
ATOM     28  C   UNL A   1      42.173  25.158  28.031  1.00  0.00     0.010 A 
ATOM     29  C   UNL A   1      40.338  26.280  26.848  1.00  0.00     0.010 A 
ATOM     30  C   UNL A   1      41.343  26.258  27.812  1.00  0.00    -0.014 A 
BRANCH  30  31
ATOM     31  C   UNL A   1      41.522  27.425  28.634  1.00  0.00     0.031 A 
ATOM     32  C   UNL A   1      42.811  28.088  28.378  1.00  0.00     0.074 A 
ATOM     33  C   UNL A   1      40.522  27.896  29.400  1.00  0.00     0.049 A 
ATOM     34  N   UNL A   1      43.877  28.035  29.104  1.00  0.00    -0.248 NA
ATOM     35  C   UNL A   1      43.020  28.648  27.029  1.00  0.00     0.031 C 
ATOM     36  C   UNL A   1      39.119  27.476  29.446  1.00  0.00     0.029 A 
ATOM     37  N   UNL A   1      40.534  28.973  30.217  1.00  0.00    -0.354 N 
ATOM     38  C   UNL A   1      44.817  28.762  28.390  1.00  0.00     0.074 A 
ATOM     39  C   UNL A   1      44.340  28.822  27.034  1.00  0.00     0.031 C 
ATOM     40  C   UNL A   1      38.387  28.459  30.023  1.00  0.00     0.029 A 
ATOM     41  C   UNL A   1      39.284  29.512  30.475  1.00  0.00     0.049 A 
ATOM     42  H   UNL A   1      41.362  29.342  30.599  1.00  0.00     0.167 HD
ATOM     43  C   UNL A   1      45.727  29.561  29.008  1.00  0.00     0.031 A 
ATOM     44  C   UNL A   1      39.046  30.785  30.893  1.00  0.00     0.031 A 
ATOM     45  C   UNL A   1      45.794  29.306  30.423  1.00  0.00     0.049 A 
ATOM     46  C   UNL A   1      40.339  31.301  31.436  1.00  0.00     0.074 A 
ATOM     47  C   UNL A   1      46.067  28.185  31.182  1.00  0.00     0.029 A 
ATOM     48  N   UNL A   1      45.107  30.169  31.250  1.00  0.00    -0.354 N 
ATOM     49  N   UNL A   1      40.925  30.795  32.491  1.00  0.00    -0.248 NA
ATOM     50  C   UNL A   1      41.231  32.002  30.517  1.00  0.00     0.031 C 
ATOM     51  C   UNL A   1      45.125  28.226  32.250  1.00  0.00     0.029 A 
ATOM     52  C   UNL A   1      44.386  29.406  32.136  1.00  0.00     0.049 A 
ATOM     53  H   UNL A   1      45.130  31.153  31.213  1.00  0.00     0.167 HD
ATOM     54  C   UNL A   1      42.277  30.741  32.170  1.00  0.00     0.074 A 
ATOM     55  C   UNL A   1      42.413  31.564  30.966  1.00  0.00     0.031 C 
ATOM     56  C   UNL A   1      43.110  29.798  32.709  1.00  0.00     0.031 A 
BRANCH  43  57
ATOM     57  C   UNL A   1      46.237  30.829  28.380  1.00  0.00    -0.014 A 
ATOM     58  C   UNL A   1      45.411  31.963  28.355  1.00  0.00     0.010 A 
ATOM     59  C   UNL A   1      47.424  30.881  27.614  1.00  0.00     0.010 A 
ATOM     60  C   UNL A   1      45.751  33.083  27.585  1.00  0.00     0.020 A 
ATOM     61  C   UNL A   1      47.799  32.007  26.889  1.00  0.00     0.020 A 
ATOM     62  C   UNL A   1      46.944  33.094  26.857  1.00  0.00     0.054 A 
BRANCH  62  63
ATOM     63  S   UNL A   1      47.338  34.511  25.809  1.00  0.00     0.124 S 
ATOM     64  O   UNL A   1      46.242  34.486  24.846  1.00  0.00    -0.237 OA
ATOM     65  O   UNL A   1      47.320  35.615  26.767  1.00  0.00    -0.237 OA
ATOM     66  O   UNL A   1      48.655  34.183  25.269  1.00  0.00    -0.744 OA
ENDBRANCH  62  63
ENDBRANCH  43  57
BRANCH  44  67
ATOM     67  C   UNL A   1      37.933  31.666  30.421  1.00  0.00    -0.014 A 
ATOM     68  C   UNL A   1      37.999  32.364  29.199  1.00  0.00     0.010 A 
ATOM     69  C   UNL A   1      36.680  31.633  31.072  1.00  0.00     0.010 A 
ATOM     70  C   UNL A   1      36.851  32.963  28.638  1.00  0.00     0.020 A 
ATOM     71  C   UNL A   1      35.538  32.233  30.528  1.00  0.00     0.020 A 
ATOM     72  C   UNL A   1      35.623  32.879  29.300  1.00  0.00     0.054 A 
BRANCH  72  73
ATOM     73  S   UNL A   1      34.114  33.518  28.510  1.00  0.00     0.124 S 
ATOM     74  O   UNL A   1      33.389  34.095  29.639  1.00  0.00    -0.237 OA
ATOM     75  O   UNL A   1      34.645  34.473  27.544  1.00  0.00    -0.237 OA
ATOM     76  O   UNL A   1      33.500  32.326  27.926  1.00  0.00    -0.744 OA
ENDBRANCH  72  73
ENDBRANCH  44  67
BRANCH  56  77
ATOM     77  C   UNL A   1      42.595  28.915  33.830  1.00  0.00    -0.014 A 
ATOM     78  C   UNL A   1      41.821  27.754  33.621  1.00  0.00     0.010 A 
ATOM     79  C   UNL A   1      43.092  29.155  35.123  1.00  0.00     0.010 A 
ATOM     80  C   UNL A   1      41.547  26.871  34.678  1.00  0.00     0.020 A 
ATOM     81  C   UNL A   1      42.838  28.272  36.175  1.00  0.00     0.020 A 
ATOM     82  C   UNL A   1      42.062  27.135  35.951  1.00  0.00     0.054 A 
BRANCH  82  83
ATOM     83  S   UNL A   1      41.757  25.961  37.303  1.00  0.00     0.124 S 
ATOM     84  O   UNL A   1      41.923  24.668  36.646  1.00  0.00    -0.237 OA
ATOM     85  O   UNL A   1      42.790  26.310  38.276  1.00  0.00    -0.237 OA
ATOM     86  O   UNL A   1      40.391  26.267  37.728  1.00  0.00    -0.744 OA
ENDBRANCH  82  83
ENDBRANCH  56  77
ENDBRANCH  30  31
ENDBRANCH  23  25
ENDBRANCH  22  23
ENDBRANCH  21  22
ENDBRANCH   1  21
TORSDOF 19
ENDMDL
MODEL 3
REMARK VINA RESULT:     -10.1      3.233      8.564
REMARK SMILES CSc1nc2nnc(C(=O)OCCOCCOC(=O)c3ccc(-c4c5nc(c(-c6ccc(S(=O)(=O)[O-])cc6)c6ccc([nH]6)c(-c6ccc(S(=O)(=O)[O-])cc6)c6nc(c(-c7ccc(S(=O)(=O)[O-])cc7)c7ccc4[nH]7)C=C6)C=C5)cc3)c(O)n2n1
REMARK SMILES IDX 15 1 14 2 13 3 12 4 11 5 9 6 10 7 8 8 3 9 4 10 83 11 5 12
REMARK SMILES IDX 82 13 6 14 80 15 7 16 2 17 1 18 81 19 16 21 17 22 18 23
REMARK SMILES IDX 19 24 20 25 21 26 79 27 22 28 78 29 23 30 24 31 25 32 72 33
REMARK SMILES IDX 26 34 77 35 71 36 73 37 27 38 76 39 70 40 69 41 28 43 58 44
REMARK SMILES IDX 39 45 57 46 40 47 43 48 56 49 74 50 41 51 42 52 55 54 75 55
REMARK SMILES IDX 44 56 29 57 30 58 38 59 31 60 37 61 32 62 33 63 34 64 35 65
REMARK SMILES IDX 36 66 59 67 60 68 68 69 61 70 67 71 62 72 63 73 64 74 65 75
REMARK SMILES IDX 66 76 45 77 46 78 54 79 47 80 53 81 48 82 49 83 50 84 51 85
REMARK SMILES IDX 52 86
REMARK H PARENT 81 20 73 42 43 53
REMARK Flexibility Score: inf
ROOT
ATOM      1  C   UNL A   1      36.835  22.360  24.519  1.00  0.00     0.202 C 
ENDROOT
BRANCH   1   2
ATOM      2  O   UNL A   1      35.615  22.935  24.978  1.00  0.00    -0.374 OA
BRANCH   2   3
ATOM      3  C   UNL A   1      35.500  24.334  25.234  1.00  0.00     0.202 C 
BRANCH   3   4
ATOM      4  C   UNL A   1      34.136  24.930  25.598  1.00  0.00     0.261 C 
BRANCH   4   5
ATOM      5  O   UNL A   1      33.160  24.837  24.550  1.00  0.00    -0.458 OA
BRANCH   5   6
ATOM      6  C   UNL A   1      32.050  24.149  24.908  1.00  0.00     0.364 C 
ATOM      7  O   UNL A   1      31.046  24.624  25.428  1.00  0.00    -0.244 OA
BRANCH   6   8
ATOM      8  C   UNL A   1      32.060  22.766  24.381  1.00  0.00     0.232 A 
ATOM      9  C   UNL A   1      32.559  18.469  24.493  1.00  0.00     0.210 A 
ATOM     10  N   UNL A   1      32.553  18.996  23.234  1.00  0.00    -0.182 NA
ATOM     11  N   UNL A   1      32.283  19.324  25.474  1.00  0.00    -0.134 NA
ATOM     12  C   UNL A   1      32.294  20.272  23.440  1.00  0.00     0.275 A 
ATOM     13  N   UNL A   1      32.169  20.491  24.805  1.00  0.00    -0.159 N 
ATOM     14  N   UNL A   1      32.204  21.333  22.579  1.00  0.00    -0.108 NA
ATOM     15  C   UNL A   1      32.051  21.782  25.305  1.00  0.00     0.251 A 
ATOM     16  N   UNL A   1      32.091  22.517  23.022  1.00  0.00    -0.134 NA
BRANCH   9  17
ATOM     17  S   UNL A   1      32.967  16.808  24.829  1.00  0.00    -0.088 SA
ATOM     18  C   UNL A   1      34.078  16.462  23.440  1.00  0.00     0.094 C 
ENDBRANCH   9  17
BRANCH  15  19
ATOM     19  O   UNL A   1      31.973  21.959  26.681  1.00  0.00    -0.491 OA
ATOM     20  H   UNL A   1      32.223  22.777  27.063  1.00  0.00     0.295 HD
ENDBRANCH  15  19
ENDBRANCH   6   8
ENDBRANCH   5   6
ENDBRANCH   4   5
ENDBRANCH   3   4
ENDBRANCH   2   3
ENDBRANCH   1   2
BRANCH   1  21
ATOM     21  C   UNL A   1      37.559  21.304  25.341  1.00  0.00     0.261 C 
BRANCH  21  22
ATOM     22  O   UNL A   1      38.852  21.740  25.706  1.00  0.00    -0.460 OA
BRANCH  22  23
ATOM     23  C   UNL A   1      39.739  20.725  25.817  1.00  0.00     0.338 C 
ATOM     24  O   UNL A   1      39.572  19.562  25.505  1.00  0.00    -0.246 OA
BRANCH  23  25
ATOM     25  C   UNL A   1      40.953  21.246  26.452  1.00  0.00     0.060 A 
ATOM     26  C   UNL A   1      40.945  21.232  27.848  1.00  0.00     0.016 A 
ATOM     27  C   UNL A   1      41.786  22.083  25.702  1.00  0.00     0.016 A 
ATOM     28  C   UNL A   1      41.505  22.305  28.491  1.00  0.00     0.010 A 
ATOM     29  C   UNL A   1      42.315  23.167  26.340  1.00  0.00     0.010 A 
ATOM     30  C   UNL A   1      42.053  23.314  27.701  1.00  0.00    -0.014 A 
BRANCH  30  31
ATOM     31  C   UNL A   1      42.352  24.580  28.316  1.00  0.00     0.031 A 
ATOM     32  C   UNL A   1      41.284  25.568  28.091  1.00  0.00     0.074 A 
ATOM     33  C   UNL A   1      43.414  24.726  29.128  1.00  0.00     0.049 A 
ATOM     34  N   UNL A   1      41.289  26.548  27.251  1.00  0.00    -0.248 NA
ATOM     35  C   UNL A   1      39.961  25.269  28.671  1.00  0.00     0.031 C 
ATOM     36  C   UNL A   1      44.322  23.701  29.651  1.00  0.00     0.029 A 
ATOM     37  N   UNL A   1      43.822  25.840  29.776  1.00  0.00    -0.354 N 
ATOM     38  C   UNL A   1      40.033  27.120  27.381  1.00  0.00     0.074 A 
ATOM     39  C   UNL A   1      39.196  26.126  27.998  1.00  0.00     0.031 C 
ATOM     40  C   UNL A   1      44.969  24.202  30.731  1.00  0.00     0.029 A 
ATOM     41  C   UNL A   1      44.600  25.600  30.897  1.00  0.00     0.049 A 
ATOM     42  H   UNL A   1      43.586  26.747  29.475  1.00  0.00     0.167 HD
ATOM     43  C   UNL A   1      39.845  28.465  27.311  1.00  0.00     0.031 A 
ATOM     44  C   UNL A   1      44.781  26.466  31.930  1.00  0.00     0.031 A 
ATOM     45  C   UNL A   1      41.000  29.142  26.783  1.00  0.00     0.049 A 
ATOM     46  C   UNL A   1      44.385  27.817  31.425  1.00  0.00     0.074 A 
ATOM     47  C   UNL A   1      41.709  29.047  25.601  1.00  0.00     0.029 A 
ATOM     48  N   UNL A   1      41.850  29.736  27.692  1.00  0.00    -0.354 N 
ATOM     49  N   UNL A   1      45.020  28.435  30.463  1.00  0.00    -0.248 NA
ATOM     50  C   UNL A   1      42.997  28.230  31.608  1.00  0.00     0.031 C 
ATOM     51  C   UNL A   1      43.079  29.135  25.987  1.00  0.00     0.029 A 
ATOM     52  C   UNL A   1      43.131  29.363  27.364  1.00  0.00     0.049 A 
ATOM     53  H   UNL A   1      41.587  30.322  28.439  1.00  0.00     0.167 HD
ATOM     54  C   UNL A   1      44.026  28.990  29.664  1.00  0.00     0.074 A 
ATOM     55  C   UNL A   1      42.801  28.889  30.460  1.00  0.00     0.031 C 
ATOM     56  C   UNL A   1      44.209  29.196  28.323  1.00  0.00     0.031 A 
BRANCH  43  57
ATOM     57  C   UNL A   1      38.775  29.167  28.101  1.00  0.00    -0.014 A 
ATOM     58  C   UNL A   1      37.640  29.656  27.436  1.00  0.00     0.010 A 
ATOM     59  C   UNL A   1      38.950  29.560  29.448  1.00  0.00     0.010 A 
ATOM     60  C   UNL A   1      36.739  30.511  28.085  1.00  0.00     0.020 A 
ATOM     61  C   UNL A   1      38.034  30.362  30.120  1.00  0.00     0.020 A 
ATOM     62  C   UNL A   1      36.945  30.856  29.423  1.00  0.00     0.054 A 
BRANCH  62  63
ATOM     63  S   UNL A   1      35.820  32.016  30.230  1.00  0.00     0.124 S 
ATOM     64  O   UNL A   1      36.605  33.246  30.229  1.00  0.00    -0.237 OA
ATOM     65  O   UNL A   1      34.665  31.996  29.334  1.00  0.00    -0.237 OA
ATOM     66  O   UNL A   1      35.593  31.417  31.543  1.00  0.00    -0.744 OA
ENDBRANCH  62  63
ENDBRANCH  43  57
BRANCH  44  67
ATOM     67  C   UNL A   1      44.821  26.102  33.380  1.00  0.00    -0.014 A 
ATOM     68  C   UNL A   1      45.846  26.551  34.235  1.00  0.00     0.010 A 
ATOM     69  C   UNL A   1      43.700  25.497  33.989  1.00  0.00     0.010 A 
ATOM     70  C   UNL A   1      45.730  26.435  35.637  1.00  0.00     0.020 A 
ATOM     71  C   UNL A   1      43.580  25.368  35.378  1.00  0.00     0.020 A 
ATOM     72  C   UNL A   1      44.587  25.858  36.200  1.00  0.00     0.054 A 
BRANCH  72  73
ATOM     73  S   UNL A   1      44.367  25.844  38.006  1.00  0.00     0.124 S 
ATOM     74  O   UNL A   1      43.018  26.381  38.161  1.00  0.00    -0.237 OA
ATOM     75  O   UNL A   1      44.527  24.431  38.331  1.00  0.00    -0.237 OA
ATOM     76  O   UNL A   1      45.438  26.714  38.491  1.00  0.00    -0.744 OA
ENDBRANCH  72  73
ENDBRANCH  44  67
BRANCH  56  77
ATOM     77  C   UNL A   1      45.592  29.000  27.730  1.00  0.00    -0.014 A 
ATOM     78  C   UNL A   1      46.551  30.029  27.623  1.00  0.00     0.010 A 
ATOM     79  C   UNL A   1      46.002  27.681  27.467  1.00  0.00     0.010 A 
ATOM     80  C   UNL A   1      47.877  29.743  27.255  1.00  0.00     0.020 A 
ATOM     81  C   UNL A   1      47.323  27.388  27.118  1.00  0.00     0.020 A 
ATOM     82  C   UNL A   1      48.255  28.420  27.008  1.00  0.00     0.054 A 
BRANCH  82  83
ATOM     83  S   UNL A   1      49.982  28.044  26.589  1.00  0.00     0.124 S 
ATOM     84  O   UNL A   1      49.897  26.676  26.086  1.00  0.00    -0.237 OA
ATOM     85  O   UNL A   1      50.303  29.062  25.590  1.00  0.00    -0.237 OA
ATOM     86  O   UNL A   1      50.689  28.192  27.861  1.00  0.00    -0.744 OA
ENDBRANCH  82  83
ENDBRANCH  56  77
ENDBRANCH  30  31
ENDBRANCH  23  25
ENDBRANCH  22  23
ENDBRANCH  21  22
ENDBRANCH   1  21
TORSDOF 19
ENDMDL
