MODEL 1
REMARK VINA RESULT:      -9.3      0.000      0.000
REMARK SMILES C=CCNC(=O)C[NH2+][C@](C)(C(=O)OCCOCCOC(=O)c1ccc(-c2c3nc(c(-c4ccc(S(=O)(=O)[O-])cc4)c4ccc([nH]4)c(-c4ccc(S(=O)(=O)[O-])cc4)c4nc(c(-c5ccc(S(=O)(=O)[O-])cc5)c5ccc2[nH]5)C=C4)C=C3)cc1)C(F)(F)F
REMARK SMILES IDX 15 1 14 2 13 3 11 4 12 5 9 6 10 7 8 8 7 11 5 12 4 13 6 15
REMARK SMILES IDX 3 16 2 17 1 18 82 19 83 20 84 21 85 22 16 23 17 24 18 25
REMARK SMILES IDX 19 26 20 27 21 28 22 29 23 30 81 31 24 32 80 33 25 34 26 35
REMARK SMILES IDX 27 36 74 37 28 38 79 39 73 40 75 41 29 42 78 43 72 44 71 45
REMARK SMILES IDX 30 47 60 48 41 49 59 50 42 51 45 52 58 53 76 54 43 55 44 56
REMARK SMILES IDX 57 58 77 59 46 60 31 61 32 62 40 63 33 64 39 65 34 66 35 67
REMARK SMILES IDX 36 68 37 69 38 70 61 71 62 72 70 73 63 74 69 75 64 76 65 77
REMARK SMILES IDX 66 78 67 79 68 80 47 81 48 82 56 83 49 84 55 85 50 86 51 87
REMARK SMILES IDX 52 88 53 89 54 90
REMARK H PARENT 8 9 8 10 4 14 75 46 45 57
REMARK Flexibility Score: inf
ROOT
ATOM      1  C   UNL A   1      37.015  23.296  24.524  1.00  0.00     0.202 C 
ENDROOT
BRANCH   1   2
ATOM      2  C   UNL A   1      35.836  22.496  23.962  1.00  0.00     0.261 C 
BRANCH   2   3
ATOM      3  O   UNL A   1      34.596  22.869  24.587  1.00  0.00    -0.458 OA
BRANCH   3   4
ATOM      4  C   UNL A   1      34.087  21.964  25.469  1.00  0.00     0.377 C 
ATOM      5  O   UNL A   1      34.730  21.470  26.385  1.00  0.00    -0.244 OA
BRANCH   4   6
ATOM      6  C   UNL A   1      32.649  21.562  25.107  1.00  0.00     0.287 C 
ATOM      7  C   UNL A   1      32.292  21.854  23.621  1.00  0.00     0.103 C 
BRANCH   6   8
ATOM      8  N   UNL A   1      32.490  20.075  25.290  1.00  0.00    -0.317 N 
ATOM      9  H   UNL A   1      32.714  19.845  26.258  1.00  0.00     0.347 HD
ATOM     10  H   UNL A   1      31.525  19.847  25.049  1.00  0.00     0.347 HD
BRANCH   8  11
ATOM     11  C   UNL A   1      33.356  19.271  24.408  1.00  0.00     0.363 C 
BRANCH  11  12
ATOM     12  C   UNL A   1      32.523  18.198  23.707  1.00  0.00     0.275 C 
ATOM     13  N   UNL A   1      32.398  16.970  24.293  1.00  0.00    -0.348 N 
ATOM     14  H   UNL A   1      31.893  16.299  23.779  1.00  0.00     0.163 HD
ATOM     15  O   UNL A   1      31.980  18.410  22.624  1.00  0.00    -0.268 OA
BRANCH  13  16
ATOM     16  C   UNL A   1      32.912  16.531  25.569  1.00  0.00     0.143 C 
BRANCH  16  17
ATOM     17  C   UNL A   1      34.014  15.559  25.297  1.00  0.00    -0.014 C 
ATOM     18  C   UNL A   1      35.320  15.859  25.343  1.00  0.00     0.006 C 
ENDBRANCH  16  17
ENDBRANCH  13  16
ENDBRANCH  11  12
ENDBRANCH   8  11
ENDBRANCH   6   8
BRANCH   6  19
ATOM     19  C   UNL A   1      31.760  22.497  25.973  1.00  0.00     0.455 C 
ATOM     20  F   UNL A   1      32.266  22.642  27.225  1.00  0.00    -0.164 F 
ATOM     21  F   UNL A   1      31.712  23.746  25.436  1.00  0.00    -0.164 F 
ATOM     22  F   UNL A   1      30.479  22.092  26.096  1.00  0.00    -0.164 F 
ENDBRANCH   6  19
ENDBRANCH   4   6
ENDBRANCH   3   4
ENDBRANCH   2   3
ENDBRANCH   1   2
BRANCH   1  23
ATOM     23  O   UNL A   1      37.547  22.853  25.771  1.00  0.00    -0.374 OA
BRANCH  23  24
ATOM     24  C   UNL A   1      38.508  21.798  25.752  1.00  0.00     0.202 C 
BRANCH  24  25
ATOM     25  C   UNL A   1      39.678  21.897  26.737  1.00  0.00     0.261 C 
BRANCH  25  26
ATOM     26  O   UNL A   1      40.222  20.602  27.051  1.00  0.00    -0.460 OA
BRANCH  26  27
ATOM     27  C   UNL A   1      41.365  20.299  26.393  1.00  0.00     0.338 C 
ATOM     28  O   UNL A   1      41.557  19.338  25.658  1.00  0.00    -0.246 OA
BRANCH  27  29
ATOM     29  C   UNL A   1      42.334  21.404  26.512  1.00  0.00     0.060 A 
ATOM     30  C   UNL A   1      42.744  21.762  27.804  1.00  0.00     0.016 A 
ATOM     31  C   UNL A   1      42.766  22.133  25.401  1.00  0.00     0.016 A 
ATOM     32  C   UNL A   1      43.529  22.894  27.999  1.00  0.00     0.010 A 
ATOM     33  C   UNL A   1      43.548  23.275  25.600  1.00  0.00     0.010 A 
ATOM     34  C   UNL A   1      43.890  23.686  26.903  1.00  0.00    -0.014 A 
BRANCH  34  35
ATOM     35  C   UNL A   1      44.445  25.040  27.137  1.00  0.00     0.031 A 
ATOM     36  C   UNL A   1      43.518  26.122  27.625  1.00  0.00     0.074 A 
ATOM     37  C   UNL A   1      45.752  25.297  26.959  1.00  0.00     0.049 A 
ATOM     38  N   UNL A   1      43.766  27.384  27.858  1.00  0.00    -0.248 NA
ATOM     39  C   UNL A   1      42.123  25.725  27.883  1.00  0.00     0.031 C 
ATOM     40  C   UNL A   1      46.760  24.319  26.548  1.00  0.00     0.029 A 
ATOM     41  N   UNL A   1      46.455  26.468  27.098  1.00  0.00    -0.354 N 
ATOM     42  C   UNL A   1      42.560  27.934  28.276  1.00  0.00     0.074 A 
ATOM     43  C   UNL A   1      41.575  26.876  28.241  1.00  0.00     0.031 C 
ATOM     44  C   UNL A   1      47.952  24.935  26.460  1.00  0.00     0.029 A 
ATOM     45  C   UNL A   1      47.785  26.353  26.773  1.00  0.00     0.049 A 
ATOM     46  H   UNL A   1      46.045  27.309  27.402  1.00  0.00     0.167 HD
ATOM     47  C   UNL A   1      42.295  29.206  28.658  1.00  0.00     0.031 A 
ATOM     48  C   UNL A   1      48.750  27.291  26.713  1.00  0.00     0.031 A 
ATOM     49  C   UNL A   1      43.275  30.258  28.683  1.00  0.00     0.049 A 
ATOM     50  C   UNL A   1      48.417  28.716  27.069  1.00  0.00     0.074 A 
ATOM     51  C   UNL A   1      43.109  31.580  29.057  1.00  0.00     0.029 A 
ATOM     52  N   UNL A   1      44.602  30.109  28.310  1.00  0.00    -0.354 N 
ATOM     53  N   UNL A   1      47.274  29.221  27.469  1.00  0.00    -0.248 NA
ATOM     54  C   UNL A   1      49.508  29.698  26.973  1.00  0.00     0.031 C 
ATOM     55  C   UNL A   1      44.326  32.243  28.862  1.00  0.00     0.029 A 
ATOM     56  C   UNL A   1      45.263  31.320  28.423  1.00  0.00     0.049 A 
ATOM     57  H   UNL A   1      45.014  29.267  28.009  1.00  0.00     0.167 HD
ATOM     58  C   UNL A   1      47.515  30.572  27.701  1.00  0.00     0.074 A 
ATOM     59  C   UNL A   1      48.914  30.803  27.404  1.00  0.00     0.031 C 
ATOM     60  C   UNL A   1      46.658  31.532  28.127  1.00  0.00     0.031 A 
BRANCH  47  61
ATOM     61  C   UNL A   1      40.877  29.533  29.041  1.00  0.00    -0.014 A 
ATOM     62  C   UNL A   1      39.833  29.472  28.101  1.00  0.00     0.010 A 
ATOM     63  C   UNL A   1      40.582  29.889  30.369  1.00  0.00     0.010 A 
ATOM     64  C   UNL A   1      38.526  29.804  28.472  1.00  0.00     0.020 A 
ATOM     65  C   UNL A   1      39.272  30.194  30.751  1.00  0.00     0.020 A 
ATOM     66  C   UNL A   1      38.255  30.168  29.796  1.00  0.00     0.054 A 
BRANCH  66  67
ATOM     67  S   UNL A   1      36.551  30.583  30.255  1.00  0.00     0.124 S 
ATOM     68  O   UNL A   1      36.249  29.556  31.249  1.00  0.00    -0.237 OA
ATOM     69  O   UNL A   1      36.680  31.942  30.775  1.00  0.00    -0.237 OA
ATOM     70  O   UNL A   1      35.815  30.468  28.998  1.00  0.00    -0.744 OA
ENDBRANCH  66  67
ENDBRANCH  47  61
BRANCH  48  71
ATOM     71  C   UNL A   1      50.123  26.914  26.280  1.00  0.00    -0.014 A 
ATOM     72  C   UNL A   1      50.489  26.968  24.924  1.00  0.00     0.010 A 
ATOM     73  C   UNL A   1      51.076  26.502  27.230  1.00  0.00     0.010 A 
ATOM     74  C   UNL A   1      51.780  26.606  24.525  1.00  0.00     0.020 A 
ATOM     75  C   UNL A   1      52.374  26.164  26.838  1.00  0.00     0.020 A 
ATOM     76  C   UNL A   1      52.715  26.208  25.486  1.00  0.00     0.054 A 
BRANCH  76  77
ATOM     77  S   UNL A   1      54.399  25.796  24.951  1.00  0.00     0.124 S 
ATOM     78  O   UNL A   1      54.423  26.327  23.592  1.00  0.00    -0.237 OA
ATOM     79  O   UNL A   1      55.222  26.510  25.925  1.00  0.00    -0.237 OA
ATOM     80  O   UNL A   1      54.444  24.340  25.057  1.00  0.00    -0.744 OA
ENDBRANCH  76  77
ENDBRANCH  48  71
BRANCH  60  81
ATOM     81  C   UNL A   1      47.211  32.916  28.344  1.00  0.00    -0.014 A 
ATOM     82  C   UNL A   1      47.782  33.292  29.572  1.00  0.00     0.010 A 
ATOM     83  C   UNL A   1      47.220  33.830  27.274  1.00  0.00     0.010 A 
ATOM     84  C   UNL A   1      48.327  34.568  29.736  1.00  0.00     0.020 A 
ATOM     85  C   UNL A   1      47.790  35.098  27.425  1.00  0.00     0.020 A 
ATOM     86  C   UNL A   1      48.328  35.463  28.660  1.00  0.00     0.054 A 
BRANCH  86  87
ATOM     87  S   UNL A   1      49.090  37.095  28.879  1.00  0.00     0.124 S 
ATOM     88  O   UNL A   1      48.613  37.476  30.205  1.00  0.00    -0.237 OA
ATOM     89  O   UNL A   1      50.517  36.798  28.786  1.00  0.00    -0.237 OA
ATOM     90  O   UNL A   1      48.550  37.881  27.772  1.00  0.00    -0.744 OA
ENDBRANCH  86  87
ENDBRANCH  60  81
ENDBRANCH  34  35
ENDBRANCH  27  29
ENDBRANCH  26  27
ENDBRANCH  25  26
ENDBRANCH  24  25
ENDBRANCH  23  24
ENDBRANCH   1  23
TORSDOF 23
ENDMDL
MODEL 2
REMARK VINA RESULT:      -9.2      3.048      8.702
REMARK SMILES C=CCNC(=O)C[NH2+][C@](C)(C(=O)OCCOCCOC(=O)c1ccc(-c2c3nc(c(-c4ccc(S(=O)(=O)[O-])cc4)c4ccc([nH]4)c(-c4ccc(S(=O)(=O)[O-])cc4)c4nc(c(-c5ccc(S(=O)(=O)[O-])cc5)c5ccc2[nH]5)C=C4)C=C3)cc1)C(F)(F)F
REMARK SMILES IDX 15 1 14 2 13 3 11 4 12 5 9 6 10 7 8 8 7 11 5 12 4 13 6 15
REMARK SMILES IDX 3 16 2 17 1 18 82 19 83 20 84 21 85 22 16 23 17 24 18 25
REMARK SMILES IDX 19 26 20 27 21 28 22 29 23 30 81 31 24 32 80 33 25 34 26 35
REMARK SMILES IDX 27 36 74 37 28 38 79 39 73 40 75 41 29 42 78 43 72 44 71 45
REMARK SMILES IDX 30 47 60 48 41 49 59 50 42 51 45 52 58 53 76 54 43 55 44 56
REMARK SMILES IDX 57 58 77 59 46 60 31 61 32 62 40 63 33 64 39 65 34 66 35 67
REMARK SMILES IDX 36 68 37 69 38 70 61 71 62 72 70 73 63 74 69 75 64 76 65 77
REMARK SMILES IDX 66 78 67 79 68 80 47 81 48 82 56 83 49 84 55 85 50 86 51 87
REMARK SMILES IDX 52 88 53 89 54 90
REMARK H PARENT 8 9 8 10 4 14 75 46 45 57
REMARK Flexibility Score: inf
ROOT
ATOM      1  C   UNL A   1      33.679  29.602  27.150  1.00  0.00     0.202 C 
ENDROOT
BRANCH   1   2
ATOM      2  C   UNL A   1      32.370  28.813  27.239  1.00  0.00     0.261 C 
BRANCH   2   3
ATOM      3  O   UNL A   1      31.742  28.680  25.952  1.00  0.00    -0.458 OA
BRANCH   3   4
ATOM      4  C   UNL A   1      31.274  27.435  25.652  1.00  0.00     0.377 C 
ATOM      5  O   UNL A   1      30.781  26.676  26.475  1.00  0.00    -0.244 OA
BRANCH   4   6
ATOM      6  C   UNL A   1      31.541  27.065  24.185  1.00  0.00     0.287 C 
ATOM      7  C   UNL A   1      32.651  27.936  23.530  1.00  0.00     0.103 C 
BRANCH   6   8
ATOM      8  N   UNL A   1      32.032  25.642  24.115  1.00  0.00    -0.317 N 
ATOM      9  H   UNL A   1      31.455  25.073  24.734  1.00  0.00     0.347 HD
ATOM     10  H   UNL A   1      31.962  25.351  23.140  1.00  0.00     0.347 HD
BRANCH   8  11
ATOM     11  C   UNL A   1      33.443  25.479  24.514  1.00  0.00     0.363 C 
BRANCH  11  12
ATOM     12  C   UNL A   1      34.168  24.603  23.493  1.00  0.00     0.275 C 
ATOM     13  N   UNL A   1      35.186  23.797  23.917  1.00  0.00    -0.348 N 
ATOM     14  H   UNL A   1      35.653  23.290  23.214  1.00  0.00     0.163 HD
ATOM     15  O   UNL A   1      33.867  24.621  22.300  1.00  0.00    -0.268 OA
BRANCH  13  16
ATOM     16  C   UNL A   1      35.664  23.594  25.264  1.00  0.00     0.143 C 
BRANCH  16  17
ATOM     17  C   UNL A   1      37.149  23.757  25.241  1.00  0.00    -0.014 C 
ATOM     18  C   UNL A   1      37.912  23.918  26.332  1.00  0.00     0.006 C 
ENDBRANCH  16  17
ENDBRANCH  13  16
ENDBRANCH  11  12
ENDBRANCH   8  11
ENDBRANCH   6   8
BRANCH   6  19
ATOM     19  C   UNL A   1      30.213  27.409  23.456  1.00  0.00     0.455 C 
ATOM     20  F   UNL A   1      29.866  28.708  23.645  1.00  0.00    -0.164 F 
ATOM     21  F   UNL A   1      30.346  27.242  22.113  1.00  0.00    -0.164 F 
ATOM     22  F   UNL A   1      29.161  26.649  23.825  1.00  0.00    -0.164 F 
ENDBRANCH   6  19
ENDBRANCH   4   6
ENDBRANCH   3   4
ENDBRANCH   2   3
ENDBRANCH   1   2
BRANCH   1  23
ATOM     23  O   UNL A   1      33.600  30.999  27.425  1.00  0.00    -0.374 OA
BRANCH  23  24
ATOM     24  C   UNL A   1      34.795  31.672  27.819  1.00  0.00     0.202 C 
BRANCH  24  25
ATOM     25  C   UNL A   1      35.133  31.685  29.313  1.00  0.00     0.261 C 
BRANCH  25  26
ATOM     26  O   UNL A   1      36.539  31.892  29.542  1.00  0.00    -0.460 OA
BRANCH  26  27
ATOM     27  C   UNL A   1      37.062  31.139  30.537  1.00  0.00     0.338 C 
ATOM     28  O   UNL A   1      36.617  31.009  31.671  1.00  0.00    -0.246 OA
BRANCH  27  29
ATOM     29  C   UNL A   1      38.167  30.308  30.026  1.00  0.00     0.060 A 
ATOM     30  C   UNL A   1      39.048  29.761  30.969  1.00  0.00     0.016 A 
ATOM     31  C   UNL A   1      38.392  30.135  28.658  1.00  0.00     0.016 A 
ATOM     32  C   UNL A   1      40.199  29.102  30.549  1.00  0.00     0.010 A 
ATOM     33  C   UNL A   1      39.555  29.480  28.238  1.00  0.00     0.010 A 
ATOM     34  C   UNL A   1      40.485  29.006  29.183  1.00  0.00    -0.014 A 
BRANCH  34  35
ATOM     35  C   UNL A   1      41.842  28.594  28.752  1.00  0.00     0.031 A 
ATOM     36  C   UNL A   1      42.935  29.630  28.735  1.00  0.00     0.074 A 
ATOM     37  C   UNL A   1      42.110  27.320  28.419  1.00  0.00     0.049 A 
ATOM     38  N   UNL A   1      44.182  29.514  28.358  1.00  0.00    -0.248 NA
ATOM     39  C   UNL A   1      42.571  30.977  29.206  1.00  0.00     0.031 C 
ATOM     40  C   UNL A   1      41.152  26.216  28.453  1.00  0.00     0.029 A 
ATOM     41  N   UNL A   1      43.275  26.743  27.980  1.00  0.00    -0.354 N 
ATOM     42  C   UNL A   1      44.746  30.772  28.534  1.00  0.00     0.074 A 
ATOM     43  C   UNL A   1      43.701  31.643  29.026  1.00  0.00     0.031 C 
ATOM     44  C   UNL A   1      41.768  25.093  28.043  1.00  0.00     0.029 A 
ATOM     45  C   UNL A   1      43.150  25.407  27.684  1.00  0.00     0.049 A 
ATOM     46  H   UNL A   1      44.120  27.239  27.887  1.00  0.00     0.167 HD
ATOM     47  C   UNL A   1      46.021  31.169  28.308  1.00  0.00     0.031 A 
ATOM     48  C   UNL A   1      44.044  24.543  27.162  1.00  0.00     0.031 A 
ATOM     49  C   UNL A   1      47.055  30.303  27.808  1.00  0.00     0.049 A 
ATOM     50  C   UNL A   1      45.436  25.023  26.847  1.00  0.00     0.074 A 
ATOM     51  C   UNL A   1      48.380  30.606  27.549  1.00  0.00     0.029 A 
ATOM     52  N   UNL A   1      46.878  28.966  27.486  1.00  0.00    -0.354 N 
ATOM     53  N   UNL A   1      45.958  26.214  27.023  1.00  0.00    -0.248 NA
ATOM     54  C   UNL A   1      46.363  24.039  26.267  1.00  0.00     0.031 C 
ATOM     55  C   UNL A   1      48.992  29.464  27.020  1.00  0.00     0.029 A 
ATOM     56  C   UNL A   1      48.063  28.434  27.008  1.00  0.00     0.049 A 
ATOM     57  H   UNL A   1      46.034  28.468  27.582  1.00  0.00     0.167 HD
ATOM     58  C   UNL A   1      47.281  26.114  26.606  1.00  0.00     0.074 A 
ATOM     59  C   UNL A   1      47.482  24.746  26.175  1.00  0.00     0.031 C 
ATOM     60  C   UNL A   1      48.246  27.068  26.587  1.00  0.00     0.031 A 
BRANCH  47  61
ATOM     61  C   UNL A   1      46.353  32.615  28.562  1.00  0.00    -0.014 A 
ATOM     62  C   UNL A   1      46.861  33.041  29.802  1.00  0.00     0.010 A 
ATOM     63  C   UNL A   1      46.172  33.558  27.535  1.00  0.00     0.010 A 
ATOM     64  C   UNL A   1      47.140  34.393  30.025  1.00  0.00     0.020 A 
ATOM     65  C   UNL A   1      46.477  34.906  27.745  1.00  0.00     0.020 A 
ATOM     66  C   UNL A   1      46.941  35.318  28.995  1.00  0.00     0.054 A 
BRANCH  66  67
ATOM     67  S   UNL A   1      47.321  37.064  29.305  1.00  0.00     0.124 S 
ATOM     68  O   UNL A   1      47.562  37.068  30.746  1.00  0.00    -0.237 OA
ATOM     69  O   UNL A   1      48.499  37.290  28.472  1.00  0.00    -0.237 OA
ATOM     70  O   UNL A   1      46.114  37.764  28.875  1.00  0.00    -0.744 OA
ENDBRANCH  66  67
ENDBRANCH  47  61
BRANCH  48  71
ATOM     71  C   UNL A   1      43.641  23.137  26.888  1.00  0.00    -0.014 A 
ATOM     72  C   UNL A   1      43.952  22.527  25.661  1.00  0.00     0.010 A 
ATOM     73  C   UNL A   1      42.943  22.399  27.862  1.00  0.00     0.010 A 
ATOM     74  C   UNL A   1      43.564  21.207  25.408  1.00  0.00     0.020 A 
ATOM     75  C   UNL A   1      42.576  21.072  27.624  1.00  0.00     0.020 A 
ATOM     76  C   UNL A   1      42.880  20.487  26.394  1.00  0.00     0.054 A 
BRANCH  76  77
ATOM     77  S   UNL A   1      42.436  18.759  26.065  1.00  0.00     0.124 S 
ATOM     78  O   UNL A   1      41.018  18.868  25.736  1.00  0.00    -0.237 OA
ATOM     79  O   UNL A   1      43.319  18.412  24.955  1.00  0.00    -0.237 OA
ATOM     80  O   UNL A   1      42.737  18.084  27.325  1.00  0.00    -0.744 OA
ENDBRANCH  76  77
ENDBRANCH  48  71
BRANCH  60  81
ATOM     81  C   UNL A   1      49.621  26.661  26.126  1.00  0.00    -0.014 A 
ATOM     82  C   UNL A   1      50.045  26.883  24.805  1.00  0.00     0.010 A 
ATOM     83  C   UNL A   1      50.524  26.111  27.055  1.00  0.00     0.010 A 
ATOM     84  C   UNL A   1      51.341  26.536  24.412  1.00  0.00     0.020 A 
ATOM     85  C   UNL A   1      51.829  25.788  26.673  1.00  0.00     0.020 A 
ATOM     86  C   UNL A   1      52.225  25.991  25.350  1.00  0.00     0.054 A 
BRANCH  86  87
ATOM     87  S   UNL A   1      53.918  25.598  24.831  1.00  0.00     0.124 S 
ATOM     88  O   UNL A   1      54.714  26.346  25.799  1.00  0.00    -0.237 OA
ATOM     89  O   UNL A   1      53.966  24.144  24.967  1.00  0.00    -0.237 OA
ATOM     90  O   UNL A   1      53.983  26.091  23.457  1.00  0.00    -0.744 OA
ENDBRANCH  86  87
ENDBRANCH  60  81
ENDBRANCH  34  35
ENDBRANCH  27  29
ENDBRANCH  26  27
ENDBRANCH  25  26
ENDBRANCH  24  25
ENDBRANCH  23  24
ENDBRANCH   1  23
TORSDOF 23
ENDMDL
MODEL 3
REMARK VINA RESULT:      -8.7      4.163      9.403
REMARK SMILES C=CCNC(=O)C[NH2+][C@](C)(C(=O)OCCOCCOC(=O)c1ccc(-c2c3nc(c(-c4ccc(S(=O)(=O)[O-])cc4)c4ccc([nH]4)c(-c4ccc(S(=O)(=O)[O-])cc4)c4nc(c(-c5ccc(S(=O)(=O)[O-])cc5)c5ccc2[nH]5)C=C4)C=C3)cc1)C(F)(F)F
REMARK SMILES IDX 15 1 14 2 13 3 11 4 12 5 9 6 10 7 8 8 7 11 5 12 4 13 6 15
REMARK SMILES IDX 3 16 2 17 1 18 82 19 83 20 84 21 85 22 16 23 17 24 18 25
REMARK SMILES IDX 19 26 20 27 21 28 22 29 23 30 81 31 24 32 80 33 25 34 26 35
REMARK SMILES IDX 27 36 74 37 28 38 79 39 73 40 75 41 29 42 78 43 72 44 71 45
REMARK SMILES IDX 30 47 60 48 41 49 59 50 42 51 45 52 58 53 76 54 43 55 44 56
REMARK SMILES IDX 57 58 77 59 46 60 31 61 32 62 40 63 33 64 39 65 34 66 35 67
REMARK SMILES IDX 36 68 37 69 38 70 61 71 62 72 70 73 63 74 69 75 64 76 65 77
REMARK SMILES IDX 66 78 67 79 68 80 47 81 48 82 56 83 49 84 55 85 50 86 51 87
REMARK SMILES IDX 52 88 53 89 54 90
REMARK H PARENT 8 9 8 10 4 14 75 46 45 57
REMARK Flexibility Score: inf
ROOT
ATOM      1  C   UNL A   1      31.484  27.554  26.856  1.00  0.00     0.202 C 
ENDROOT
BRANCH   1   2
ATOM      2  C   UNL A   1      31.444  26.075  26.462  1.00  0.00     0.261 C 
BRANCH   2   3
ATOM      3  O   UNL A   1      31.872  25.876  25.104  1.00  0.00    -0.458 OA
BRANCH   3   4
ATOM      4  C   UNL A   1      33.111  25.326  24.952  1.00  0.00     0.377 C 
ATOM      5  O   UNL A   1      34.052  25.551  25.701  1.00  0.00    -0.244 OA
BRANCH   4   6
ATOM      6  C   UNL A   1      33.206  24.482  23.672  1.00  0.00     0.287 C 
ATOM      7  C   UNL A   1      31.818  24.178  23.039  1.00  0.00     0.103 C 
BRANCH   6   8
ATOM      8  N   UNL A   1      33.980  25.249  22.632  1.00  0.00    -0.317 N 
ATOM      9  H   UNL A   1      34.649  25.853  23.109  1.00  0.00     0.347 HD
ATOM     10  H   UNL A   1      34.436  24.560  22.033  1.00  0.00     0.347 HD
BRANCH   8  11
ATOM     11  C   UNL A   1      33.136  26.086  21.759  1.00  0.00     0.363 C 
BRANCH  11  12
ATOM     12  C   UNL A   1      33.021  27.491  22.349  1.00  0.00     0.275 C 
ATOM     13  N   UNL A   1      31.781  28.047  22.498  1.00  0.00    -0.348 N 
ATOM     14  H   UNL A   1      31.763  28.971  22.836  1.00  0.00     0.163 HD
ATOM     15  O   UNL A   1      34.016  28.137  22.674  1.00  0.00    -0.268 OA
BRANCH  13  16
ATOM     16  C   UNL A   1      30.495  27.451  22.224  1.00  0.00     0.143 C 
BRANCH  16  17
ATOM     17  C   UNL A   1      29.603  27.757  23.383  1.00  0.00    -0.014 C 
ATOM     18  C   UNL A   1      28.603  26.969  23.800  1.00  0.00     0.006 C 
ENDBRANCH  16  17
ENDBRANCH  13  16
ENDBRANCH  11  12
ENDBRANCH   8  11
ENDBRANCH   6   8
BRANCH   6  19
ATOM     19  C   UNL A   1      33.787  23.123  24.152  1.00  0.00     0.455 C 
ATOM     20  F   UNL A   1      33.510  22.128  23.271  1.00  0.00    -0.164 F 
ATOM     21  F   UNL A   1      35.142  23.186  24.241  1.00  0.00    -0.164 F 
ATOM     22  F   UNL A   1      33.349  22.728  25.365  1.00  0.00    -0.164 F 
ENDBRANCH   6  19
ENDBRANCH   4   6
ENDBRANCH   3   4
ENDBRANCH   2   3
ENDBRANCH   1   2
BRANCH   1  23
ATOM     23  O   UNL A   1      31.723  28.487  25.804  1.00  0.00    -0.374 OA
BRANCH  23  24
ATOM     24  C   UNL A   1      33.006  29.109  25.739  1.00  0.00     0.202 C 
BRANCH  24  25
ATOM     25  C   UNL A   1      33.947  28.902  26.931  1.00  0.00     0.261 C 
BRANCH  25  26
ATOM     26  O   UNL A   1      33.658  29.815  28.005  1.00  0.00    -0.460 OA
BRANCH  26  27
ATOM     27  C   UNL A   1      34.613  30.750  28.219  1.00  0.00     0.338 C 
ATOM     28  O   UNL A   1      34.438  31.938  28.459  1.00  0.00    -0.246 OA
BRANCH  27  29
ATOM     29  C   UNL A   1      35.939  30.114  28.324  1.00  0.00     0.060 A 
ATOM     30  C   UNL A   1      36.300  29.584  29.571  1.00  0.00     0.016 A 
ATOM     31  C   UNL A   1      36.845  30.110  27.261  1.00  0.00     0.016 A 
ATOM     32  C   UNL A   1      37.592  29.114  29.783  1.00  0.00     0.010 A 
ATOM     33  C   UNL A   1      38.147  29.645  27.479  1.00  0.00     0.010 A 
ATOM     34  C   UNL A   1      38.536  29.192  28.753  1.00  0.00    -0.014 A 
BRANCH  34  35
ATOM     35  C   UNL A   1      39.971  28.993  29.067  1.00  0.00     0.031 A 
ATOM     36  C   UNL A   1      40.602  27.667  28.732  1.00  0.00     0.074 A 
ATOM     37  C   UNL A   1      40.710  29.979  29.604  1.00  0.00     0.049 A 
ATOM     38  N   UNL A   1      41.822  27.250  28.951  1.00  0.00    -0.248 NA
ATOM     39  C   UNL A   1      39.740  26.680  28.060  1.00  0.00     0.031 C 
ATOM     40  C   UNL A   1      40.229  31.324  29.917  1.00  0.00     0.029 A 
ATOM     41  N   UNL A   1      42.029  29.995  29.984  1.00  0.00    -0.354 N 
ATOM     42  C   UNL A   1      41.870  25.951  28.457  1.00  0.00     0.074 A 
ATOM     43  C   UNL A   1      40.551  25.639  27.951  1.00  0.00     0.031 C 
ATOM     44  C   UNL A   1      41.239  32.033  30.452  1.00  0.00     0.029 A 
ATOM     45  C   UNL A   1      42.424  31.183  30.550  1.00  0.00     0.049 A 
ATOM     46  H   UNL A   1      42.634  29.228  29.863  1.00  0.00     0.167 HD
ATOM     47  C   UNL A   1      42.918  25.094  28.426  1.00  0.00     0.031 A 
ATOM     48  C   UNL A   1      43.601  31.535  31.104  1.00  0.00     0.031 A 
ATOM     49  C   UNL A   1      44.225  25.404  28.939  1.00  0.00     0.049 A 
ATOM     50  C   UNL A   1      44.731  30.540  31.128  1.00  0.00     0.074 A 
ATOM     51  C   UNL A   1      45.356  24.607  28.952  1.00  0.00     0.029 A 
ATOM     52  N   UNL A   1      44.573  26.605  29.539  1.00  0.00    -0.354 N 
ATOM     53  N   UNL A   1      44.765  29.318  30.652  1.00  0.00    -0.248 NA
ATOM     54  C   UNL A   1      45.987  30.976  31.757  1.00  0.00     0.031 C 
ATOM     55  C   UNL A   1      46.375  25.308  29.606  1.00  0.00     0.029 A 
ATOM     56  C   UNL A   1      45.895  26.564  29.946  1.00  0.00     0.049 A 
ATOM     57  H   UNL A   1      43.969  27.374  29.657  1.00  0.00     0.167 HD
ATOM     58  C   UNL A   1      46.052  28.850  30.896  1.00  0.00     0.074 A 
ATOM     59  C   UNL A   1      46.769  29.923  31.555  1.00  0.00     0.031 C 
ATOM     60  C   UNL A   1      46.595  27.643  30.597  1.00  0.00     0.031 A 
BRANCH  47  61
ATOM     61  C   UNL A   1      42.676  23.725  27.850  1.00  0.00    -0.014 A 
ATOM     62  C   UNL A   1      42.294  22.645  28.667  1.00  0.00     0.010 A 
ATOM     63  C   UNL A   1      42.815  23.520  26.466  1.00  0.00     0.010 A 
ATOM     64  C   UNL A   1      42.097  21.376  28.116  1.00  0.00     0.020 A 
ATOM     65  C   UNL A   1      42.592  22.258  25.907  1.00  0.00     0.020 A 
ATOM     66  C   UNL A   1      42.253  21.190  26.738  1.00  0.00     0.054 A 
BRANCH  66  67
ATOM     67  S   UNL A   1      41.983  19.535  26.045  1.00  0.00     0.124 S 
ATOM     68  O   UNL A   1      40.555  19.567  25.741  1.00  0.00    -0.237 OA
ATOM     69  O   UNL A   1      42.872  19.523  24.886  1.00  0.00    -0.237 OA
ATOM     70  O   UNL A   1      42.368  18.637  27.131  1.00  0.00    -0.744 OA
ENDBRANCH  66  67
ENDBRANCH  47  61
BRANCH  48  71
ATOM     71  C   UNL A   1      43.763  32.888  31.701  1.00  0.00    -0.014 A 
ATOM     72  C   UNL A   1      44.258  33.957  30.936  1.00  0.00     0.010 A 
ATOM     73  C   UNL A   1      43.414  33.114  33.046  1.00  0.00     0.010 A 
ATOM     74  C   UNL A   1      44.413  35.225  31.506  1.00  0.00     0.020 A 
ATOM     75  C   UNL A   1      43.543  34.384  33.613  1.00  0.00     0.020 A 
ATOM     76  C   UNL A   1      44.052  35.430  32.842  1.00  0.00     0.054 A 
BRANCH  76  77
ATOM     77  S   UNL A   1      44.209  37.096  33.545  1.00  0.00     0.124 S 
ATOM     78  O   UNL A   1      43.854  37.939  32.409  1.00  0.00    -0.237 OA
ATOM     79  O   UNL A   1      43.243  37.067  34.641  1.00  0.00    -0.237 OA
ATOM     80  O   UNL A   1      45.608  37.159  33.961  1.00  0.00    -0.744 OA
ENDBRANCH  76  77
ENDBRANCH  48  71
BRANCH  60  81
ATOM     81  C   UNL A   1      48.046  27.426  30.937  1.00  0.00    -0.014 A 
ATOM     82  C   UNL A   1      49.063  27.695  30.005  1.00  0.00     0.010 A 
ATOM     83  C   UNL A   1      48.396  27.012  32.235  1.00  0.00     0.010 A 
ATOM     84  C   UNL A   1      50.405  27.526  30.357  1.00  0.00     0.020 A 
ATOM     85  C   UNL A   1      49.737  26.869  32.600  1.00  0.00     0.020 A 
ATOM     86  C   UNL A   1      50.733  27.115  31.653  1.00  0.00     0.054 A 
BRANCH  86  87
ATOM     87  S   UNL A   1      52.483  26.954  32.104  1.00  0.00     0.124 S 
ATOM     88  O   UNL A   1      52.418  26.912  33.562  1.00  0.00    -0.237 OA
ATOM     89  O   UNL A   1      52.868  25.702  31.455  1.00  0.00    -0.237 OA
ATOM     90  O   UNL A   1      53.098  28.154  31.541  1.00  0.00    -0.744 OA
ENDBRANCH  86  87
ENDBRANCH  60  81
ENDBRANCH  34  35
ENDBRANCH  27  29
ENDBRANCH  26  27
ENDBRANCH  25  26
ENDBRANCH  24  25
ENDBRANCH  23  24
ENDBRANCH   1  23
TORSDOF 23
ENDMDL
