MODEL 1
REMARK VINA RESULT:     -12.3      0.000      0.000
REMARK SMILES Cc1ccccc1OC1(C(=O)OCCOCCOC(=O)c2ccc(-c3c4nc(c(-c5ccc(S(=O)(=O)[O-])cc5)c5ccc([nH]5)c(-c5ccc(S(=O)(=O)[O-])cc5)c5nc(c(-c6ccc(S(=O)(=O)[O-])cc6)c6ccc3[nH]6)C=C5)C=C4)cc2)CCN(C(=O)[C@H]2CCCCO2)CC1
REMARK SMILES IDX 16 1 15 2 14 3 13 4 12 5 10 6 11 7 9 8 81 9 93 10 82 11
REMARK SMILES IDX 92 12 83 13 84 14 85 15 8 16 7 17 1 18 2 19 3 20 4 21 6 22
REMARK SMILES IDX 5 23 86 24 87 25 91 26 88 27 90 28 89 29 17 30 18 31 19 32
REMARK SMILES IDX 20 33 21 34 22 35 80 36 23 37 79 38 24 39 25 40 26 41 73 42
REMARK SMILES IDX 27 43 78 44 72 45 74 46 28 47 77 48 71 49 70 50 29 52 59 53
REMARK SMILES IDX 40 54 58 55 41 56 44 57 57 58 75 59 42 60 43 61 56 63 76 64
REMARK SMILES IDX 45 65 30 66 31 67 39 68 32 69 38 70 33 71 34 72 35 73 36 74
REMARK SMILES IDX 37 75 60 76 61 77 69 78 62 79 68 80 63 81 64 82 65 83 66 84
REMARK SMILES IDX 67 85 46 86 47 87 55 88 48 89 54 90 49 91 50 92 51 93 52 94
REMARK SMILES IDX 53 95
REMARK H PARENT 74 51 44 62
REMARK Flexibility Score: inf
ROOT
ATOM      1  C   UNL A   1      32.103  26.900  26.095  1.00  0.00     0.202 C 
ENDROOT
BRANCH   1   2
ATOM      2  O   UNL A   1      30.762  26.661  25.720  1.00  0.00    -0.374 OA
BRANCH   2   3
ATOM      3  C   UNL A   1      30.310  25.316  25.800  1.00  0.00     0.202 C 
BRANCH   3   4
ATOM      4  C   UNL A   1      31.450  24.510  26.380  1.00  0.00     0.261 C 
BRANCH   4   5
ATOM      5  O   UNL A   1      31.921  23.433  25.526  1.00  0.00    -0.460 OA
BRANCH   5   6
ATOM      6  C   UNL A   1      31.445  22.153  25.598  1.00  0.00     0.350 C 
ATOM      7  O   UNL A   1      30.307  21.834  25.907  1.00  0.00    -0.247 OA
BRANCH   6   8
ATOM      8  C   UNL A   1      32.607  21.167  25.238  1.00  0.00     0.209 C 
ATOM      9  C   UNL A   1      33.184  21.711  23.925  1.00  0.00     0.082 C 
ATOM     10  C   UNL A   1      33.514  21.102  26.476  1.00  0.00     0.082 C 
ATOM     11  C   UNL A   1      34.295  22.730  24.134  1.00  0.00     0.124 C 
ATOM     12  C   UNL A   1      34.793  21.939  26.435  1.00  0.00     0.124 C 
ATOM     13  N   UNL A   1      35.286  22.275  25.100  1.00  0.00    -0.340 N 
ATOM     14  C   UNL A   1      36.632  22.423  24.754  1.00  0.00     0.251 C 
ATOM     15  O   UNL A   1      36.961  22.819  23.631  1.00  0.00    -0.272 OA
BRANCH   8  16
ATOM     16  O   UNL A   1      31.962  19.895  25.007  1.00  0.00    -0.475 OA
BRANCH  16  17
ATOM     17  C   UNL A   1      32.513  18.698  24.637  1.00  0.00     0.123 A 
ATOM     18  C   UNL A   1      32.438  18.658  22.030  1.00  0.00     0.048 C 
ATOM     19  C   UNL A   1      32.744  18.104  23.383  1.00  0.00    -0.009 A 
ATOM     20  C   UNL A   1      33.259  16.784  23.328  1.00  0.00     0.007 A 
ATOM     21  C   UNL A   1      33.575  16.066  24.472  1.00  0.00     0.001 A 
ATOM     22  C   UNL A   1      32.849  17.948  25.782  1.00  0.00     0.047 A 
ATOM     23  C   UNL A   1      33.377  16.655  25.708  1.00  0.00     0.004 A 
ENDBRANCH  16  17
ENDBRANCH   8  16
BRANCH  14  24
ATOM     24  C   UNL A   1      37.711  22.016  25.782  1.00  0.00     0.207 C 
ATOM     25  C   UNL A   1      38.486  20.817  25.218  1.00  0.00     0.042 C 
ATOM     26  O   UNL A   1      38.594  23.127  25.994  1.00  0.00    -0.368 OA
ATOM     27  C   UNL A   1      39.723  20.491  26.045  1.00  0.00     0.006 C 
ATOM     28  C   UNL A   1      39.666  22.834  26.880  1.00  0.00     0.161 C 
ATOM     29  C   UNL A   1      40.547  21.746  26.289  1.00  0.00     0.029 C 
ENDBRANCH  14  24
ENDBRANCH   6   8
ENDBRANCH   5   6
ENDBRANCH   4   5
ENDBRANCH   3   4
ENDBRANCH   2   3
ENDBRANCH   1   2
BRANCH   1  30
ATOM     30  C   UNL A   1      32.258  28.003  27.146  1.00  0.00     0.261 C 
BRANCH  30  31
ATOM     31  O   UNL A   1      33.643  28.363  27.317  1.00  0.00    -0.460 OA
BRANCH  31  32
ATOM     32  C   UNL A   1      33.871  29.692  27.519  1.00  0.00     0.338 C 
ATOM     33  O   UNL A   1      33.020  30.556  27.385  1.00  0.00    -0.246 OA
BRANCH  32  34
ATOM     34  C   UNL A   1      35.278  29.916  27.948  1.00  0.00     0.060 A 
ATOM     35  C   UNL A   1      36.306  30.099  27.009  1.00  0.00     0.016 A 
ATOM     36  C   UNL A   1      35.593  29.773  29.299  1.00  0.00     0.016 A 
ATOM     37  C   UNL A   1      37.654  30.036  27.412  1.00  0.00     0.010 A 
ATOM     38  C   UNL A   1      36.912  29.623  29.673  1.00  0.00     0.010 A 
ATOM     39  C   UNL A   1      37.957  29.745  28.743  1.00  0.00    -0.014 A 
BRANCH  39  40
ATOM     40  C   UNL A   1      39.283  29.472  29.310  1.00  0.00     0.031 A 
ATOM     41  C   UNL A   1      39.909  28.144  29.064  1.00  0.00     0.074 A 
ATOM     42  C   UNL A   1      40.065  30.477  29.775  1.00  0.00     0.049 A 
ATOM     43  N   UNL A   1      41.032  27.773  29.579  1.00  0.00    -0.248 NA
ATOM     44  C   UNL A   1      39.300  27.089  28.248  1.00  0.00     0.031 C 
ATOM     45  C   UNL A   1      41.527  30.527  29.805  1.00  0.00     0.029 A 
ATOM     46  N   UNL A   1      39.694  31.671  30.397  1.00  0.00    -0.354 N 
ATOM     47  C   UNL A   1      41.455  26.661  28.893  1.00  0.00     0.074 A 
ATOM     48  C   UNL A   1      40.291  26.193  28.186  1.00  0.00     0.031 C 
ATOM     49  C   UNL A   1      41.926  31.527  30.606  1.00  0.00     0.029 A 
ATOM     50  C   UNL A   1      40.739  32.074  31.239  1.00  0.00     0.049 A 
ATOM     51  H   UNL A   1      38.843  32.147  30.266  1.00  0.00     0.167 HD
ATOM     52  C   UNL A   1      42.782  26.358  28.894  1.00  0.00     0.031 A 
ATOM     53  C   UNL A   1      40.546  32.253  32.575  1.00  0.00     0.031 A 
ATOM     54  C   UNL A   1      43.516  27.167  29.875  1.00  0.00     0.049 A 
ATOM     55  C   UNL A   1      41.378  31.265  33.347  1.00  0.00     0.074 A 
ATOM     56  C   UNL A   1      44.453  28.179  29.775  1.00  0.00     0.029 A 
ATOM     57  N   UNL A   1      43.095  27.154  31.206  1.00  0.00    -0.354 N 
ATOM     58  N   UNL A   1      41.877  30.195  32.790  1.00  0.00    -0.248 NA
ATOM     59  C   UNL A   1      41.774  31.397  34.744  1.00  0.00     0.031 C 
ATOM     60  C   UNL A   1      44.504  28.849  31.033  1.00  0.00     0.029 A 
ATOM     61  C   UNL A   1      43.639  28.209  31.911  1.00  0.00     0.049 A 
ATOM     62  H   UNL A   1      42.490  26.480  31.592  1.00  0.00     0.167 HD
ATOM     63  C   UNL A   1      42.661  29.531  33.675  1.00  0.00     0.074 A 
ATOM     64  C   UNL A   1      42.549  30.306  34.900  1.00  0.00     0.031 C 
ATOM     65  C   UNL A   1      43.334  28.398  33.327  1.00  0.00     0.031 A 
BRANCH  52  66
ATOM     66  C   UNL A   1      43.456  25.453  27.880  1.00  0.00    -0.014 A 
ATOM     67  C   UNL A   1      43.727  25.933  26.581  1.00  0.00     0.010 A 
ATOM     68  C   UNL A   1      43.762  24.094  28.107  1.00  0.00     0.010 A 
ATOM     69  C   UNL A   1      44.284  25.113  25.582  1.00  0.00     0.020 A 
ATOM     70  C   UNL A   1      44.350  23.274  27.131  1.00  0.00     0.020 A 
ATOM     71  C   UNL A   1      44.600  23.786  25.867  1.00  0.00     0.054 A 
BRANCH  71  72
ATOM     72  S   UNL A   1      45.320  22.736  24.578  1.00  0.00     0.124 S 
ATOM     73  O   UNL A   1      44.145  22.327  23.814  1.00  0.00    -0.237 OA
ATOM     74  O   UNL A   1      46.232  23.649  23.893  1.00  0.00    -0.237 OA
ATOM     75  O   UNL A   1      45.973  21.662  25.327  1.00  0.00    -0.744 OA
ENDBRANCH  71  72
ENDBRANCH  52  66
BRANCH  53  76
ATOM     76  C   UNL A   1      39.202  32.821  32.906  1.00  0.00    -0.014 A 
ATOM     77  C   UNL A   1      38.906  34.095  32.369  1.00  0.00     0.010 A 
ATOM     78  C   UNL A   1      38.128  31.975  33.240  1.00  0.00     0.010 A 
ATOM     79  C   UNL A   1      37.596  34.443  32.010  1.00  0.00     0.020 A 
ATOM     80  C   UNL A   1      36.813  32.319  32.872  1.00  0.00     0.020 A 
ATOM     81  C   UNL A   1      36.565  33.525  32.208  1.00  0.00     0.054 A 
BRANCH  81  82
ATOM     82  S   UNL A   1      34.980  33.780  31.333  1.00  0.00     0.124 S 
ATOM     83  O   UNL A   1      34.314  34.768  32.172  1.00  0.00    -0.237 OA
ATOM     84  O   UNL A   1      35.403  34.254  30.015  1.00  0.00    -0.237 OA
ATOM     85  O   UNL A   1      34.390  32.444  31.324  1.00  0.00    -0.744 OA
ENDBRANCH  81  82
ENDBRANCH  53  76
BRANCH  65  86
ATOM     86  C   UNL A   1      43.815  27.391  34.329  1.00  0.00    -0.014 A 
ATOM     87  C   UNL A   1      42.955  26.470  34.951  1.00  0.00     0.010 A 
ATOM     88  C   UNL A   1      45.202  27.231  34.539  1.00  0.00     0.010 A 
ATOM     89  C   UNL A   1      43.447  25.487  35.810  1.00  0.00     0.020 A 
ATOM     90  C   UNL A   1      45.707  26.218  35.355  1.00  0.00     0.020 A 
ATOM     91  C   UNL A   1      44.820  25.372  36.013  1.00  0.00     0.054 A 
BRANCH  91  92
ATOM     92  S   UNL A   1      45.442  24.070  37.100  1.00  0.00     0.124 S 
ATOM     93  O   UNL A   1      44.962  22.867  36.424  1.00  0.00    -0.237 OA
ATOM     94  O   UNL A   1      46.888  24.273  37.060  1.00  0.00    -0.237 OA
ATOM     95  O   UNL A   1      44.812  24.364  38.384  1.00  0.00    -0.744 OA
ENDBRANCH  91  92
ENDBRANCH  65  86
ENDBRANCH  39  40
ENDBRANCH  32  34
ENDBRANCH  31  32
ENDBRANCH  30  31
ENDBRANCH   1  30
TORSDOF 20
ENDMDL
MODEL 2
REMARK VINA RESULT:     -12.1      1.649      4.009
REMARK SMILES Cc1ccccc1OC1(C(=O)OCCOCCOC(=O)c2ccc(-c3c4nc(c(-c5ccc(S(=O)(=O)[O-])cc5)c5ccc([nH]5)c(-c5ccc(S(=O)(=O)[O-])cc5)c5nc(c(-c6ccc(S(=O)(=O)[O-])cc6)c6ccc3[nH]6)C=C5)C=C4)cc2)CCN(C(=O)[C@H]2CCCCO2)CC1
REMARK SMILES IDX 16 1 15 2 14 3 13 4 12 5 10 6 11 7 9 8 81 9 93 10 82 11
REMARK SMILES IDX 92 12 83 13 84 14 85 15 8 16 7 17 1 18 2 19 3 20 4 21 6 22
REMARK SMILES IDX 5 23 86 24 87 25 91 26 88 27 90 28 89 29 17 30 18 31 19 32
REMARK SMILES IDX 20 33 21 34 22 35 80 36 23 37 79 38 24 39 25 40 26 41 73 42
REMARK SMILES IDX 27 43 78 44 72 45 74 46 28 47 77 48 71 49 70 50 29 52 59 53
REMARK SMILES IDX 40 54 58 55 41 56 44 57 57 58 75 59 42 60 43 61 56 63 76 64
REMARK SMILES IDX 45 65 30 66 31 67 39 68 32 69 38 70 33 71 34 72 35 73 36 74
REMARK SMILES IDX 37 75 60 76 61 77 69 78 62 79 68 80 63 81 64 82 65 83 66 84
REMARK SMILES IDX 67 85 46 86 47 87 55 88 48 89 54 90 49 91 50 92 51 93 52 94
REMARK SMILES IDX 53 95
REMARK H PARENT 74 51 44 62
REMARK Flexibility Score: inf
ROOT
ATOM      1  C   UNL A   1      32.225  29.877  26.022  1.00  0.00     0.202 C 
ENDROOT
BRANCH   1   2
ATOM      2  O   UNL A   1      33.301  29.300  25.311  1.00  0.00    -0.374 OA
BRANCH   2   3
ATOM      3  C   UNL A   1      33.880  28.131  25.873  1.00  0.00     0.202 C 
BRANCH   3   4
ATOM      4  C   UNL A   1      32.746  27.332  26.474  1.00  0.00     0.261 C 
BRANCH   4   5
ATOM      5  O   UNL A   1      32.743  25.925  26.113  1.00  0.00    -0.460 OA
BRANCH   5   6
ATOM      6  C   UNL A   1      31.603  25.223  25.830  1.00  0.00     0.350 C 
ATOM      7  O   UNL A   1      30.552  25.298  26.447  1.00  0.00    -0.247 OA
BRANCH   6   8
ATOM      8  C   UNL A   1      31.879  24.297  24.599  1.00  0.00     0.209 C 
ATOM      9  C   UNL A   1      33.402  24.330  24.422  1.00  0.00     0.082 C 
ATOM     10  C   UNL A   1      31.199  22.956  24.910  1.00  0.00     0.082 C 
ATOM     11  C   UNL A   1      34.124  23.254  25.221  1.00  0.00     0.124 C 
ATOM     12  C   UNL A   1      32.100  21.827  25.411  1.00  0.00     0.124 C 
ATOM     13  N   UNL A   1      33.514  21.942  25.055  1.00  0.00    -0.340 N 
ATOM     14  C   UNL A   1      34.369  20.866  24.804  1.00  0.00     0.251 C 
ATOM     15  O   UNL A   1      35.579  21.043  24.620  1.00  0.00    -0.272 OA
BRANCH   8  16
ATOM     16  O   UNL A   1      31.236  24.953  23.484  1.00  0.00    -0.475 OA
BRANCH  16  17
ATOM     17  C   UNL A   1      30.910  26.272  23.323  1.00  0.00     0.123 A 
ATOM     18  C   UNL A   1      28.417  26.480  24.060  1.00  0.00     0.048 C 
ATOM     19  C   UNL A   1      29.723  26.992  23.548  1.00  0.00    -0.009 A 
ATOM     20  C   UNL A   1      29.668  28.364  23.192  1.00  0.00     0.007 A 
ATOM     21  C   UNL A   1      30.761  29.032  22.656  1.00  0.00     0.001 A 
ATOM     22  C   UNL A   1      32.005  26.978  22.786  1.00  0.00     0.047 A 
ATOM     23  C   UNL A   1      31.940  28.336  22.460  1.00  0.00     0.004 A 
ENDBRANCH  16  17
ENDBRANCH   8  16
BRANCH  14  24
ATOM     24  C   UNL A   1      33.765  19.448  24.692  1.00  0.00     0.207 C 
ATOM     25  C   UNL A   1      32.883  19.398  23.437  1.00  0.00     0.042 C 
ATOM     26  O   UNL A   1      34.832  18.495  24.592  1.00  0.00    -0.368 OA
ATOM     27  C   UNL A   1      32.433  17.981  23.106  1.00  0.00     0.006 C 
ATOM     28  C   UNL A   1      34.379  17.158  24.419  1.00  0.00     0.161 C 
ATOM     29  C   UNL A   1      33.621  17.030  23.109  1.00  0.00     0.029 C 
ENDBRANCH  14  24
ENDBRANCH   6   8
ENDBRANCH   5   6
ENDBRANCH   4   5
ENDBRANCH   3   4
ENDBRANCH   2   3
ENDBRANCH   1   2
BRANCH   1  30
ATOM     30  C   UNL A   1      32.638  31.058  26.905  1.00  0.00     0.261 C 
BRANCH  30  31
ATOM     31  O   UNL A   1      33.622  30.655  27.878  1.00  0.00    -0.460 OA
BRANCH  31  32
ATOM     32  C   UNL A   1      34.809  31.322  27.808  1.00  0.00     0.338 C 
ATOM     33  O   UNL A   1      34.914  32.488  27.461  1.00  0.00    -0.246 OA
BRANCH  32  34
ATOM     34  C   UNL A   1      35.927  30.439  28.239  1.00  0.00     0.060 A 
ATOM     35  C   UNL A   1      35.956  29.875  29.524  1.00  0.00     0.016 A 
ATOM     36  C   UNL A   1      37.036  30.315  27.404  1.00  0.00     0.016 A 
ATOM     37  C   UNL A   1      37.134  29.275  30.008  1.00  0.00     0.010 A 
ATOM     38  C   UNL A   1      38.213  29.808  27.914  1.00  0.00     0.010 A 
ATOM     39  C   UNL A   1      38.283  29.288  29.217  1.00  0.00    -0.014 A 
BRANCH  39  40
ATOM     40  C   UNL A   1      39.635  28.871  29.611  1.00  0.00     0.031 A 
ATOM     41  C   UNL A   1      40.111  27.517  29.217  1.00  0.00     0.074 A 
ATOM     42  C   UNL A   1      40.548  29.776  30.042  1.00  0.00     0.049 A 
ATOM     43  N   UNL A   1      41.247  27.023  29.577  1.00  0.00    -0.248 NA
ATOM     44  C   UNL A   1      39.327  26.573  28.416  1.00  0.00     0.031 C 
ATOM     45  C   UNL A   1      42.003  29.707  29.907  1.00  0.00     0.029 A 
ATOM     46  N   UNL A   1      40.352  30.951  30.771  1.00  0.00    -0.354 N 
ATOM     47  C   UNL A   1      41.494  25.931  28.783  1.00  0.00     0.074 A 
ATOM     48  C   UNL A   1      40.223  25.607  28.187  1.00  0.00     0.031 C 
ATOM     49  C   UNL A   1      42.573  30.615  30.714  1.00  0.00     0.029 A 
ATOM     50  C   UNL A   1      41.514  31.211  31.510  1.00  0.00     0.049 A 
ATOM     51  H   UNL A   1      39.537  31.502  30.768  1.00  0.00     0.167 HD
ATOM     52  C   UNL A   1      42.782  25.523  28.613  1.00  0.00     0.031 A 
ATOM     53  C   UNL A   1      41.485  31.312  32.867  1.00  0.00     0.031 A 
ATOM     54  C   UNL A   1      43.686  26.201  29.550  1.00  0.00     0.049 A 
ATOM     55  C   UNL A   1      42.306  30.210  33.480  1.00  0.00     0.074 A 
ATOM     56  C   UNL A   1      44.692  27.139  29.403  1.00  0.00     0.029 A 
ATOM     57  N   UNL A   1      43.414  26.131  30.918  1.00  0.00    -0.354 N 
ATOM     58  N   UNL A   1      42.646  29.144  32.808  1.00  0.00    -0.248 NA
ATOM     59  C   UNL A   1      42.864  30.215  34.828  1.00  0.00     0.031 C 
ATOM     60  C   UNL A   1      44.937  27.715  30.685  1.00  0.00     0.029 A 
ATOM     61  C   UNL A   1      44.122  27.088  31.616  1.00  0.00     0.049 A 
ATOM     62  H   UNL A   1      42.797  25.483  31.330  1.00  0.00     0.167 HD
ATOM     63  C   UNL A   1      43.462  28.360  33.556  1.00  0.00     0.074 A 
ATOM     64  C   UNL A   1      43.553  29.056  34.829  1.00  0.00     0.031 C 
ATOM     65  C   UNL A   1      43.991  27.204  33.067  1.00  0.00     0.031 A 
BRANCH  52  66
ATOM     66  C   UNL A   1      43.258  24.638  27.478  1.00  0.00    -0.014 A 
ATOM     67  C   UNL A   1      43.135  23.236  27.581  1.00  0.00     0.010 A 
ATOM     68  C   UNL A   1      43.919  25.111  26.324  1.00  0.00     0.010 A 
ATOM     69  C   UNL A   1      43.626  22.367  26.589  1.00  0.00     0.020 A 
ATOM     70  C   UNL A   1      44.382  24.259  25.309  1.00  0.00     0.020 A 
ATOM     71  C   UNL A   1      44.242  22.887  25.452  1.00  0.00     0.054 A 
BRANCH  71  72
ATOM     72  S   UNL A   1      44.868  21.763  24.175  1.00  0.00     0.124 S 
ATOM     73  O   UNL A   1      46.314  21.863  24.352  1.00  0.00    -0.237 OA
ATOM     74  O   UNL A   1      44.273  20.484  24.554  1.00  0.00    -0.237 OA
ATOM     75  O   UNL A   1      44.358  22.333  22.928  1.00  0.00    -0.744 OA
ENDBRANCH  71  72
ENDBRANCH  52  66
BRANCH  53  76
ATOM     76  C   UNL A   1      40.241  31.962  33.384  1.00  0.00    -0.014 A 
ATOM     77  C   UNL A   1      40.038  33.314  33.021  1.00  0.00     0.010 A 
ATOM     78  C   UNL A   1      39.113  31.189  33.721  1.00  0.00     0.010 A 
ATOM     79  C   UNL A   1      38.747  33.826  32.827  1.00  0.00     0.020 A 
ATOM     80  C   UNL A   1      37.817  31.698  33.518  1.00  0.00     0.020 A 
ATOM     81  C   UNL A   1      37.644  32.993  33.017  1.00  0.00     0.054 A 
BRANCH  81  82
ATOM     82  S   UNL A   1      36.029  33.501  32.328  1.00  0.00     0.124 S 
ATOM     83  O   UNL A   1      35.087  32.760  33.157  1.00  0.00    -0.237 OA
ATOM     84  O   UNL A   1      36.030  34.952  32.517  1.00  0.00    -0.237 OA
ATOM     85  O   UNL A   1      36.120  33.082  30.932  1.00  0.00    -0.744 OA
ENDBRANCH  81  82
ENDBRANCH  53  76
BRANCH  65  86
ATOM     86  C   UNL A   1      44.488  26.095  33.946  1.00  0.00    -0.014 A 
ATOM     87  C   UNL A   1      43.637  25.343  34.773  1.00  0.00     0.010 A 
ATOM     88  C   UNL A   1      45.826  25.661  33.823  1.00  0.00     0.010 A 
ATOM     89  C   UNL A   1      44.116  24.261  35.511  1.00  0.00     0.020 A 
ATOM     90  C   UNL A   1      46.302  24.547  34.516  1.00  0.00     0.020 A 
ATOM     91  C   UNL A   1      45.448  23.873  35.383  1.00  0.00     0.054 A 
BRANCH  91  92
ATOM     92  S   UNL A   1      46.041  22.445  36.317  1.00  0.00     0.124 S 
ATOM     93  O   UNL A   1      47.474  22.485  36.038  1.00  0.00    -0.237 OA
ATOM     94  O   UNL A   1      45.663  22.773  37.690  1.00  0.00    -0.237 OA
ATOM     95  O   UNL A   1      45.316  21.324  35.728  1.00  0.00    -0.744 OA
ENDBRANCH  91  92
ENDBRANCH  65  86
ENDBRANCH  39  40
ENDBRANCH  32  34
ENDBRANCH  31  32
ENDBRANCH  30  31
ENDBRANCH   1  30
TORSDOF 20
ENDMDL
MODEL 3
REMARK VINA RESULT:     -11.8      3.795     10.433
REMARK SMILES Cc1ccccc1OC1(C(=O)OCCOCCOC(=O)c2ccc(-c3c4nc(c(-c5ccc(S(=O)(=O)[O-])cc5)c5ccc([nH]5)c(-c5ccc(S(=O)(=O)[O-])cc5)c5nc(c(-c6ccc(S(=O)(=O)[O-])cc6)c6ccc3[nH]6)C=C5)C=C4)cc2)CCN(C(=O)[C@H]2CCCCO2)CC1
REMARK SMILES IDX 16 1 15 2 14 3 13 4 12 5 10 6 11 7 9 8 81 9 93 10 82 11
REMARK SMILES IDX 92 12 83 13 84 14 85 15 8 16 7 17 1 18 2 19 3 20 4 21 6 22
REMARK SMILES IDX 5 23 86 24 87 25 91 26 88 27 90 28 89 29 17 30 18 31 19 32
REMARK SMILES IDX 20 33 21 34 22 35 80 36 23 37 79 38 24 39 25 40 26 41 73 42
REMARK SMILES IDX 27 43 78 44 72 45 74 46 28 47 77 48 71 49 70 50 29 52 59 53
REMARK SMILES IDX 40 54 58 55 41 56 44 57 57 58 75 59 42 60 43 61 56 63 76 64
REMARK SMILES IDX 45 65 30 66 31 67 39 68 32 69 38 70 33 71 34 72 35 73 36 74
REMARK SMILES IDX 37 75 60 76 61 77 69 78 62 79 68 80 63 81 64 82 65 83 66 84
REMARK SMILES IDX 67 85 46 86 47 87 55 88 48 89 54 90 49 91 50 92 51 93 52 94
REMARK SMILES IDX 53 95
REMARK H PARENT 74 51 44 62
REMARK Flexibility Score: inf
ROOT
ATOM      1  C   UNL A   1      34.445  22.256  24.002  1.00  0.00     0.202 C 
ENDROOT
BRANCH   1   2
ATOM      2  O   UNL A   1      33.436  21.543  23.316  1.00  0.00    -0.374 OA
BRANCH   2   3
ATOM      3  C   UNL A   1      32.283  22.281  22.936  1.00  0.00     0.202 C 
BRANCH   3   4
ATOM      4  C   UNL A   1      32.311  23.567  23.729  1.00  0.00     0.261 C 
BRANCH   4   5
ATOM      5  O   UNL A   1      31.801  24.725  23.016  1.00  0.00    -0.460 OA
BRANCH   5   6
ATOM      6  C   UNL A   1      32.599  25.739  22.561  1.00  0.00     0.350 C 
ATOM      7  O   UNL A   1      33.561  25.608  21.821  1.00  0.00    -0.247 OA
BRANCH   6   8
ATOM      8  C   UNL A   1      32.083  27.090  23.161  1.00  0.00     0.209 C 
ATOM      9  C   UNL A   1      31.473  26.704  24.515  1.00  0.00     0.082 C 
ATOM     10  C   UNL A   1      33.278  28.055  23.136  1.00  0.00     0.082 C 
ATOM     11  C   UNL A   1      32.478  26.736  25.658  1.00  0.00     0.124 C 
ATOM     12  C   UNL A   1      34.028  28.256  24.453  1.00  0.00     0.124 C 
ATOM     13  N   UNL A   1      33.266  27.961  25.666  1.00  0.00    -0.340 N 
ATOM     14  C   UNL A   1      33.419  28.616  26.890  1.00  0.00     0.251 C 
ATOM     15  O   UNL A   1      32.817  28.231  27.898  1.00  0.00    -0.272 OA
BRANCH   8  16
ATOM     16  O   UNL A   1      31.046  27.531  22.258  1.00  0.00    -0.475 OA
BRANCH  16  17
ATOM     17  C   UNL A   1      29.947  28.306  22.512  1.00  0.00     0.123 A 
ATOM     18  C   UNL A   1      28.243  26.748  23.724  1.00  0.00     0.048 C 
ATOM     19  C   UNL A   1      28.714  28.035  23.131  1.00  0.00    -0.009 A 
ATOM     20  C   UNL A   1      27.719  29.045  23.162  1.00  0.00     0.007 A 
ATOM     21  C   UNL A   1      27.931  30.308  22.628  1.00  0.00     0.001 A 
ATOM     22  C   UNL A   1      30.138  29.600  21.985  1.00  0.00     0.047 A 
ATOM     23  C   UNL A   1      29.152  30.591  22.043  1.00  0.00     0.004 A 
ENDBRANCH  16  17
ENDBRANCH   8  16
BRANCH  14  24
ATOM     24  C   UNL A   1      34.306  29.879  26.950  1.00  0.00     0.207 C 
ATOM     25  C   UNL A   1      33.504  31.000  27.626  1.00  0.00     0.042 C 
ATOM     26  O   UNL A   1      35.487  29.583  27.708  1.00  0.00    -0.368 OA
ATOM     27  C   UNL A   1      34.367  32.213  27.948  1.00  0.00     0.006 C 
ATOM     28  C   UNL A   1      36.345  30.704  27.877  1.00  0.00     0.161 C 
ATOM     29  C   UNL A   1      35.635  31.787  28.672  1.00  0.00     0.029 C 
ENDBRANCH  14  24
ENDBRANCH   6   8
ENDBRANCH   5   6
ENDBRANCH   4   5
ENDBRANCH   3   4
ENDBRANCH   2   3
ENDBRANCH   1   2
BRANCH   1  30
ATOM     30  C   UNL A   1      35.469  21.353  24.695  1.00  0.00     0.261 C 
BRANCH  30  31
ATOM     31  O   UNL A   1      36.810  21.680  24.280  1.00  0.00    -0.460 OA
BRANCH  31  32
ATOM     32  C   UNL A   1      37.799  21.116  25.030  1.00  0.00     0.338 C 
ATOM     33  O   UNL A   1      38.148  19.950  24.929  1.00  0.00    -0.246 OA
BRANCH  32  34
ATOM     34  C   UNL A   1      38.394  22.125  25.947  1.00  0.00     0.060 A 
ATOM     35  C   UNL A   1      37.804  23.387  26.124  1.00  0.00     0.016 A 
ATOM     36  C   UNL A   1      39.646  21.863  26.502  1.00  0.00     0.016 A 
ATOM     37  C   UNL A   1      38.513  24.416  26.771  1.00  0.00     0.010 A 
ATOM     38  C   UNL A   1      40.371  22.899  27.054  1.00  0.00     0.010 A 
ATOM     39  C   UNL A   1      39.823  24.185  27.191  1.00  0.00    -0.014 A 
BRANCH  39  40
ATOM     40  C   UNL A   1      40.770  25.173  27.723  1.00  0.00     0.031 A 
ATOM     41  C   UNL A   1      40.252  26.495  28.170  1.00  0.00     0.074 A 
ATOM     42  C   UNL A   1      42.022  24.811  28.096  1.00  0.00     0.049 A 
ATOM     43  N   UNL A   1      41.005  27.460  28.578  1.00  0.00    -0.248 NA
ATOM     44  C   UNL A   1      38.835  26.868  28.154  1.00  0.00     0.031 C 
ATOM     45  C   UNL A   1      42.854  25.422  29.134  1.00  0.00     0.029 A 
ATOM     46  N   UNL A   1      42.856  23.829  27.558  1.00  0.00    -0.354 N 
ATOM     47  C   UNL A   1      40.199  28.376  29.209  1.00  0.00     0.074 A 
ATOM     48  C   UNL A   1      38.860  28.043  28.795  1.00  0.00     0.031 C 
ATOM     49  C   UNL A   1      44.120  24.997  29.002  1.00  0.00     0.029 A 
ATOM     50  C   UNL A   1      44.187  24.206  27.786  1.00  0.00     0.049 A 
ATOM     51  H   UNL A   1      42.560  23.012  27.097  1.00  0.00     0.167 HD
ATOM     52  C   UNL A   1      40.755  29.216  30.124  1.00  0.00     0.031 A 
ATOM     53  C   UNL A   1      45.062  24.378  26.759  1.00  0.00     0.031 A 
ATOM     54  C   UNL A   1      42.221  29.156  30.085  1.00  0.00     0.049 A 
ATOM     55  C   UNL A   1      45.508  25.813  26.702  1.00  0.00     0.074 A 
ATOM     56  C   UNL A   1      43.185  28.684  30.957  1.00  0.00     0.029 A 
ATOM     57  N   UNL A   1      42.872  29.388  28.872  1.00  0.00    -0.354 N 
ATOM     58  N   UNL A   1      44.850  26.767  27.304  1.00  0.00    -0.248 NA
ATOM     59  C   UNL A   1      46.717  26.303  26.050  1.00  0.00     0.031 C 
ATOM     60  C   UNL A   1      44.395  28.525  30.220  1.00  0.00     0.029 A 
ATOM     61  C   UNL A   1      44.181  28.952  28.917  1.00  0.00     0.049 A 
ATOM     62  H   UNL A   1      42.451  29.808  28.086  1.00  0.00     0.167 HD
ATOM     63  C   UNL A   1      45.514  27.944  27.178  1.00  0.00     0.074 A 
ATOM     64  C   UNL A   1      46.669  27.614  26.361  1.00  0.00     0.031 C 
ATOM     65  C   UNL A   1      45.055  29.090  27.754  1.00  0.00     0.031 A 
BRANCH  52  66
ATOM     66  C   UNL A   1      39.973  29.968  31.184  1.00  0.00    -0.014 A 
ATOM     67  C   UNL A   1      39.742  31.352  31.036  1.00  0.00     0.010 A 
ATOM     68  C   UNL A   1      39.518  29.397  32.391  1.00  0.00     0.010 A 
ATOM     69  C   UNL A   1      39.085  32.110  32.023  1.00  0.00     0.020 A 
ATOM     70  C   UNL A   1      38.830  30.132  33.370  1.00  0.00     0.020 A 
ATOM     71  C   UNL A   1      38.625  31.491  33.184  1.00  0.00     0.054 A 
BRANCH  71  72
ATOM     72  S   UNL A   1      37.776  32.472  34.451  1.00  0.00     0.124 S 
ATOM     73  O   UNL A   1      36.463  32.689  33.850  1.00  0.00    -0.237 OA
ATOM     74  O   UNL A   1      37.800  31.586  35.611  1.00  0.00    -0.237 OA
ATOM     75  O   UNL A   1      38.604  33.672  34.575  1.00  0.00    -0.744 OA
ENDBRANCH  71  72
ENDBRANCH  52  66
BRANCH  53  76
ATOM     76  C   UNL A   1      44.856  23.407  25.639  1.00  0.00    -0.014 A 
ATOM     77  C   UNL A   1      46.020  22.814  25.095  1.00  0.00     0.010 A 
ATOM     78  C   UNL A   1      43.634  22.722  25.498  1.00  0.00     0.010 A 
ATOM     79  C   UNL A   1      45.998  21.506  24.591  1.00  0.00     0.020 A 
ATOM     80  C   UNL A   1      43.612  21.406  25.001  1.00  0.00     0.020 A 
ATOM     81  C   UNL A   1      44.802  20.787  24.604  1.00  0.00     0.054 A 
BRANCH  81  82
ATOM     82  S   UNL A   1      44.866  18.972  24.393  1.00  0.00     0.124 S 
ATOM     83  O   UNL A   1      44.952  18.827  22.946  1.00  0.00    -0.237 OA
ATOM     84  O   UNL A   1      46.067  18.594  25.139  1.00  0.00    -0.237 OA
ATOM     85  O   UNL A   1      43.619  18.525  25.008  1.00  0.00    -0.744 OA
ENDBRANCH  81  82
ENDBRANCH  53  76
BRANCH  65  86
ATOM     86  C   UNL A   1      45.454  30.458  27.287  1.00  0.00    -0.014 A 
ATOM     87  C   UNL A   1      44.519  31.418  26.865  1.00  0.00     0.010 A 
ATOM     88  C   UNL A   1      46.795  30.875  27.431  1.00  0.00     0.010 A 
ATOM     89  C   UNL A   1      44.914  32.711  26.521  1.00  0.00     0.020 A 
ATOM     90  C   UNL A   1      47.191  32.181  27.140  1.00  0.00     0.020 A 
ATOM     91  C   UNL A   1      46.250  33.082  26.654  1.00  0.00     0.054 A 
BRANCH  91  92
ATOM     92  S   UNL A   1      46.737  34.772  26.240  1.00  0.00     0.124 S 
ATOM     93  O   UNL A   1      47.484  34.569  25.001  1.00  0.00    -0.237 OA
ATOM     94  O   UNL A   1      45.453  35.455  26.091  1.00  0.00    -0.237 OA
ATOM     95  O   UNL A   1      47.530  35.193  27.391  1.00  0.00    -0.744 OA
ENDBRANCH  91  92
ENDBRANCH  65  86
ENDBRANCH  39  40
ENDBRANCH  32  34
ENDBRANCH  31  32
ENDBRANCH  30  31
ENDBRANCH   1  30
TORSDOF 20
ENDMDL
