MODEL 1
REMARK VINA RESULT:     -12.5      0.000      0.000
REMARK SMILES Cc1c(C(=O)OCCOCCOC(=O)c2ccc(-c3c4nc(c(-c5ccc(S(=O)(=O)[O-])cc5)c5ccc([nH]5)c(-c5ccc(S(=O)(=O)[O-])cc5)c5nc(c(-c6ccc(S(=O)(=O)[O-])cc6)c6ccc3[nH]6)C=C5)C=C4)cc2)oc2c1/C(=N/NC(=O)C(c1ccccc1)c1ccccc1)CCC2
REMARK SMILES IDX 9 1 8 2 7 3 6 4 4 5 5 6 3 7 1 8 2 9 77 10 75 11 76 12 78 13
REMARK SMILES IDX 98 14 79 15 96 16 97 17 80 18 81 19 82 21 83 22 84 23 85 24
REMARK SMILES IDX 89 25 86 26 88 27 87 28 90 29 91 30 95 31 92 32 94 33 93 34
REMARK SMILES IDX 10 35 11 36 12 37 13 38 14 39 15 40 16 41 74 42 17 43 73 44
REMARK SMILES IDX 18 45 19 46 20 47 67 48 21 49 72 50 66 51 68 52 22 53 71 54
REMARK SMILES IDX 65 55 64 56 23 58 53 59 34 60 52 61 35 62 38 63 51 64 69 65
REMARK SMILES IDX 36 66 37 67 50 69 70 70 39 71 24 72 25 73 33 74 26 75 32 76
REMARK SMILES IDX 27 77 28 78 29 79 30 80 31 81 54 82 55 83 63 84 56 85 62 86
REMARK SMILES IDX 57 87 58 88 59 89 60 90 61 91 40 92 41 93 49 94 42 95 48 96
REMARK SMILES IDX 43 97 44 98 45 99 46 100 47 101
REMARK H PARENT 80 20 68 57 38 68
REMARK Flexibility Score: inf
ROOT
ATOM      1  O   UNL A   1      38.997  21.257  25.796  1.00  0.00    -0.374 OA
ENDROOT
BRANCH   1   2
ATOM      2  C   UNL A   1      37.698  21.693  25.389  1.00  0.00     0.202 C 
BRANCH   2   3
ATOM      3  C   UNL A   1      36.704  20.585  25.033  1.00  0.00     0.261 C 
BRANCH   3   4
ATOM      4  O   UNL A   1      35.452  20.818  25.673  1.00  0.00    -0.457 OA
BRANCH   4   5
ATOM      5  C   UNL A   1      34.344  20.493  24.959  1.00  0.00     0.374 C 
ATOM      6  O   UNL A   1      34.075  19.379  24.520  1.00  0.00    -0.242 OA
BRANCH   5   7
ATOM      7  C   UNL A   1      33.479  21.641  24.930  1.00  0.00     0.215 A 
ATOM      8  C   UNL A   1      34.352  23.125  22.990  1.00  0.00     0.049 C 
ATOM      9  C   UNL A   1      33.472  22.785  24.138  1.00  0.00     0.012 A 
ATOM     10  C   UNL A   1      32.466  23.608  24.709  1.00  0.00     0.043 A 
ATOM     11  O   UNL A   1      32.410  21.643  25.784  1.00  0.00    -0.453 OA
ATOM     12  C   UNL A   1      31.805  22.828  25.633  1.00  0.00     0.114 A 
ATOM     13  C   UNL A   1      32.145  25.022  24.570  1.00  0.00     0.072 C 
ATOM     14  C   UNL A   1      30.688  23.164  26.539  1.00  0.00     0.076 C 
ATOM     15  N   UNL A   1      32.653  25.557  23.494  1.00  0.00    -0.177 NA
ATOM     16  C   UNL A   1      31.407  25.476  25.840  1.00  0.00     0.059 C 
ATOM     17  C   UNL A   1      30.220  24.577  26.217  1.00  0.00     0.014 C 
BRANCH  15  18
ATOM     18  N   UNL A   1      32.765  26.792  22.904  1.00  0.00    -0.246 N 
ATOM     19  C   UNL A   1      32.338  28.082  23.168  1.00  0.00     0.252 C 
ATOM     20  H   UNL A   1      33.289  26.748  22.072  1.00  0.00     0.193 HD
ATOM     21  O   UNL A   1      32.664  28.991  22.395  1.00  0.00    -0.272 OA
BRANCH  19  22
ATOM     22  C   UNL A   1      31.498  28.367  24.403  1.00  0.00     0.140 C 
BRANCH  22  23
ATOM     23  C   UNL A   1      32.488  28.972  25.497  1.00  0.00    -0.031 A 
ATOM     24  C   UNL A   1      32.175  30.164  26.220  1.00  0.00     0.005 A 
ATOM     25  C   UNL A   1      33.727  28.402  25.825  1.00  0.00     0.005 A 
ATOM     26  C   UNL A   1      32.924  30.660  27.291  1.00  0.00     0.000 A 
ATOM     27  C   UNL A   1      34.522  28.938  26.869  1.00  0.00     0.000 A 
ATOM     28  C   UNL A   1      34.106  30.039  27.622  1.00  0.00     0.000 A 
ENDBRANCH  22  23
BRANCH  22  29
ATOM     29  C   UNL A   1      30.131  29.009  23.888  1.00  0.00    -0.031 A 
ATOM     30  C   UNL A   1      29.865  30.386  23.875  1.00  0.00     0.005 A 
ATOM     31  C   UNL A   1      29.072  28.193  23.378  1.00  0.00     0.005 A 
ATOM     32  C   UNL A   1      28.695  30.894  23.257  1.00  0.00     0.000 A 
ATOM     33  C   UNL A   1      27.953  28.692  22.705  1.00  0.00     0.000 A 
ATOM     34  C   UNL A   1      27.769  30.055  22.632  1.00  0.00     0.000 A 
ENDBRANCH  22  29
ENDBRANCH  19  22
ENDBRANCH  15  18
ENDBRANCH   5   7
ENDBRANCH   4   5
ENDBRANCH   3   4
ENDBRANCH   2   3
ENDBRANCH   1   2
BRANCH   1  35
ATOM     35  C   UNL A   1      40.004  22.237  26.036  1.00  0.00     0.202 C 
BRANCH  35  36
ATOM     36  C   UNL A   1      40.834  22.115  27.303  1.00  0.00     0.261 C 
BRANCH  36  37
ATOM     37  O   UNL A   1      42.217  22.309  27.044  1.00  0.00    -0.460 OA
BRANCH  37  38
ATOM     38  C   UNL A   1      42.478  22.991  25.907  1.00  0.00     0.338 C 
ATOM     39  O   UNL A   1      42.778  22.522  24.823  1.00  0.00    -0.246 OA
BRANCH  38  40
ATOM     40  C   UNL A   1      42.538  24.418  26.240  1.00  0.00     0.060 A 
ATOM     41  C   UNL A   1      43.242  24.750  27.396  1.00  0.00     0.016 A 
ATOM     42  C   UNL A   1      41.718  25.349  25.578  1.00  0.00     0.016 A 
ATOM     43  C   UNL A   1      42.981  25.962  27.993  1.00  0.00     0.010 A 
ATOM     44  C   UNL A   1      41.454  26.560  26.180  1.00  0.00     0.010 A 
ATOM     45  C   UNL A   1      42.033  26.821  27.416  1.00  0.00    -0.014 A 
BRANCH  45  46
ATOM     46  C   UNL A   1      41.773  28.071  28.096  1.00  0.00     0.031 A 
ATOM     47  C   UNL A   1      42.869  29.045  27.923  1.00  0.00     0.074 A 
ATOM     48  C   UNL A   1      40.646  28.344  28.775  1.00  0.00     0.049 A 
ATOM     49  N   UNL A   1      43.759  29.369  28.799  1.00  0.00    -0.248 NA
ATOM     50  C   UNL A   1      43.128  29.560  26.572  1.00  0.00     0.031 C 
ATOM     51  C   UNL A   1      39.398  27.581  28.823  1.00  0.00     0.029 A 
ATOM     52  N   UNL A   1      40.362  29.448  29.515  1.00  0.00    -0.354 N 
ATOM     53  C   UNL A   1      44.561  30.314  28.179  1.00  0.00     0.074 A 
ATOM     54  C   UNL A   1      44.256  30.244  26.772  1.00  0.00     0.031 C 
ATOM     55  C   UNL A   1      38.426  28.354  29.366  1.00  0.00     0.029 A 
ATOM     56  C   UNL A   1      39.019  29.597  29.834  1.00  0.00     0.049 A 
ATOM     57  H   UNL A   1      41.052  30.088  29.804  1.00  0.00     0.167 HD
ATOM     58  C   UNL A   1      45.210  31.265  28.903  1.00  0.00     0.031 A 
ATOM     59  C   UNL A   1      38.445  30.693  30.391  1.00  0.00     0.031 A 
ATOM     60  C   UNL A   1      45.264  30.927  30.303  1.00  0.00     0.049 A 
ATOM     61  C   UNL A   1      39.521  31.439  31.091  1.00  0.00     0.074 A 
ATOM     62  C   UNL A   1      45.796  29.884  31.034  1.00  0.00     0.029 A 
ATOM     63  N   UNL A   1      44.346  31.541  31.124  1.00  0.00    -0.354 N 
ATOM     64  N   UNL A   1      40.140  30.979  32.141  1.00  0.00    -0.248 NA
ATOM     65  C   UNL A   1      40.215  32.497  30.374  1.00  0.00     0.031 C 
ATOM     66  C   UNL A   1      44.858  29.647  32.082  1.00  0.00     0.029 A 
ATOM     67  C   UNL A   1      43.837  30.594  31.975  1.00  0.00     0.049 A 
ATOM     68  H   UNL A   1      44.098  32.494  31.104  1.00  0.00     0.167 HD
ATOM     69  C   UNL A   1      41.463  31.355  31.965  1.00  0.00     0.074 A 
ATOM     70  C   UNL A   1      41.429  32.378  30.922  1.00  0.00     0.031 C 
ATOM     71  C   UNL A   1      42.481  30.607  32.486  1.00  0.00     0.031 A 
BRANCH  58  72
ATOM     72  C   UNL A   1      45.381  32.679  28.410  1.00  0.00    -0.014 A 
ATOM     73  C   UNL A   1      46.550  33.381  28.758  1.00  0.00     0.010 A 
ATOM     74  C   UNL A   1      44.317  33.432  27.870  1.00  0.00     0.010 A 
ATOM     75  C   UNL A   1      46.620  34.775  28.638  1.00  0.00     0.020 A 
ATOM     76  C   UNL A   1      44.392  34.814  27.703  1.00  0.00     0.020 A 
ATOM     77  C   UNL A   1      45.533  35.481  28.123  1.00  0.00     0.054 A 
BRANCH  77  78
ATOM     78  S   UNL A   1      45.592  37.287  28.066  1.00  0.00     0.124 S 
ATOM     79  O   UNL A   1      44.679  37.582  26.967  1.00  0.00    -0.237 OA
ATOM     80  O   UNL A   1      45.123  37.652  29.399  1.00  0.00    -0.237 OA
ATOM     81  O   UNL A   1      47.001  37.575  27.806  1.00  0.00    -0.744 OA
ENDBRANCH  77  78
ENDBRANCH  58  72
BRANCH  59  82
ATOM     82  C   UNL A   1      37.136  31.310  30.059  1.00  0.00    -0.014 A 
ATOM     83  C   UNL A   1      36.156  31.499  31.054  1.00  0.00     0.010 A 
ATOM     84  C   UNL A   1      36.971  31.999  28.839  1.00  0.00     0.010 A 
ATOM     85  C   UNL A   1      35.100  32.406  30.867  1.00  0.00     0.020 A 
ATOM     86  C   UNL A   1      35.916  32.898  28.644  1.00  0.00     0.020 A 
ATOM     87  C   UNL A   1      35.002  33.121  29.671  1.00  0.00     0.054 A 
BRANCH  87  88
ATOM     88  S   UNL A   1      33.765  34.444  29.516  1.00  0.00     0.124 S 
ATOM     89  O   UNL A   1      32.719  33.801  28.725  1.00  0.00    -0.237 OA
ATOM     90  O   UNL A   1      33.423  34.726  30.907  1.00  0.00    -0.237 OA
ATOM     91  O   UNL A   1      34.491  35.513  28.831  1.00  0.00    -0.744 OA
ENDBRANCH  87  88
ENDBRANCH  59  82
BRANCH  71  92
ATOM     92  C   UNL A   1      42.139  29.560  33.523  1.00  0.00    -0.014 A 
ATOM     93  C   UNL A   1      41.864  28.211  33.225  1.00  0.00     0.010 A 
ATOM     94  C   UNL A   1      42.226  29.941  34.874  1.00  0.00     0.010 A 
ATOM     95  C   UNL A   1      41.649  27.279  34.253  1.00  0.00     0.020 A 
ATOM     96  C   UNL A   1      42.032  29.016  35.901  1.00  0.00     0.020 A 
ATOM     97  C   UNL A   1      41.732  27.691  35.587  1.00  0.00     0.054 A 
BRANCH  97  98
ATOM     98  S   UNL A   1      41.486  26.480  36.917  1.00  0.00     0.124 S 
ATOM     99  O   UNL A   1      40.293  26.984  37.590  1.00  0.00    -0.237 OA
ATOM    100  O   UNL A   1      41.314  25.225  36.187  1.00  0.00    -0.237 OA
ATOM    101  O   UNL A   1      42.719  26.566  37.700  1.00  0.00    -0.744 OA
ENDBRANCH  97  98
ENDBRANCH  71  92
ENDBRANCH  45  46
ENDBRANCH  38  40
ENDBRANCH  37  38
ENDBRANCH  36  37
ENDBRANCH  35  36
ENDBRANCH   1  35
TORSDOF 21
ENDMDL
MODEL 2
REMARK VINA RESULT:     -12.2      1.844      3.000
REMARK SMILES Cc1c(C(=O)OCCOCCOC(=O)c2ccc(-c3c4nc(c(-c5ccc(S(=O)(=O)[O-])cc5)c5ccc([nH]5)c(-c5ccc(S(=O)(=O)[O-])cc5)c5nc(c(-c6ccc(S(=O)(=O)[O-])cc6)c6ccc3[nH]6)C=C5)C=C4)cc2)oc2c1/C(=N/NC(=O)C(c1ccccc1)c1ccccc1)CCC2
REMARK SMILES IDX 9 1 8 2 7 3 6 4 4 5 5 6 3 7 1 8 2 9 77 10 75 11 76 12 78 13
REMARK SMILES IDX 98 14 79 15 96 16 97 17 80 18 81 19 82 21 83 22 84 23 85 24
REMARK SMILES IDX 89 25 86 26 88 27 87 28 90 29 91 30 95 31 92 32 94 33 93 34
REMARK SMILES IDX 10 35 11 36 12 37 13 38 14 39 15 40 16 41 74 42 17 43 73 44
REMARK SMILES IDX 18 45 19 46 20 47 67 48 21 49 72 50 66 51 68 52 22 53 71 54
REMARK SMILES IDX 65 55 64 56 23 58 53 59 34 60 52 61 35 62 38 63 51 64 69 65
REMARK SMILES IDX 36 66 37 67 50 69 70 70 39 71 24 72 25 73 33 74 26 75 32 76
REMARK SMILES IDX 27 77 28 78 29 79 30 80 31 81 54 82 55 83 63 84 56 85 62 86
REMARK SMILES IDX 57 87 58 88 59 89 60 90 61 91 40 92 41 93 49 94 42 95 48 96
REMARK SMILES IDX 43 97 44 98 45 99 46 100 47 101
REMARK H PARENT 80 20 68 57 38 68
REMARK Flexibility Score: inf
ROOT
ATOM      1  O   UNL A   1      41.199  23.499  28.394  1.00  0.00    -0.374 OA
ENDROOT
BRANCH   1   2
ATOM      2  C   UNL A   1      39.972  24.099  27.974  1.00  0.00     0.202 C 
BRANCH   2   3
ATOM      3  C   UNL A   1      39.577  23.859  26.515  1.00  0.00     0.261 C 
BRANCH   3   4
ATOM      4  O   UNL A   1      38.287  23.258  26.442  1.00  0.00    -0.457 OA
BRANCH   4   5
ATOM      5  C   UNL A   1      38.223  22.047  25.831  1.00  0.00     0.374 C 
ATOM      6  O   UNL A   1      39.175  21.305  25.608  1.00  0.00    -0.242 OA
BRANCH   5   7
ATOM      7  C   UNL A   1      36.838  21.725  25.621  1.00  0.00     0.215 A 
ATOM      8  C   UNL A   1      35.513  23.839  26.332  1.00  0.00     0.049 C 
ATOM      9  C   UNL A   1      35.667  22.441  25.852  1.00  0.00     0.012 A 
ATOM     10  C   UNL A   1      34.625  21.514  25.588  1.00  0.00     0.043 A 
ATOM     11  O   UNL A   1      36.556  20.521  25.035  1.00  0.00    -0.453 OA
ATOM     12  C   UNL A   1      35.221  20.412  25.014  1.00  0.00     0.114 A 
ATOM     13  C   UNL A   1      33.203  21.503  25.907  1.00  0.00     0.072 C 
ATOM     14  C   UNL A   1      34.629  19.139  24.557  1.00  0.00     0.076 C 
ATOM     15  N   UNL A   1      32.736  22.687  26.194  1.00  0.00    -0.177 NA
ATOM     16  C   UNL A   1      32.728  20.042  25.942  1.00  0.00     0.059 C 
ATOM     17  C   UNL A   1      33.116  19.238  24.691  1.00  0.00     0.014 C 
BRANCH  15  18
ATOM     18  N   UNL A   1      31.569  23.263  26.633  1.00  0.00    -0.246 N 
ATOM     19  C   UNL A   1      30.800  24.366  26.308  1.00  0.00     0.252 C 
ATOM     20  H   UNL A   1      31.175  22.754  27.378  1.00  0.00     0.193 HD
ATOM     21  O   UNL A   1      29.749  24.568  26.928  1.00  0.00    -0.272 OA
BRANCH  19  22
ATOM     22  C   UNL A   1      31.242  25.297  25.190  1.00  0.00     0.140 C 
BRANCH  22  23
ATOM     23  C   UNL A   1      31.956  26.540  25.890  1.00  0.00    -0.031 A 
ATOM     24  C   UNL A   1      31.223  27.496  26.658  1.00  0.00     0.005 A 
ATOM     25  C   UNL A   1      33.332  26.797  25.801  1.00  0.00     0.005 A 
ATOM     26  C   UNL A   1      31.805  28.515  27.417  1.00  0.00     0.000 A 
ATOM     27  C   UNL A   1      33.920  27.869  26.519  1.00  0.00     0.000 A 
ATOM     28  C   UNL A   1      33.167  28.701  27.352  1.00  0.00     0.000 A 
ENDBRANCH  22  23
BRANCH  22  29
ATOM     29  C   UNL A   1      31.840  24.373  24.034  1.00  0.00    -0.031 A 
ATOM     30  C   UNL A   1      33.132  24.512  23.508  1.00  0.00     0.005 A 
ATOM     31  C   UNL A   1      31.076  23.306  23.466  1.00  0.00     0.005 A 
ATOM     32  C   UNL A   1      33.651  23.557  22.598  1.00  0.00     0.000 A 
ATOM     33  C   UNL A   1      31.607  22.323  22.625  1.00  0.00     0.000 A 
ATOM     34  C   UNL A   1      32.911  22.442  22.198  1.00  0.00     0.000 A 
ENDBRANCH  22  29
ENDBRANCH  19  22
ENDBRANCH  15  18
ENDBRANCH   5   7
ENDBRANCH   4   5
ENDBRANCH   3   4
ENDBRANCH   2   3
ENDBRANCH   1   2
BRANCH   1  35
ATOM     35  C   UNL A   1      41.433  22.127  28.085  1.00  0.00     0.202 C 
BRANCH  35  36
ATOM     36  C   UNL A   1      42.450  21.800  27.006  1.00  0.00     0.261 C 
BRANCH  36  37
ATOM     37  O   UNL A   1      43.392  22.851  26.836  1.00  0.00    -0.460 OA
BRANCH  37  38
ATOM     38  C   UNL A   1      43.222  23.569  25.704  1.00  0.00     0.338 C 
ATOM     39  O   UNL A   1      43.270  23.154  24.559  1.00  0.00    -0.246 OA
BRANCH  38  40
ATOM     40  C   UNL A   1      43.167  24.987  26.071  1.00  0.00     0.060 A 
ATOM     41  C   UNL A   1      43.804  25.339  27.260  1.00  0.00     0.016 A 
ATOM     42  C   UNL A   1      42.305  25.874  25.402  1.00  0.00     0.016 A 
ATOM     43  C   UNL A   1      43.435  26.513  27.875  1.00  0.00     0.010 A 
ATOM     44  C   UNL A   1      41.933  27.046  26.023  1.00  0.00     0.010 A 
ATOM     45  C   UNL A   1      42.448  27.316  27.284  1.00  0.00    -0.014 A 
BRANCH  45  46
ATOM     46  C   UNL A   1      42.075  28.526  27.983  1.00  0.00     0.031 A 
ATOM     47  C   UNL A   1      43.097  29.586  27.861  1.00  0.00     0.074 A 
ATOM     48  C   UNL A   1      40.913  28.697  28.637  1.00  0.00     0.049 A 
ATOM     49  N   UNL A   1      43.936  29.956  28.768  1.00  0.00    -0.248 NA
ATOM     50  C   UNL A   1      43.350  30.151  26.529  1.00  0.00     0.031 C 
ATOM     51  C   UNL A   1      39.727  27.839  28.634  1.00  0.00     0.029 A 
ATOM     52  N   UNL A   1      40.526  29.758  29.392  1.00  0.00    -0.354 N 
ATOM     53  C   UNL A   1      44.679  30.974  28.191  1.00  0.00     0.074 A 
ATOM     54  C   UNL A   1      44.416  30.914  26.774  1.00  0.00     0.031 C 
ATOM     55  C   UNL A   1      38.685  28.523  29.166  1.00  0.00     0.029 A 
ATOM     56  C   UNL A   1      39.168  29.797  29.676  1.00  0.00     0.049 A 
ATOM     57  H   UNL A   1      41.157  30.442  29.713  1.00  0.00     0.167 HD
ATOM     58  C   UNL A   1      45.233  31.955  28.953  1.00  0.00     0.031 A 
ATOM     59  C   UNL A   1      38.496  30.832  30.241  1.00  0.00     0.031 A 
ATOM     60  C   UNL A   1      45.277  31.589  30.346  1.00  0.00     0.049 A 
ATOM     61  C   UNL A   1      39.493  31.642  30.986  1.00  0.00     0.074 A 
ATOM     62  C   UNL A   1      45.869  30.573  31.069  1.00  0.00     0.029 A 
ATOM     63  N   UNL A   1      44.294  32.112  31.154  1.00  0.00    -0.354 N 
ATOM     64  N   UNL A   1      40.118  31.206  32.043  1.00  0.00    -0.248 NA
ATOM     65  C   UNL A   1      40.122  32.766  30.311  1.00  0.00     0.031 C 
ATOM     66  C   UNL A   1      44.926  30.241  32.085  1.00  0.00     0.029 A 
ATOM     67  C   UNL A   1      43.838  31.109  31.970  1.00  0.00     0.049 A 
ATOM     68  H   UNL A   1      43.973  33.043  31.147  1.00  0.00     0.167 HD
ATOM     69  C   UNL A   1      41.413  31.686  31.912  1.00  0.00     0.074 A 
ATOM     70  C   UNL A   1      41.326  32.728  30.890  1.00  0.00     0.031 C 
ATOM     71  C   UNL A   1      42.471  31.006  32.444  1.00  0.00     0.031 A 
BRANCH  58  72
ATOM     72  C   UNL A   1      45.307  33.389  28.495  1.00  0.00    -0.014 A 
ATOM     73  C   UNL A   1      46.510  34.097  28.677  1.00  0.00     0.010 A 
ATOM     74  C   UNL A   1      44.162  34.144  28.163  1.00  0.00     0.010 A 
ATOM     75  C   UNL A   1      46.545  35.495  28.603  1.00  0.00     0.020 A 
ATOM     76  C   UNL A   1      44.195  35.532  28.041  1.00  0.00     0.020 A 
ATOM     77  C   UNL A   1      45.381  36.202  28.298  1.00  0.00     0.054 A 
BRANCH  77  78
ATOM     78  S   UNL A   1      45.412  38.010  28.304  1.00  0.00     0.124 S 
ATOM     79  O   UNL A   1      46.830  38.283  28.515  1.00  0.00    -0.237 OA
ATOM     80  O   UNL A   1      44.892  38.330  26.978  1.00  0.00    -0.237 OA
ATOM     81  O   UNL A   1      44.531  38.362  29.416  1.00  0.00    -0.744 OA
ENDBRANCH  77  78
ENDBRANCH  58  72
BRANCH  59  82
ATOM     82  C   UNL A   1      37.153  31.355  29.886  1.00  0.00    -0.014 A 
ATOM     83  C   UNL A   1      36.293  31.864  30.880  1.00  0.00     0.010 A 
ATOM     84  C   UNL A   1      36.841  31.643  28.542  1.00  0.00     0.010 A 
ATOM     85  C   UNL A   1      35.215  32.699  30.545  1.00  0.00     0.020 A 
ATOM     86  C   UNL A   1      35.763  32.469  28.201  1.00  0.00     0.020 A 
ATOM     87  C   UNL A   1      34.973  33.019  29.208  1.00  0.00     0.054 A 
BRANCH  87  88
ATOM     88  S   UNL A   1      33.715  34.266  28.796  1.00  0.00     0.124 S 
ATOM     89  O   UNL A   1      34.519  35.343  28.225  1.00  0.00    -0.237 OA
ATOM     90  O   UNL A   1      32.855  33.552  27.856  1.00  0.00    -0.237 OA
ATOM     91  O   UNL A   1      33.098  34.570  30.087  1.00  0.00    -0.744 OA
ENDBRANCH  87  88
ENDBRANCH  59  82
BRANCH  71  92
ATOM     92  C   UNL A   1      42.185  29.912  33.449  1.00  0.00    -0.014 A 
ATOM     93  C   UNL A   1      41.737  28.621  33.107  1.00  0.00     0.010 A 
ATOM     94  C   UNL A   1      42.508  30.173  34.792  1.00  0.00     0.010 A 
ATOM     95  C   UNL A   1      41.584  27.631  34.091  1.00  0.00     0.020 A 
ATOM     96  C   UNL A   1      42.377  29.188  35.772  1.00  0.00     0.020 A 
ATOM     97  C   UNL A   1      41.904  27.924  35.421  1.00  0.00     0.054 A 
BRANCH  97  98
ATOM     98  S   UNL A   1      41.739  26.635  36.688  1.00  0.00     0.124 S 
ATOM     99  O   UNL A   1      42.966  26.791  37.463  1.00  0.00    -0.237 OA
ATOM    100  O   UNL A   1      40.507  27.012  37.377  1.00  0.00    -0.237 OA
ATOM    101  O   UNL A   1      41.651  25.396  35.915  1.00  0.00    -0.744 OA
ENDBRANCH  97  98
ENDBRANCH  71  92
ENDBRANCH  45  46
ENDBRANCH  38  40
ENDBRANCH  37  38
ENDBRANCH  36  37
ENDBRANCH  35  36
ENDBRANCH   1  35
TORSDOF 21
ENDMDL
MODEL 3
REMARK VINA RESULT:     -11.8      2.738      9.745
REMARK SMILES Cc1c(C(=O)OCCOCCOC(=O)c2ccc(-c3c4nc(c(-c5ccc(S(=O)(=O)[O-])cc5)c5ccc([nH]5)c(-c5ccc(S(=O)(=O)[O-])cc5)c5nc(c(-c6ccc(S(=O)(=O)[O-])cc6)c6ccc3[nH]6)C=C5)C=C4)cc2)oc2c1/C(=N/NC(=O)C(c1ccccc1)c1ccccc1)CCC2
REMARK SMILES IDX 9 1 8 2 7 3 6 4 4 5 5 6 3 7 1 8 2 9 77 10 75 11 76 12 78 13
REMARK SMILES IDX 98 14 79 15 96 16 97 17 80 18 81 19 82 21 83 22 84 23 85 24
REMARK SMILES IDX 89 25 86 26 88 27 87 28 90 29 91 30 95 31 92 32 94 33 93 34
REMARK SMILES IDX 10 35 11 36 12 37 13 38 14 39 15 40 16 41 74 42 17 43 73 44
REMARK SMILES IDX 18 45 19 46 20 47 67 48 21 49 72 50 66 51 68 52 22 53 71 54
REMARK SMILES IDX 65 55 64 56 23 58 53 59 34 60 52 61 35 62 38 63 51 64 69 65
REMARK SMILES IDX 36 66 37 67 50 69 70 70 39 71 24 72 25 73 33 74 26 75 32 76
REMARK SMILES IDX 27 77 28 78 29 79 30 80 31 81 54 82 55 83 63 84 56 85 62 86
REMARK SMILES IDX 57 87 58 88 59 89 60 90 61 91 40 92 41 93 49 94 42 95 48 96
REMARK SMILES IDX 43 97 44 98 45 99 46 100 47 101
REMARK H PARENT 80 20 68 57 38 68
REMARK Flexibility Score: inf
ROOT
ATOM      1  O   UNL A   1      35.507  31.659  27.809  1.00  0.00    -0.374 OA
ENDROOT
BRANCH   1   2
ATOM      2  C   UNL A   1      34.515  30.637  27.691  1.00  0.00     0.202 C 
BRANCH   2   3
ATOM      3  C   UNL A   1      33.184  31.068  27.071  1.00  0.00     0.261 C 
BRANCH   3   4
ATOM      4  O   UNL A   1      32.232  30.010  27.154  1.00  0.00    -0.457 OA
BRANCH   4   5
ATOM      5  C   UNL A   1      31.618  29.664  25.994  1.00  0.00     0.374 C 
ATOM      6  O   UNL A   1      31.112  30.442  25.190  1.00  0.00    -0.242 OA
BRANCH   5   7
ATOM      7  C   UNL A   1      31.788  28.249  25.804  1.00  0.00     0.215 A 
ATOM      8  C   UNL A   1      34.192  27.952  24.877  1.00  0.00     0.049 C 
ATOM      9  C   UNL A   1      32.844  27.495  25.304  1.00  0.00     0.012 A 
ATOM     10  C   UNL A   1      32.332  26.173  25.225  1.00  0.00     0.043 A 
ATOM     11  O   UNL A   1      30.772  27.434  26.224  1.00  0.00    -0.453 OA
ATOM     12  C   UNL A   1      31.119  26.187  25.878  1.00  0.00     0.114 A 
ATOM     13  C   UNL A   1      32.785  24.974  24.534  1.00  0.00     0.072 C 
ATOM     14  C   UNL A   1      30.137  25.104  26.088  1.00  0.00     0.076 C 
ATOM     15  N   UNL A   1      34.045  25.025  24.197  1.00  0.00    -0.177 NA
ATOM     16  C   UNL A   1      31.568  24.067  24.292  1.00  0.00     0.059 C 
ATOM     17  C   UNL A   1      30.733  23.808  25.555  1.00  0.00     0.014 C 
BRANCH  15  18
ATOM     18  N   UNL A   1      34.960  24.283  23.490  1.00  0.00    -0.246 N 
ATOM     19  C   UNL A   1      35.757  23.175  23.718  1.00  0.00     0.252 C 
ATOM     20  H   UNL A   1      35.080  24.633  22.578  1.00  0.00     0.193 HD
ATOM     21  O   UNL A   1      36.469  22.751  22.800  1.00  0.00    -0.272 OA
BRANCH  19  22
ATOM     22  C   UNL A   1      35.734  22.489  25.075  1.00  0.00     0.140 C 
BRANCH  22  23
ATOM     23  C   UNL A   1      34.935  21.123  24.879  1.00  0.00    -0.031 A 
ATOM     24  C   UNL A   1      33.508  21.089  24.802  1.00  0.00     0.005 A 
ATOM     25  C   UNL A   1      35.552  19.867  24.778  1.00  0.00     0.005 A 
ATOM     26  C   UNL A   1      32.759  19.953  24.482  1.00  0.00     0.000 A 
ATOM     27  C   UNL A   1      34.791  18.700  24.516  1.00  0.00     0.000 A 
ATOM     28  C   UNL A   1      33.406  18.748  24.333  1.00  0.00     0.000 A 
ENDBRANCH  22  23
BRANCH  22  29
ATOM     29  C   UNL A   1      37.191  22.665  25.702  1.00  0.00    -0.031 A 
ATOM     30  C   UNL A   1      38.165  21.657  25.723  1.00  0.00     0.005 A 
ATOM     31  C   UNL A   1      37.606  23.907  26.279  1.00  0.00     0.005 A 
ATOM     32  C   UNL A   1      39.488  21.934  26.151  1.00  0.00     0.000 A 
ATOM     33  C   UNL A   1      38.925  24.204  26.635  1.00  0.00     0.000 A 
ATOM     34  C   UNL A   1      39.878  23.212  26.557  1.00  0.00     0.000 A 
ENDBRANCH  22  29
ENDBRANCH  19  22
ENDBRANCH  15  18
ENDBRANCH   5   7
ENDBRANCH   4   5
ENDBRANCH   3   4
ENDBRANCH   2   3
ENDBRANCH   1   2
BRANCH   1  35
ATOM     35  C   UNL A   1      35.083  33.010  27.972  1.00  0.00     0.202 C 
BRANCH  35  36
ATOM     36  C   UNL A   1      34.838  33.518  29.382  1.00  0.00     0.261 C 
BRANCH  36  37
ATOM     37  O   UNL A   1      35.871  33.116  30.272  1.00  0.00    -0.460 OA
BRANCH  37  38
ATOM     38  C   UNL A   1      35.500  32.166  31.158  1.00  0.00     0.338 C 
ATOM     39  O   UNL A   1      34.451  32.111  31.778  1.00  0.00    -0.246 OA
BRANCH  38  40
ATOM     40  C   UNL A   1      36.659  31.305  31.411  1.00  0.00     0.060 A 
ATOM     41  C   UNL A   1      37.842  31.954  31.760  1.00  0.00     0.016 A 
ATOM     42  C   UNL A   1      36.636  29.942  31.064  1.00  0.00     0.016 A 
ATOM     43  C   UNL A   1      39.031  31.284  31.585  1.00  0.00     0.010 A 
ATOM     44  C   UNL A   1      37.828  29.274  30.884  1.00  0.00     0.010 A 
ATOM     45  C   UNL A   1      39.011  29.975  31.078  1.00  0.00    -0.014 A 
BRANCH  45  46
ATOM     46  C   UNL A   1      40.288  29.322  30.885  1.00  0.00     0.031 A 
ATOM     47  C   UNL A   1      41.033  29.156  32.150  1.00  0.00     0.074 A 
ATOM     48  C   UNL A   1      40.739  28.872  29.702  1.00  0.00     0.049 A 
ATOM     49  N   UNL A   1      42.048  29.848  32.544  1.00  0.00    -0.248 NA
ATOM     50  C   UNL A   1      40.465  28.269  33.174  1.00  0.00     0.031 C 
ATOM     51  C   UNL A   1      40.018  28.751  28.434  1.00  0.00     0.029 A 
ATOM     52  N   UNL A   1      41.955  28.337  29.419  1.00  0.00    -0.354 N 
ATOM     53  C   UNL A   1      42.397  29.322  33.778  1.00  0.00     0.074 A 
ATOM     54  C   UNL A   1      41.286  28.504  34.199  1.00  0.00     0.031 C 
ATOM     55  C   UNL A   1      40.738  27.975  27.588  1.00  0.00     0.029 A 
ATOM     56  C   UNL A   1      42.023  27.676  28.200  1.00  0.00     0.049 A 
ATOM     57  H   UNL A   1      42.725  28.412  30.027  1.00  0.00     0.167 HD
ATOM     58  C   UNL A   1      43.680  29.380  34.226  1.00  0.00     0.031 A 
ATOM     59  C   UNL A   1      43.047  26.900  27.765  1.00  0.00     0.031 A 
ATOM     60  C   UNL A   1      44.461  30.338  33.486  1.00  0.00     0.049 A 
ATOM     61  C   UNL A   1      44.257  27.314  28.519  1.00  0.00     0.074 A 
ATOM     62  C   UNL A   1      44.384  31.700  33.268  1.00  0.00     0.029 A 
ATOM     63  N   UNL A   1      45.283  29.839  32.503  1.00  0.00    -0.354 N 
ATOM     64  N   UNL A   1      44.817  28.483  28.381  1.00  0.00    -0.248 NA
ATOM     65  C   UNL A   1      44.592  26.605  29.744  1.00  0.00     0.031 C 
ATOM     66  C   UNL A   1      44.791  31.882  31.914  1.00  0.00     0.029 A 
ATOM     67  C   UNL A   1      45.155  30.637  31.396  1.00  0.00     0.049 A 
ATOM     68  H   UNL A   1      45.862  29.045  32.580  1.00  0.00     0.167 HD
ATOM     69  C   UNL A   1      45.200  28.845  29.663  1.00  0.00     0.074 A 
ATOM     70  C   UNL A   1      45.138  27.608  30.439  1.00  0.00     0.031 C 
ATOM     71  C   UNL A   1      45.265  30.159  30.032  1.00  0.00     0.031 A 
BRANCH  58  72
ATOM     72  C   UNL A   1      44.312  28.261  35.012  1.00  0.00    -0.014 A 
ATOM     73  C   UNL A   1      44.782  28.526  36.312  1.00  0.00     0.010 A 
ATOM     74  C   UNL A   1      44.721  27.048  34.417  1.00  0.00     0.010 A 
ATOM     75  C   UNL A   1      45.673  27.656  36.952  1.00  0.00     0.020 A 
ATOM     76  C   UNL A   1      45.571  26.151  35.063  1.00  0.00     0.020 A 
ATOM     77  C   UNL A   1      46.070  26.480  36.314  1.00  0.00     0.054 A 
BRANCH  77  78
ATOM     78  S   UNL A   1      47.298  25.413  37.103  1.00  0.00     0.124 S 
ATOM     79  O   UNL A   1      47.015  25.627  38.518  1.00  0.00    -0.237 OA
ATOM     80  O   UNL A   1      46.947  24.098  36.575  1.00  0.00    -0.237 OA
ATOM     81  O   UNL A   1      48.572  25.950  36.629  1.00  0.00    -0.744 OA
ENDBRANCH  77  78
ENDBRANCH  58  72
BRANCH  59  82
ATOM     82  C   UNL A   1      42.973  25.614  27.027  1.00  0.00    -0.014 A 
ATOM     83  C   UNL A   1      43.244  25.560  25.646  1.00  0.00     0.010 A 
ATOM     84  C   UNL A   1      42.944  24.395  27.736  1.00  0.00     0.010 A 
ATOM     85  C   UNL A   1      43.559  24.344  25.016  1.00  0.00     0.020 A 
ATOM     86  C   UNL A   1      43.249  23.179  27.113  1.00  0.00     0.020 A 
ATOM     87  C   UNL A   1      43.586  23.164  25.762  1.00  0.00     0.054 A 
BRANCH  87  88
ATOM     88  S   UNL A   1      44.200  21.633  24.996  1.00  0.00     0.124 S 
ATOM     89  O   UNL A   1      44.230  21.983  23.579  1.00  0.00    -0.237 OA
ATOM     90  O   UNL A   1      45.503  21.458  25.632  1.00  0.00    -0.237 OA
ATOM     91  O   UNL A   1      43.195  20.637  25.367  1.00  0.00    -0.744 OA
ENDBRANCH  87  88
ENDBRANCH  59  82
BRANCH  71  92
ATOM     92  C   UNL A   1      45.235  31.209  28.943  1.00  0.00    -0.014 A 
ATOM     93  C   UNL A   1      46.362  31.935  28.512  1.00  0.00     0.010 A 
ATOM     94  C   UNL A   1      44.027  31.372  28.241  1.00  0.00     0.010 A 
ATOM     95  C   UNL A   1      46.272  32.825  27.430  1.00  0.00     0.020 A 
ATOM     96  C   UNL A   1      43.934  32.240  27.153  1.00  0.00     0.020 A 
ATOM     97  C   UNL A   1      45.054  32.973  26.758  1.00  0.00     0.054 A 
BRANCH  97  98
ATOM     98  S   UNL A   1      44.944  34.099  25.338  1.00  0.00     0.124 S 
ATOM     99  O   UNL A   1      44.056  35.147  25.831  1.00  0.00    -0.237 OA
ATOM    100  O   UNL A   1      46.334  34.498  25.130  1.00  0.00    -0.237 OA
ATOM    101  O   UNL A   1      44.383  33.265  24.275  1.00  0.00    -0.744 OA
ENDBRANCH  97  98
ENDBRANCH  71  92
ENDBRANCH  45  46
ENDBRANCH  38  40
ENDBRANCH  37  38
ENDBRANCH  36  37
ENDBRANCH  35  36
ENDBRANCH   1  35
TORSDOF 21
ENDMDL
