MODEL 1
REMARK VINA RESULT:     -11.1      0.000      0.000
REMARK SMILES Cc1ncccc1NC(=O)NC[C@H]1CCC[C@H]1C(=O)OCCOCCOC(=O)c1ccc(-c2c3nc(c(-c4ccc(S(=O)(=O)[O-])cc4)c4ccc([nH]4)c(-c4ccc(S(=O)(=O)[O-])cc4)c4nc(c(-c5ccc(S(=O)(=O)[O-])cc5)c5ccc2[nH]5)C=C4)C=C3)cc1
REMARK SMILES IDX 23 1 22 2 21 3 20 4 18 5 19 6 17 7 13 8 14 9 15 10 16 11
REMARK SMILES IDX 12 12 11 13 8 14 9 15 10 17 7 19 1 20 2 21 3 22 4 23 6 24
REMARK SMILES IDX 5 25 24 26 25 27 26 28 27 29 28 30 29 31 30 32 88 33 31 34
REMARK SMILES IDX 87 35 32 36 33 37 34 38 81 39 35 40 86 41 80 42 82 43 36 44
REMARK SMILES IDX 85 45 79 46 78 47 37 49 67 50 48 51 66 52 49 53 52 54 65 55
REMARK SMILES IDX 83 56 50 57 51 58 64 60 84 61 53 62 38 63 39 64 47 65 40 66
REMARK SMILES IDX 46 67 41 68 42 69 43 70 44 71 45 72 68 73 69 74 77 75 70 76
REMARK SMILES IDX 76 77 71 78 72 79 73 80 74 81 75 82 54 83 55 84 63 85 56 86
REMARK SMILES IDX 62 87 57 88 58 89 59 90 60 91 61 92
REMARK H PARENT 8 16 11 18 82 48 52 59
REMARK Flexibility Score: inf
ROOT
ATOM      1  O   UNL A   1      34.585  31.244  27.280  1.00  0.00    -0.374 OA
ENDROOT
BRANCH   1   2
ATOM      2  C   UNL A   1      33.599  30.275  27.647  1.00  0.00     0.202 C 
BRANCH   2   3
ATOM      3  C   UNL A   1      32.261  30.392  26.911  1.00  0.00     0.261 C 
BRANCH   3   4
ATOM      4  O   UNL A   1      31.642  29.094  26.813  1.00  0.00    -0.463 OA
BRANCH   4   5
ATOM      5  C   UNL A   1      31.687  28.487  25.605  1.00  0.00     0.309 C 
ATOM      6  O   UNL A   1      31.026  28.818  24.628  1.00  0.00    -0.252 OA
BRANCH   5   7
ATOM      7  C   UNL A   1      32.703  27.365  25.550  1.00  0.00     0.104 C 
ATOM      8  C   UNL A   1      32.285  25.949  25.993  1.00  0.00     0.022 C 
ATOM      9  C   UNL A   1      33.532  25.159  25.597  1.00  0.00     0.006 C 
ATOM     10  C   UNL A   1      34.004  25.767  24.278  1.00  0.00     0.001 C 
ATOM     11  C   UNL A   1      33.385  27.166  24.202  1.00  0.00     0.016 C 
BRANCH   8  12
ATOM     12  C   UNL A   1      30.969  25.362  25.447  1.00  0.00     0.122 C 
BRANCH  12  13
ATOM     13  N   UNL A   1      30.223  24.482  26.310  1.00  0.00    -0.338 N 
ATOM     14  N   UNL A   1      31.028  22.243  26.665  1.00  0.00    -0.306 N 
ATOM     15  C   UNL A   1      30.241  23.290  26.868  1.00  0.00     0.319 C 
ATOM     16  H   UNL A   1      30.710  21.501  27.228  1.00  0.00     0.171 HD
ATOM     17  O   UNL A   1      29.324  23.104  27.683  1.00  0.00    -0.249 OA
ATOM     18  H   UNL A   1      29.395  24.941  26.582  1.00  0.00     0.165 HD
BRANCH  14  19
ATOM     19  C   UNL A   1      32.149  21.806  25.943  1.00  0.00     0.064 A 
ATOM     20  C   UNL A   1      33.698  22.252  27.960  1.00  0.00     0.069 C 
ATOM     21  C   UNL A   1      33.423  21.798  26.553  1.00  0.00     0.061 A 
ATOM     22  N   UNL A   1      34.554  21.366  25.919  1.00  0.00    -0.259 NA
ATOM     23  C   UNL A   1      34.449  20.946  24.647  1.00  0.00     0.111 A 
ATOM     24  C   UNL A   1      32.118  21.393  24.620  1.00  0.00     0.030 A 
ATOM     25  C   UNL A   1      33.261  20.942  23.960  1.00  0.00     0.022 A 
ENDBRANCH  14  19
ENDBRANCH  12  13
ENDBRANCH   8  12
ENDBRANCH   5   7
ENDBRANCH   4   5
ENDBRANCH   3   4
ENDBRANCH   2   3
ENDBRANCH   1   2
BRANCH   1  26
ATOM     26  C   UNL A   1      34.797  32.328  28.180  1.00  0.00     0.202 C 
BRANCH  26  27
ATOM     27  C   UNL A   1      35.049  31.958  29.654  1.00  0.00     0.261 C 
BRANCH  27  28
ATOM     28  O   UNL A   1      36.447  31.847  29.987  1.00  0.00    -0.460 OA
BRANCH  28  29
ATOM     29  C   UNL A   1      36.770  30.731  30.692  1.00  0.00     0.338 C 
ATOM     30  O   UNL A   1      36.142  30.258  31.623  1.00  0.00    -0.246 OA
BRANCH  29  31
ATOM     31  C   UNL A   1      37.914  30.028  30.068  1.00  0.00     0.060 A 
ATOM     32  C   UNL A   1      38.833  29.421  30.934  1.00  0.00     0.016 A 
ATOM     33  C   UNL A   1      38.141  30.019  28.689  1.00  0.00     0.016 A 
ATOM     34  C   UNL A   1      40.012  28.868  30.436  1.00  0.00     0.010 A 
ATOM     35  C   UNL A   1      39.328  29.461  28.190  1.00  0.00     0.010 A 
ATOM     36  C   UNL A   1      40.291  28.923  29.064  1.00  0.00    -0.014 A 
BRANCH  36  37
ATOM     37  C   UNL A   1      41.651  28.551  28.585  1.00  0.00     0.031 A 
ATOM     38  C   UNL A   1      42.738  29.597  28.557  1.00  0.00     0.074 A 
ATOM     39  C   UNL A   1      41.942  27.282  28.242  1.00  0.00     0.049 A 
ATOM     40  N   UNL A   1      43.994  29.480  28.208  1.00  0.00    -0.248 NA
ATOM     41  C   UNL A   1      42.358  30.953  28.980  1.00  0.00     0.031 C 
ATOM     42  C   UNL A   1      41.002  26.162  28.267  1.00  0.00     0.029 A 
ATOM     43  N   UNL A   1      43.120  26.721  27.812  1.00  0.00    -0.354 N 
ATOM     44  C   UNL A   1      44.551  30.746  28.357  1.00  0.00     0.074 A 
ATOM     45  C   UNL A   1      43.487  31.622  28.797  1.00  0.00     0.031 C 
ATOM     46  C   UNL A   1      41.644  25.046  27.881  1.00  0.00     0.029 A 
ATOM     47  C   UNL A   1      43.027  25.375  27.544  1.00  0.00     0.049 A 
ATOM     48  H   UNL A   1      43.954  27.234  27.706  1.00  0.00     0.167 HD
ATOM     49  C   UNL A   1      45.830  31.144  28.153  1.00  0.00     0.031 A 
ATOM     50  C   UNL A   1      43.944  24.510  27.064  1.00  0.00     0.031 A 
ATOM     51  C   UNL A   1      46.888  30.276  27.705  1.00  0.00     0.049 A 
ATOM     52  C   UNL A   1      45.341  24.993  26.770  1.00  0.00     0.074 A 
ATOM     53  C   UNL A   1      48.221  30.585  27.492  1.00  0.00     0.029 A 
ATOM     54  N   UNL A   1      46.736  28.935  27.389  1.00  0.00    -0.354 N 
ATOM     55  N   UNL A   1      45.857  26.186  26.944  1.00  0.00    -0.248 NA
ATOM     56  C   UNL A   1      46.282  24.006  26.219  1.00  0.00     0.031 C 
ATOM     57  C   UNL A   1      48.859  29.451  26.981  1.00  0.00     0.029 A 
ATOM     58  C   UNL A   1      47.942  28.412  26.948  1.00  0.00     0.049 A 
ATOM     59  H   UNL A   1      45.896  28.428  27.467  1.00  0.00     0.167 HD
ATOM     60  C   UNL A   1      47.189  26.085  26.554  1.00  0.00     0.074 A 
ATOM     61  C   UNL A   1      47.403  24.712  26.147  1.00  0.00     0.031 C 
ATOM     62  C   UNL A   1      48.149  27.045  26.539  1.00  0.00     0.031 A 
BRANCH  49  63
ATOM     63  C   UNL A   1      46.149  32.602  28.370  1.00  0.00    -0.014 A 
ATOM     64  C   UNL A   1      46.588  33.082  29.618  1.00  0.00     0.010 A 
ATOM     65  C   UNL A   1      46.039  33.503  27.294  1.00  0.00     0.010 A 
ATOM     66  C   UNL A   1      46.864  34.442  29.796  1.00  0.00     0.020 A 
ATOM     67  C   UNL A   1      46.346  34.856  27.459  1.00  0.00     0.020 A 
ATOM     68  C   UNL A   1      46.737  35.321  28.716  1.00  0.00     0.054 A 
BRANCH  68  69
ATOM     69  S   UNL A   1      47.108  37.078  28.974  1.00  0.00     0.124 S 
ATOM     70  O   UNL A   1      48.021  37.358  27.869  1.00  0.00    -0.237 OA
ATOM     71  O   UNL A   1      45.791  37.701  28.874  1.00  0.00    -0.237 OA
ATOM     72  O   UNL A   1      47.713  37.115  30.303  1.00  0.00    -0.744 OA
ENDBRANCH  68  69
ENDBRANCH  49  63
BRANCH  50  73
ATOM     73  C   UNL A   1      43.564  23.090  26.819  1.00  0.00    -0.014 A 
ATOM     74  C   UNL A   1      43.838  22.473  25.586  1.00  0.00     0.010 A 
ATOM     75  C   UNL A   1      42.928  22.342  27.829  1.00  0.00     0.010 A 
ATOM     76  C   UNL A   1      43.475  21.140  25.363  1.00  0.00     0.020 A 
ATOM     77  C   UNL A   1      42.591  21.003  27.621  1.00  0.00     0.020 A 
ATOM     78  C   UNL A   1      42.859  20.412  26.385  1.00  0.00     0.054 A 
BRANCH  78  79
ATOM     79  S   UNL A   1      42.455  18.667  26.095  1.00  0.00     0.124 S 
ATOM     80  O   UNL A   1      43.380  18.315  25.022  1.00  0.00    -0.237 OA
ATOM     81  O   UNL A   1      42.733  18.061  27.395  1.00  0.00    -0.237 OA
ATOM     82  O   UNL A   1      41.044  18.698  25.719  1.00  0.00    -0.744 OA
ENDBRANCH  78  79
ENDBRANCH  50  73
BRANCH  62  83
ATOM     83  C   UNL A   1      49.537  26.643  26.103  1.00  0.00    -0.014 A 
ATOM     84  C   UNL A   1      50.015  26.931  24.813  1.00  0.00     0.010 A 
ATOM     85  C   UNL A   1      50.397  26.016  27.024  1.00  0.00     0.010 A 
ATOM     86  C   UNL A   1      51.315  26.570  24.442  1.00  0.00     0.020 A 
ATOM     87  C   UNL A   1      51.707  25.683  26.669  1.00  0.00     0.020 A 
ATOM     88  C   UNL A   1      52.153  25.949  25.374  1.00  0.00     0.054 A 
BRANCH  88  89
ATOM     89  S   UNL A   1      53.848  25.531  24.881  1.00  0.00     0.124 S 
ATOM     90  O   UNL A   1      53.860  24.079  25.029  1.00  0.00    -0.237 OA
ATOM     91  O   UNL A   1      53.912  26.022  23.506  1.00  0.00    -0.237 OA
ATOM     92  O   UNL A   1      54.679  26.262  25.836  1.00  0.00    -0.744 OA
ENDBRANCH  88  89
ENDBRANCH  62  83
ENDBRANCH  36  37
ENDBRANCH  29  31
ENDBRANCH  28  29
ENDBRANCH  27  28
ENDBRANCH  26  27
ENDBRANCH   1  26
TORSDOF 20
ENDMDL
MODEL 2
REMARK VINA RESULT:     -10.5      3.214      4.284
REMARK SMILES Cc1ncccc1NC(=O)NC[C@H]1CCC[C@H]1C(=O)OCCOCCOC(=O)c1ccc(-c2c3nc(c(-c4ccc(S(=O)(=O)[O-])cc4)c4ccc([nH]4)c(-c4ccc(S(=O)(=O)[O-])cc4)c4nc(c(-c5ccc(S(=O)(=O)[O-])cc5)c5ccc2[nH]5)C=C4)C=C3)cc1
REMARK SMILES IDX 23 1 22 2 21 3 20 4 18 5 19 6 17 7 13 8 14 9 15 10 16 11
REMARK SMILES IDX 12 12 11 13 8 14 9 15 10 17 7 19 1 20 2 21 3 22 4 23 6 24
REMARK SMILES IDX 5 25 24 26 25 27 26 28 27 29 28 30 29 31 30 32 88 33 31 34
REMARK SMILES IDX 87 35 32 36 33 37 34 38 81 39 35 40 86 41 80 42 82 43 36 44
REMARK SMILES IDX 85 45 79 46 78 47 37 49 67 50 48 51 66 52 49 53 52 54 65 55
REMARK SMILES IDX 83 56 50 57 51 58 64 60 84 61 53 62 38 63 39 64 47 65 40 66
REMARK SMILES IDX 46 67 41 68 42 69 43 70 44 71 45 72 68 73 69 74 77 75 70 76
REMARK SMILES IDX 76 77 71 78 72 79 73 80 74 81 75 82 54 83 55 84 63 85 56 86
REMARK SMILES IDX 62 87 57 88 58 89 59 90 60 91 61 92
REMARK H PARENT 8 16 11 18 82 48 52 59
REMARK Flexibility Score: inf
ROOT
ATOM      1  O   UNL A   1      32.964  29.294  24.875  1.00  0.00    -0.374 OA
ENDROOT
BRANCH   1   2
ATOM      2  C   UNL A   1      32.629  28.913  23.538  1.00  0.00     0.202 C 
BRANCH   2   3
ATOM      3  C   UNL A   1      32.844  27.432  23.208  1.00  0.00     0.261 C 
BRANCH   3   4
ATOM      4  O   UNL A   1      33.995  26.935  23.919  1.00  0.00    -0.463 OA
BRANCH   4   5
ATOM      5  C   UNL A   1      33.862  25.739  24.535  1.00  0.00     0.309 C 
ATOM      6  O   UNL A   1      34.206  25.501  25.687  1.00  0.00    -0.252 OA
BRANCH   5   7
ATOM      7  C   UNL A   1      33.173  24.705  23.668  1.00  0.00     0.104 C 
ATOM      8  C   UNL A   1      34.018  23.612  22.986  1.00  0.00     0.022 C 
ATOM      9  C   UNL A   1      32.910  22.735  22.403  1.00  0.00     0.006 C 
ATOM     10  C   UNL A   1      31.798  22.724  23.449  1.00  0.00     0.001 C 
ATOM     11  C   UNL A   1      32.026  23.954  24.334  1.00  0.00     0.016 C 
BRANCH   8  12
ATOM     12  C   UNL A   1      35.052  22.842  23.830  1.00  0.00     0.122 C 
BRANCH  12  13
ATOM     13  N   UNL A   1      34.764  22.655  25.228  1.00  0.00    -0.338 N 
ATOM     14  N   UNL A   1      33.952  20.516  25.973  1.00  0.00    -0.306 N 
ATOM     15  C   UNL A   1      34.403  21.753  26.117  1.00  0.00     0.319 C 
ATOM     16  H   UNL A   1      33.731  20.159  26.863  1.00  0.00     0.171 HD
ATOM     17  O   UNL A   1      34.442  22.162  27.289  1.00  0.00    -0.249 OA
ATOM     18  H   UNL A   1      34.880  23.518  25.688  1.00  0.00     0.165 HD
BRANCH  14  19
ATOM     19  C   UNL A   1      33.674  19.528  25.015  1.00  0.00     0.064 A 
ATOM     20  C   UNL A   1      36.148  18.788  24.973  1.00  0.00     0.069 C 
ATOM     21  C   UNL A   1      34.711  18.695  24.539  1.00  0.00     0.061 A 
ATOM     22  N   UNL A   1      34.511  17.700  23.624  1.00  0.00    -0.259 NA
ATOM     23  C   UNL A   1      33.270  17.519  23.142  1.00  0.00     0.111 A 
ATOM     24  C   UNL A   1      32.427  19.311  24.450  1.00  0.00     0.030 A 
ATOM     25  C   UNL A   1      32.204  18.295  23.522  1.00  0.00     0.022 A 
ENDBRANCH  14  19
ENDBRANCH  12  13
ENDBRANCH   8  12
ENDBRANCH   5   7
ENDBRANCH   4   5
ENDBRANCH   3   4
ENDBRANCH   2   3
ENDBRANCH   1   2
BRANCH   1  26
ATOM     26  C   UNL A   1      31.990  30.039  25.601  1.00  0.00     0.202 C 
BRANCH  26  27
ATOM     27  C   UNL A   1      32.485  30.768  26.865  1.00  0.00     0.261 C 
BRANCH  27  28
ATOM     28  O   UNL A   1      33.522  30.057  27.568  1.00  0.00    -0.460 OA
BRANCH  28  29
ATOM     29  C   UNL A   1      34.447  30.855  28.163  1.00  0.00     0.338 C 
ATOM     30  O   UNL A   1      34.236  31.930  28.698  1.00  0.00    -0.246 OA
BRANCH  29  31
ATOM     31  C   UNL A   1      35.756  30.168  28.252  1.00  0.00     0.060 A 
ATOM     32  C   UNL A   1      36.101  29.622  29.495  1.00  0.00     0.016 A 
ATOM     33  C   UNL A   1      36.662  30.120  27.189  1.00  0.00     0.016 A 
ATOM     34  C   UNL A   1      37.373  29.090  29.702  1.00  0.00     0.010 A 
ATOM     35  C   UNL A   1      37.943  29.584  27.401  1.00  0.00     0.010 A 
ATOM     36  C   UNL A   1      38.321  29.108  28.670  1.00  0.00    -0.014 A 
BRANCH  36  37
ATOM     37  C   UNL A   1      39.736  28.764  28.978  1.00  0.00     0.031 A 
ATOM     38  C   UNL A   1      40.594  29.757  29.722  1.00  0.00     0.074 A 
ATOM     39  C   UNL A   1      40.240  27.556  28.664  1.00  0.00     0.049 A 
ATOM     40  N   UNL A   1      41.837  29.648  30.118  1.00  0.00    -0.248 NA
ATOM     41  C   UNL A   1      39.966  31.043  30.065  1.00  0.00     0.031 C 
ATOM     42  C   UNL A   1      39.510  26.484  27.989  1.00  0.00     0.029 A 
ATOM     43  N   UNL A   1      41.489  27.025  28.883  1.00  0.00    -0.354 N 
ATOM     44  C   UNL A   1      42.144  30.852  30.745  1.00  0.00     0.074 A 
ATOM     45  C   UNL A   1      40.967  31.687  30.647  1.00  0.00     0.031 C 
ATOM     46  C   UNL A   1      40.320  25.419  27.859  1.00  0.00     0.029 A 
ATOM     47  C   UNL A   1      41.637  25.744  28.404  1.00  0.00     0.049 A 
ATOM     48  H   UNL A   1      42.210  27.515  29.340  1.00  0.00     0.167 HD
ATOM     49  C   UNL A   1      43.296  31.227  31.353  1.00  0.00     0.031 A 
ATOM     50  C   UNL A   1      42.713  24.931  28.390  1.00  0.00     0.031 A 
ATOM     51  C   UNL A   1      44.472  30.401  31.442  1.00  0.00     0.049 A 
ATOM     52  C   UNL A   1      44.008  25.400  29.002  1.00  0.00     0.074 A 
ATOM     53  C   UNL A   1      45.679  30.688  32.058  1.00  0.00     0.029 A 
ATOM     54  N   UNL A   1      44.598  29.134  30.893  1.00  0.00    -0.354 N 
ATOM     55  N   UNL A   1      44.272  26.529  29.615  1.00  0.00    -0.248 NA
ATOM     56  C   UNL A   1      45.152  24.477  28.924  1.00  0.00     0.031 C 
ATOM     57  C   UNL A   1      46.556  29.625  31.821  1.00  0.00     0.029 A 
ATOM     58  C   UNL A   1      45.873  28.642  31.123  1.00  0.00     0.049 A 
ATOM     59  H   UNL A   1      43.886  28.655  30.410  1.00  0.00     0.167 HD
ATOM     60  C   UNL A   1      45.600  26.439  30.023  1.00  0.00     0.074 A 
ATOM     61  C   UNL A   1      46.082  25.142  29.598  1.00  0.00     0.031 C 
ATOM     62  C   UNL A   1      46.350  27.350  30.694  1.00  0.00     0.031 A 
BRANCH  49  63
ATOM     63  C   UNL A   1      43.357  32.618  31.932  1.00  0.00    -0.014 A 
ATOM     64  C   UNL A   1      43.882  33.699  31.200  1.00  0.00     0.010 A 
ATOM     65  C   UNL A   1      42.848  32.854  33.224  1.00  0.00     0.010 A 
ATOM     66  C   UNL A   1      43.939  34.977  31.765  1.00  0.00     0.020 A 
ATOM     67  C   UNL A   1      42.874  34.135  33.780  1.00  0.00     0.020 A 
ATOM     68  C   UNL A   1      43.439  35.186  33.054  1.00  0.00     0.054 A 
BRANCH  68  69
ATOM     69  S   UNL A   1      43.521  36.855  33.760  1.00  0.00     0.124 S 
ATOM     70  O   UNL A   1      42.284  36.913  34.537  1.00  0.00    -0.237 OA
ATOM     71  O   UNL A   1      44.752  36.810  34.544  1.00  0.00    -0.237 OA
ATOM     72  O   UNL A   1      43.561  37.727  32.590  1.00  0.00    -0.744 OA
ENDBRANCH  68  69
ENDBRANCH  49  63
BRANCH  50  73
ATOM     73  C   UNL A   1      42.616  23.584  27.759  1.00  0.00    -0.014 A 
ATOM     74  C   UNL A   1      42.912  23.403  26.397  1.00  0.00     0.010 A 
ATOM     75  C   UNL A   1      42.229  22.469  28.527  1.00  0.00     0.010 A 
ATOM     76  C   UNL A   1      42.813  22.136  25.812  1.00  0.00     0.020 A 
ATOM     77  C   UNL A   1      42.160  21.197  27.954  1.00  0.00     0.020 A 
ATOM     78  C   UNL A   1      42.444  21.040  26.597  1.00  0.00     0.054 A 
BRANCH  78  79
ATOM     79  S   UNL A   1      42.386  19.396  25.832  1.00  0.00     0.124 S 
ATOM     80  O   UNL A   1      40.992  19.307  25.407  1.00  0.00    -0.237 OA
ATOM     81  O   UNL A   1      43.368  19.515  24.757  1.00  0.00    -0.237 OA
ATOM     82  O   UNL A   1      42.768  18.497  26.918  1.00  0.00    -0.744 OA
ENDBRANCH  78  79
ENDBRANCH  50  73
BRANCH  62  83
ATOM     83  C   UNL A   1      47.766  26.969  31.048  1.00  0.00    -0.014 A 
ATOM     84  C   UNL A   1      48.073  26.321  32.257  1.00  0.00     0.010 A 
ATOM     85  C   UNL A   1      48.800  27.214  30.125  1.00  0.00     0.010 A 
ATOM     86  C   UNL A   1      49.392  25.955  32.550  1.00  0.00     0.020 A 
ATOM     87  C   UNL A   1      50.114  26.822  30.399  1.00  0.00     0.020 A 
ATOM     88  C   UNL A   1      50.403  26.207  31.618  1.00  0.00     0.054 A 
BRANCH  88  89
ATOM     89  S   UNL A   1      52.097  25.684  32.004  1.00  0.00     0.124 S 
ATOM     90  O   UNL A   1      52.380  26.438  33.222  1.00  0.00    -0.237 OA
ATOM     91  O   UNL A   1      51.954  24.241  32.179  1.00  0.00    -0.237 OA
ATOM     92  O   UNL A   1      52.863  26.090  30.828  1.00  0.00    -0.744 OA
ENDBRANCH  88  89
ENDBRANCH  62  83
ENDBRANCH  36  37
ENDBRANCH  29  31
ENDBRANCH  28  29
ENDBRANCH  27  28
ENDBRANCH  26  27
ENDBRANCH   1  26
TORSDOF 20
ENDMDL
MODEL 3
REMARK VINA RESULT:     -10.5      1.539      2.375
REMARK SMILES Cc1ncccc1NC(=O)NC[C@H]1CCC[C@H]1C(=O)OCCOCCOC(=O)c1ccc(-c2c3nc(c(-c4ccc(S(=O)(=O)[O-])cc4)c4ccc([nH]4)c(-c4ccc(S(=O)(=O)[O-])cc4)c4nc(c(-c5ccc(S(=O)(=O)[O-])cc5)c5ccc2[nH]5)C=C4)C=C3)cc1
REMARK SMILES IDX 23 1 22 2 21 3 20 4 18 5 19 6 17 7 13 8 14 9 15 10 16 11
REMARK SMILES IDX 12 12 11 13 8 14 9 15 10 17 7 19 1 20 2 21 3 22 4 23 6 24
REMARK SMILES IDX 5 25 24 26 25 27 26 28 27 29 28 30 29 31 30 32 88 33 31 34
REMARK SMILES IDX 87 35 32 36 33 37 34 38 81 39 35 40 86 41 80 42 82 43 36 44
REMARK SMILES IDX 85 45 79 46 78 47 37 49 67 50 48 51 66 52 49 53 52 54 65 55
REMARK SMILES IDX 83 56 50 57 51 58 64 60 84 61 53 62 38 63 39 64 47 65 40 66
REMARK SMILES IDX 46 67 41 68 42 69 43 70 44 71 45 72 68 73 69 74 77 75 70 76
REMARK SMILES IDX 76 77 71 78 72 79 73 80 74 81 75 82 54 83 55 84 63 85 56 86
REMARK SMILES IDX 62 87 57 88 58 89 59 90 60 91 61 92
REMARK H PARENT 8 16 11 18 82 48 52 59
REMARK Flexibility Score: inf
ROOT
ATOM      1  O   UNL A   1      35.733  31.870  27.753  1.00  0.00    -0.374 OA
ENDROOT
BRANCH   1   2
ATOM      2  C   UNL A   1      35.005  30.640  27.697  1.00  0.00     0.202 C 
BRANCH   2   3
ATOM      3  C   UNL A   1      33.506  30.780  27.417  1.00  0.00     0.261 C 
BRANCH   3   4
ATOM      4  O   UNL A   1      32.969  29.514  26.984  1.00  0.00    -0.463 OA
BRANCH   4   5
ATOM      5  C   UNL A   1      31.873  29.554  26.194  1.00  0.00     0.309 C 
ATOM      6  O   UNL A   1      31.379  30.575  25.729  1.00  0.00    -0.252 OA
BRANCH   5   7
ATOM      7  C   UNL A   1      31.328  28.177  25.875  1.00  0.00     0.104 C 
ATOM      8  C   UNL A   1      31.507  27.607  24.455  1.00  0.00     0.022 C 
ATOM      9  C   UNL A   1      30.987  26.185  24.663  1.00  0.00     0.006 C 
ATOM     10  C   UNL A   1      31.473  25.766  26.049  1.00  0.00     0.001 C 
ATOM     11  C   UNL A   1      31.789  27.060  26.805  1.00  0.00     0.016 C 
BRANCH   8  12
ATOM     12  C   UNL A   1      32.900  27.677  23.800  1.00  0.00     0.122 C 
BRANCH  12  13
ATOM     13  N   UNL A   1      33.087  26.979  22.555  1.00  0.00    -0.338 N 
ATOM     14  N   UNL A   1      33.672  24.646  22.605  1.00  0.00    -0.306 N 
ATOM     15  C   UNL A   1      33.318  25.790  22.039  1.00  0.00     0.319 C 
ATOM     16  H   UNL A   1      33.809  23.977  21.897  1.00  0.00     0.171 HD
ATOM     17  O   UNL A   1      33.245  25.759  20.800  1.00  0.00    -0.249 OA
ATOM     18  H   UNL A   1      33.017  27.630  21.819  1.00  0.00     0.165 HD
BRANCH  14  19
ATOM     19  C   UNL A   1      33.921  24.039  23.846  1.00  0.00     0.064 A 
ATOM     20  C   UNL A   1      31.990  22.363  23.483  1.00  0.00     0.069 C 
ATOM     21  C   UNL A   1      33.132  22.947  24.269  1.00  0.00     0.061 A 
ATOM     22  N   UNL A   1      33.331  22.294  25.453  1.00  0.00    -0.259 NA
ATOM     23  C   UNL A   1      34.314  22.726  26.260  1.00  0.00     0.111 A 
ATOM     24  C   UNL A   1      34.893  24.455  24.742  1.00  0.00     0.030 A 
ATOM     25  C   UNL A   1      35.115  23.795  25.951  1.00  0.00     0.022 A 
ENDBRANCH  14  19
ENDBRANCH  12  13
ENDBRANCH   8  12
ENDBRANCH   5   7
ENDBRANCH   4   5
ENDBRANCH   3   4
ENDBRANCH   2   3
ENDBRANCH   1   2
BRANCH   1  26
ATOM     26  C   UNL A   1      35.357  32.801  28.763  1.00  0.00     0.202 C 
BRANCH  26  27
ATOM     27  C   UNL A   1      35.177  32.238  30.185  1.00  0.00     0.261 C 
BRANCH  27  28
ATOM     28  O   UNL A   1      36.421  32.038  30.885  1.00  0.00    -0.460 OA
BRANCH  28  29
ATOM     29  C   UNL A   1      36.812  30.740  30.978  1.00  0.00     0.338 C 
ATOM     30  O   UNL A   1      36.088  29.781  31.179  1.00  0.00    -0.246 OA
BRANCH  29  31
ATOM     31  C   UNL A   1      38.241  30.593  30.619  1.00  0.00     0.060 A 
ATOM     32  C   UNL A   1      38.558  30.634  29.255  1.00  0.00     0.016 A 
ATOM     33  C   UNL A   1      39.240  30.343  31.563  1.00  0.00     0.016 A 
ATOM     34  C   UNL A   1      39.855  30.357  28.825  1.00  0.00     0.010 A 
ATOM     35  C   UNL A   1      40.545  30.065  31.127  1.00  0.00     0.010 A 
ATOM     36  C   UNL A   1      40.850  30.025  29.754  1.00  0.00    -0.014 A 
BRANCH  36  37
ATOM     37  C   UNL A   1      42.153  29.498  29.264  1.00  0.00     0.031 A 
ATOM     38  C   UNL A   1      43.367  30.394  29.278  1.00  0.00     0.074 A 
ATOM     39  C   UNL A   1      42.279  28.215  28.874  1.00  0.00     0.049 A 
ATOM     40  N   UNL A   1      44.599  30.128  28.927  1.00  0.00    -0.248 NA
ATOM     41  C   UNL A   1      43.163  31.772  29.751  1.00  0.00     0.031 C 
ATOM     42  C   UNL A   1      41.202  27.227  28.855  1.00  0.00     0.029 A 
ATOM     43  N   UNL A   1      43.378  27.523  28.426  1.00  0.00    -0.354 N 
ATOM     44  C   UNL A   1      45.315  31.305  29.125  1.00  0.00     0.074 A 
ATOM     45  C   UNL A   1      44.370  32.294  29.596  1.00  0.00     0.031 C 
ATOM     46  C   UNL A   1      41.696  26.052  28.428  1.00  0.00     0.029 A 
ATOM     47  C   UNL A   1      43.113  26.211  28.106  1.00  0.00     0.049 A 
ATOM     48  H   UNL A   1      44.273  27.927  28.341  1.00  0.00     0.167 HD
ATOM     49  C   UNL A   1      46.636  31.540  28.940  1.00  0.00     0.031 A 
ATOM     50  C   UNL A   1      43.914  25.253  27.596  1.00  0.00     0.031 A 
ATOM     51  C   UNL A   1      47.576  30.560  28.461  1.00  0.00     0.049 A 
ATOM     52  C   UNL A   1      45.363  25.561  27.323  1.00  0.00     0.074 A 
ATOM     53  C   UNL A   1      48.939  30.701  28.262  1.00  0.00     0.029 A 
ATOM     54  N   UNL A   1      47.254  29.262  28.094  1.00  0.00    -0.354 N 
ATOM     55  N   UNL A   1      46.028  26.670  27.543  1.00  0.00    -0.248 NA
ATOM     56  C   UNL A   1      46.173  24.481  26.737  1.00  0.00     0.031 C 
ATOM     57  C   UNL A   1      49.428  29.513  27.710  1.00  0.00     0.029 A 
ATOM     58  C   UNL A   1      48.384  28.605  27.637  1.00  0.00     0.049 A 
ATOM     59  H   UNL A   1      46.354  28.867  28.152  1.00  0.00     0.167 HD
ATOM     60  C   UNL A   1      47.339  26.411  27.152  1.00  0.00     0.074 A 
ATOM     61  C   UNL A   1      47.376  25.038  26.694  1.00  0.00     0.031 C 
ATOM     62  C   UNL A   1      48.416  27.238  27.177  1.00  0.00     0.031 A 
BRANCH  49  63
ATOM     63  C   UNL A   1      47.140  32.936  29.212  1.00  0.00    -0.014 A 
ATOM     64  C   UNL A   1      46.933  33.985  28.298  1.00  0.00     0.010 A 
ATOM     65  C   UNL A   1      47.804  33.209  30.423  1.00  0.00     0.010 A 
ATOM     66  C   UNL A   1      47.422  35.268  28.568  1.00  0.00     0.020 A 
ATOM     67  C   UNL A   1      48.265  34.496  30.712  1.00  0.00     0.020 A 
ATOM     68  C   UNL A   1      48.089  35.513  29.772  1.00  0.00     0.054 A 
BRANCH  68  69
ATOM     69  S   UNL A   1      48.708  37.187  30.100  1.00  0.00     0.124 S 
ATOM     70  O   UNL A   1      49.995  36.913  30.734  1.00  0.00    -0.237 OA
ATOM     71  O   UNL A   1      48.778  37.769  28.763  1.00  0.00    -0.237 OA
ATOM     72  O   UNL A   1      47.695  37.767  30.977  1.00  0.00    -0.744 OA
ENDBRANCH  68  69
ENDBRANCH  49  63
BRANCH  50  73
ATOM     73  C   UNL A   1      43.355  23.904  27.296  1.00  0.00    -0.014 A 
ATOM     74  C   UNL A   1      42.889  23.586  26.009  1.00  0.00     0.010 A 
ATOM     75  C   UNL A   1      43.293  22.923  28.305  1.00  0.00     0.010 A 
ATOM     76  C   UNL A   1      42.362  22.319  25.738  1.00  0.00     0.020 A 
ATOM     77  C   UNL A   1      42.796  21.647  28.030  1.00  0.00     0.020 A 
ATOM     78  C   UNL A   1      42.325  21.355  26.749  1.00  0.00     0.054 A 
BRANCH  78  79
ATOM     79  S   UNL A   1      41.698  19.699  26.357  1.00  0.00     0.124 S 
ATOM     80  O   UNL A   1      42.034  18.952  27.565  1.00  0.00    -0.237 OA
ATOM     81  O   UNL A   1      40.274  19.945  26.141  1.00  0.00    -0.237 OA
ATOM     82  O   UNL A   1      42.446  19.322  25.160  1.00  0.00    -0.744 OA
ENDBRANCH  78  79
ENDBRANCH  50  73
BRANCH  62  83
ATOM     83  C   UNL A   1      49.742  26.676  26.728  1.00  0.00    -0.014 A 
ATOM     84  C   UNL A   1      50.154  26.741  25.386  1.00  0.00     0.010 A 
ATOM     85  C   UNL A   1      50.618  26.124  27.682  1.00  0.00     0.010 A 
ATOM     86  C   UNL A   1      51.400  26.236  25.001  1.00  0.00     0.020 A 
ATOM     87  C   UNL A   1      51.877  25.647  27.309  1.00  0.00     0.020 A 
ATOM     88  C   UNL A   1      52.255  25.693  25.966  1.00  0.00     0.054 A 
BRANCH  88  89
ATOM     89  S   UNL A   1      53.882  25.083  25.447  1.00  0.00     0.124 S 
ATOM     90  O   UNL A   1      54.383  26.194  24.642  1.00  0.00    -0.237 OA
ATOM     91  O   UNL A   1      54.566  24.873  26.720  1.00  0.00    -0.237 OA
ATOM     92  O   UNL A   1      53.576  23.863  24.702  1.00  0.00    -0.744 OA
ENDBRANCH  88  89
ENDBRANCH  62  83
ENDBRANCH  36  37
ENDBRANCH  29  31
ENDBRANCH  28  29
ENDBRANCH  27  28
ENDBRANCH  26  27
ENDBRANCH   1  26
TORSDOF 20
ENDMDL
