MODEL 1
REMARK VINA RESULT:      -9.0      0.000      0.000
REMARK SMILES COc1cccc([C@H]2CC(c3ccc(S(C)(=O)=O)cc3)=NN2c2ccc(C(=O)OCCOCCOC(=O)c3ccc(-c4c5nc(c(-c6ccc(S(=O)(=O)[O-])cc6)c6ccc([nH]6)c(-c6ccc(S(=O)(=O)[O-])cc6)c6nc(c(-c7ccc(S(=O)(=O)[O-])cc7)c7ccc4[nH]7)C=C6)C=C5)cc3)cc2)c1
REMARK SMILES IDX 32 1 31 2 30 3 29 4 27 5 28 6 26 7 23 8 24 9 99 10 25 11
REMARK SMILES IDX 98 12 22 13 8 14 9 15 10 16 21 17 7 18 3 19 4 20 100 21 5 22
REMARK SMILES IDX 6 23 2 24 1 25 11 26 12 27 20 28 13 29 19 30 14 31 15 32
REMARK SMILES IDX 16 33 17 34 18 35 33 36 34 37 35 38 36 39 37 40 38 41 39 42
REMARK SMILES IDX 97 43 40 44 96 45 41 46 42 47 43 48 90 49 44 50 95 51 89 52
REMARK SMILES IDX 91 53 45 54 94 55 88 56 87 57 46 59 76 60 57 61 75 62 58 63
REMARK SMILES IDX 61 64 74 65 92 66 59 67 60 68 73 70 93 71 62 72 47 73 48 74
REMARK SMILES IDX 56 75 49 76 55 77 50 78 51 79 52 80 53 81 54 82 77 83 78 84
REMARK SMILES IDX 86 85 79 86 85 87 80 88 81 89 82 90 83 91 84 92 63 93 64 94
REMARK SMILES IDX 72 95 65 96 71 97 66 98 67 99 68 100 69 101 70 102
REMARK H PARENT 91 58 61 69
REMARK Flexibility Score: inf
ROOT
ATOM      1  O   UNL A   1      32.875  34.232  28.644  1.00  0.00    -0.374 OA
ENDROOT
BRANCH   1   2
ATOM      2  C   UNL A   1      33.385  34.869  29.817  1.00  0.00     0.202 C 
BRANCH   2   3
ATOM      3  C   UNL A   1      34.619  34.218  30.449  1.00  0.00     0.261 C 
BRANCH   3   4
ATOM      4  O   UNL A   1      34.247  33.267  31.459  1.00  0.00    -0.460 OA
BRANCH   4   5
ATOM      5  C   UNL A   1      34.682  33.561  32.708  1.00  0.00     0.338 C 
ATOM      6  O   UNL A   1      34.031  34.069  33.610  1.00  0.00    -0.246 OA
BRANCH   5   7
ATOM      7  C   UNL A   1      36.054  33.043  32.907  1.00  0.00     0.060 A 
ATOM      8  C   UNL A   1      38.565  31.942  33.516  1.00  0.00     0.060 A 
ATOM      9  C   UNL A   1      37.464  31.110  33.285  1.00  0.00     0.029 A 
ATOM     10  C   UNL A   1      38.412  33.325  33.330  1.00  0.00     0.029 A 
ATOM     11  C   UNL A   1      36.209  31.656  33.014  1.00  0.00     0.018 A 
ATOM     12  C   UNL A   1      37.168  33.879  33.013  1.00  0.00     0.018 A 
BRANCH   8  13
ATOM     13  N   UNL A   1      39.743  31.424  34.055  1.00  0.00    -0.257 N 
ATOM     14  C   UNL A   1      40.356  32.040  35.241  1.00  0.00     0.144 C 
ATOM     15  C   UNL A   1      41.362  30.979  35.692  1.00  0.00     0.091 C 
ATOM     16  C   UNL A   1      41.062  29.889  34.701  1.00  0.00     0.071 C 
ATOM     17  N   UNL A   1      40.133  30.139  33.832  1.00  0.00    -0.176 NA
BRANCH  14  18
ATOM     18  C   UNL A   1      39.331  32.401  36.314  1.00  0.00    -0.019 A 
ATOM     19  C   UNL A   1      37.521  31.803  37.837  1.00  0.00     0.119 A 
ATOM     20  C   UNL A   1      37.317  33.152  38.122  1.00  0.00     0.046 A 
ATOM     21  C   UNL A   1      38.511  31.429  36.925  1.00  0.00     0.052 A 
ATOM     22  C   UNL A   1      38.118  34.125  37.531  1.00  0.00     0.004 A 
ATOM     23  C   UNL A   1      39.123  33.752  36.637  1.00  0.00     0.006 A 
BRANCH  19  24
ATOM     24  O   UNL A   1      36.657  30.938  38.452  1.00  0.00    -0.497 OA
ATOM     25  C   UNL A   1      36.749  30.898  39.870  1.00  0.00     0.278 C 
ENDBRANCH  19  24
ENDBRANCH  14  18
BRANCH  16  26
ATOM     26  C   UNL A   1      41.851  28.651  34.699  1.00  0.00    -0.002 A 
ATOM     27  C   UNL A   1      41.959  27.934  35.895  1.00  0.00     0.011 A 
ATOM     28  C   UNL A   1      42.431  28.172  33.522  1.00  0.00     0.011 A 
ATOM     29  C   UNL A   1      42.636  26.714  35.914  1.00  0.00     0.021 A 
ATOM     30  C   UNL A   1      43.134  26.963  33.545  1.00  0.00     0.021 A 
ATOM     31  C   UNL A   1      43.230  26.241  34.740  1.00  0.00     0.067 A 
BRANCH  31  32
ATOM     32  S   UNL A   1      44.087  24.683  34.770  1.00  0.00     0.175 S 
ATOM     33  C   UNL A   1      44.221  24.223  33.061  1.00  0.00     0.163 C 
ATOM     34  O   UNL A   1      45.418  24.945  35.281  1.00  0.00    -0.224 OA
ATOM     35  O   UNL A   1      43.217  23.716  35.412  1.00  0.00    -0.224 OA
ENDBRANCH  31  32
ENDBRANCH  16  26
ENDBRANCH   8  13
ENDBRANCH   5   7
ENDBRANCH   4   5
ENDBRANCH   3   4
ENDBRANCH   2   3
ENDBRANCH   1   2
BRANCH   1  36
ATOM     36  C   UNL A   1      33.805  33.466  27.874  1.00  0.00     0.202 C 
BRANCH  36  37
ATOM     37  C   UNL A   1      33.328  32.080  27.425  1.00  0.00     0.261 C 
BRANCH  37  38
ATOM     38  O   UNL A   1      33.856  31.036  28.262  1.00  0.00    -0.460 OA
BRANCH  38  39
ATOM     39  C   UNL A   1      34.516  30.055  27.605  1.00  0.00     0.338 C 
ATOM     40  O   UNL A   1      34.126  29.427  26.631  1.00  0.00    -0.246 OA
BRANCH  39  41
ATOM     41  C   UNL A   1      35.895  29.948  28.120  1.00  0.00     0.060 A 
ATOM     42  C   UNL A   1      36.943  30.035  27.195  1.00  0.00     0.016 A 
ATOM     43  C   UNL A   1      36.160  29.709  29.471  1.00  0.00     0.016 A 
ATOM     44  C   UNL A   1      38.259  29.831  27.606  1.00  0.00     0.010 A 
ATOM     45  C   UNL A   1      37.480  29.495  29.880  1.00  0.00     0.010 A 
ATOM     46  C   UNL A   1      38.531  29.522  28.944  1.00  0.00    -0.014 A 
BRANCH  46  47
ATOM     47  C   UNL A   1      39.888  29.077  29.345  1.00  0.00     0.031 A 
ATOM     48  C   UNL A   1      40.780  30.045  30.074  1.00  0.00     0.074 A 
ATOM     49  C   UNL A   1      40.318  27.834  29.068  1.00  0.00     0.049 A 
ATOM     50  N   UNL A   1      42.028  29.904  30.441  1.00  0.00    -0.248 NA
ATOM     51  C   UNL A   1      40.187  31.343  30.435  1.00  0.00     0.031 C 
ATOM     52  C   UNL A   1      39.528  26.789  28.417  1.00  0.00     0.029 A 
ATOM     53  N   UNL A   1      41.538  27.244  29.292  1.00  0.00    -0.354 N 
ATOM     54  C   UNL A   1      42.373  31.099  31.064  1.00  0.00     0.074 A 
ATOM     55  C   UNL A   1      41.212  31.959  31.006  1.00  0.00     0.031 C 
ATOM     56  C   UNL A   1      40.289  25.689  28.282  1.00  0.00     0.029 A 
ATOM     57  C   UNL A   1      41.628  25.964  28.799  1.00  0.00     0.049 A 
ATOM     58  H   UNL A   1      42.276  27.695  29.761  1.00  0.00     0.167 HD
ATOM     59  C   UNL A   1      43.551  31.446  31.634  1.00  0.00     0.031 A 
ATOM     60  C   UNL A   1      42.680  25.123  28.746  1.00  0.00     0.031 A 
ATOM     61  C   UNL A   1      44.707  30.591  31.677  1.00  0.00     0.049 A 
ATOM     62  C   UNL A   1      44.006  25.560  29.314  1.00  0.00     0.074 A 
ATOM     63  C   UNL A   1      45.949  30.851  32.231  1.00  0.00     0.029 A 
ATOM     64  N   UNL A   1      44.766  29.313  31.144  1.00  0.00    -0.354 N 
ATOM     65  N   UNL A   1      44.317  26.691  29.902  1.00  0.00    -0.248 NA
ATOM     66  C   UNL A   1      45.120  24.607  29.216  1.00  0.00     0.031 C 
ATOM     67  C   UNL A   1      46.773  29.748  31.989  1.00  0.00     0.029 A 
ATOM     68  C   UNL A   1      46.027  28.778  31.339  1.00  0.00     0.049 A 
ATOM     69  H   UNL A   1      44.020  28.854  30.694  1.00  0.00     0.167 HD
ATOM     70  C   UNL A   1      45.652  26.569  30.277  1.00  0.00     0.074 A 
ATOM     71  C   UNL A   1      46.089  25.255  29.851  1.00  0.00     0.031 C 
ATOM     72  C   UNL A   1      46.441  27.461  30.923  1.00  0.00     0.031 A 
BRANCH  59  73
ATOM     73  C   UNL A   1      43.658  32.825  32.227  1.00  0.00    -0.014 A 
ATOM     74  C   UNL A   1      43.429  33.049  33.596  1.00  0.00     0.010 A 
ATOM     75  C   UNL A   1      44.035  33.906  31.409  1.00  0.00     0.010 A 
ATOM     76  C   UNL A   1      43.539  34.336  34.130  1.00  0.00     0.020 A 
ATOM     77  C   UNL A   1      44.172  35.190  31.945  1.00  0.00     0.020 A 
ATOM     78  C   UNL A   1      43.906  35.399  33.299  1.00  0.00     0.054 A 
BRANCH  78  79
ATOM     79  S   UNL A   1      44.066  37.056  34.022  1.00  0.00     0.124 S 
ATOM     80  O   UNL A   1      45.505  37.143  34.257  1.00  0.00    -0.237 OA
ATOM     81  O   UNL A   1      43.549  37.919  32.964  1.00  0.00    -0.237 OA
ATOM     82  O   UNL A   1      43.241  36.989  35.227  1.00  0.00    -0.744 OA
ENDBRANCH  78  79
ENDBRANCH  59  73
BRANCH  60  83
ATOM     83  C   UNL A   1      42.531  23.785  28.109  1.00  0.00    -0.014 A 
ATOM     84  C   UNL A   1      42.255  22.647  28.886  1.00  0.00     0.010 A 
ATOM     85  C   UNL A   1      42.668  23.645  26.715  1.00  0.00     0.010 A 
ATOM     86  C   UNL A   1      42.135  21.391  28.284  1.00  0.00     0.020 A 
ATOM     87  C   UNL A   1      42.522  22.396  26.107  1.00  0.00     0.020 A 
ATOM     88  C   UNL A   1      42.269  21.274  26.896  1.00  0.00     0.054 A 
BRANCH  88  89
ATOM     89  S   UNL A   1      42.063  19.642  26.130  1.00  0.00     0.124 S 
ATOM     90  O   UNL A   1      43.016  19.702  25.027  1.00  0.00    -0.237 OA
ATOM     91  O   UNL A   1      42.411  18.734  27.220  1.00  0.00    -0.237 OA
ATOM     92  O   UNL A   1      40.653  19.624  25.743  1.00  0.00    -0.744 OA
ENDBRANCH  88  89
ENDBRANCH  60  83
BRANCH  72  93
ATOM     93  C   UNL A   1      47.844  27.039  31.270  1.00  0.00    -0.014 A 
ATOM     94  C   UNL A   1      48.111  26.229  32.387  1.00  0.00     0.010 A 
ATOM     95  C   UNL A   1      48.900  27.389  30.408  1.00  0.00     0.010 A 
ATOM     96  C   UNL A   1      49.413  25.789  32.643  1.00  0.00     0.020 A 
ATOM     97  C   UNL A   1      50.197  26.931  30.646  1.00  0.00     0.020 A 
ATOM     98  C   UNL A   1      50.447  26.139  31.769  1.00  0.00     0.054 A 
BRANCH  98  99
ATOM     99  S   UNL A   1      52.114  25.496  32.082  1.00  0.00     0.124 S 
ATOM    100  O   UNL A   1      51.834  24.136  32.538  1.00  0.00    -0.237 OA
ATOM    101  O   UNL A   1      52.750  25.600  30.770  1.00  0.00    -0.237 OA
ATOM    102  O   UNL A   1      52.649  26.397  33.099  1.00  0.00    -0.744 OA
ENDBRANCH  98  99
ENDBRANCH  72  93
ENDBRANCH  46  47
ENDBRANCH  39  41
ENDBRANCH  38  39
ENDBRANCH  37  38
ENDBRANCH  36  37
ENDBRANCH   1  36
TORSDOF 22
ENDMDL
MODEL 2
REMARK VINA RESULT:      -8.6      4.365      9.338
REMARK SMILES COc1cccc([C@H]2CC(c3ccc(S(C)(=O)=O)cc3)=NN2c2ccc(C(=O)OCCOCCOC(=O)c3ccc(-c4c5nc(c(-c6ccc(S(=O)(=O)[O-])cc6)c6ccc([nH]6)c(-c6ccc(S(=O)(=O)[O-])cc6)c6nc(c(-c7ccc(S(=O)(=O)[O-])cc7)c7ccc4[nH]7)C=C6)C=C5)cc3)cc2)c1
REMARK SMILES IDX 32 1 31 2 30 3 29 4 27 5 28 6 26 7 23 8 24 9 99 10 25 11
REMARK SMILES IDX 98 12 22 13 8 14 9 15 10 16 21 17 7 18 3 19 4 20 100 21 5 22
REMARK SMILES IDX 6 23 2 24 1 25 11 26 12 27 20 28 13 29 19 30 14 31 15 32
REMARK SMILES IDX 16 33 17 34 18 35 33 36 34 37 35 38 36 39 37 40 38 41 39 42
REMARK SMILES IDX 97 43 40 44 96 45 41 46 42 47 43 48 90 49 44 50 95 51 89 52
REMARK SMILES IDX 91 53 45 54 94 55 88 56 87 57 46 59 76 60 57 61 75 62 58 63
REMARK SMILES IDX 61 64 74 65 92 66 59 67 60 68 73 70 93 71 62 72 47 73 48 74
REMARK SMILES IDX 56 75 49 76 55 77 50 78 51 79 52 80 53 81 54 82 77 83 78 84
REMARK SMILES IDX 86 85 79 86 85 87 80 88 81 89 82 90 83 91 84 92 63 93 64 94
REMARK SMILES IDX 72 95 65 96 71 97 66 98 67 99 68 100 69 101 70 102
REMARK H PARENT 91 58 61 69
REMARK Flexibility Score: inf
ROOT
ATOM      1  O   UNL A   1      32.588  31.442  27.304  1.00  0.00    -0.374 OA
ENDROOT
BRANCH   1   2
ATOM      2  C   UNL A   1      32.938  30.151  26.800  1.00  0.00     0.202 C 
BRANCH   2   3
ATOM      3  C   UNL A   1      31.997  29.569  25.742  1.00  0.00     0.261 C 
BRANCH   3   4
ATOM      4  O   UNL A   1      32.514  28.340  25.206  1.00  0.00    -0.460 OA
BRANCH   4   5
ATOM      5  C   UNL A   1      31.741  27.250  25.429  1.00  0.00     0.338 C 
ATOM      6  O   UNL A   1      30.529  27.171  25.296  1.00  0.00    -0.246 OA
BRANCH   5   7
ATOM      7  C   UNL A   1      32.589  26.074  25.728  1.00  0.00     0.060 A 
ATOM      8  C   UNL A   1      34.246  23.826  26.027  1.00  0.00     0.060 A 
ATOM      9  C   UNL A   1      34.758  25.019  25.501  1.00  0.00     0.029 A 
ATOM     10  C   UNL A   1      32.924  23.813  26.499  1.00  0.00     0.029 A 
ATOM     11  C   UNL A   1      33.928  26.126  25.324  1.00  0.00     0.018 A 
ATOM     12  C   UNL A   1      32.098  24.933  26.367  1.00  0.00     0.018 A 
BRANCH   8  13
ATOM     13  N   UNL A   1      34.985  22.645  25.950  1.00  0.00    -0.257 N 
ATOM     14  C   UNL A   1      34.419  21.451  25.304  1.00  0.00     0.144 C 
ATOM     15  C   UNL A   1      35.646  20.555  25.116  1.00  0.00     0.091 C 
ATOM     16  C   UNL A   1      36.725  21.471  25.623  1.00  0.00     0.071 C 
ATOM     17  N   UNL A   1      36.343  22.638  26.038  1.00  0.00    -0.176 NA
BRANCH  14  18
ATOM     18  C   UNL A   1      33.696  21.773  24.000  1.00  0.00    -0.019 A 
ATOM     19  C   UNL A   1      33.278  23.222  22.081  1.00  0.00     0.119 A 
ATOM     20  C   UNL A   1      32.186  22.431  21.724  1.00  0.00     0.046 A 
ATOM     21  C   UNL A   1      34.019  22.905  23.222  1.00  0.00     0.052 A 
ATOM     22  C   UNL A   1      31.854  21.308  22.478  1.00  0.00     0.004 A 
ATOM     23  C   UNL A   1      32.607  20.978  23.605  1.00  0.00     0.006 A 
BRANCH  19  24
ATOM     24  O   UNL A   1      33.493  24.315  21.286  1.00  0.00    -0.497 OA
ATOM     25  C   UNL A   1      32.809  25.495  21.686  1.00  0.00     0.278 C 
ENDBRANCH  19  24
ENDBRANCH  14  18
BRANCH  16  26
ATOM     26  C   UNL A   1      38.116  21.007  25.700  1.00  0.00    -0.002 A 
ATOM     27  C   UNL A   1      39.085  21.897  26.173  1.00  0.00     0.011 A 
ATOM     28  C   UNL A   1      38.454  19.694  25.363  1.00  0.00     0.011 A 
ATOM     29  C   UNL A   1      40.403  21.468  26.333  1.00  0.00     0.021 A 
ATOM     30  C   UNL A   1      39.779  19.269  25.497  1.00  0.00     0.021 A 
ATOM     31  C   UNL A   1      40.745  20.158  25.982  1.00  0.00     0.067 A 
BRANCH  31  32
ATOM     32  S   UNL A   1      42.426  19.616  26.193  1.00  0.00     0.175 S 
ATOM     33  C   UNL A   1      43.377  21.113  26.155  1.00  0.00     0.163 C 
ATOM     34  O   UNL A   1      42.520  19.044  27.522  1.00  0.00    -0.224 OA
ATOM     35  O   UNL A   1      42.787  18.842  25.020  1.00  0.00    -0.224 OA
ENDBRANCH  31  32
ENDBRANCH  16  26
ENDBRANCH   8  13
ENDBRANCH   5   7
ENDBRANCH   4   5
ENDBRANCH   3   4
ENDBRANCH   2   3
ENDBRANCH   1   2
BRANCH   1  36
ATOM     36  C   UNL A   1      33.637  32.200  27.912  1.00  0.00     0.202 C 
BRANCH  36  37
ATOM     37  C   UNL A   1      33.405  33.712  28.011  1.00  0.00     0.261 C 
BRANCH  37  38
ATOM     38  O   UNL A   1      32.655  34.062  29.187  1.00  0.00    -0.460 OA
BRANCH  38  39
ATOM     39  C   UNL A   1      33.198  35.045  29.941  1.00  0.00     0.338 C 
ATOM     40  O   UNL A   1      32.783  36.188  30.073  1.00  0.00    -0.246 OA
BRANCH  39  41
ATOM     41  C   UNL A   1      34.302  34.501  30.756  1.00  0.00     0.060 A 
ATOM     42  C   UNL A   1      35.605  34.904  30.438  1.00  0.00     0.016 A 
ATOM     43  C   UNL A   1      34.076  33.569  31.772  1.00  0.00     0.016 A 
ATOM     44  C   UNL A   1      36.693  34.340  31.100  1.00  0.00     0.010 A 
ATOM     45  C   UNL A   1      35.170  32.997  32.429  1.00  0.00     0.010 A 
ATOM     46  C   UNL A   1      36.483  33.355  32.072  1.00  0.00    -0.014 A 
BRANCH  46  47
ATOM     47  C   UNL A   1      37.630  32.585  32.613  1.00  0.00     0.031 A 
ATOM     48  C   UNL A   1      38.194  32.973  33.953  1.00  0.00     0.074 A 
ATOM     49  C   UNL A   1      38.160  31.558  31.926  1.00  0.00     0.049 A 
ATOM     50  N   UNL A   1      39.243  32.503  34.577  1.00  0.00    -0.248 NA
ATOM     51  C   UNL A   1      37.481  34.034  34.685  1.00  0.00     0.031 C 
ATOM     52  C   UNL A   1      37.667  31.052  30.646  1.00  0.00     0.029 A 
ATOM     53  N   UNL A   1      39.242  30.762  32.210  1.00  0.00    -0.354 N 
ATOM     54  C   UNL A   1      39.324  33.217  35.768  1.00  0.00     0.074 A 
ATOM     55  C   UNL A   1      38.232  34.167  35.769  1.00  0.00     0.031 C 
ATOM     56  C   UNL A   1      38.455  30.038  30.247  1.00  0.00     0.029 A 
ATOM     57  C   UNL A   1      39.528  29.851  31.221  1.00  0.00     0.049 A 
ATOM     58  H   UNL A   1      39.763  30.837  33.041  1.00  0.00     0.167 HD
ATOM     59  C   UNL A   1      40.225  33.092  36.770  1.00  0.00     0.031 A 
ATOM     60  C   UNL A   1      40.554  28.984  31.105  1.00  0.00     0.031 A 
ATOM     61  C   UNL A   1      41.317  32.155  36.759  1.00  0.00     0.049 A 
ATOM     62  C   UNL A   1      41.593  28.918  32.195  1.00  0.00     0.074 A 
ATOM     63  C   UNL A   1      42.286  31.951  37.726  1.00  0.00     0.029 A 
ATOM     64  N   UNL A   1      41.586  31.268  35.728  1.00  0.00    -0.354 N 
ATOM     65  N   UNL A   1      41.656  29.597  33.315  1.00  0.00    -0.248 NA
ATOM     66  C   UNL A   1      42.696  27.964  32.007  1.00  0.00     0.031 C 
ATOM     67  C   UNL A   1      43.169  30.974  37.258  1.00  0.00     0.029 A 
ATOM     68  C   UNL A   1      42.716  30.527  36.027  1.00  0.00     0.049 A 
ATOM     69  H   UNL A   1      41.052  31.178  34.906  1.00  0.00     0.167 HD
ATOM     70  C   UNL A   1      42.783  29.126  33.981  1.00  0.00     0.074 A 
ATOM     71  C   UNL A   1      43.371  28.105  33.141  1.00  0.00     0.031 C 
ATOM     72  C   UNL A   1      43.279  29.501  35.185  1.00  0.00     0.031 A 
BRANCH  59  73
ATOM     73  C   UNL A   1      40.089  34.017  37.949  1.00  0.00    -0.014 A 
ATOM     74  C   UNL A   1      40.870  35.181  38.056  1.00  0.00     0.010 A 
ATOM     75  C   UNL A   1      39.135  33.739  38.946  1.00  0.00     0.010 A 
ATOM     76  C   UNL A   1      40.726  36.032  39.155  1.00  0.00     0.020 A 
ATOM     77  C   UNL A   1      38.969  34.601  40.033  1.00  0.00     0.020 A 
ATOM     78  C   UNL A   1      39.778  35.733  40.140  1.00  0.00     0.054 A 
BRANCH  78  79
ATOM     79  S   UNL A   1      39.594  36.866  41.544  1.00  0.00     0.124 S 
ATOM     80  O   UNL A   1      40.987  37.141  41.892  1.00  0.00    -0.237 OA
ATOM     81  O   UNL A   1      38.861  37.986  40.960  1.00  0.00    -0.237 OA
ATOM     82  O   UNL A   1      38.850  36.082  42.528  1.00  0.00    -0.744 OA
ENDBRANCH  78  79
ENDBRANCH  59  73
BRANCH  60  83
ATOM     83  C   UNL A   1      40.665  28.122  29.895  1.00  0.00    -0.014 A 
ATOM     84  C   UNL A   1      41.563  28.446  28.864  1.00  0.00     0.010 A 
ATOM     85  C   UNL A   1      39.867  26.970  29.771  1.00  0.00     0.010 A 
ATOM     86  C   UNL A   1      41.649  27.643  27.722  1.00  0.00     0.020 A 
ATOM     87  C   UNL A   1      39.969  26.151  28.644  1.00  0.00     0.020 A 
ATOM     88  C   UNL A   1      40.851  26.499  27.620  1.00  0.00     0.054 A 
BRANCH  88  89
ATOM     89  S   UNL A   1      41.012  25.446  26.152  1.00  0.00     0.124 S 
ATOM     90  O   UNL A   1      39.657  24.927  25.999  1.00  0.00    -0.237 OA
ATOM     91  O   UNL A   1      41.447  26.393  25.128  1.00  0.00    -0.237 OA
ATOM     92  O   UNL A   1      42.020  24.463  26.547  1.00  0.00    -0.744 OA
ENDBRANCH  88  89
ENDBRANCH  60  83
BRANCH  72  93
ATOM     93  C   UNL A   1      44.488  28.769  35.707  1.00  0.00    -0.014 A 
ATOM     94  C   UNL A   1      45.787  29.270  35.517  1.00  0.00     0.010 A 
ATOM     95  C   UNL A   1      44.306  27.606  36.478  1.00  0.00     0.010 A 
ATOM     96  C   UNL A   1      46.885  28.611  36.076  1.00  0.00     0.020 A 
ATOM     97  C   UNL A   1      45.398  26.959  37.060  1.00  0.00     0.020 A 
ATOM     98  C   UNL A   1      46.684  27.462  36.848  1.00  0.00     0.054 A 
BRANCH  98  99
ATOM     99  S   UNL A   1      48.117  26.666  37.625  1.00  0.00     0.124 S 
ATOM    100  O   UNL A   1      48.992  26.431  36.478  1.00  0.00    -0.237 OA
ATOM    101  O   UNL A   1      48.577  27.683  38.567  1.00  0.00    -0.237 OA
ATOM    102  O   UNL A   1      47.557  25.465  38.239  1.00  0.00    -0.744 OA
ENDBRANCH  98  99
ENDBRANCH  72  93
ENDBRANCH  46  47
ENDBRANCH  39  41
ENDBRANCH  38  39
ENDBRANCH  37  38
ENDBRANCH  36  37
ENDBRANCH   1  36
TORSDOF 22
ENDMDL
MODEL 3
REMARK VINA RESULT:      -7.8      4.293     11.834
REMARK SMILES COc1cccc([C@H]2CC(c3ccc(S(C)(=O)=O)cc3)=NN2c2ccc(C(=O)OCCOCCOC(=O)c3ccc(-c4c5nc(c(-c6ccc(S(=O)(=O)[O-])cc6)c6ccc([nH]6)c(-c6ccc(S(=O)(=O)[O-])cc6)c6nc(c(-c7ccc(S(=O)(=O)[O-])cc7)c7ccc4[nH]7)C=C6)C=C5)cc3)cc2)c1
REMARK SMILES IDX 32 1 31 2 30 3 29 4 27 5 28 6 26 7 23 8 24 9 99 10 25 11
REMARK SMILES IDX 98 12 22 13 8 14 9 15 10 16 21 17 7 18 3 19 4 20 100 21 5 22
REMARK SMILES IDX 6 23 2 24 1 25 11 26 12 27 20 28 13 29 19 30 14 31 15 32
REMARK SMILES IDX 16 33 17 34 18 35 33 36 34 37 35 38 36 39 37 40 38 41 39 42
REMARK SMILES IDX 97 43 40 44 96 45 41 46 42 47 43 48 90 49 44 50 95 51 89 52
REMARK SMILES IDX 91 53 45 54 94 55 88 56 87 57 46 59 76 60 57 61 75 62 58 63
REMARK SMILES IDX 61 64 74 65 92 66 59 67 60 68 73 70 93 71 62 72 47 73 48 74
REMARK SMILES IDX 56 75 49 76 55 77 50 78 51 79 52 80 53 81 54 82 77 83 78 84
REMARK SMILES IDX 86 85 79 86 85 87 80 88 81 89 82 90 83 91 84 92 63 93 64 94
REMARK SMILES IDX 72 95 65 96 71 97 66 98 67 99 68 100 69 101 70 102
REMARK H PARENT 91 58 61 69
REMARK Flexibility Score: inf
ROOT
ATOM      1  O   UNL A   1      44.091  27.201  26.420  1.00  0.00    -0.374 OA
ENDROOT
BRANCH   1   2
ATOM      2  C   UNL A   1      45.472  27.481  26.660  1.00  0.00     0.202 C 
BRANCH   2   3
ATOM      3  C   UNL A   1      45.871  27.666  28.127  1.00  0.00     0.261 C 
BRANCH   3   4
ATOM      4  O   UNL A   1      44.923  28.490  28.825  1.00  0.00    -0.460 OA
BRANCH   4   5
ATOM      5  C   UNL A   1      45.464  29.520  29.519  1.00  0.00     0.338 C 
ATOM      6  O   UNL A   1      46.308  29.445  30.401  1.00  0.00    -0.246 OA
BRANCH   5   7
ATOM      7  C   UNL A   1      45.001  30.811  28.964  1.00  0.00     0.060 A 
ATOM      8  C   UNL A   1      44.037  33.324  28.164  1.00  0.00     0.060 A 
ATOM      9  C   UNL A   1      45.067  33.228  29.107  1.00  0.00     0.029 A 
ATOM     10  C   UNL A   1      43.576  32.148  27.551  1.00  0.00     0.029 A 
ATOM     11  C   UNL A   1      45.525  31.980  29.528  1.00  0.00     0.018 A 
ATOM     12  C   UNL A   1      44.061  30.895  27.934  1.00  0.00     0.018 A 
BRANCH   8  13
ATOM     13  N   UNL A   1      43.389  34.540  27.945  1.00  0.00    -0.257 N 
ATOM     14  C   UNL A   1      42.184  34.893  28.712  1.00  0.00     0.144 C 
ATOM     15  C   UNL A   1      42.035  36.391  28.437  1.00  0.00     0.091 C 
ATOM     16  C   UNL A   1      43.270  36.635  27.615  1.00  0.00     0.071 C 
ATOM     17  N   UNL A   1      44.027  35.607  27.391  1.00  0.00    -0.176 NA
BRANCH  14  18
ATOM     18  C   UNL A   1      42.310  34.556  30.195  1.00  0.00    -0.019 A 
ATOM     19  C   UNL A   1      43.214  34.982  32.421  1.00  0.00     0.119 A 
ATOM     20  C   UNL A   1      42.686  33.770  32.865  1.00  0.00     0.046 A 
ATOM     21  C   UNL A   1      43.043  35.365  31.088  1.00  0.00     0.052 A 
ATOM     22  C   UNL A   1      41.956  32.961  31.999  1.00  0.00     0.004 A 
ATOM     23  C   UNL A   1      41.765  33.353  30.674  1.00  0.00     0.006 A 
BRANCH  19  24
ATOM     24  O   UNL A   1      43.936  35.680  33.350  1.00  0.00    -0.497 OA
ATOM     25  C   UNL A   1      44.916  34.922  34.047  1.00  0.00     0.278 C 
ENDBRANCH  19  24
ENDBRANCH  14  18
BRANCH  16  26
ATOM     26  C   UNL A   1      43.532  37.964  27.046  1.00  0.00    -0.002 A 
ATOM     27  C   UNL A   1      42.438  38.786  26.755  1.00  0.00     0.011 A 
ATOM     28  C   UNL A   1      44.839  38.418  26.854  1.00  0.00     0.011 A 
ATOM     29  C   UNL A   1      42.650  40.083  26.287  1.00  0.00     0.021 A 
ATOM     30  C   UNL A   1      45.054  39.707  26.359  1.00  0.00     0.021 A 
ATOM     31  C   UNL A   1      43.958  40.532  26.080  1.00  0.00     0.067 A 
BRANCH  31  32
ATOM     32  S   UNL A   1      44.221  42.188  25.488  1.00  0.00     0.175 S 
ATOM     33  C   UNL A   1      45.641  42.056  24.432  1.00  0.00     0.163 C 
ATOM     34  O   UNL A   1      43.072  42.531  24.673  1.00  0.00    -0.224 OA
ATOM     35  O   UNL A   1      44.601  43.006  26.625  1.00  0.00    -0.224 OA
ENDBRANCH  31  32
ENDBRANCH  16  26
ENDBRANCH   8  13
ENDBRANCH   5   7
ENDBRANCH   4   5
ENDBRANCH   3   4
ENDBRANCH   2   3
ENDBRANCH   1   2
BRANCH   1  36
ATOM     36  C   UNL A   1      43.790  26.373  25.294  1.00  0.00     0.202 C 
BRANCH  36  37
ATOM     37  C   UNL A   1      42.385  25.761  25.264  1.00  0.00     0.261 C 
BRANCH  37  38
ATOM     38  O   UNL A   1      41.378  26.718  25.638  1.00  0.00    -0.460 OA
BRANCH  38  39
ATOM     39  C   UNL A   1      40.381  26.226  26.410  1.00  0.00     0.338 C 
ATOM     40  O   UNL A   1      39.829  25.141  26.299  1.00  0.00    -0.246 OA
BRANCH  39  41
ATOM     41  C   UNL A   1      40.150  27.122  27.560  1.00  0.00     0.060 A 
ATOM     42  C   UNL A   1      40.753  28.387  27.530  1.00  0.00     0.016 A 
ATOM     43  C   UNL A   1      39.408  26.717  28.672  1.00  0.00     0.016 A 
ATOM     44  C   UNL A   1      40.660  29.232  28.633  1.00  0.00     0.010 A 
ATOM     45  C   UNL A   1      39.325  27.563  29.782  1.00  0.00     0.010 A 
ATOM     46  C   UNL A   1      39.978  28.809  29.781  1.00  0.00    -0.014 A 
BRANCH  46  47
ATOM     47  C   UNL A   1      40.070  29.596  31.034  1.00  0.00     0.031 A 
ATOM     48  C   UNL A   1      41.214  29.326  31.975  1.00  0.00     0.074 A 
ATOM     49  C   UNL A   1      39.156  30.536  31.330  1.00  0.00     0.049 A 
ATOM     50  N   UNL A   1      41.445  29.826  33.161  1.00  0.00    -0.248 NA
ATOM     51  C   UNL A   1      42.228  28.362  31.518  1.00  0.00     0.031 C 
ATOM     52  C   UNL A   1      38.036  30.927  30.475  1.00  0.00     0.029 A 
ATOM     53  N   UNL A   1      39.022  31.326  32.445  1.00  0.00    -0.354 N 
ATOM     54  C   UNL A   1      42.624  29.230  33.597  1.00  0.00     0.074 A 
ATOM     55  C   UNL A   1      43.047  28.315  32.559  1.00  0.00     0.031 C 
ATOM     56  C   UNL A   1      37.320  31.876  31.104  1.00  0.00     0.029 A 
ATOM     57  C   UNL A   1      37.906  32.128  32.419  1.00  0.00     0.049 A 
ATOM     58  H   UNL A   1      39.663  31.319  33.191  1.00  0.00     0.167 HD
ATOM     59  C   UNL A   1      43.293  29.429  34.757  1.00  0.00     0.031 A 
ATOM     60  C   UNL A   1      37.401  32.951  33.360  1.00  0.00     0.031 A 
ATOM     61  C   UNL A   1      42.861  30.330  35.792  1.00  0.00     0.049 A 
ATOM     62  C   UNL A   1      38.118  33.096  34.678  1.00  0.00     0.074 A 
ATOM     63  C   UNL A   1      43.470  30.601  37.005  1.00  0.00     0.029 A 
ATOM     64  N   UNL A   1      41.713  31.104  35.737  1.00  0.00    -0.354 N 
ATOM     65  N   UNL A   1      39.232  32.528  35.075  1.00  0.00    -0.248 NA
ATOM     66  C   UNL A   1      37.515  33.996  35.670  1.00  0.00     0.031 C 
ATOM     67  C   UNL A   1      42.662  31.503  37.705  1.00  0.00     0.029 A 
ATOM     68  C   UNL A   1      41.584  31.839  36.902  1.00  0.00     0.049 A 
ATOM     69  H   UNL A   1      41.083  31.128  34.981  1.00  0.00     0.167 HD
ATOM     70  C   UNL A   1      39.481  33.031  36.348  1.00  0.00     0.074 A 
ATOM     71  C   UNL A   1      38.403  33.948  36.655  1.00  0.00     0.031 C 
ATOM     72  C   UNL A   1      40.513  32.762  37.184  1.00  0.00     0.031 A 
BRANCH  59  73
ATOM     73  C   UNL A   1      44.547  28.628  34.983  1.00  0.00    -0.014 A 
ATOM     74  C   UNL A   1      45.806  29.121  34.597  1.00  0.00     0.010 A 
ATOM     75  C   UNL A   1      44.469  27.380  35.629  1.00  0.00     0.010 A 
ATOM     76  C   UNL A   1      46.960  28.366  34.820  1.00  0.00     0.020 A 
ATOM     77  C   UNL A   1      45.624  26.634  35.878  1.00  0.00     0.020 A 
ATOM     78  C   UNL A   1      46.861  27.124  35.457  1.00  0.00     0.054 A 
BRANCH  78  79
ATOM     79  S   UNL A   1      48.378  26.175  35.756  1.00  0.00     0.124 S 
ATOM     80  O   UNL A   1      47.880  25.061  36.561  1.00  0.00    -0.237 OA
ATOM     81  O   UNL A   1      48.812  25.828  34.406  1.00  0.00    -0.237 OA
ATOM     82  O   UNL A   1      49.243  27.116  36.464  1.00  0.00    -0.744 OA
ENDBRANCH  78  79
ENDBRANCH  59  73
BRANCH  60  83
ATOM     83  C   UNL A   1      36.132  33.687  33.101  1.00  0.00    -0.014 A 
ATOM     84  C   UNL A   1      34.888  33.063  33.296  1.00  0.00     0.010 A 
ATOM     85  C   UNL A   1      36.166  35.020  32.654  1.00  0.00     0.010 A 
ATOM     86  C   UNL A   1      33.701  33.753  33.032  1.00  0.00     0.020 A 
ATOM     87  C   UNL A   1      34.981  35.722  32.415  1.00  0.00     0.020 A 
ATOM     88  C   UNL A   1      33.756  35.080  32.594  1.00  0.00     0.054 A 
BRANCH  88  89
ATOM     89  S   UNL A   1      32.203  35.972  32.303  1.00  0.00     0.124 S 
ATOM     90  O   UNL A   1      31.205  34.963  32.641  1.00  0.00    -0.237 OA
ATOM     91  O   UNL A   1      32.306  37.096  33.229  1.00  0.00    -0.237 OA
ATOM     92  O   UNL A   1      32.277  36.332  30.888  1.00  0.00    -0.744 OA
ENDBRANCH  88  89
ENDBRANCH  60  83
BRANCH  72  93
ATOM     93  C   UNL A   1      40.573  33.508  38.491  1.00  0.00    -0.014 A 
ATOM     94  C   UNL A   1      41.115  34.803  38.572  1.00  0.00     0.010 A 
ATOM     95  C   UNL A   1      39.995  32.932  39.638  1.00  0.00     0.010 A 
ATOM     96  C   UNL A   1      41.090  35.502  39.782  1.00  0.00     0.020 A 
ATOM     97  C   UNL A   1      39.946  33.638  40.842  1.00  0.00     0.020 A 
ATOM     98  C   UNL A   1      40.502  34.917  40.908  1.00  0.00     0.054 A 
BRANCH  98  99
ATOM     99  S   UNL A   1      40.415  35.873  42.448  1.00  0.00     0.124 S 
ATOM    100  O   UNL A   1      41.723  35.608  43.043  1.00  0.00    -0.237 OA
ATOM    101  O   UNL A   1      40.208  37.237  41.967  1.00  0.00    -0.237 OA
ATOM    102  O   UNL A   1      39.279  35.290  43.156  1.00  0.00    -0.744 OA
ENDBRANCH  98  99
ENDBRANCH  72  93
ENDBRANCH  46  47
ENDBRANCH  39  41
ENDBRANCH  38  39
ENDBRANCH  37  38
ENDBRANCH  36  37
ENDBRANCH   1  36
TORSDOF 22
ENDMDL
