MODEL 1
REMARK VINA RESULT:      -9.3      0.000      0.000
REMARK SMILES O=C(OCCOCCOC(=O)c1ccc(-c2c3nc(c(-c4ccc(S(=O)(=O)[O-])cc4)c4ccc([nH]4)c(-c4ccc(S(=O)(=O)[O-])cc4)c4nc(c(-c5ccc(S(=O)(=O)[O-])cc5)c5ccc2[nH]5)C=C4)C=C3)cc1)C1=C[C@H]2C=C[C@@H]1[C@@H]1C=C[C@H]21
REMARK SMILES IDX 7 1 6 2 5 3 4 4 3 5 2 6 1 7 72 8 73 9 77 10 74 11 76 12
REMARK SMILES IDX 78 13 75 14 81 15 79 16 80 17 8 18 9 19 10 20 11 21 12 22
REMARK SMILES IDX 13 23 71 24 14 25 70 26 15 27 16 28 17 29 64 30 18 31 69 32
REMARK SMILES IDX 63 33 65 34 19 35 68 36 62 37 61 38 20 40 50 41 31 42 49 43
REMARK SMILES IDX 32 44 35 45 48 46 66 47 33 48 34 49 47 51 67 52 36 53 21 54
REMARK SMILES IDX 22 55 30 56 23 57 29 58 24 59 25 60 26 61 27 62 28 63 51 64
REMARK SMILES IDX 52 65 60 66 53 67 59 68 54 69 55 70 56 71 57 72 58 73 37 74
REMARK SMILES IDX 38 75 46 76 39 77 45 78 40 79 41 80 42 81 43 82 44 83
REMARK H PARENT 65 39 35 50
REMARK Flexibility Score: inf
ROOT
ATOM      1  C   UNL A   1      41.091  20.019  26.597  1.00  0.00     0.202 C 
ENDROOT
BRANCH   1   2
ATOM      2  O   UNL A   1      41.401  18.930  25.724  1.00  0.00    -0.374 OA
BRANCH   2   3
ATOM      3  C   UNL A   1      42.788  18.584  25.660  1.00  0.00     0.202 C 
BRANCH   3   4
ATOM      4  C   UNL A   1      43.682  19.787  25.966  1.00  0.00     0.261 C 
BRANCH   4   5
ATOM      5  O   UNL A   1      44.722  19.921  24.971  1.00  0.00    -0.460 OA
BRANCH   5   6
ATOM      6  C   UNL A   1      45.599  20.945  24.899  1.00  0.00     0.334 C 
ATOM      7  O   UNL A   1      46.786  20.764  24.648  1.00  0.00    -0.247 OA
BRANCH   6   8
ATOM      8  C   UNL A   1      45.132  22.293  25.211  1.00  0.00     0.041 C 
ATOM      9  C   UNL A   1      44.459  23.134  24.388  1.00  0.00    -0.007 C 
ATOM     10  C   UNL A   1      45.565  22.913  26.531  1.00  0.00     0.056 C 
ATOM     11  C   UNL A   1      44.209  24.523  25.006  1.00  0.00     0.042 C 
ATOM     12  C   UNL A   1      44.302  23.486  27.183  1.00  0.00    -0.022 C 
ATOM     13  C   UNL A   1      46.478  24.095  26.092  1.00  0.00     0.031 C 
ATOM     14  C   UNL A   1      43.584  24.299  26.381  1.00  0.00    -0.022 C 
ATOM     15  C   UNL A   1      45.642  25.112  25.242  1.00  0.00     0.030 C 
ATOM     16  C   UNL A   1      46.726  25.243  27.050  1.00  0.00    -0.026 C 
ATOM     17  C   UNL A   1      45.915  26.093  26.387  1.00  0.00    -0.026 C 
ENDBRANCH   6   8
ENDBRANCH   5   6
ENDBRANCH   4   5
ENDBRANCH   3   4
ENDBRANCH   2   3
ENDBRANCH   1   2
BRANCH   1  18
ATOM     18  C   UNL A   1      39.899  20.848  26.130  1.00  0.00     0.261 C 
BRANCH  18  19
ATOM     19  O   UNL A   1      39.828  22.065  26.870  1.00  0.00    -0.460 OA
BRANCH  19  20
ATOM     20  C   UNL A   1      38.992  22.999  26.361  1.00  0.00     0.338 C 
ATOM     21  O   UNL A   1      38.008  22.821  25.666  1.00  0.00    -0.246 OA
BRANCH  20  22
ATOM     22  C   UNL A   1      39.368  24.295  26.951  1.00  0.00     0.060 A 
ATOM     23  C   UNL A   1      40.074  25.200  26.151  1.00  0.00     0.016 A 
ATOM     24  C   UNL A   1      39.002  24.626  28.260  1.00  0.00     0.016 A 
ATOM     25  C   UNL A   1      40.438  26.438  26.671  1.00  0.00     0.010 A 
ATOM     26  C   UNL A   1      39.361  25.865  28.776  1.00  0.00     0.010 A 
ATOM     27  C   UNL A   1      40.102  26.762  27.992  1.00  0.00    -0.014 A 
BRANCH  27  28
ATOM     28  C   UNL A   1      40.630  27.991  28.613  1.00  0.00     0.031 A 
ATOM     29  C   UNL A   1      42.062  28.005  29.063  1.00  0.00     0.074 A 
ATOM     30  C   UNL A   1      39.827  29.053  28.789  1.00  0.00     0.049 A 
ATOM     31  N   UNL A   1      42.718  28.942  29.692  1.00  0.00    -0.248 NA
ATOM     32  C   UNL A   1      42.858  26.799  28.775  1.00  0.00     0.031 C 
ATOM     33  C   UNL A   1      38.425  29.134  28.375  1.00  0.00     0.029 A 
ATOM     34  N   UNL A   1      40.073  30.264  29.381  1.00  0.00    -0.354 N 
ATOM     35  C   UNL A   1      43.997  28.438  29.886  1.00  0.00     0.074 A 
ATOM     36  C   UNL A   1      44.021  27.102  29.332  1.00  0.00     0.031 C 
ATOM     37  C   UNL A   1      37.932  30.331  28.737  1.00  0.00     0.029 A 
ATOM     38  C   UNL A   1      38.971  31.082  29.436  1.00  0.00     0.049 A 
ATOM     39  H   UNL A   1      40.955  30.523  29.733  1.00  0.00     0.167 HD
ATOM     40  C   UNL A   1      45.057  29.041  30.471  1.00  0.00     0.031 A 
ATOM     41  C   UNL A   1      38.818  32.290  30.010  1.00  0.00     0.031 A 
ATOM     42  C   UNL A   1      45.011  30.367  31.025  1.00  0.00     0.049 A 
ATOM     43  C   UNL A   1      40.002  32.918  30.699  1.00  0.00     0.074 A 
ATOM     44  C   UNL A   1      46.034  31.090  31.610  1.00  0.00     0.029 A 
ATOM     45  N   UNL A   1      43.877  31.164  31.068  1.00  0.00    -0.354 N 
ATOM     46  N   UNL A   1      41.222  32.451  30.830  1.00  0.00    -0.248 NA
ATOM     47  C   UNL A   1      39.791  34.235  31.311  1.00  0.00     0.031 C 
ATOM     48  C   UNL A   1      45.504  32.305  32.057  1.00  0.00     0.029 A 
ATOM     49  C   UNL A   1      44.167  32.361  31.697  1.00  0.00     0.049 A 
ATOM     50  H   UNL A   1      42.997  30.916  30.704  1.00  0.00     0.167 HD
ATOM     51  C   UNL A   1      41.930  33.429  31.520  1.00  0.00     0.074 A 
ATOM     52  C   UNL A   1      41.006  34.520  31.760  1.00  0.00     0.031 C 
ATOM     53  C   UNL A   1      43.225  33.428  31.922  1.00  0.00     0.031 A 
BRANCH  40  54
ATOM     54  C   UNL A   1      46.343  28.267  30.563  1.00  0.00    -0.014 A 
ATOM     55  C   UNL A   1      46.645  27.490  31.696  1.00  0.00     0.010 A 
ATOM     56  C   UNL A   1      47.234  28.269  29.476  1.00  0.00     0.010 A 
ATOM     57  C   UNL A   1      47.826  26.744  31.747  1.00  0.00     0.020 A 
ATOM     58  C   UNL A   1      48.404  27.505  29.513  1.00  0.00     0.020 A 
ATOM     59  C   UNL A   1      48.696  26.754  30.653  1.00  0.00     0.054 A 
BRANCH  59  60
ATOM     60  S   UNL A   1      50.193  25.732  30.723  1.00  0.00     0.124 S 
ATOM     61  O   UNL A   1      49.878  24.809  31.811  1.00  0.00    -0.237 OA
ATOM     62  O   UNL A   1      50.238  25.138  29.389  1.00  0.00    -0.237 OA
ATOM     63  O   UNL A   1      51.257  26.692  31.010  1.00  0.00    -0.744 OA
ENDBRANCH  59  60
ENDBRANCH  40  54
BRANCH  41  64
ATOM     64  C   UNL A   1      37.497  32.972  29.984  1.00  0.00    -0.014 A 
ATOM     65  C   UNL A   1      36.709  33.056  31.146  1.00  0.00     0.010 A 
ATOM     66  C   UNL A   1      37.011  33.533  28.789  1.00  0.00     0.010 A 
ATOM     67  C   UNL A   1      35.448  33.660  31.106  1.00  0.00     0.020 A 
ATOM     68  C   UNL A   1      35.764  34.164  28.750  1.00  0.00     0.020 A 
ATOM     69  C   UNL A   1      34.984  34.209  29.907  1.00  0.00     0.054 A 
BRANCH  69  70
ATOM     70  S   UNL A   1      33.357  35.013  29.884  1.00  0.00     0.124 S 
ATOM     71  O   UNL A   1      33.704  36.387  29.529  1.00  0.00    -0.237 OA
ATOM     72  O   UNL A   1      32.645  34.256  28.859  1.00  0.00    -0.237 OA
ATOM     73  O   UNL A   1      32.863  34.823  31.246  1.00  0.00    -0.744 OA
ENDBRANCH  69  70
ENDBRANCH  41  64
BRANCH  53  74
ATOM     74  C   UNL A   1      43.724  34.654  32.637  1.00  0.00    -0.014 A 
ATOM     75  C   UNL A   1      44.210  35.763  31.923  1.00  0.00     0.010 A 
ATOM     76  C   UNL A   1      43.653  34.714  34.041  1.00  0.00     0.010 A 
ATOM     77  C   UNL A   1      44.647  36.902  32.605  1.00  0.00     0.020 A 
ATOM     78  C   UNL A   1      44.062  35.862  34.723  1.00  0.00     0.020 A 
ATOM     79  C   UNL A   1      44.570  36.943  34.000  1.00  0.00     0.054 A 
BRANCH  79  80
ATOM     80  S   UNL A   1      45.104  38.448  34.859  1.00  0.00     0.124 S 
ATOM     81  O   UNL A   1      45.120  39.426  33.774  1.00  0.00    -0.237 OA
ATOM     82  O   UNL A   1      44.057  38.636  35.859  1.00  0.00    -0.237 OA
ATOM     83  O   UNL A   1      46.416  38.093  35.396  1.00  0.00    -0.744 OA
ENDBRANCH  79  80
ENDBRANCH  53  74
ENDBRANCH  27  28
ENDBRANCH  20  22
ENDBRANCH  19  20
ENDBRANCH  18  19
ENDBRANCH   1  18
TORSDOF 17
ENDMDL
MODEL 2
REMARK VINA RESULT:      -9.2      3.372     10.394
REMARK SMILES O=C(OCCOCCOC(=O)c1ccc(-c2c3nc(c(-c4ccc(S(=O)(=O)[O-])cc4)c4ccc([nH]4)c(-c4ccc(S(=O)(=O)[O-])cc4)c4nc(c(-c5ccc(S(=O)(=O)[O-])cc5)c5ccc2[nH]5)C=C4)C=C3)cc1)C1=C[C@H]2C=C[C@@H]1[C@@H]1C=C[C@H]21
REMARK SMILES IDX 7 1 6 2 5 3 4 4 3 5 2 6 1 7 72 8 73 9 77 10 74 11 76 12
REMARK SMILES IDX 78 13 75 14 81 15 79 16 80 17 8 18 9 19 10 20 11 21 12 22
REMARK SMILES IDX 13 23 71 24 14 25 70 26 15 27 16 28 17 29 64 30 18 31 69 32
REMARK SMILES IDX 63 33 65 34 19 35 68 36 62 37 61 38 20 40 50 41 31 42 49 43
REMARK SMILES IDX 32 44 35 45 48 46 66 47 33 48 34 49 47 51 67 52 36 53 21 54
REMARK SMILES IDX 22 55 30 56 23 57 29 58 24 59 25 60 26 61 27 62 28 63 51 64
REMARK SMILES IDX 52 65 60 66 53 67 59 68 54 69 55 70 56 71 57 72 58 73 37 74
REMARK SMILES IDX 38 75 46 76 39 77 45 78 40 79 41 80 42 81 43 82 44 83
REMARK H PARENT 65 39 35 50
REMARK Flexibility Score: inf
ROOT
ATOM      1  C   UNL A   1      32.064  28.786  25.553  1.00  0.00     0.202 C 
ENDROOT
BRANCH   1   2
ATOM      2  O   UNL A   1      32.895  28.032  24.668  1.00  0.00    -0.374 OA
BRANCH   2   3
ATOM      3  C   UNL A   1      32.992  28.553  23.340  1.00  0.00     0.202 C 
BRANCH   3   4
ATOM      4  C   UNL A   1      33.405  27.470  22.341  1.00  0.00     0.261 C 
BRANCH   4   5
ATOM      5  O   UNL A   1      32.890  26.179  22.740  1.00  0.00    -0.460 OA
BRANCH   5   6
ATOM      6  C   UNL A   1      33.513  24.999  22.535  1.00  0.00     0.334 C 
ATOM      7  O   UNL A   1      33.462  24.418  21.457  1.00  0.00    -0.247 OA
BRANCH   6   8
ATOM      8  C   UNL A   1      34.196  24.361  23.658  1.00  0.00     0.041 C 
ATOM      9  C   UNL A   1      34.559  24.942  24.828  1.00  0.00    -0.007 C 
ATOM     10  C   UNL A   1      34.710  22.942  23.471  1.00  0.00     0.056 C 
ATOM     11  C   UNL A   1      35.356  24.004  25.755  1.00  0.00     0.042 C 
ATOM     12  C   UNL A   1      34.247  22.142  24.693  1.00  0.00    -0.022 C 
ATOM     13  C   UNL A   1      36.256  23.107  23.542  1.00  0.00     0.031 C 
ATOM     14  C   UNL A   1      34.558  22.708  25.877  1.00  0.00    -0.022 C 
ATOM     15  C   UNL A   1      36.658  23.668  24.949  1.00  0.00     0.030 C 
ATOM     16  C   UNL A   1      37.121  21.908  23.877  1.00  0.00    -0.026 C 
ATOM     17  C   UNL A   1      37.378  22.328  25.133  1.00  0.00    -0.026 C 
ENDBRANCH   6   8
ENDBRANCH   5   6
ENDBRANCH   4   5
ENDBRANCH   3   4
ENDBRANCH   2   3
ENDBRANCH   1   2
BRANCH   1  18
ATOM     18  C   UNL A   1      32.583  28.824  26.987  1.00  0.00     0.261 C 
BRANCH  18  19
ATOM     19  O   UNL A   1      33.992  29.046  26.992  1.00  0.00    -0.460 OA
BRANCH  19  20
ATOM     20  C   UNL A   1      34.398  30.142  27.672  1.00  0.00     0.338 C 
ATOM     21  O   UNL A   1      33.726  31.099  28.016  1.00  0.00    -0.246 OA
BRANCH  20  22
ATOM     22  C   UNL A   1      35.786  29.905  28.103  1.00  0.00     0.060 A 
ATOM     23  C   UNL A   1      36.801  30.031  27.147  1.00  0.00     0.016 A 
ATOM     24  C   UNL A   1      36.086  29.595  29.434  1.00  0.00     0.016 A 
ATOM     25  C   UNL A   1      38.125  29.823  27.520  1.00  0.00     0.010 A 
ATOM     26  C   UNL A   1      37.410  29.394  29.805  1.00  0.00     0.010 A 
ATOM     27  C   UNL A   1      38.428  29.481  28.843  1.00  0.00    -0.014 A 
BRANCH  27  28
ATOM     28  C   UNL A   1      39.800  29.087  29.213  1.00  0.00     0.031 A 
ATOM     29  C   UNL A   1      40.681  30.107  29.875  1.00  0.00     0.074 A 
ATOM     30  C   UNL A   1      40.244  27.851  28.933  1.00  0.00     0.049 A 
ATOM     31  N   UNL A   1      41.935  30.010  30.223  1.00  0.00    -0.248 NA
ATOM     32  C   UNL A   1      40.070  31.415  30.175  1.00  0.00     0.031 C 
ATOM     33  C   UNL A   1      39.457  26.791  28.301  1.00  0.00     0.029 A 
ATOM     34  N   UNL A   1      41.476  27.284  29.129  1.00  0.00    -0.354 N 
ATOM     35  C   UNL A   1      42.268  31.241  30.771  1.00  0.00     0.074 A 
ATOM     36  C   UNL A   1      41.093  32.081  30.687  1.00  0.00     0.031 C 
ATOM     37  C   UNL A   1      40.232  25.703  28.152  1.00  0.00     0.029 A 
ATOM     38  C   UNL A   1      41.573  26.002  28.644  1.00  0.00     0.049 A 
ATOM     39  H   UNL A   1      42.219  27.750  29.575  1.00  0.00     0.167 HD
ATOM     40  C   UNL A   1      43.450  31.632  31.301  1.00  0.00     0.031 A 
ATOM     41  C   UNL A   1      42.636  25.179  28.586  1.00  0.00     0.031 A 
ATOM     42  C   UNL A   1      44.609  30.785  31.368  1.00  0.00     0.049 A 
ATOM     43  C   UNL A   1      43.953  25.657  29.138  1.00  0.00     0.074 A 
ATOM     44  C   UNL A   1      45.848  31.066  31.916  1.00  0.00     0.029 A 
ATOM     45  N   UNL A   1      44.674  29.496  30.863  1.00  0.00    -0.354 N 
ATOM     46  N   UNL A   1      44.241  26.808  29.701  1.00  0.00    -0.248 NA
ATOM     47  C   UNL A   1      45.086  24.727  29.053  1.00  0.00     0.031 C 
ATOM     48  C   UNL A   1      46.679  29.964  31.692  1.00  0.00     0.029 A 
ATOM     49  C   UNL A   1      45.940  28.976  31.059  1.00  0.00     0.049 A 
ATOM     50  H   UNL A   1      43.929  29.020  30.430  1.00  0.00     0.167 HD
ATOM     51  C   UNL A   1      45.583  26.730  30.059  1.00  0.00     0.074 A 
ATOM     52  C   UNL A   1      46.042  25.412  29.666  1.00  0.00     0.031 C 
ATOM     53  C   UNL A   1      46.367  27.660  30.655  1.00  0.00     0.031 A 
BRANCH  40  54
ATOM     54  C   UNL A   1      43.553  33.037  31.827  1.00  0.00    -0.014 A 
ATOM     55  C   UNL A   1      44.002  34.089  31.008  1.00  0.00     0.010 A 
ATOM     56  C   UNL A   1      43.139  33.320  33.141  1.00  0.00     0.010 A 
ATOM     57  C   UNL A   1      44.052  35.396  31.501  1.00  0.00     0.020 A 
ATOM     58  C   UNL A   1      43.165  34.629  33.629  1.00  0.00     0.020 A 
ATOM     59  C   UNL A   1      43.630  35.657  32.808  1.00  0.00     0.054 A 
BRANCH  59  60
ATOM     60  S   UNL A   1      43.653  37.371  33.402  1.00  0.00     0.124 S 
ATOM     61  O   UNL A   1      44.916  37.420  34.135  1.00  0.00    -0.237 OA
ATOM     62  O   UNL A   1      43.619  38.140  32.160  1.00  0.00    -0.237 OA
ATOM     63  O   UNL A   1      42.451  37.470  34.226  1.00  0.00    -0.744 OA
ENDBRANCH  59  60
ENDBRANCH  40  54
BRANCH  41  64
ATOM     64  C   UNL A   1      42.511  23.835  27.960  1.00  0.00    -0.014 A 
ATOM     65  C   UNL A   1      42.155  22.714  28.732  1.00  0.00     0.010 A 
ATOM     66  C   UNL A   1      42.761  23.665  26.587  1.00  0.00     0.010 A 
ATOM     67  C   UNL A   1      42.081  21.446  28.147  1.00  0.00     0.020 A 
ATOM     68  C   UNL A   1      42.660  22.404  25.991  1.00  0.00     0.020 A 
ATOM     69  C   UNL A   1      42.335  21.299  26.780  1.00  0.00     0.054 A 
BRANCH  69  70
ATOM     70  S   UNL A   1      42.206  19.649  26.037  1.00  0.00     0.124 S 
ATOM     71  O   UNL A   1      40.791  19.586  25.683  1.00  0.00    -0.237 OA
ATOM     72  O   UNL A   1      43.136  19.734  24.915  1.00  0.00    -0.237 OA
ATOM     73  O   UNL A   1      42.623  18.755  27.115  1.00  0.00    -0.744 OA
ENDBRANCH  69  70
ENDBRANCH  41  64
BRANCH  53  74
ATOM     74  C   UNL A   1      47.794  27.276  30.944  1.00  0.00    -0.014 A 
ATOM     75  C   UNL A   1      48.112  26.414  32.007  1.00  0.00     0.010 A 
ATOM     76  C   UNL A   1      48.820  27.742  30.103  1.00  0.00     0.010 A 
ATOM     77  C   UNL A   1      49.439  26.049  32.244  1.00  0.00     0.020 A 
ATOM     78  C   UNL A   1      50.145  27.356  30.320  1.00  0.00     0.020 A 
ATOM     79  C   UNL A   1      50.447  26.524  31.398  1.00  0.00     0.054 A 
BRANCH  79  80
ATOM     80  S   UNL A   1      52.157  26.003  31.702  1.00  0.00     0.124 S 
ATOM     81  O   UNL A   1      52.668  27.101  32.518  1.00  0.00    -0.237 OA
ATOM     82  O   UNL A   1      51.986  24.730  32.398  1.00  0.00    -0.237 OA
ATOM     83  O   UNL A   1      52.731  25.901  30.363  1.00  0.00    -0.744 OA
ENDBRANCH  79  80
ENDBRANCH  53  74
ENDBRANCH  27  28
ENDBRANCH  20  22
ENDBRANCH  19  20
ENDBRANCH  18  19
ENDBRANCH   1  18
TORSDOF 17
ENDMDL
MODEL 3
REMARK VINA RESULT:      -9.1      2.251      8.624
REMARK SMILES O=C(OCCOCCOC(=O)c1ccc(-c2c3nc(c(-c4ccc(S(=O)(=O)[O-])cc4)c4ccc([nH]4)c(-c4ccc(S(=O)(=O)[O-])cc4)c4nc(c(-c5ccc(S(=O)(=O)[O-])cc5)c5ccc2[nH]5)C=C4)C=C3)cc1)C1=C[C@H]2C=C[C@@H]1[C@@H]1C=C[C@H]21
REMARK SMILES IDX 7 1 6 2 5 3 4 4 3 5 2 6 1 7 72 8 73 9 77 10 74 11 76 12
REMARK SMILES IDX 78 13 75 14 81 15 79 16 80 17 8 18 9 19 10 20 11 21 12 22
REMARK SMILES IDX 13 23 71 24 14 25 70 26 15 27 16 28 17 29 64 30 18 31 69 32
REMARK SMILES IDX 63 33 65 34 19 35 68 36 62 37 61 38 20 40 50 41 31 42 49 43
REMARK SMILES IDX 32 44 35 45 48 46 66 47 33 48 34 49 47 51 67 52 36 53 21 54
REMARK SMILES IDX 22 55 30 56 23 57 29 58 24 59 25 60 26 61 27 62 28 63 51 64
REMARK SMILES IDX 52 65 60 66 53 67 59 68 54 69 55 70 56 71 57 72 58 73 37 74
REMARK SMILES IDX 38 75 46 76 39 77 45 78 40 79 41 80 42 81 43 82 44 83
REMARK H PARENT 65 39 35 50
REMARK Flexibility Score: inf
ROOT
ATOM      1  C   UNL A   1      41.941  20.091  26.826  1.00  0.00     0.202 C 
ENDROOT
BRANCH   1   2
ATOM      2  O   UNL A   1      42.254  18.842  27.446  1.00  0.00    -0.374 OA
BRANCH   2   3
ATOM      3  C   UNL A   1      43.231  18.054  26.759  1.00  0.00     0.202 C 
BRANCH   3   4
ATOM      4  C   UNL A   1      43.516  18.607  25.362  1.00  0.00     0.261 C 
BRANCH   4   5
ATOM      5  O   UNL A   1      44.913  18.453  25.023  1.00  0.00    -0.460 OA
BRANCH   5   6
ATOM      6  C   UNL A   1      45.829  19.446  25.038  1.00  0.00     0.334 C 
ATOM      7  O   UNL A   1      47.014  19.228  25.262  1.00  0.00    -0.247 OA
BRANCH   6   8
ATOM      8  C   UNL A   1      45.374  20.823  24.865  1.00  0.00     0.041 C 
ATOM      9  C   UNL A   1      44.877  21.382  23.734  1.00  0.00    -0.007 C 
ATOM     10  C   UNL A   1      45.617  21.805  26.001  1.00  0.00     0.056 C 
ATOM     11  C   UNL A   1      44.590  22.889  23.873  1.00  0.00     0.042 C 
ATOM     12  C   UNL A   1      44.292  22.536  26.241  1.00  0.00    -0.022 C 
ATOM     13  C   UNL A   1      46.637  22.813  25.394  1.00  0.00     0.031 C 
ATOM     14  C   UNL A   1      43.746  23.073  25.131  1.00  0.00    -0.022 C 
ATOM     15  C   UNL A   1      45.991  23.531  24.160  1.00  0.00     0.030 C 
ATOM     16  C   UNL A   1      46.778  24.192  26.005  1.00  0.00    -0.026 C 
ATOM     17  C   UNL A   1      46.119  24.806  25.000  1.00  0.00    -0.026 C 
ENDBRANCH   6   8
ENDBRANCH   5   6
ENDBRANCH   4   5
ENDBRANCH   3   4
ENDBRANCH   2   3
ENDBRANCH   1   2
BRANCH   1  18
ATOM     18  C   UNL A   1      40.474  20.219  26.429  1.00  0.00     0.261 C 
BRANCH  18  19
ATOM     19  O   UNL A   1      39.841  21.231  27.209  1.00  0.00    -0.460 OA
BRANCH  19  20
ATOM     20  C   UNL A   1      39.303  22.250  26.502  1.00  0.00     0.338 C 
ATOM     21  O   UNL A   1      38.386  22.201  25.701  1.00  0.00    -0.246 OA
BRANCH  20  22
ATOM     22  C   UNL A   1      39.900  23.499  27.004  1.00  0.00     0.060 A 
ATOM     23  C   UNL A   1      39.504  24.701  26.408  1.00  0.00     0.016 A 
ATOM     24  C   UNL A   1      40.808  23.489  28.068  1.00  0.00     0.016 A 
ATOM     25  C   UNL A   1      40.039  25.903  26.862  1.00  0.00     0.010 A 
ATOM     26  C   UNL A   1      41.337  24.690  28.525  1.00  0.00     0.010 A 
ATOM     27  C   UNL A   1      40.974  25.896  27.905  1.00  0.00    -0.014 A 
BRANCH  27  28
ATOM     28  C   UNL A   1      41.679  27.135  28.279  1.00  0.00     0.031 A 
ATOM     29  C   UNL A   1      40.868  28.288  28.798  1.00  0.00     0.074 A 
ATOM     30  C   UNL A   1      43.010  27.224  28.127  1.00  0.00     0.049 A 
ATOM     31  N   UNL A   1      41.260  29.491  29.120  1.00  0.00    -0.248 NA
ATOM     32  C   UNL A   1      39.422  28.058  28.965  1.00  0.00     0.031 C 
ATOM     33  C   UNL A   1      43.881  26.153  27.641  1.00  0.00     0.029 A 
ATOM     34  N   UNL A   1      43.861  28.274  28.353  1.00  0.00    -0.354 N 
ATOM     35  C   UNL A   1      40.113  30.164  29.517  1.00  0.00     0.074 A 
ATOM     36  C   UNL A   1      39.004  29.247  29.371  1.00  0.00     0.031 C 
ATOM     37  C   UNL A   1      45.146  26.607  27.594  1.00  0.00     0.029 A 
ATOM     38  C   UNL A   1      45.165  28.005  28.012  1.00  0.00     0.049 A 
ATOM     39  H   UNL A   1      43.567  29.137  28.722  1.00  0.00     0.167 HD
ATOM     40  C   UNL A   1      39.999  31.435  29.968  1.00  0.00     0.031 A 
ATOM     41  C   UNL A   1      46.244  28.811  28.018  1.00  0.00     0.031 A 
ATOM     42  C   UNL A   1      41.112  32.334  30.098  1.00  0.00     0.049 A 
ATOM     43  C   UNL A   1      46.079  30.236  28.477  1.00  0.00     0.074 A 
ATOM     44  C   UNL A   1      41.118  33.632  30.576  1.00  0.00     0.029 A 
ATOM     45  N   UNL A   1      42.417  32.031  29.739  1.00  0.00    -0.354 N 
ATOM     46  N   UNL A   1      44.996  30.846  28.899  1.00  0.00    -0.248 NA
ATOM     47  C   UNL A   1      47.281  31.080  28.466  1.00  0.00     0.031 C 
ATOM     48  C   UNL A   1      42.418  34.132  30.455  1.00  0.00     0.029 A 
ATOM     49  C   UNL A   1      43.232  33.126  29.957  1.00  0.00     0.049 A 
ATOM     50  H   UNL A   1      42.719  31.164  29.383  1.00  0.00     0.167 HD
ATOM     51  C   UNL A   1      45.391  32.138  29.226  1.00  0.00     0.074 A 
ATOM     52  C   UNL A   1      46.817  32.214  28.971  1.00  0.00     0.031 C 
ATOM     53  C   UNL A   1      44.648  33.171  29.693  1.00  0.00     0.031 A 
BRANCH  40  54
ATOM     54  C   UNL A   1      38.626  31.931  30.329  1.00  0.00    -0.014 A 
ATOM     55  C   UNL A   1      38.051  31.635  31.578  1.00  0.00     0.010 A 
ATOM     56  C   UNL A   1      37.925  32.755  29.429  1.00  0.00     0.010 A 
ATOM     57  C   UNL A   1      36.791  32.140  31.913  1.00  0.00     0.020 A 
ATOM     58  C   UNL A   1      36.676  33.280  29.770  1.00  0.00     0.020 A 
ATOM     59  C   UNL A   1      36.114  32.962  31.007  1.00  0.00     0.054 A 
BRANCH  59  60
ATOM     60  S   UNL A   1      34.506  33.648  31.491  1.00  0.00     0.124 S 
ATOM     61  O   UNL A   1      34.880  34.962  32.007  1.00  0.00    -0.237 OA
ATOM     62  O   UNL A   1      33.769  33.656  30.229  1.00  0.00    -0.237 OA
ATOM     63  O   UNL A   1      34.012  32.704  32.492  1.00  0.00    -0.744 OA
ENDBRANCH  59  60
ENDBRANCH  40  54
BRANCH  41  64
ATOM     64  C   UNL A   1      47.562  28.304  27.551  1.00  0.00    -0.014 A 
ATOM     65  C   UNL A   1      48.522  27.846  28.471  1.00  0.00     0.010 A 
ATOM     66  C   UNL A   1      47.871  28.288  26.179  1.00  0.00     0.010 A 
ATOM     67  C   UNL A   1      49.776  27.410  28.030  1.00  0.00     0.020 A 
ATOM     68  C   UNL A   1      49.112  27.826  25.731  1.00  0.00     0.020 A 
ATOM     69  C   UNL A   1      50.063  27.405  26.662  1.00  0.00     0.054 A 
BRANCH  69  70
ATOM     70  S   UNL A   1      51.685  26.810  26.110  1.00  0.00     0.124 S 
ATOM     71  O   UNL A   1      51.944  27.666  24.955  1.00  0.00    -0.237 OA
ATOM     72  O   UNL A   1      52.526  27.053  27.278  1.00  0.00    -0.237 OA
ATOM     73  O   UNL A   1      51.447  25.401  25.805  1.00  0.00    -0.744 OA
ENDBRANCH  69  70
ENDBRANCH  41  64
BRANCH  53  74
ATOM     74  C   UNL A   1      45.367  34.461  29.984  1.00  0.00    -0.014 A 
ATOM     75  C   UNL A   1      45.954  34.697  31.238  1.00  0.00     0.010 A 
ATOM     76  C   UNL A   1      45.501  35.423  28.966  1.00  0.00     0.010 A 
ATOM     77  C   UNL A   1      46.638  35.891  31.481  1.00  0.00     0.020 A 
ATOM     78  C   UNL A   1      46.209  36.605  29.197  1.00  0.00     0.020 A 
ATOM     79  C   UNL A   1      46.760  36.837  30.458  1.00  0.00     0.054 A 
BRANCH  79  80
ATOM     80  S   UNL A   1      47.689  38.360  30.786  1.00  0.00     0.124 S 
ATOM     81  O   UNL A   1      48.452  38.000  31.978  1.00  0.00    -0.237 OA
ATOM     82  O   UNL A   1      48.473  38.527  29.565  1.00  0.00    -0.237 OA
ATOM     83  O   UNL A   1      46.646  39.363  30.993  1.00  0.00    -0.744 OA
ENDBRANCH  79  80
ENDBRANCH  53  74
ENDBRANCH  27  28
ENDBRANCH  20  22
ENDBRANCH  19  20
ENDBRANCH  18  19
ENDBRANCH   1  18
TORSDOF 17
ENDMDL
