MODEL 1
REMARK VINA RESULT:      -9.8      0.000      0.000
REMARK SMILES CC(C)[C@@H](Nc1cc(Cl)c(Cl)cc1[N+](=O)[O-])C(=O)OCCOCCOC(=O)c1ccc(-c2c3nc(c(-c4ccc(S(=O)(=O)[O-])cc4)c4ccc([nH]4)c(-c4ccc(S(=O)(=O)[O-])cc4)c4nc(c(-c5ccc(S(=O)(=O)[O-])cc5)c5ccc2[nH]5)C=C4)C=C3)cc1
REMARK SMILES IDX 22 1 21 2 20 3 19 4 17 5 18 6 4 7 2 8 1 9 3 10 5 11 6 13
REMARK SMILES IDX 7 14 13 15 8 16 12 17 9 18 10 19 11 20 14 21 15 22 16 23
REMARK SMILES IDX 23 24 24 25 25 26 26 27 27 28 28 29 29 30 87 31 30 32 86 33
REMARK SMILES IDX 31 34 32 35 33 36 80 37 34 38 85 39 79 40 81 41 35 42 84 43
REMARK SMILES IDX 78 44 77 45 36 47 66 48 47 49 65 50 48 51 51 52 64 53 82 54
REMARK SMILES IDX 49 55 50 56 63 58 83 59 52 60 37 61 38 62 46 63 39 64 45 65
REMARK SMILES IDX 40 66 41 67 42 68 43 69 44 70 67 71 68 72 76 73 69 74 75 75
REMARK SMILES IDX 70 76 71 77 72 78 73 79 74 80 53 81 54 82 62 83 55 84 61 85
REMARK SMILES IDX 56 86 57 87 58 88 59 89 60 90
REMARK H PARENT 5 12 81 46 51 57
REMARK Flexibility Score: inf
ROOT
ATOM      1  O   UNL A   1      33.760  30.163  27.589  1.00  0.00    -0.374 OA
ENDROOT
BRANCH   1   2
ATOM      2  C   UNL A   1      33.318  30.057  26.236  1.00  0.00     0.202 C 
BRANCH   2   3
ATOM      3  C   UNL A   1      33.469  28.685  25.578  1.00  0.00     0.261 C 
BRANCH   3   4
ATOM      4  O   UNL A   1      32.474  28.402  24.571  1.00  0.00    -0.462 OA
BRANCH   4   5
ATOM      5  C   UNL A   1      31.337  27.798  25.025  1.00  0.00     0.328 C 
ATOM      6  O   UNL A   1      31.198  27.346  26.158  1.00  0.00    -0.250 OA
BRANCH   5   7
ATOM      7  C   UNL A   1      30.270  27.625  23.929  1.00  0.00     0.192 C 
BRANCH   7   8
ATOM      8  C   UNL A   1      29.713  28.945  23.318  1.00  0.00     0.017 C 
ATOM      9  C   UNL A   1      30.470  29.310  22.028  1.00  0.00     0.010 C 
ATOM     10  C   UNL A   1      28.224  28.886  22.967  1.00  0.00     0.010 C 
ENDBRANCH   7   8
BRANCH   7  11
ATOM     11  N   UNL A   1      30.667  26.689  22.834  1.00  0.00    -0.366 N 
ATOM     12  H   UNL A   1      30.471  26.960  21.909  1.00  0.00     0.161 HD
BRANCH  11  13
ATOM     13  C   UNL A   1      31.294  25.462  23.027  1.00  0.00     0.115 A 
ATOM     14  C   UNL A   1      30.763  24.558  23.965  1.00  0.00     0.055 A 
ATOM     15  C   UNL A   1      32.490  25.080  22.373  1.00  0.00     0.293 A 
ATOM     16  C   UNL A   1      31.418  23.371  24.306  1.00  0.00     0.062 A 
ATOM     17  C   UNL A   1      33.154  23.884  22.710  1.00  0.00     0.110 A 
ATOM     18  Cl  UNL A   1      30.691  22.376  25.518  1.00  0.00    -0.083 Cl
ATOM     19  C   UNL A   1      32.625  23.042  23.688  1.00  0.00     0.066 A 
ATOM     20  Cl  UNL A   1      33.503  21.612  24.086  1.00  0.00    -0.082 Cl
BRANCH  15  21
ATOM     21  N   UNL A   1      33.076  25.908  21.303  1.00  0.00     0.065 N 
ATOM     22  O   UNL A   1      32.980  25.498  20.138  1.00  0.00    -0.258 OA
ATOM     23  O   UNL A   1      33.610  26.984  21.614  1.00  0.00    -0.258 OA
ENDBRANCH  15  21
ENDBRANCH  11  13
ENDBRANCH   7  11
ENDBRANCH   5   7
ENDBRANCH   4   5
ENDBRANCH   3   4
ENDBRANCH   2   3
ENDBRANCH   1   2
BRANCH   1  24
ATOM     24  C   UNL A   1      34.450  31.357  27.949  1.00  0.00     0.202 C 
BRANCH  24  25
ATOM     25  C   UNL A   1      35.856  31.167  28.530  1.00  0.00     0.261 C 
BRANCH  25  26
ATOM     26  O   UNL A   1      36.358  29.836  28.303  1.00  0.00    -0.460 OA
BRANCH  26  27
ATOM     27  C   UNL A   1      37.103  29.339  29.319  1.00  0.00     0.338 C 
ATOM     28  O   UNL A   1      36.719  29.086  30.455  1.00  0.00    -0.246 OA
BRANCH  27  29
ATOM     29  C   UNL A   1      38.444  28.945  28.847  1.00  0.00     0.060 A 
ATOM     30  C   UNL A   1      39.303  28.375  29.794  1.00  0.00     0.016 A 
ATOM     31  C   UNL A   1      38.896  29.209  27.552  1.00  0.00     0.016 A 
ATOM     32  C   UNL A   1      40.638  28.140  29.475  1.00  0.00     0.010 A 
ATOM     33  C   UNL A   1      40.241  28.973  27.234  1.00  0.00     0.010 A 
ATOM     34  C   UNL A   1      41.129  28.483  28.208  1.00  0.00    -0.014 A 
BRANCH  34  35
ATOM     35  C   UNL A   1      42.600  28.462  27.991  1.00  0.00     0.031 A 
ATOM     36  C   UNL A   1      43.238  27.239  27.387  1.00  0.00     0.074 A 
ATOM     37  C   UNL A   1      43.346  29.555  28.237  1.00  0.00     0.049 A 
ATOM     38  N   UNL A   1      44.478  27.051  27.012  1.00  0.00    -0.248 NA
ATOM     39  C   UNL A   1      42.363  26.074  27.170  1.00  0.00     0.031 C 
ATOM     40  C   UNL A   1      42.846  30.813  28.788  1.00  0.00     0.029 A 
ATOM     41  N   UNL A   1      44.685  29.783  28.035  1.00  0.00    -0.354 N 
ATOM     42  C   UNL A   1      44.534  25.753  26.516  1.00  0.00     0.074 A 
ATOM     43  C   UNL A   1      43.211  25.188  26.670  1.00  0.00     0.031 C 
ATOM     44  C   UNL A   1      43.864  31.687  28.872  1.00  0.00     0.029 A 
ATOM     45  C   UNL A   1      45.090  31.044  28.400  1.00  0.00     0.049 A 
ATOM     46  H   UNL A   1      45.297  29.107  27.665  1.00  0.00     0.167 HD
ATOM     47  C   UNL A   1      45.585  25.094  25.972  1.00  0.00     0.031 A 
ATOM     48  C   UNL A   1      46.309  31.618  28.362  1.00  0.00     0.031 A 
ATOM     49  C   UNL A   1      46.905  25.648  25.830  1.00  0.00     0.049 A 
ATOM     50  C   UNL A   1      47.474  30.847  27.801  1.00  0.00     0.074 A 
ATOM     51  C   UNL A   1      48.029  25.064  25.271  1.00  0.00     0.029 A 
ATOM     52  N   UNL A   1      47.286  26.910  26.260  1.00  0.00    -0.354 N 
ATOM     53  N   UNL A   1      47.498  29.635  27.301  1.00  0.00    -0.248 NA
ATOM     54  C   UNL A   1      48.776  31.532  27.788  1.00  0.00     0.031 C 
ATOM     55  C   UNL A   1      49.102  25.951  25.415  1.00  0.00     0.029 A 
ATOM     56  C   UNL A   1      48.633  27.112  26.008  1.00  0.00     0.049 A 
ATOM     57  H   UNL A   1      46.686  27.567  26.682  1.00  0.00     0.167 HD
ATOM     58  C   UNL A   1      48.813  29.419  26.895  1.00  0.00     0.074 A 
ATOM     59  C   UNL A   1      49.546  30.633  27.191  1.00  0.00     0.031 C 
ATOM     60  C   UNL A   1      49.359  28.316  26.326  1.00  0.00     0.031 A 
BRANCH  47  61
ATOM     61  C   UNL A   1      45.353  23.674  25.523  1.00  0.00    -0.014 A 
ATOM     62  C   UNL A   1      45.483  22.594  26.413  1.00  0.00     0.010 A 
ATOM     63  C   UNL A   1      44.972  23.422  24.192  1.00  0.00     0.010 A 
ATOM     64  C   UNL A   1      45.281  21.284  25.971  1.00  0.00     0.020 A 
ATOM     65  C   UNL A   1      44.743  22.115  23.752  1.00  0.00     0.020 A 
ATOM     66  C   UNL A   1      44.918  21.052  24.640  1.00  0.00     0.054 A 
BRANCH  66  67
ATOM     67  S   UNL A   1      44.654  19.343  24.092  1.00  0.00     0.124 S 
ATOM     68  O   UNL A   1      45.867  18.683  24.572  1.00  0.00    -0.237 OA
ATOM     69  O   UNL A   1      43.422  18.970  24.781  1.00  0.00    -0.237 OA
ATOM     70  O   UNL A   1      44.542  19.458  22.640  1.00  0.00    -0.744 OA
ENDBRANCH  66  67
ENDBRANCH  47  61
BRANCH  48  71
ATOM     71  C   UNL A   1      46.486  33.001  28.880  1.00  0.00    -0.014 A 
ATOM     72  C   UNL A   1      46.813  33.233  30.227  1.00  0.00     0.010 A 
ATOM     73  C   UNL A   1      46.345  34.100  28.012  1.00  0.00     0.010 A 
ATOM     74  C   UNL A   1      46.990  34.538  30.698  1.00  0.00     0.020 A 
ATOM     75  C   UNL A   1      46.546  35.403  28.471  1.00  0.00     0.020 A 
ATOM     76  C   UNL A   1      46.860  35.614  29.815  1.00  0.00     0.054 A 
BRANCH  76  77
ATOM     77  S   UNL A   1      47.166  37.295  30.427  1.00  0.00     0.124 S 
ATOM     78  O   UNL A   1      45.825  37.870  30.421  1.00  0.00    -0.237 OA
ATOM     79  O   UNL A   1      47.745  37.051  31.744  1.00  0.00    -0.237 OA
ATOM     80  O   UNL A   1      48.091  37.853  29.443  1.00  0.00    -0.744 OA
ENDBRANCH  76  77
ENDBRANCH  48  71
BRANCH  60  81
ATOM     81  C   UNL A   1      50.823  28.375  25.971  1.00  0.00    -0.014 A 
ATOM     82  C   UNL A   1      51.249  28.808  24.703  1.00  0.00     0.010 A 
ATOM     83  C   UNL A   1      51.788  28.016  26.930  1.00  0.00     0.010 A 
ATOM     84  C   UNL A   1      52.610  28.837  24.385  1.00  0.00     0.020 A 
ATOM     85  C   UNL A   1      53.151  28.069  26.626  1.00  0.00     0.020 A 
ATOM     86  C   UNL A   1      53.553  28.460  25.348  1.00  0.00     0.054 A 
BRANCH  86  87
ATOM     87  S   UNL A   1      55.314  28.517  24.917  1.00  0.00     0.124 S 
ATOM     88  O   UNL A   1      55.285  29.179  23.615  1.00  0.00    -0.237 OA
ATOM     89  O   UNL A   1      55.888  29.300  26.007  1.00  0.00    -0.237 OA
ATOM     90  O   UNL A   1      55.710  27.111  24.893  1.00  0.00    -0.744 OA
ENDBRANCH  86  87
ENDBRANCH  60  81
ENDBRANCH  34  35
ENDBRANCH  27  29
ENDBRANCH  26  27
ENDBRANCH  25  26
ENDBRANCH  24  25
ENDBRANCH   1  24
TORSDOF 21
ENDMDL
MODEL 2
REMARK VINA RESULT:      -9.4      7.087     11.772
REMARK SMILES CC(C)[C@@H](Nc1cc(Cl)c(Cl)cc1[N+](=O)[O-])C(=O)OCCOCCOC(=O)c1ccc(-c2c3nc(c(-c4ccc(S(=O)(=O)[O-])cc4)c4ccc([nH]4)c(-c4ccc(S(=O)(=O)[O-])cc4)c4nc(c(-c5ccc(S(=O)(=O)[O-])cc5)c5ccc2[nH]5)C=C4)C=C3)cc1
REMARK SMILES IDX 22 1 21 2 20 3 19 4 17 5 18 6 4 7 2 8 1 9 3 10 5 11 6 13
REMARK SMILES IDX 7 14 13 15 8 16 12 17 9 18 10 19 11 20 14 21 15 22 16 23
REMARK SMILES IDX 23 24 24 25 25 26 26 27 27 28 28 29 29 30 87 31 30 32 86 33
REMARK SMILES IDX 31 34 32 35 33 36 80 37 34 38 85 39 79 40 81 41 35 42 84 43
REMARK SMILES IDX 78 44 77 45 36 47 66 48 47 49 65 50 48 51 51 52 64 53 82 54
REMARK SMILES IDX 49 55 50 56 63 58 83 59 52 60 37 61 38 62 46 63 39 64 45 65
REMARK SMILES IDX 40 66 41 67 42 68 43 69 44 70 67 71 68 72 76 73 69 74 75 75
REMARK SMILES IDX 70 76 71 77 72 78 73 79 74 80 53 81 54 82 62 83 55 84 61 85
REMARK SMILES IDX 56 86 57 87 58 88 59 89 60 90
REMARK H PARENT 5 12 81 46 51 57
REMARK Flexibility Score: inf
ROOT
ATOM      1  O   UNL A   1      39.416  21.735  25.609  1.00  0.00    -0.374 OA
ENDROOT
BRANCH   1   2
ATOM      2  C   UNL A   1      38.050  21.379  25.820  1.00  0.00     0.202 C 
BRANCH   2   3
ATOM      3  C   UNL A   1      37.107  21.572  24.633  1.00  0.00     0.261 C 
BRANCH   3   4
ATOM      4  O   UNL A   1      35.777  21.052  24.847  1.00  0.00    -0.462 OA
BRANCH   4   5
ATOM      5  C   UNL A   1      34.809  21.991  25.061  1.00  0.00     0.328 C 
ATOM      6  O   UNL A   1      34.533  22.463  26.160  1.00  0.00    -0.250 OA
BRANCH   5   7
ATOM      7  C   UNL A   1      34.001  22.320  23.793  1.00  0.00     0.192 C 
BRANCH   7   8
ATOM      8  C   UNL A   1      32.509  21.871  23.811  1.00  0.00     0.017 C 
ATOM      9  C   UNL A   1      32.131  21.184  22.486  1.00  0.00     0.010 C 
ATOM     10  C   UNL A   1      32.169  20.894  24.940  1.00  0.00     0.010 C 
ENDBRANCH   7   8
BRANCH   7  11
ATOM     11  N   UNL A   1      34.094  23.747  23.362  1.00  0.00    -0.366 N 
ATOM     12  H   UNL A   1      34.966  24.071  23.041  1.00  0.00     0.161 HD
BRANCH  11  13
ATOM     13  C   UNL A   1      33.038  24.654  23.382  1.00  0.00     0.115 A 
ATOM     14  C   UNL A   1      32.480  25.031  24.616  1.00  0.00     0.055 A 
ATOM     15  C   UNL A   1      32.438  25.184  22.215  1.00  0.00     0.293 A 
ATOM     16  C   UNL A   1      31.333  25.827  24.700  1.00  0.00     0.062 A 
ATOM     17  C   UNL A   1      31.285  25.989  22.292  1.00  0.00     0.110 A 
ATOM     18  Cl  UNL A   1      30.710  26.170  26.275  1.00  0.00    -0.083 Cl
ATOM     19  C   UNL A   1      30.725  26.294  23.534  1.00  0.00     0.066 A 
ATOM     20  Cl  UNL A   1      29.291  27.250  23.563  1.00  0.00    -0.082 Cl
BRANCH  15  21
ATOM     21  N   UNL A   1      33.006  24.931  20.878  1.00  0.00     0.065 N 
ATOM     22  O   UNL A   1      33.229  25.909  20.152  1.00  0.00    -0.258 OA
ATOM     23  O   UNL A   1      33.259  23.760  20.556  1.00  0.00    -0.258 OA
ENDBRANCH  15  21
ENDBRANCH  11  13
ENDBRANCH   7  11
ENDBRANCH   5   7
ENDBRANCH   4   5
ENDBRANCH   3   4
ENDBRANCH   2   3
ENDBRANCH   1   2
BRANCH   1  24
ATOM     24  C   UNL A   1      40.094  22.357  26.698  1.00  0.00     0.202 C 
BRANCH  24  25
ATOM     25  C   UNL A   1      39.694  23.807  26.995  1.00  0.00     0.261 C 
BRANCH  25  26
ATOM     26  O   UNL A   1      40.840  24.639  27.258  1.00  0.00    -0.460 OA
BRANCH  26  27
ATOM     27  C   UNL A   1      40.712  25.918  26.832  1.00  0.00     0.338 C 
ATOM     28  O   UNL A   1      40.762  26.314  25.672  1.00  0.00    -0.246 OA
BRANCH  27  29
ATOM     29  C   UNL A   1      40.310  26.807  27.939  1.00  0.00     0.060 A 
ATOM     30  C   UNL A   1      40.973  28.037  28.032  1.00  0.00     0.016 A 
ATOM     31  C   UNL A   1      39.390  26.425  28.918  1.00  0.00     0.016 A 
ATOM     32  C   UNL A   1      40.778  28.852  29.144  1.00  0.00     0.010 A 
ATOM     33  C   UNL A   1      39.197  27.248  30.036  1.00  0.00     0.010 A 
ATOM     34  C   UNL A   1      39.927  28.441  30.178  1.00  0.00    -0.014 A 
BRANCH  34  35
ATOM     35  C   UNL A   1      39.944  29.204  31.453  1.00  0.00     0.031 A 
ATOM     36  C   UNL A   1      41.068  28.979  32.432  1.00  0.00     0.074 A 
ATOM     37  C   UNL A   1      39.026  30.157  31.696  1.00  0.00     0.049 A 
ATOM     38  N   UNL A   1      41.335  29.613  33.545  1.00  0.00    -0.248 NA
ATOM     39  C   UNL A   1      42.019  27.902  32.110  1.00  0.00     0.031 C 
ATOM     40  C   UNL A   1      37.909  30.499  30.817  1.00  0.00     0.029 A 
ATOM     41  N   UNL A   1      38.902  31.027  32.752  1.00  0.00    -0.354 N 
ATOM     42  C   UNL A   1      42.483  29.015  34.057  1.00  0.00     0.074 A 
ATOM     43  C   UNL A   1      42.839  27.946  33.149  1.00  0.00     0.031 C 
ATOM     44  C   UNL A   1      37.217  31.512  31.365  1.00  0.00     0.029 A 
ATOM     45  C   UNL A   1      37.829  31.878  32.642  1.00  0.00     0.049 A 
ATOM     46  H   UNL A   1      39.522  31.038  33.516  1.00  0.00     0.167 HD
ATOM     47  C   UNL A   1      43.182  29.332  35.173  1.00  0.00     0.031 A 
ATOM     48  C   UNL A   1      37.387  32.842  33.474  1.00  0.00     0.031 A 
ATOM     49  C   UNL A   1      42.823  30.386  36.085  1.00  0.00     0.049 A 
ATOM     50  C   UNL A   1      38.151  33.142  34.735  1.00  0.00     0.074 A 
ATOM     51  C   UNL A   1      43.483  30.796  37.230  1.00  0.00     0.029 A 
ATOM     52  N   UNL A   1      41.700  31.190  35.964  1.00  0.00    -0.354 N 
ATOM     53  N   UNL A   1      39.255  32.592  35.181  1.00  0.00    -0.248 NA
ATOM     54  C   UNL A   1      37.614  34.205  35.598  1.00  0.00     0.031 C 
ATOM     55  C   UNL A   1      42.729  31.809  37.832  1.00  0.00     0.029 A 
ATOM     56  C   UNL A   1      41.631  32.072  37.029  1.00  0.00     0.049 A 
ATOM     57  H   UNL A   1      41.048  31.141  35.228  1.00  0.00     0.167 HD
ATOM     58  C   UNL A   1      39.556  33.256  36.368  1.00  0.00     0.074 A 
ATOM     59  C   UNL A   1      38.529  34.260  36.557  1.00  0.00     0.031 C 
ATOM     60  C   UNL A   1      40.592  33.054  37.220  1.00  0.00     0.031 A 
BRANCH  47  61
ATOM     61  C   UNL A   1      44.395  28.495  35.489  1.00  0.00    -0.014 A 
ATOM     62  C   UNL A   1      44.305  27.357  36.309  1.00  0.00     0.010 A 
ATOM     63  C   UNL A   1      45.640  28.841  34.932  1.00  0.00     0.010 A 
ATOM     64  C   UNL A   1      45.446  26.606  36.604  1.00  0.00     0.020 A 
ATOM     65  C   UNL A   1      46.779  28.078  35.204  1.00  0.00     0.020 A 
ATOM     66  C   UNL A   1      46.678  26.975  36.054  1.00  0.00     0.054 A 
BRANCH  66  67
ATOM     67  S   UNL A   1      48.143  25.979  36.446  1.00  0.00     0.124 S 
ATOM     68  O   UNL A   1      49.175  27.005  36.585  1.00  0.00    -0.237 OA
ATOM     69  O   UNL A   1      47.754  25.307  37.683  1.00  0.00    -0.237 OA
ATOM     70  O   UNL A   1      48.288  25.104  35.285  1.00  0.00    -0.744 OA
ENDBRANCH  66  67
ENDBRANCH  47  61
BRANCH  48  71
ATOM     71  C   UNL A   1      36.145  33.590  33.136  1.00  0.00    -0.014 A 
ATOM     72  C   UNL A   1      34.877  33.019  33.341  1.00  0.00     0.010 A 
ATOM     73  C   UNL A   1      36.232  34.897  32.622  1.00  0.00     0.010 A 
ATOM     74  C   UNL A   1      33.719  33.738  33.032  1.00  0.00     0.020 A 
ATOM     75  C   UNL A   1      35.077  35.629  32.336  1.00  0.00     0.020 A 
ATOM     76  C   UNL A   1      33.827  35.041  32.537  1.00  0.00     0.054 A 
BRANCH  76  77
ATOM     77  S   UNL A   1      32.312  35.986  32.212  1.00  0.00     0.124 S 
ATOM     78  O   UNL A   1      32.451  36.306  30.795  1.00  0.00    -0.237 OA
ATOM     79  O   UNL A   1      31.263  35.027  32.545  1.00  0.00    -0.237 OA
ATOM     80  O   UNL A   1      32.417  37.123  33.124  1.00  0.00    -0.744 OA
ENDBRANCH  76  77
ENDBRANCH  48  71
BRANCH  60  81
ATOM     81  C   UNL A   1      40.675  33.947  38.430  1.00  0.00    -0.014 A 
ATOM     82  C   UNL A   1      40.500  33.435  39.728  1.00  0.00     0.010 A 
ATOM     83  C   UNL A   1      40.956  35.316  38.269  1.00  0.00     0.010 A 
ATOM     84  C   UNL A   1      40.560  34.283  40.838  1.00  0.00     0.020 A 
ATOM     85  C   UNL A   1      41.044  36.163  39.377  1.00  0.00     0.020 A 
ATOM     86  C   UNL A   1      40.825  35.644  40.654  1.00  0.00     0.054 A 
BRANCH  86  87
ATOM     87  S   UNL A   1      40.911  36.723  42.110  1.00  0.00     0.124 S 
ATOM     88  O   UNL A   1      39.527  36.711  42.577  1.00  0.00    -0.237 OA
ATOM     89  O   UNL A   1      41.871  36.034  42.968  1.00  0.00    -0.237 OA
ATOM     90  O   UNL A   1      41.374  37.999  41.568  1.00  0.00    -0.744 OA
ENDBRANCH  86  87
ENDBRANCH  60  81
ENDBRANCH  34  35
ENDBRANCH  27  29
ENDBRANCH  26  27
ENDBRANCH  25  26
ENDBRANCH  24  25
ENDBRANCH   1  24
TORSDOF 21
ENDMDL
MODEL 3
REMARK VINA RESULT:      -9.3      2.799      8.676
REMARK SMILES CC(C)[C@@H](Nc1cc(Cl)c(Cl)cc1[N+](=O)[O-])C(=O)OCCOCCOC(=O)c1ccc(-c2c3nc(c(-c4ccc(S(=O)(=O)[O-])cc4)c4ccc([nH]4)c(-c4ccc(S(=O)(=O)[O-])cc4)c4nc(c(-c5ccc(S(=O)(=O)[O-])cc5)c5ccc2[nH]5)C=C4)C=C3)cc1
REMARK SMILES IDX 22 1 21 2 20 3 19 4 17 5 18 6 4 7 2 8 1 9 3 10 5 11 6 13
REMARK SMILES IDX 7 14 13 15 8 16 12 17 9 18 10 19 11 20 14 21 15 22 16 23
REMARK SMILES IDX 23 24 24 25 25 26 26 27 27 28 28 29 29 30 87 31 30 32 86 33
REMARK SMILES IDX 31 34 32 35 33 36 80 37 34 38 85 39 79 40 81 41 35 42 84 43
REMARK SMILES IDX 78 44 77 45 36 47 66 48 47 49 65 50 48 51 51 52 64 53 82 54
REMARK SMILES IDX 49 55 50 56 63 58 83 59 52 60 37 61 38 62 46 63 39 64 45 65
REMARK SMILES IDX 40 66 41 67 42 68 43 69 44 70 67 71 68 72 76 73 69 74 75 75
REMARK SMILES IDX 70 76 71 77 72 78 73 79 74 80 53 81 54 82 62 83 55 84 61 85
REMARK SMILES IDX 56 86 57 87 58 88 59 89 60 90
REMARK H PARENT 5 12 81 46 51 57
REMARK Flexibility Score: inf
ROOT
ATOM      1  O   UNL A   1      39.566  23.541  26.329  1.00  0.00    -0.374 OA
ENDROOT
BRANCH   1   2
ATOM      2  C   UNL A   1      38.320  24.224  26.185  1.00  0.00     0.202 C 
BRANCH   2   3
ATOM      3  C   UNL A   1      37.096  23.351  25.905  1.00  0.00     0.261 C 
BRANCH   3   4
ATOM      4  O   UNL A   1      36.106  23.980  25.065  1.00  0.00    -0.462 OA
BRANCH   4   5
ATOM      5  C   UNL A   1      35.651  23.220  24.025  1.00  0.00     0.328 C 
ATOM      6  O   UNL A   1      36.225  23.109  22.946  1.00  0.00    -0.250 OA
BRANCH   5   7
ATOM      7  C   UNL A   1      34.267  22.601  24.294  1.00  0.00     0.192 C 
BRANCH   7   8
ATOM      8  C   UNL A   1      34.275  21.115  24.760  1.00  0.00     0.017 C 
ATOM      9  C   UNL A   1      34.175  21.024  26.294  1.00  0.00     0.010 C 
ATOM     10  C   UNL A   1      33.129  20.278  24.183  1.00  0.00     0.010 C 
ENDBRANCH   7   8
BRANCH   7  11
ATOM     11  N   UNL A   1      33.403  23.412  25.204  1.00  0.00    -0.366 N 
ATOM     12  H   UNL A   1      33.495  23.265  26.172  1.00  0.00     0.161 HD
BRANCH  11  13
ATOM     13  C   UNL A   1      32.477  24.361  24.781  1.00  0.00     0.115 A 
ATOM     14  C   UNL A   1      32.869  25.336  23.846  1.00  0.00     0.055 A 
ATOM     15  C   UNL A   1      31.157  24.449  25.286  1.00  0.00     0.293 A 
ATOM     16  C   UNL A   1      32.033  26.397  23.484  1.00  0.00     0.062 A 
ATOM     17  C   UNL A   1      30.309  25.513  24.924  1.00  0.00     0.110 A 
ATOM     18  Cl  UNL A   1      32.656  27.563  22.371  1.00  0.00    -0.083 Cl
ATOM     19  C   UNL A   1      30.756  26.494  24.038  1.00  0.00     0.066 A 
ATOM     20  Cl  UNL A   1      29.687  27.794  23.662  1.00  0.00    -0.082 Cl
BRANCH  15  21
ATOM     21  N   UNL A   1      30.614  23.422  26.195  1.00  0.00     0.065 N 
ATOM     22  O   UNL A   1      29.998  23.807  27.197  1.00  0.00    -0.258 OA
ATOM     23  O   UNL A   1      30.774  22.228  25.898  1.00  0.00    -0.258 OA
ENDBRANCH  15  21
ENDBRANCH  11  13
ENDBRANCH   7  11
ENDBRANCH   5   7
ENDBRANCH   4   5
ENDBRANCH   3   4
ENDBRANCH   2   3
ENDBRANCH   1   2
BRANCH   1  24
ATOM     24  C   UNL A   1      39.528  22.258  26.948  1.00  0.00     0.202 C 
BRANCH  24  25
ATOM     25  C   UNL A   1      39.924  21.074  26.057  1.00  0.00     0.261 C 
BRANCH  25  26
ATOM     26  O   UNL A   1      40.912  20.234  26.685  1.00  0.00    -0.460 OA
BRANCH  26  27
ATOM     27  C   UNL A   1      42.042  20.061  25.959  1.00  0.00     0.338 C 
ATOM     28  O   UNL A   1      42.296  19.125  25.208  1.00  0.00    -0.246 OA
BRANCH  27  29
ATOM     29  C   UNL A   1      42.903  21.257  26.028  1.00  0.00     0.060 A 
ATOM     30  C   UNL A   1      43.216  21.735  27.306  1.00  0.00     0.016 A 
ATOM     31  C   UNL A   1      43.316  21.957  24.891  1.00  0.00     0.016 A 
ATOM     32  C   UNL A   1      43.873  22.953  27.454  1.00  0.00     0.010 A 
ATOM     33  C   UNL A   1      43.977  23.184  25.044  1.00  0.00     0.010 A 
ATOM     34  C   UNL A   1      44.214  23.711  26.326  1.00  0.00    -0.014 A 
BRANCH  34  35
ATOM     35  C   UNL A   1      44.674  25.110  26.527  1.00  0.00     0.031 A 
ATOM     36  C   UNL A   1      43.701  26.139  27.043  1.00  0.00     0.074 A 
ATOM     37  C   UNL A   1      45.965  25.442  26.346  1.00  0.00     0.049 A 
ATOM     38  N   UNL A   1      43.917  27.382  27.392  1.00  0.00    -0.248 NA
ATOM     39  C   UNL A   1      42.300  25.709  27.191  1.00  0.00     0.031 C 
ATOM     40  C   UNL A   1      47.014  24.535  25.884  1.00  0.00     0.029 A 
ATOM     41  N   UNL A   1      46.615  26.635  26.549  1.00  0.00    -0.354 N 
ATOM     42  C   UNL A   1      42.686  27.882  27.801  1.00  0.00     0.074 A 
ATOM     43  C   UNL A   1      41.720  26.818  27.624  1.00  0.00     0.031 C 
ATOM     44  C   UNL A   1      48.181  25.201  25.848  1.00  0.00     0.029 A 
ATOM     45  C   UNL A   1      47.959  26.585  26.264  1.00  0.00     0.049 A 
ATOM     46  H   UNL A   1      46.163  27.448  26.868  1.00  0.00     0.167 HD
ATOM     47  C   UNL A   1      42.385  29.109  28.290  1.00  0.00     0.031 A 
ATOM     48  C   UNL A   1      48.904  27.544  26.328  1.00  0.00     0.031 A 
ATOM     49  C   UNL A   1      43.339  30.173  28.456  1.00  0.00     0.049 A 
ATOM     50  C   UNL A   1      48.536  28.916  26.825  1.00  0.00     0.074 A 
ATOM     51  C   UNL A   1      43.133  31.444  28.964  1.00  0.00     0.029 A 
ATOM     52  N   UNL A   1      44.679  30.098  28.105  1.00  0.00    -0.354 N 
ATOM     53  N   UNL A   1      47.374  29.358  27.245  1.00  0.00    -0.248 NA
ATOM     54  C   UNL A   1      49.614  29.915  26.871  1.00  0.00     0.031 C 
ATOM     55  C   UNL A   1      44.334  32.155  28.868  1.00  0.00     0.029 A 
ATOM     56  C   UNL A   1      45.304  31.308  28.357  1.00  0.00     0.049 A 
ATOM     57  H   UNL A   1      45.121  29.301  27.734  1.00  0.00     0.167 HD
ATOM     58  C   UNL A   1      47.586  30.681  27.623  1.00  0.00     0.074 A 
ATOM     59  C   UNL A   1      48.991  30.959  27.400  1.00  0.00     0.031 C 
ATOM     60  C   UNL A   1      46.698  31.582  28.112  1.00  0.00     0.031 A 
BRANCH  47  61
ATOM     61  C   UNL A   1      40.946  29.377  28.647  1.00  0.00    -0.014 A 
ATOM     62  C   UNL A   1      39.931  29.345  27.674  1.00  0.00     0.010 A 
ATOM     63  C   UNL A   1      40.600  29.640  29.986  1.00  0.00     0.010 A 
ATOM     64  C   UNL A   1      38.605  29.614  28.024  1.00  0.00     0.020 A 
ATOM     65  C   UNL A   1      39.272  29.884  30.345  1.00  0.00     0.020 A 
ATOM     66  C   UNL A   1      38.285  29.889  29.357  1.00  0.00     0.054 A 
BRANCH  66  67
ATOM     67  S   UNL A   1      36.556  30.228  29.787  1.00  0.00     0.124 S 
ATOM     68  O   UNL A   1      36.592  31.662  30.067  1.00  0.00    -0.237 OA
ATOM     69  O   UNL A   1      35.840  29.843  28.575  1.00  0.00    -0.237 OA
ATOM     70  O   UNL A   1      36.313  29.374  30.948  1.00  0.00    -0.744 OA
ENDBRANCH  66  67
ENDBRANCH  47  61
BRANCH  48  71
ATOM     71  C   UNL A   1      50.295  27.234  25.901  1.00  0.00    -0.014 A 
ATOM     72  C   UNL A   1      50.698  27.411  24.566  1.00  0.00     0.010 A 
ATOM     73  C   UNL A   1      51.233  26.773  26.843  1.00  0.00     0.010 A 
ATOM     74  C   UNL A   1      52.012  27.129  24.181  1.00  0.00     0.020 A 
ATOM     75  C   UNL A   1      52.553  26.515  26.468  1.00  0.00     0.020 A 
ATOM     76  C   UNL A   1      52.933  26.687  25.136  1.00  0.00     0.054 A 
BRANCH  76  77
ATOM     77  S   UNL A   1      54.652  26.397  24.632  1.00  0.00     0.124 S 
ATOM     78  O   UNL A   1      55.378  27.346  25.469  1.00  0.00    -0.237 OA
ATOM     79  O   UNL A   1      54.843  24.987  24.960  1.00  0.00    -0.237 OA
ATOM     80  O   UNL A   1      54.644  26.700  23.203  1.00  0.00    -0.744 OA
ENDBRANCH  76  77
ENDBRANCH  48  71
BRANCH  60  81
ATOM     81  C   UNL A   1      47.222  32.952  28.456  1.00  0.00    -0.014 A 
ATOM     82  C   UNL A   1      47.064  34.036  27.573  1.00  0.00     0.010 A 
ATOM     83  C   UNL A   1      47.861  33.165  29.691  1.00  0.00     0.010 A 
ATOM     84  C   UNL A   1      47.576  35.296  27.900  1.00  0.00     0.020 A 
ATOM     85  C   UNL A   1      48.349  34.429  30.034  1.00  0.00     0.020 A 
ATOM     86  C   UNL A   1      48.221  35.482  29.127  1.00  0.00     0.054 A 
BRANCH  86  87
ATOM     87  S   UNL A   1      48.865  37.128  29.535  1.00  0.00     0.124 S 
ATOM     88  O   UNL A   1      50.264  37.015  29.128  1.00  0.00    -0.237 OA
ATOM     89  O   UNL A   1      48.041  38.011  28.715  1.00  0.00    -0.237 OA
ATOM     90  O   UNL A   1      48.643  37.239  30.976  1.00  0.00    -0.744 OA
ENDBRANCH  86  87
ENDBRANCH  60  81
ENDBRANCH  34  35
ENDBRANCH  27  29
ENDBRANCH  26  27
ENDBRANCH  25  26
ENDBRANCH  24  25
ENDBRANCH   1  24
TORSDOF 21
ENDMDL
