MODEL 1
REMARK VINA RESULT:      -9.0      0.000      0.000
REMARK SMILES CC(C)C[C@@H](CNc1nccc(C(F)(F)F)n1)C(=O)OCCOCCOC(=O)c1ccc(-c2c3nc(c(-c4ccc(S(=O)(=O)[O-])cc4)c4ccc([nH]4)c(-c4ccc(S(=O)(=O)[O-])cc4)c4nc(c(-c5ccc(S(=O)(=O)[O-])cc5)c5ccc2[nH]5)C=C4)C=C3)cc1
REMARK SMILES IDX 22 1 21 2 20 3 18 4 19 5 5 6 4 7 2 8 1 9 3 10 6 11 7 12 8 14
REMARK SMILES IDX 9 15 17 16 10 17 12 18 11 19 13 20 14 21 15 22 16 23 23 24
REMARK SMILES IDX 24 25 25 26 26 27 27 28 28 29 29 30 30 31 88 32 31 33 87 34
REMARK SMILES IDX 32 35 33 36 34 37 81 38 35 39 86 40 80 41 82 42 36 43 85 44
REMARK SMILES IDX 79 45 78 46 37 48 67 49 48 50 66 51 49 52 52 53 65 54 83 55
REMARK SMILES IDX 50 56 51 57 64 59 84 60 53 61 38 62 39 63 47 64 40 65 46 66
REMARK SMILES IDX 41 67 42 68 43 69 44 70 45 71 68 72 69 73 77 74 70 75 76 76
REMARK SMILES IDX 71 77 72 78 73 79 74 80 75 81 54 82 55 83 63 84 56 85 62 86
REMARK SMILES IDX 57 87 58 88 59 89 60 90 61 91
REMARK H PARENT 7 13 82 47 52 58
REMARK Flexibility Score: inf
ROOT
ATOM      1  C   UNL A   1      36.285  22.555  25.528  1.00  0.00     0.202 C 
ENDROOT
BRANCH   1   2
ATOM      2  C   UNL A   1      36.153  23.831  24.690  1.00  0.00     0.261 C 
BRANCH   2   3
ATOM      3  O   UNL A   1      34.889  24.492  24.891  1.00  0.00    -0.463 OA
BRANCH   3   4
ATOM      4  C   UNL A   1      34.245  24.896  23.763  1.00  0.00     0.310 C 
ATOM      5  O   UNL A   1      34.424  24.430  22.643  1.00  0.00    -0.252 OA
BRANCH   4   6
ATOM      6  C   UNL A   1      33.267  26.031  24.015  1.00  0.00     0.118 C 
BRANCH   6   7
ATOM      7  C   UNL A   1      32.613  26.624  22.750  1.00  0.00     0.020 C 
BRANCH   7   8
ATOM      8  C   UNL A   1      33.034  28.078  22.439  1.00  0.00    -0.017 C 
ATOM      9  C   UNL A   1      31.860  29.054  22.559  1.00  0.00     0.007 C 
ATOM     10  C   UNL A   1      34.157  28.519  23.382  1.00  0.00     0.007 C 
ENDBRANCH   7   8
ENDBRANCH   6   7
BRANCH   6  11
ATOM     11  C   UNL A   1      32.283  25.585  25.102  1.00  0.00     0.131 C 
BRANCH  11  12
ATOM     12  N   UNL A   1      32.600  26.160  26.390  1.00  0.00    -0.353 N 
ATOM     13  H   UNL A   1      32.716  25.576  27.175  1.00  0.00     0.163 HD
BRANCH  12  14
ATOM     14  C   UNL A   1      32.738  27.518  26.519  1.00  0.00     0.223 A 
ATOM     15  N   UNL A   1      31.712  28.252  26.078  1.00  0.00    -0.222 NA
ATOM     16  N   UNL A   1      33.834  28.030  27.082  1.00  0.00    -0.209 NA
ATOM     17  C   UNL A   1      31.805  29.585  26.229  1.00  0.00     0.117 A 
ATOM     18  C   UNL A   1      33.919  29.382  27.199  1.00  0.00     0.149 A 
ATOM     19  C   UNL A   1      32.892  30.209  26.786  1.00  0.00     0.054 A 
BRANCH  18  20
ATOM     20  C   UNL A   1      35.189  29.967  27.785  1.00  0.00     0.433 C 
ATOM     21  F   UNL A   1      35.608  29.317  28.910  1.00  0.00    -0.165 F 
ATOM     22  F   UNL A   1      36.244  29.928  26.920  1.00  0.00    -0.165 F 
ATOM     23  F   UNL A   1      35.068  31.277  28.151  1.00  0.00    -0.165 F 
ENDBRANCH  18  20
ENDBRANCH  12  14
ENDBRANCH  11  12
ENDBRANCH   6  11
ENDBRANCH   4   6
ENDBRANCH   3   4
ENDBRANCH   2   3
ENDBRANCH   1   2
BRANCH   1  24
ATOM     24  O   UNL A   1      37.608  22.073  25.765  1.00  0.00    -0.374 OA
BRANCH  24  25
ATOM     25  C   UNL A   1      38.562  23.007  26.265  1.00  0.00     0.202 C 
BRANCH  25  26
ATOM     26  C   UNL A   1      39.914  22.447  26.724  1.00  0.00     0.261 C 
BRANCH  26  27
ATOM     27  O   UNL A   1      40.552  23.252  27.732  1.00  0.00    -0.460 OA
BRANCH  27  28
ATOM     28  C   UNL A   1      41.235  24.316  27.247  1.00  0.00     0.338 C 
ATOM     29  O   UNL A   1      41.886  24.358  26.208  1.00  0.00    -0.246 OA
BRANCH  28  30
ATOM     30  C   UNL A   1      40.982  25.527  28.048  1.00  0.00     0.060 A 
ATOM     31  C   UNL A   1      42.075  26.368  28.290  1.00  0.00     0.016 A 
ATOM     32  C   UNL A   1      39.748  25.782  28.649  1.00  0.00     0.016 A 
ATOM     33  C   UNL A   1      41.953  27.433  29.180  1.00  0.00     0.010 A 
ATOM     34  C   UNL A   1      39.629  26.852  29.549  1.00  0.00     0.010 A 
ATOM     35  C   UNL A   1      40.742  27.658  29.849  1.00  0.00    -0.014 A 
BRANCH  35  36
ATOM     36  C   UNL A   1      40.710  28.661  30.944  1.00  0.00     0.031 A 
ATOM     37  C   UNL A   1      39.695  29.773  30.904  1.00  0.00     0.074 A 
ATOM     38  C   UNL A   1      41.516  28.526  32.014  1.00  0.00     0.049 A 
ATOM     39  N   UNL A   1      39.438  30.690  31.803  1.00  0.00    -0.248 NA
ATOM     40  C   UNL A   1      38.855  29.860  29.698  1.00  0.00     0.031 C 
ATOM     41  C   UNL A   1      42.524  27.480  32.188  1.00  0.00     0.029 A 
ATOM     42  N   UNL A   1      41.603  29.270  33.164  1.00  0.00    -0.354 N 
ATOM     43  C   UNL A   1      38.400  31.452  31.280  1.00  0.00     0.074 A 
ATOM     44  C   UNL A   1      38.102  30.918  29.969  1.00  0.00     0.031 C 
ATOM     45  C   UNL A   1      43.123  27.645  33.379  1.00  0.00     0.029 A 
ATOM     46  C   UNL A   1      42.556  28.817  34.045  1.00  0.00     0.049 A 
ATOM     47  H   UNL A   1      41.035  30.055  33.343  1.00  0.00     0.167 HD
ATOM     48  C   UNL A   1      37.741  32.494  31.844  1.00  0.00     0.031 A 
ATOM     49  C   UNL A   1      42.933  29.294  35.247  1.00  0.00     0.031 A 
ATOM     50  C   UNL A   1      38.045  33.043  33.140  1.00  0.00     0.049 A 
ATOM     51  C   UNL A   1      42.222  30.486  35.830  1.00  0.00     0.074 A 
ATOM     52  C   UNL A   1      37.435  34.102  33.792  1.00  0.00     0.029 A 
ATOM     53  N   UNL A   1      39.046  32.582  33.980  1.00  0.00    -0.354 N 
ATOM     54  N   UNL A   1      41.227  31.178  35.329  1.00  0.00    -0.248 NA
ATOM     55  C   UNL A   1      42.676  30.948  37.149  1.00  0.00     0.031 C 
ATOM     56  C   UNL A   1      38.095  34.308  35.008  1.00  0.00     0.029 A 
ATOM     57  C   UNL A   1      39.083  33.344  35.136  1.00  0.00     0.049 A 
ATOM     58  H   UNL A   1      39.642  31.823  33.786  1.00  0.00     0.167 HD
ATOM     59  C   UNL A   1      40.927  32.149  36.279  1.00  0.00     0.074 A 
ATOM     60  C   UNL A   1      41.827  31.937  37.393  1.00  0.00     0.031 C 
ATOM     61  C   UNL A   1      39.994  33.132  36.231  1.00  0.00     0.031 A 
BRANCH  48  62
ATOM     62  C   UNL A   1      36.626  33.123  31.052  1.00  0.00    -0.014 A 
ATOM     63  C   UNL A   1      35.282  32.940  31.427  1.00  0.00     0.010 A 
ATOM     64  C   UNL A   1      36.924  33.951  29.955  1.00  0.00     0.010 A 
ATOM     65  C   UNL A   1      34.256  33.554  30.704  1.00  0.00     0.020 A 
ATOM     66  C   UNL A   1      35.902  34.584  29.242  1.00  0.00     0.020 A 
ATOM     67  C   UNL A   1      34.572  34.371  29.614  1.00  0.00     0.054 A 
BRANCH  67  68
ATOM     68  S   UNL A   1      33.223  35.187  28.716  1.00  0.00     0.124 S 
ATOM     69  O   UNL A   1      32.404  35.704  29.810  1.00  0.00    -0.237 OA
ATOM     70  O   UNL A   1      33.926  36.195  27.927  1.00  0.00    -0.237 OA
ATOM     71  O   UNL A   1      32.618  34.105  27.943  1.00  0.00    -0.744 OA
ENDBRANCH  67  68
ENDBRANCH  48  62
BRANCH  49  72
ATOM     72  C   UNL A   1      44.060  28.653  35.979  1.00  0.00    -0.014 A 
ATOM     73  C   UNL A   1      45.385  29.078  35.785  1.00  0.00     0.010 A 
ATOM     74  C   UNL A   1      43.802  27.594  36.868  1.00  0.00     0.010 A 
ATOM     75  C   UNL A   1      46.436  28.441  36.454  1.00  0.00     0.020 A 
ATOM     76  C   UNL A   1      44.846  26.973  37.558  1.00  0.00     0.020 A 
ATOM     77  C   UNL A   1      46.158  27.392  37.336  1.00  0.00     0.054 A 
BRANCH  77  78
ATOM     78  S   UNL A   1      47.527  26.612  38.237  1.00  0.00     0.124 S 
ATOM     79  O   UNL A   1      48.489  26.360  37.169  1.00  0.00    -0.237 OA
ATOM     80  O   UNL A   1      47.901  27.644  39.201  1.00  0.00    -0.237 OA
ATOM     81  O   UNL A   1      46.910  25.423  38.823  1.00  0.00    -0.744 OA
ENDBRANCH  77  78
ENDBRANCH  49  72
BRANCH  61  82
ATOM     82  C   UNL A   1      39.892  34.041  37.428  1.00  0.00    -0.014 A 
ATOM     83  C   UNL A   1      40.629  35.237  37.496  1.00  0.00     0.010 A 
ATOM     84  C   UNL A   1      39.040  33.699  38.495  1.00  0.00     0.010 A 
ATOM     85  C   UNL A   1      40.554  36.050  38.630  1.00  0.00     0.020 A 
ATOM     86  C   UNL A   1      38.944  34.523  39.620  1.00  0.00     0.020 A 
ATOM     87  C   UNL A   1      39.719  35.682  39.689  1.00  0.00     0.054 A 
BRANCH  87  88
ATOM     88  S   UNL A   1      39.635  36.753  41.151  1.00  0.00     0.124 S 
ATOM     89  O   UNL A   1      39.085  37.985  40.593  1.00  0.00    -0.237 OA
ATOM     90  O   UNL A   1      38.746  36.014  42.043  1.00  0.00    -0.237 OA
ATOM     91  O   UNL A   1      41.024  36.837  41.597  1.00  0.00    -0.744 OA
ENDBRANCH  87  88
ENDBRANCH  61  82
ENDBRANCH  35  36
ENDBRANCH  28  30
ENDBRANCH  27  28
ENDBRANCH  26  27
ENDBRANCH  25  26
ENDBRANCH  24  25
ENDBRANCH   1  24
TORSDOF 23
ENDMDL
MODEL 2
REMARK VINA RESULT:      -8.6      6.440      8.779
REMARK SMILES CC(C)C[C@@H](CNc1nccc(C(F)(F)F)n1)C(=O)OCCOCCOC(=O)c1ccc(-c2c3nc(c(-c4ccc(S(=O)(=O)[O-])cc4)c4ccc([nH]4)c(-c4ccc(S(=O)(=O)[O-])cc4)c4nc(c(-c5ccc(S(=O)(=O)[O-])cc5)c5ccc2[nH]5)C=C4)C=C3)cc1
REMARK SMILES IDX 22 1 21 2 20 3 18 4 19 5 5 6 4 7 2 8 1 9 3 10 6 11 7 12 8 14
REMARK SMILES IDX 9 15 17 16 10 17 12 18 11 19 13 20 14 21 15 22 16 23 23 24
REMARK SMILES IDX 24 25 25 26 26 27 27 28 28 29 29 30 30 31 88 32 31 33 87 34
REMARK SMILES IDX 32 35 33 36 34 37 81 38 35 39 86 40 80 41 82 42 36 43 85 44
REMARK SMILES IDX 79 45 78 46 37 48 67 49 48 50 66 51 49 52 52 53 65 54 83 55
REMARK SMILES IDX 50 56 51 57 64 59 84 60 53 61 38 62 39 63 47 64 40 65 46 66
REMARK SMILES IDX 41 67 42 68 43 69 44 70 45 71 68 72 69 73 77 74 70 75 76 76
REMARK SMILES IDX 71 77 72 78 73 79 74 80 75 81 54 82 55 83 63 84 56 85 62 86
REMARK SMILES IDX 57 87 58 88 59 89 60 90 61 91
REMARK H PARENT 7 13 82 47 52 58
REMARK Flexibility Score: inf
ROOT
ATOM      1  C   UNL A   1      36.510  22.378  25.534  1.00  0.00     0.202 C 
ENDROOT
BRANCH   1   2
ATOM      2  C   UNL A   1      35.411  21.464  24.982  1.00  0.00     0.261 C 
BRANCH   2   3
ATOM      3  O   UNL A   1      34.090  21.929  25.317  1.00  0.00    -0.463 OA
BRANCH   3   4
ATOM      4  C   UNL A   1      33.114  21.641  24.414  1.00  0.00     0.310 C 
ATOM      5  O   UNL A   1      32.807  20.513  24.043  1.00  0.00    -0.252 OA
BRANCH   4   6
ATOM      6  C   UNL A   1      32.429  22.881  23.868  1.00  0.00     0.118 C 
BRANCH   6   7
ATOM      7  C   UNL A   1      31.022  23.158  24.439  1.00  0.00     0.020 C 
BRANCH   7   8
ATOM      8  C   UNL A   1      31.023  23.793  25.848  1.00  0.00    -0.017 C 
ATOM      9  C   UNL A   1      30.344  25.166  25.859  1.00  0.00     0.007 C 
ATOM     10  C   UNL A   1      30.316  22.872  26.846  1.00  0.00     0.007 C 
ENDBRANCH   7   8
ENDBRANCH   6   7
BRANCH   6  11
ATOM     11  C   UNL A   1      33.408  24.056  23.969  1.00  0.00     0.131 C 
BRANCH  11  12
ATOM     12  N   UNL A   1      33.456  24.830  22.748  1.00  0.00    -0.353 N 
ATOM     13  H   UNL A   1      33.638  24.383  21.889  1.00  0.00     0.163 HD
BRANCH  12  14
ATOM     14  C   UNL A   1      33.249  26.184  22.788  1.00  0.00     0.223 A 
ATOM     15  N   UNL A   1      34.047  26.918  22.008  1.00  0.00    -0.222 NA
ATOM     16  N   UNL A   1      32.278  26.692  23.551  1.00  0.00    -0.209 NA
ATOM     17  C   UNL A   1      33.838  28.247  21.997  1.00  0.00     0.117 A 
ATOM     18  C   UNL A   1      32.104  28.040  23.546  1.00  0.00     0.149 A 
ATOM     19  C   UNL A   1      32.874  28.867  22.752  1.00  0.00     0.054 A 
BRANCH  18  20
ATOM     20  C   UNL A   1      31.040  28.623  24.458  1.00  0.00     0.433 C 
ATOM     21  F   UNL A   1      31.300  28.416  25.782  1.00  0.00    -0.165 F 
ATOM     22  F   UNL A   1      30.896  29.973  24.315  1.00  0.00    -0.165 F 
ATOM     23  F   UNL A   1      29.796  28.100  24.249  1.00  0.00    -0.165 F 
ENDBRANCH  18  20
ENDBRANCH  12  14
ENDBRANCH  11  12
ENDBRANCH   6  11
ENDBRANCH   4   6
ENDBRANCH   3   4
ENDBRANCH   2   3
ENDBRANCH   1   2
BRANCH   1  24
ATOM     24  O   UNL A   1      37.828  22.185  25.022  1.00  0.00    -0.374 OA
BRANCH  24  25
ATOM     25  C   UNL A   1      38.833  21.775  25.947  1.00  0.00     0.202 C 
BRANCH  25  26
ATOM     26  C   UNL A   1      39.435  20.377  25.751  1.00  0.00     0.261 C 
BRANCH  26  27
ATOM     27  O   UNL A   1      40.392  20.021  26.765  1.00  0.00    -0.460 OA
BRANCH  27  28
ATOM     28  C   UNL A   1      41.637  19.772  26.294  1.00  0.00     0.338 C 
ATOM     29  O   UNL A   1      42.024  18.742  25.753  1.00  0.00    -0.246 OA
BRANCH  28  30
ATOM     30  C   UNL A   1      42.486  20.975  26.357  1.00  0.00     0.060 A 
ATOM     31  C   UNL A   1      42.698  21.539  27.621  1.00  0.00     0.016 A 
ATOM     32  C   UNL A   1      42.970  21.611  25.211  1.00  0.00     0.016 A 
ATOM     33  C   UNL A   1      43.339  22.769  27.739  1.00  0.00     0.010 A 
ATOM     34  C   UNL A   1      43.611  22.853  25.332  1.00  0.00     0.010 A 
ATOM     35  C   UNL A   1      43.764  23.456  26.593  1.00  0.00    -0.014 A 
BRANCH  35  36
ATOM     36  C   UNL A   1      44.247  24.853  26.740  1.00  0.00     0.031 A 
ATOM     37  C   UNL A   1      43.290  25.926  27.189  1.00  0.00     0.074 A 
ATOM     38  C   UNL A   1      45.549  25.145  26.566  1.00  0.00     0.049 A 
ATOM     39  N   UNL A   1      43.530  27.182  27.471  1.00  0.00    -0.248 NA
ATOM     40  C   UNL A   1      41.881  25.533  27.350  1.00  0.00     0.031 C 
ATOM     41  C   UNL A   1      46.582  24.194  26.157  1.00  0.00     0.029 A 
ATOM     42  N   UNL A   1      46.227  26.329  26.726  1.00  0.00    -0.354 N 
ATOM     43  C   UNL A   1      42.309  27.726  27.856  1.00  0.00     0.074 A 
ATOM     44  C   UNL A   1      41.322  26.674  27.731  1.00  0.00     0.031 C 
ATOM     45  C   UNL A   1      47.765  24.830  26.105  1.00  0.00     0.029 A 
ATOM     46  C   UNL A   1      47.571  26.235  26.459  1.00  0.00     0.049 A 
ATOM     47  H   UNL A   1      45.791  27.165  27.008  1.00  0.00     0.167 HD
ATOM     48  C   UNL A   1      42.034  28.980  28.288  1.00  0.00     0.031 A 
ATOM     49  C   UNL A   1      48.537  27.175  26.490  1.00  0.00     0.031 A 
ATOM     50  C   UNL A   1      43.007  30.035  28.395  1.00  0.00     0.049 A 
ATOM     51  C   UNL A   1      48.196  28.576  26.923  1.00  0.00     0.074 A 
ATOM     52  C   UNL A   1      42.819  31.341  28.818  1.00  0.00     0.029 A 
ATOM     53  N   UNL A   1      44.349  29.910  28.073  1.00  0.00    -0.354 N 
ATOM     54  N   UNL A   1      47.039  29.062  27.304  1.00  0.00    -0.248 NA
ATOM     55  C   UNL A   1      49.297  29.549  26.944  1.00  0.00     0.031 C 
ATOM     56  C   UNL A   1      44.040  32.017  28.711  1.00  0.00     0.029 A 
ATOM     57  C   UNL A   1      44.998  31.118  28.271  1.00  0.00     0.049 A 
ATOM     58  H   UNL A   1      44.779  29.085  27.753  1.00  0.00     0.167 HD
ATOM     59  C   UNL A   1      47.277  30.395  27.624  1.00  0.00     0.074 A 
ATOM     60  C   UNL A   1      48.692  30.629  27.417  1.00  0.00     0.031 C 
ATOM     61  C   UNL A   1      46.403  31.342  28.047  1.00  0.00     0.031 A 
BRANCH  48  62
ATOM     62  C   UNL A   1      40.610  29.287  28.668  1.00  0.00    -0.014 A 
ATOM     63  C   UNL A   1      40.255  29.517  30.010  1.00  0.00     0.010 A 
ATOM     64  C   UNL A   1      39.626  29.404  27.670  1.00  0.00     0.010 A 
ATOM     65  C   UNL A   1      38.937  29.833  30.349  1.00  0.00     0.020 A 
ATOM     66  C   UNL A   1      38.311  29.741  28.002  1.00  0.00     0.020 A 
ATOM     67  C   UNL A   1      37.972  29.942  29.342  1.00  0.00     0.054 A 
BRANCH  67  68
ATOM     68  S   UNL A   1      36.276  30.391  29.806  1.00  0.00     0.124 S 
ATOM     69  O   UNL A   1      36.432  31.791  30.194  1.00  0.00    -0.237 OA
ATOM     70  O   UNL A   1      35.534  30.161  28.569  1.00  0.00    -0.237 OA
ATOM     71  O   UNL A   1      35.961  29.473  30.898  1.00  0.00    -0.744 OA
ENDBRANCH  67  68
ENDBRANCH  48  62
BRANCH  49  72
ATOM     72  C   UNL A   1      49.925  26.826  26.078  1.00  0.00    -0.014 A 
ATOM     73  C   UNL A   1      50.366  27.041  24.762  1.00  0.00     0.010 A 
ATOM     74  C   UNL A   1      50.808  26.258  27.014  1.00  0.00     0.010 A 
ATOM     75  C   UNL A   1      51.662  26.675  24.382  1.00  0.00     0.020 A 
ATOM     76  C   UNL A   1      52.111  25.916  26.646  1.00  0.00     0.020 A 
ATOM     77  C   UNL A   1      52.525  26.115  25.329  1.00  0.00     0.054 A 
BRANCH  77  78
ATOM     78  S   UNL A   1      54.221  25.696  24.835  1.00  0.00     0.124 S 
ATOM     79  O   UNL A   1      54.233  24.245  24.995  1.00  0.00    -0.237 OA
ATOM     80  O   UNL A   1      54.281  26.185  23.460  1.00  0.00    -0.237 OA
ATOM     81  O   UNL A   1      55.043  26.442  25.787  1.00  0.00    -0.744 OA
ENDBRANCH  77  78
ENDBRANCH  49  72
BRANCH  61  82
ATOM     82  C   UNL A   1      46.960  32.713  28.327  1.00  0.00    -0.014 A 
ATOM     83  C   UNL A   1      46.991  33.702  27.328  1.00  0.00     0.010 A 
ATOM     84  C   UNL A   1      47.448  33.019  29.611  1.00  0.00     0.010 A 
ATOM     85  C   UNL A   1      47.546  34.957  27.592  1.00  0.00     0.020 A 
ATOM     86  C   UNL A   1      47.980  34.282  29.886  1.00  0.00     0.020 A 
ATOM     87  C   UNL A   1      48.046  35.236  28.868  1.00  0.00     0.054 A 
BRANCH  87  88
ATOM     88  S   UNL A   1      48.761  36.871  29.191  1.00  0.00     0.124 S 
ATOM     89  O   UNL A   1      47.568  37.691  29.382  1.00  0.00    -0.237 OA
ATOM     90  O   UNL A   1      49.566  36.643  30.388  1.00  0.00    -0.237 OA
ATOM     91  O   UNL A   1      49.527  37.158  27.980  1.00  0.00    -0.744 OA
ENDBRANCH  87  88
ENDBRANCH  61  82
ENDBRANCH  35  36
ENDBRANCH  28  30
ENDBRANCH  27  28
ENDBRANCH  26  27
ENDBRANCH  25  26
ENDBRANCH  24  25
ENDBRANCH   1  24
TORSDOF 23
ENDMDL
MODEL 3
REMARK VINA RESULT:      -8.5      6.628     11.571
REMARK SMILES CC(C)C[C@@H](CNc1nccc(C(F)(F)F)n1)C(=O)OCCOCCOC(=O)c1ccc(-c2c3nc(c(-c4ccc(S(=O)(=O)[O-])cc4)c4ccc([nH]4)c(-c4ccc(S(=O)(=O)[O-])cc4)c4nc(c(-c5ccc(S(=O)(=O)[O-])cc5)c5ccc2[nH]5)C=C4)C=C3)cc1
REMARK SMILES IDX 22 1 21 2 20 3 18 4 19 5 5 6 4 7 2 8 1 9 3 10 6 11 7 12 8 14
REMARK SMILES IDX 9 15 17 16 10 17 12 18 11 19 13 20 14 21 15 22 16 23 23 24
REMARK SMILES IDX 24 25 25 26 26 27 27 28 28 29 29 30 30 31 88 32 31 33 87 34
REMARK SMILES IDX 32 35 33 36 34 37 81 38 35 39 86 40 80 41 82 42 36 43 85 44
REMARK SMILES IDX 79 45 78 46 37 48 67 49 48 50 66 51 49 52 52 53 65 54 83 55
REMARK SMILES IDX 50 56 51 57 64 59 84 60 53 61 38 62 39 63 47 64 40 65 46 66
REMARK SMILES IDX 41 67 42 68 43 69 44 70 45 71 68 72 69 73 77 74 70 75 76 76
REMARK SMILES IDX 71 77 72 78 73 79 74 80 75 81 54 82 55 83 63 84 56 85 62 86
REMARK SMILES IDX 57 87 58 88 59 89 60 90 61 91
REMARK H PARENT 7 13 82 47 52 58
REMARK Flexibility Score: inf
ROOT
ATOM      1  C   UNL A   1      32.548  29.167  26.607  1.00  0.00     0.202 C 
ENDROOT
BRANCH   1   2
ATOM      2  C   UNL A   1      33.303  28.605  25.398  1.00  0.00     0.261 C 
BRANCH   2   3
ATOM      3  O   UNL A   1      32.823  29.145  24.152  1.00  0.00    -0.463 OA
BRANCH   3   4
ATOM      4  C   UNL A   1      32.153  28.276  23.348  1.00  0.00     0.310 C 
ATOM      5  O   UNL A   1      32.678  27.431  22.630  1.00  0.00    -0.252 OA
BRANCH   4   6
ATOM      6  C   UNL A   1      30.647  28.463  23.400  1.00  0.00     0.118 C 
BRANCH   6   7
ATOM      7  C   UNL A   1      30.034  29.183  22.181  1.00  0.00     0.020 C 
BRANCH   7   8
ATOM      8  C   UNL A   1      29.186  30.425  22.537  1.00  0.00    -0.017 C 
ATOM      9  C   UNL A   1      27.685  30.150  22.412  1.00  0.00     0.007 C 
ATOM     10  C   UNL A   1      29.499  30.891  23.961  1.00  0.00     0.007 C 
ENDBRANCH   7   8
ENDBRANCH   6   7
BRANCH   6  11
ATOM     11  C   UNL A   1      30.006  27.113  23.741  1.00  0.00     0.131 C 
BRANCH  11  12
ATOM     12  N   UNL A   1      30.319  26.688  25.088  1.00  0.00    -0.353 N 
ATOM     13  H   UNL A   1      30.371  27.352  25.814  1.00  0.00     0.163 HD
BRANCH  12  14
ATOM     14  C   UNL A   1      30.542  25.362  25.352  1.00  0.00     0.223 A 
ATOM     15  N   UNL A   1      30.117  24.925  26.541  1.00  0.00    -0.222 NA
ATOM     16  N   UNL A   1      31.128  24.585  24.438  1.00  0.00    -0.209 NA
ATOM     17  C   UNL A   1      30.289  23.618  26.810  1.00  0.00     0.117 A 
ATOM     18  C   UNL A   1      31.316  23.274  24.742  1.00  0.00     0.149 A 
ATOM     19  C   UNL A   1      30.886  22.741  25.942  1.00  0.00     0.054 A 
BRANCH  18  20
ATOM     20  C   UNL A   1      32.033  22.404  23.727  1.00  0.00     0.433 C 
ATOM     21  F   UNL A   1      31.480  22.469  22.481  1.00  0.00    -0.165 F 
ATOM     22  F   UNL A   1      33.347  22.742  23.568  1.00  0.00    -0.165 F 
ATOM     23  F   UNL A   1      32.036  21.077  24.051  1.00  0.00    -0.165 F 
ENDBRANCH  18  20
ENDBRANCH  12  14
ENDBRANCH  11  12
ENDBRANCH   6  11
ENDBRANCH   4   6
ENDBRANCH   3   4
ENDBRANCH   2   3
ENDBRANCH   1   2
BRANCH   1  24
ATOM     24  O   UNL A   1      33.335  29.576  27.726  1.00  0.00    -0.374 OA
BRANCH  24  25
ATOM     25  C   UNL A   1      34.128  30.751  27.570  1.00  0.00     0.202 C 
BRANCH  25  26
ATOM     26  C   UNL A   1      35.299  30.938  28.543  1.00  0.00     0.261 C 
BRANCH  26  27
ATOM     27  O   UNL A   1      35.594  29.759  29.314  1.00  0.00    -0.460 OA
BRANCH  27  28
ATOM     28  C   UNL A   1      36.444  29.966  30.348  1.00  0.00     0.338 C 
ATOM     29  O   UNL A   1      36.152  30.030  31.536  1.00  0.00    -0.246 OA
BRANCH  28  30
ATOM     30  C   UNL A   1      37.848  29.955  29.899  1.00  0.00     0.060 A 
ATOM     31  C   UNL A   1      38.079  29.721  28.538  1.00  0.00     0.016 A 
ATOM     32  C   UNL A   1      38.920  30.052  30.789  1.00  0.00     0.016 A 
ATOM     33  C   UNL A   1      39.376  29.522  28.072  1.00  0.00     0.010 A 
ATOM     34  C   UNL A   1      40.226  29.847  30.320  1.00  0.00     0.010 A 
ATOM     35  C   UNL A   1      40.457  29.542  28.966  1.00  0.00    -0.014 A 
BRANCH  35  36
ATOM     36  C   UNL A   1      41.792  29.116  28.476  1.00  0.00     0.031 A 
ATOM     37  C   UNL A   1      42.922  30.111  28.440  1.00  0.00     0.074 A 
ATOM     38  C   UNL A   1      42.021  27.828  28.156  1.00  0.00     0.049 A 
ATOM     39  N   UNL A   1      44.182  29.920  28.139  1.00  0.00    -0.248 NA
ATOM     40  C   UNL A   1      42.593  31.501  28.794  1.00  0.00     0.031 C 
ATOM     41  C   UNL A   1      41.021  26.761  28.174  1.00  0.00     0.029 A 
ATOM     42  N   UNL A   1      43.177  27.198  27.766  1.00  0.00    -0.354 N 
ATOM     43  C   UNL A   1      44.799  31.157  28.282  1.00  0.00     0.074 A 
ATOM     44  C   UNL A   1      43.767  32.101  28.656  1.00  0.00     0.031 C 
ATOM     45  C   UNL A   1      41.608  25.606  27.817  1.00  0.00     0.029 A 
ATOM     46  C   UNL A   1      43.020  25.854  27.528  1.00  0.00     0.049 A 
ATOM     47  H   UNL A   1      44.038  27.665  27.667  1.00  0.00     0.167 HD
ATOM     48  C   UNL A   1      46.107  31.480  28.132  1.00  0.00     0.031 A 
ATOM     49  C   UNL A   1      43.909  24.928  27.121  1.00  0.00     0.031 A 
ATOM     50  C   UNL A   1      47.133  30.550  27.742  1.00  0.00     0.049 A 
ATOM     51  C   UNL A   1      45.348  25.321  26.909  1.00  0.00     0.074 A 
ATOM     52  C   UNL A   1      48.486  30.787  27.560  1.00  0.00     0.029 A 
ATOM     53  N   UNL A   1      46.925  29.207  27.470  1.00  0.00    -0.354 N 
ATOM     54  N   UNL A   1      45.913  26.493  27.073  1.00  0.00    -0.248 NA
ATOM     55  C   UNL A   1      46.267  24.262  26.474  1.00  0.00     0.031 C 
ATOM     56  C   UNL A   1      49.087  29.597  27.135  1.00  0.00     0.029 A 
ATOM     57  C   UNL A   1      48.118  28.606  27.103  1.00  0.00     0.049 A 
ATOM     58  H   UNL A   1      46.057  28.748  27.529  1.00  0.00     0.167 HD
ATOM     59  C   UNL A   1      47.259  26.307  26.773  1.00  0.00     0.074 A 
ATOM     60  C   UNL A   1      47.425  24.906  26.446  1.00  0.00     0.031 C 
ATOM     61  C   UNL A   1      48.267  27.215  26.766  1.00  0.00     0.031 A 
BRANCH  48  62
ATOM     62  C   UNL A   1      46.503  32.911  28.380  1.00  0.00    -0.014 A 
ATOM     63  C   UNL A   1      46.529  33.845  27.327  1.00  0.00     0.010 A 
ATOM     64  C   UNL A   1      46.796  33.343  29.686  1.00  0.00     0.010 A 
ATOM     65  C   UNL A   1      46.867  35.178  27.573  1.00  0.00     0.020 A 
ATOM     66  C   UNL A   1      47.113  34.680  29.939  1.00  0.00     0.020 A 
ATOM     67  C   UNL A   1      47.158  35.588  28.879  1.00  0.00     0.054 A 
BRANCH  67  68
ATOM     68  S   UNL A   1      47.556  37.333  29.176  1.00  0.00     0.124 S 
ATOM     69  O   UNL A   1      46.892  37.579  30.453  1.00  0.00    -0.237 OA
ATOM     70  O   UNL A   1      49.016  37.326  29.218  1.00  0.00    -0.237 OA
ATOM     71  O   UNL A   1      46.973  38.022  28.027  1.00  0.00    -0.744 OA
ENDBRANCH  67  68
ENDBRANCH  48  62
BRANCH  49  72
ATOM     72  C   UNL A   1      43.462  23.531  26.864  1.00  0.00    -0.014 A 
ATOM     73  C   UNL A   1      43.330  22.607  27.914  1.00  0.00     0.010 A 
ATOM     74  C   UNL A   1      43.180  23.120  25.548  1.00  0.00     0.010 A 
ATOM     75  C   UNL A   1      42.943  21.289  27.651  1.00  0.00     0.020 A 
ATOM     76  C   UNL A   1      42.767  21.812  25.285  1.00  0.00     0.020 A 
ATOM     77  C   UNL A   1      42.664  20.901  26.336  1.00  0.00     0.054 A 
BRANCH  77  78
ATOM     78  S   UNL A   1      42.110  19.203  26.017  1.00  0.00     0.124 S 
ATOM     79  O   UNL A   1      42.854  18.863  24.809  1.00  0.00    -0.237 OA
ATOM     80  O   UNL A   1      42.517  18.503  27.233  1.00  0.00    -0.237 OA
ATOM     81  O   UNL A   1      40.665  19.346  25.849  1.00  0.00    -0.744 OA
ENDBRANCH  77  78
ENDBRANCH  49  72
BRANCH  61  82
ATOM     82  C   UNL A   1      49.640  26.712  26.405  1.00  0.00    -0.014 A 
ATOM     83  C   UNL A   1      50.223  27.019  25.162  1.00  0.00     0.010 A 
ATOM     84  C   UNL A   1      50.363  25.932  27.327  1.00  0.00     0.010 A 
ATOM     85  C   UNL A   1      51.481  26.513  24.827  1.00  0.00     0.020 A 
ATOM     86  C   UNL A   1      51.633  25.446  27.005  1.00  0.00     0.020 A 
ATOM     87  C   UNL A   1      52.174  25.721  25.748  1.00  0.00     0.054 A 
BRANCH  87  88
ATOM     88  S   UNL A   1      53.808  25.076  25.293  1.00  0.00     0.124 S 
ATOM     89  O   UNL A   1      54.642  25.564  26.388  1.00  0.00    -0.237 OA
ATOM     90  O   UNL A   1      53.589  23.632  25.265  1.00  0.00    -0.237 OA
ATOM     91  O   UNL A   1      54.069  25.685  23.991  1.00  0.00    -0.744 OA
ENDBRANCH  87  88
ENDBRANCH  61  82
ENDBRANCH  35  36
ENDBRANCH  28  30
ENDBRANCH  27  28
ENDBRANCH  26  27
ENDBRANCH  25  26
ENDBRANCH  24  25
ENDBRANCH   1  24
TORSDOF 23
ENDMDL
