MODEL 1
REMARK VINA RESULT:     -11.3      0.000      0.000
REMARK SMILES O=C(OCCOCCOC(=O)C1CCN(C(=O)CCN2C(=O)[C@H]3Cc4ccccc4CN3C2=O)CC1)c1ccc(-c2c3nc(c(-c4ccc(S(=O)(=O)[O-])cc4)c4ccc([nH]4)c(-c4ccc(S(=O)(=O)[O-])cc4)c4nc(c(-c5ccc(S(=O)(=O)[O-])cc5)c5ccc2[nH]5)C=C4)C=C3)cc1
REMARK SMILES IDX 6 1 5 2 4 3 3 4 2 5 1 6 37 7 38 8 96 9 39 10 95 11 40 12
REMARK SMILES IDX 41 13 42 14 89 15 43 16 94 17 88 18 90 19 44 20 93 21 87 22
REMARK SMILES IDX 86 23 45 25 75 26 56 27 74 28 57 29 60 30 73 31 91 32 58 33
REMARK SMILES IDX 59 34 72 36 92 37 61 38 46 39 47 40 55 41 48 42 54 43 49 44
REMARK SMILES IDX 50 45 51 46 52 47 53 48 76 49 77 50 85 51 78 52 84 53 79 54
REMARK SMILES IDX 80 55 81 56 82 57 83 58 62 59 63 60 71 61 64 62 70 63 65 64
REMARK SMILES IDX 66 65 67 66 68 67 69 68 7 69 8 70 9 71 10 72 11 73 12 74
REMARK SMILES IDX 13 75 36 76 14 77 35 78 15 79 16 80 17 81 18 82 19 83 20 84
REMARK SMILES IDX 21 85 33 86 22 87 23 88 32 89 34 90 24 91 31 92 25 93 30 94
REMARK SMILES IDX 26 95 29 96 27 97 28 98
REMARK H PARENT 90 24 60 35
REMARK Flexibility Score: inf
ROOT
ATOM      1  O   UNL A   1      40.895  19.736  27.185  1.00  0.00    -0.374 OA
ENDROOT
BRANCH   1   2
ATOM      2  C   UNL A   1      42.165  19.092  27.118  1.00  0.00     0.202 C 
BRANCH   2   3
ATOM      3  C   UNL A   1      42.531  18.521  25.747  1.00  0.00     0.261 C 
BRANCH   3   4
ATOM      4  O   UNL A   1      43.933  18.581  25.394  1.00  0.00    -0.460 OA
BRANCH   4   5
ATOM      5  C   UNL A   1      44.628  19.487  24.670  1.00  0.00     0.338 C 
ATOM      6  O   UNL A   1      45.447  19.108  23.838  1.00  0.00    -0.246 OA
BRANCH   5   7
ATOM      7  C   UNL A   1      44.537  20.928  24.973  1.00  0.00     0.060 A 
ATOM      8  C   UNL A   1      44.409  21.321  26.319  1.00  0.00     0.016 A 
ATOM      9  C   UNL A   1      44.616  21.896  23.977  1.00  0.00     0.016 A 
ATOM     10  C   UNL A   1      44.334  22.674  26.654  1.00  0.00     0.010 A 
ATOM     11  C   UNL A   1      44.425  23.229  24.287  1.00  0.00     0.010 A 
ATOM     12  C   UNL A   1      44.353  23.627  25.628  1.00  0.00    -0.014 A 
BRANCH  12  13
ATOM     13  C   UNL A   1      44.725  25.031  25.860  1.00  0.00     0.031 A 
ATOM     14  C   UNL A   1      46.145  25.470  25.944  1.00  0.00     0.074 A 
ATOM     15  C   UNL A   1      43.706  25.795  26.303  1.00  0.00     0.049 A 
ATOM     16  N   UNL A   1      46.610  26.646  26.262  1.00  0.00    -0.248 NA
ATOM     17  C   UNL A   1      47.180  24.464  25.660  1.00  0.00     0.031 C 
ATOM     18  C   UNL A   1      42.306  25.349  26.384  1.00  0.00     0.029 A 
ATOM     19  N   UNL A   1      43.688  27.039  26.859  1.00  0.00    -0.354 N 
ATOM     20  C   UNL A   1      47.990  26.546  26.168  1.00  0.00     0.074 A 
ATOM     21  C   UNL A   1      48.293  25.169  25.836  1.00  0.00     0.031 C 
ATOM     22  C   UNL A   1      41.584  26.273  27.023  1.00  0.00     0.029 A 
ATOM     23  C   UNL A   1      42.453  27.390  27.351  1.00  0.00     0.049 A 
ATOM     24  H   UNL A   1      44.477  27.626  26.905  1.00  0.00     0.167 HD
ATOM     25  C   UNL A   1      48.900  27.537  26.323  1.00  0.00     0.031 A 
ATOM     26  C   UNL A   1      42.055  28.509  27.977  1.00  0.00     0.031 A 
ATOM     27  C   UNL A   1      48.534  28.869  26.743  1.00  0.00     0.049 A 
ATOM     28  C   UNL A   1      43.058  29.606  28.103  1.00  0.00     0.074 A 
ATOM     29  C   UNL A   1      49.333  29.989  26.871  1.00  0.00     0.029 A 
ATOM     30  N   UNL A   1      47.250  29.249  27.126  1.00  0.00    -0.354 N 
ATOM     31  N   UNL A   1      44.344  29.564  27.839  1.00  0.00    -0.248 NA
ATOM     32  C   UNL A   1      42.561  30.912  28.535  1.00  0.00     0.031 C 
ATOM     33  C   UNL A   1      48.548  31.027  27.388  1.00  0.00     0.029 A 
ATOM     34  C   UNL A   1      47.242  30.577  27.517  1.00  0.00     0.049 A 
ATOM     35  H   UNL A   1      46.463  28.659  27.121  1.00  0.00     0.167 HD
ATOM     36  C   UNL A   1      44.817  30.846  28.063  1.00  0.00     0.074 A 
ATOM     37  C   UNL A   1      43.665  31.643  28.453  1.00  0.00     0.031 C 
ATOM     38  C   UNL A   1      46.082  31.321  27.957  1.00  0.00     0.031 A 
BRANCH  25  39
ATOM     39  C   UNL A   1      50.343  27.241  25.991  1.00  0.00    -0.014 A 
ATOM     40  C   UNL A   1      50.790  27.199  24.658  1.00  0.00     0.010 A 
ATOM     41  C   UNL A   1      51.247  26.889  27.014  1.00  0.00     0.010 A 
ATOM     42  C   UNL A   1      52.095  26.789  24.353  1.00  0.00     0.020 A 
ATOM     43  C   UNL A   1      52.558  26.506  26.718  1.00  0.00     0.020 A 
ATOM     44  C   UNL A   1      52.968  26.436  25.385  1.00  0.00     0.054 A 
BRANCH  44  45
ATOM     45  S   UNL A   1      54.645  25.876  24.976  1.00  0.00     0.124 S 
ATOM     46  O   UNL A   1      54.501  24.424  25.000  1.00  0.00    -0.237 OA
ATOM     47  O   UNL A   1      54.867  26.467  23.658  1.00  0.00    -0.237 OA
ATOM     48  O   UNL A   1      55.466  26.440  26.046  1.00  0.00    -0.744 OA
ENDBRANCH  44  45
ENDBRANCH  25  39
BRANCH  26  49
ATOM     49  C   UNL A   1      40.615  28.642  28.315  1.00  0.00    -0.014 A 
ATOM     50  C   UNL A   1      39.711  29.227  27.405  1.00  0.00     0.010 A 
ATOM     51  C   UNL A   1      40.202  28.412  29.638  1.00  0.00     0.010 A 
ATOM     52  C   UNL A   1      38.443  29.632  27.832  1.00  0.00     0.020 A 
ATOM     53  C   UNL A   1      38.928  28.798  30.062  1.00  0.00     0.020 A 
ATOM     54  C   UNL A   1      38.070  29.437  29.165  1.00  0.00     0.054 A 
BRANCH  54  55
ATOM     55  S   UNL A   1      36.469  30.078  29.732  1.00  0.00     0.124 S 
ATOM     56  O   UNL A   1      35.581  29.667  28.648  1.00  0.00    -0.237 OA
ATOM     57  O   UNL A   1      36.278  29.381  31.002  1.00  0.00    -0.237 OA
ATOM     58  O   UNL A   1      36.696  31.517  29.841  1.00  0.00    -0.744 OA
ENDBRANCH  54  55
ENDBRANCH  26  49
BRANCH  38  59
ATOM     59  C   UNL A   1      46.289  32.760  28.340  1.00  0.00    -0.014 A 
ATOM     60  C   UNL A   1      46.202  33.769  27.366  1.00  0.00     0.010 A 
ATOM     61  C   UNL A   1      46.631  33.099  29.661  1.00  0.00     0.010 A 
ATOM     62  C   UNL A   1      46.470  35.096  27.703  1.00  0.00     0.020 A 
ATOM     63  C   UNL A   1      46.865  34.428  30.009  1.00  0.00     0.020 A 
ATOM     64  C   UNL A   1      46.803  35.416  29.023  1.00  0.00     0.054 A 
BRANCH  64  65
ATOM     65  S   UNL A   1      47.133  37.145  29.450  1.00  0.00     0.124 S 
ATOM     66  O   UNL A   1      45.885  37.543  30.095  1.00  0.00    -0.237 OA
ATOM     67  O   UNL A   1      48.293  37.044  30.332  1.00  0.00    -0.237 OA
ATOM     68  O   UNL A   1      47.397  37.771  28.156  1.00  0.00    -0.744 OA
ENDBRANCH  64  65
ENDBRANCH  38  59
ENDBRANCH  12  13
ENDBRANCH   5   7
ENDBRANCH   4   5
ENDBRANCH   3   4
ENDBRANCH   2   3
ENDBRANCH   1   2
BRANCH   1  69
ATOM     69  C   UNL A   1      40.940  21.124  27.529  1.00  0.00     0.202 C 
BRANCH  69  70
ATOM     70  C   UNL A   1      40.679  22.089  26.371  1.00  0.00     0.261 C 
BRANCH  70  71
ATOM     71  O   UNL A   1      39.355  22.623  26.444  1.00  0.00    -0.463 OA
BRANCH  71  72
ATOM     72  C   UNL A   1      38.399  21.947  25.747  1.00  0.00     0.309 C 
ATOM     73  O   UNL A   1      38.576  20.909  25.128  1.00  0.00    -0.252 OA
BRANCH  72  74
ATOM     74  C   UNL A   1      37.041  22.605  25.939  1.00  0.00     0.103 C 
ATOM     75  C   UNL A   1      35.953  21.565  26.258  1.00  0.00     0.037 C 
ATOM     76  C   UNL A   1      36.643  23.475  24.738  1.00  0.00     0.037 C 
ATOM     77  C   UNL A   1      35.510  20.807  25.008  1.00  0.00     0.120 C 
ATOM     78  C   UNL A   1      36.276  22.600  23.546  1.00  0.00     0.120 C 
ATOM     79  N   UNL A   1      35.160  21.764  23.959  1.00  0.00    -0.343 N 
ATOM     80  C   UNL A   1      33.826  22.046  23.709  1.00  0.00     0.224 C 
ATOM     81  O   UNL A   1      32.914  21.522  24.352  1.00  0.00    -0.275 OA
BRANCH  80  82
ATOM     82  C   UNL A   1      33.475  23.014  22.593  1.00  0.00     0.122 C 
BRANCH  82  83
ATOM     83  C   UNL A   1      31.968  23.258  22.443  1.00  0.00     0.140 C 
BRANCH  83  84
ATOM     84  N   UNL A   1      31.435  24.433  23.127  1.00  0.00    -0.262 N 
ATOM     85  C   UNL A   1      30.834  24.426  24.364  1.00  0.00     0.253 C 
ATOM     86  C   UNL A   1      31.381  25.690  22.595  1.00  0.00     0.327 C 
ATOM     87  O   UNL A   1      30.654  23.449  25.078  1.00  0.00    -0.272 OA
ATOM     88  C   UNL A   1      30.369  25.848  24.704  1.00  0.00     0.181 C 
ATOM     89  N   UNL A   1      30.934  26.539  23.574  1.00  0.00    -0.308 N 
ATOM     90  O   UNL A   1      31.720  26.032  21.473  1.00  0.00    -0.248 OA
ATOM     91  C   UNL A   1      30.841  26.353  26.064  1.00  0.00     0.071 C 
ATOM     92  C   UNL A   1      31.063  27.970  23.551  1.00  0.00     0.158 C 
ATOM     93  C   UNL A   1      31.375  27.771  26.059  1.00  0.00    -0.040 A 
ATOM     94  C   UNL A   1      31.605  28.476  24.863  1.00  0.00    -0.025 A 
ATOM     95  C   UNL A   1      31.726  28.369  27.275  1.00  0.00     0.004 A 
ATOM     96  C   UNL A   1      32.283  29.704  24.898  1.00  0.00     0.006 A 
ATOM     97  C   UNL A   1      32.367  29.608  27.297  1.00  0.00     0.000 A 
ATOM     98  C   UNL A   1      32.684  30.257  26.111  1.00  0.00     0.000 A 
ENDBRANCH  83  84
ENDBRANCH  82  83
ENDBRANCH  80  82
ENDBRANCH  72  74
ENDBRANCH  71  72
ENDBRANCH  70  71
ENDBRANCH  69  70
ENDBRANCH   1  69
TORSDOF 20
ENDMDL
MODEL 2
REMARK VINA RESULT:     -10.5      2.486      9.602
REMARK SMILES O=C(OCCOCCOC(=O)C1CCN(C(=O)CCN2C(=O)[C@H]3Cc4ccccc4CN3C2=O)CC1)c1ccc(-c2c3nc(c(-c4ccc(S(=O)(=O)[O-])cc4)c4ccc([nH]4)c(-c4ccc(S(=O)(=O)[O-])cc4)c4nc(c(-c5ccc(S(=O)(=O)[O-])cc5)c5ccc2[nH]5)C=C4)C=C3)cc1
REMARK SMILES IDX 6 1 5 2 4 3 3 4 2 5 1 6 37 7 38 8 96 9 39 10 95 11 40 12
REMARK SMILES IDX 41 13 42 14 89 15 43 16 94 17 88 18 90 19 44 20 93 21 87 22
REMARK SMILES IDX 86 23 45 25 75 26 56 27 74 28 57 29 60 30 73 31 91 32 58 33
REMARK SMILES IDX 59 34 72 36 92 37 61 38 46 39 47 40 55 41 48 42 54 43 49 44
REMARK SMILES IDX 50 45 51 46 52 47 53 48 76 49 77 50 85 51 78 52 84 53 79 54
REMARK SMILES IDX 80 55 81 56 82 57 83 58 62 59 63 60 71 61 64 62 70 63 65 64
REMARK SMILES IDX 66 65 67 66 68 67 69 68 7 69 8 70 9 71 10 72 11 73 12 74
REMARK SMILES IDX 13 75 36 76 14 77 35 78 15 79 16 80 17 81 18 82 19 83 20 84
REMARK SMILES IDX 21 85 33 86 22 87 23 88 32 89 34 90 24 91 31 92 25 93 30 94
REMARK SMILES IDX 26 95 29 96 27 97 28 98
REMARK H PARENT 90 24 60 35
REMARK Flexibility Score: inf
ROOT
ATOM      1  O   UNL A   1      34.989  32.504  28.901  1.00  0.00    -0.374 OA
ENDROOT
BRANCH   1   2
ATOM      2  C   UNL A   1      34.698  32.858  30.251  1.00  0.00     0.202 C 
BRANCH   2   3
ATOM      3  C   UNL A   1      35.722  33.781  30.913  1.00  0.00     0.261 C 
BRANCH   3   4
ATOM      4  O   UNL A   1      36.462  33.209  32.018  1.00  0.00    -0.460 OA
BRANCH   4   5
ATOM      5  C   UNL A   1      37.748  33.373  32.405  1.00  0.00     0.338 C 
ATOM      6  O   UNL A   1      38.058  34.326  33.114  1.00  0.00    -0.246 OA
BRANCH   5   7
ATOM      7  C   UNL A   1      38.817  32.515  31.860  1.00  0.00     0.060 A 
ATOM      8  C   UNL A   1      38.969  32.445  30.462  1.00  0.00     0.016 A 
ATOM      9  C   UNL A   1      39.694  31.818  32.685  1.00  0.00     0.016 A 
ATOM     10  C   UNL A   1      39.977  31.656  29.902  1.00  0.00     0.010 A 
ATOM     11  C   UNL A   1      40.617  30.947  32.139  1.00  0.00     0.010 A 
ATOM     12  C   UNL A   1      40.807  30.916  30.752  1.00  0.00    -0.014 A 
BRANCH  12  13
ATOM     13  C   UNL A   1      42.132  30.431  30.336  1.00  0.00     0.031 A 
ATOM     14  C   UNL A   1      43.267  31.358  30.070  1.00  0.00     0.074 A 
ATOM     15  C   UNL A   1      42.132  29.151  29.913  1.00  0.00     0.049 A 
ATOM     16  N   UNL A   1      44.444  31.076  29.585  1.00  0.00    -0.248 NA
ATOM     17  C   UNL A   1      43.055  32.784  30.360  1.00  0.00     0.031 C 
ATOM     18  C   UNL A   1      40.979  28.241  30.014  1.00  0.00     0.029 A 
ATOM     19  N   UNL A   1      43.064  28.426  29.231  1.00  0.00    -0.354 N 
ATOM     20  C   UNL A   1      45.139  32.276  29.557  1.00  0.00     0.074 A 
ATOM     21  C   UNL A   1      44.224  33.306  30.005  1.00  0.00     0.031 C 
ATOM     22  C   UNL A   1      41.247  27.113  29.352  1.00  0.00     0.029 A 
ATOM     23  C   UNL A   1      42.599  27.198  28.825  1.00  0.00     0.049 A 
ATOM     24  H   UNL A   1      43.975  28.749  29.048  1.00  0.00     0.167 HD
ATOM     25  C   UNL A   1      46.434  32.470  29.210  1.00  0.00     0.031 A 
ATOM     26  C   UNL A   1      43.207  26.229  28.123  1.00  0.00     0.031 A 
ATOM     27  C   UNL A   1      47.264  31.410  28.688  1.00  0.00     0.049 A 
ATOM     28  C   UNL A   1      44.645  26.440  27.786  1.00  0.00     0.074 A 
ATOM     29  C   UNL A   1      48.608  31.441  28.364  1.00  0.00     0.029 A 
ATOM     30  N   UNL A   1      46.811  30.128  28.390  1.00  0.00    -0.354 N 
ATOM     31  N   UNL A   1      45.360  27.533  27.929  1.00  0.00    -0.248 NA
ATOM     32  C   UNL A   1      45.380  25.287  27.266  1.00  0.00     0.031 C 
ATOM     33  C   UNL A   1      48.951  30.199  27.817  1.00  0.00     0.029 A 
ATOM     34  C   UNL A   1      47.841  29.367  27.862  1.00  0.00     0.049 A 
ATOM     35  H   UNL A   1      45.892  29.808  28.534  1.00  0.00     0.167 HD
ATOM     36  C   UNL A   1      46.641  27.200  27.525  1.00  0.00     0.074 A 
ATOM     37  C   UNL A   1      46.603  25.792  27.163  1.00  0.00     0.031 C 
ATOM     38  C   UNL A   1      47.747  27.982  27.458  1.00  0.00     0.031 A 
BRANCH  25  39
ATOM     39  C   UNL A   1      47.037  33.836  29.433  1.00  0.00    -0.014 A 
ATOM     40  C   UNL A   1      47.545  34.211  30.690  1.00  0.00     0.010 A 
ATOM     41  C   UNL A   1      46.998  34.802  28.407  1.00  0.00     0.010 A 
ATOM     42  C   UNL A   1      47.976  35.524  30.924  1.00  0.00     0.020 A 
ATOM     43  C   UNL A   1      47.452  36.105  28.627  1.00  0.00     0.020 A 
ATOM     44  C   UNL A   1      47.917  36.465  29.893  1.00  0.00     0.054 A 
BRANCH  44  45
ATOM     45  S   UNL A   1      48.448  38.171  30.218  1.00  0.00     0.124 S 
ATOM     46  O   UNL A   1      47.462  38.948  29.473  1.00  0.00    -0.237 OA
ATOM     47  O   UNL A   1      48.357  38.263  31.673  1.00  0.00    -0.237 OA
ATOM     48  O   UNL A   1      49.808  38.214  29.685  1.00  0.00    -0.744 OA
ENDBRANCH  44  45
ENDBRANCH  25  39
BRANCH  26  49
ATOM     49  C   UNL A   1      42.471  24.956  27.913  1.00  0.00    -0.014 A 
ATOM     50  C   UNL A   1      42.697  23.845  28.749  1.00  0.00     0.010 A 
ATOM     51  C   UNL A   1      41.735  24.784  26.728  1.00  0.00     0.010 A 
ATOM     52  C   UNL A   1      42.250  22.575  28.371  1.00  0.00     0.020 A 
ATOM     53  C   UNL A   1      41.271  23.519  26.358  1.00  0.00     0.020 A 
ATOM     54  C   UNL A   1      41.562  22.417  27.165  1.00  0.00     0.054 A 
BRANCH  54  55
ATOM     55  S   UNL A   1      41.096  20.746  26.631  1.00  0.00     0.124 S 
ATOM     56  O   UNL A   1      41.062  20.025  27.900  1.00  0.00    -0.237 OA
ATOM     57  O   UNL A   1      39.799  20.964  25.996  1.00  0.00    -0.237 OA
ATOM     58  O   UNL A   1      42.175  20.364  25.724  1.00  0.00    -0.744 OA
ENDBRANCH  54  55
ENDBRANCH  26  49
BRANCH  38  59
ATOM     59  C   UNL A   1      48.987  27.338  26.906  1.00  0.00    -0.014 A 
ATOM     60  C   UNL A   1      49.913  26.731  27.771  1.00  0.00     0.010 A 
ATOM     61  C   UNL A   1      49.260  27.392  25.527  1.00  0.00     0.010 A 
ATOM     62  C   UNL A   1      51.102  26.202  27.268  1.00  0.00     0.020 A 
ATOM     63  C   UNL A   1      50.431  26.834  25.017  1.00  0.00     0.020 A 
ATOM     64  C   UNL A   1      51.354  26.260  25.894  1.00  0.00     0.054 A 
BRANCH  64  65
ATOM     65  S   UNL A   1      52.895  25.554  25.254  1.00  0.00     0.124 S 
ATOM     66  O   UNL A   1      52.733  24.137  25.564  1.00  0.00    -0.237 OA
ATOM     67  O   UNL A   1      52.843  25.899  23.836  1.00  0.00    -0.237 OA
ATOM     68  O   UNL A   1      53.930  26.248  26.017  1.00  0.00    -0.744 OA
ENDBRANCH  64  65
ENDBRANCH  38  59
ENDBRANCH  12  13
ENDBRANCH   5   7
ENDBRANCH   4   5
ENDBRANCH   3   4
ENDBRANCH   2   3
ENDBRANCH   1   2
BRANCH   1  69
ATOM     69  C   UNL A   1      33.940  31.805  28.222  1.00  0.00     0.202 C 
BRANCH  69  70
ATOM     70  C   UNL A   1      34.404  30.704  27.268  1.00  0.00     0.261 C 
BRANCH  70  71
ATOM     71  O   UNL A   1      33.854  29.440  27.646  1.00  0.00    -0.463 OA
BRANCH  71  72
ATOM     72  C   UNL A   1      32.677  29.099  27.049  1.00  0.00     0.309 C 
ATOM     73  O   UNL A   1      31.662  28.754  27.634  1.00  0.00    -0.252 OA
BRANCH  72  74
ATOM     74  C   UNL A   1      32.764  29.316  25.545  1.00  0.00     0.103 C 
ATOM     75  C   UNL A   1      31.397  29.115  24.869  1.00  0.00     0.037 C 
ATOM     76  C   UNL A   1      33.841  28.436  24.894  1.00  0.00     0.037 C 
ATOM     77  C   UNL A   1      31.047  27.635  24.727  1.00  0.00     0.120 C 
ATOM     78  C   UNL A   1      33.390  26.980  24.862  1.00  0.00     0.120 C 
ATOM     79  N   UNL A   1      32.160  26.933  24.089  1.00  0.00    -0.343 N 
ATOM     80  C   UNL A   1      32.084  26.614  22.741  1.00  0.00     0.224 C 
ATOM     81  O   UNL A   1      31.107  26.914  22.051  1.00  0.00    -0.275 OA
BRANCH  80  82
ATOM     82  C   UNL A   1      33.230  25.853  22.100  1.00  0.00     0.122 C 
BRANCH  82  83
ATOM     83  C   UNL A   1      32.904  24.382  21.811  1.00  0.00     0.140 C 
BRANCH  83  84
ATOM     84  N   UNL A   1      33.136  23.444  22.906  1.00  0.00    -0.262 N 
ATOM     85  C   UNL A   1      32.176  22.998  23.784  1.00  0.00     0.253 C 
ATOM     86  C   UNL A   1      34.356  22.944  23.264  1.00  0.00     0.327 C 
ATOM     87  O   UNL A   1      30.993  23.311  23.788  1.00  0.00    -0.272 OA
ATOM     88  C   UNL A   1      32.831  22.065  24.812  1.00  0.00     0.181 C 
ATOM     89  N   UNL A   1      34.154  22.009  24.245  1.00  0.00    -0.308 N 
ATOM     90  O   UNL A   1      35.439  23.220  22.772  1.00  0.00    -0.248 OA
ATOM     91  C   UNL A   1      32.141  20.712  24.960  1.00  0.00     0.071 C 
ATOM     92  C   UNL A   1      35.106  21.011  24.647  1.00  0.00     0.158 C 
ATOM     93  C   UNL A   1      33.082  19.526  25.002  1.00  0.00    -0.040 A 
ATOM     94  C   UNL A   1      34.455  19.654  24.719  1.00  0.00    -0.025 A 
ATOM     95  C   UNL A   1      32.559  18.252  25.251  1.00  0.00     0.004 A 
ATOM     96  C   UNL A   1      35.246  18.503  24.576  1.00  0.00     0.006 A 
ATOM     97  C   UNL A   1      33.366  17.119  25.141  1.00  0.00     0.000 A 
ATOM     98  C   UNL A   1      34.697  17.239  24.763  1.00  0.00     0.000 A 
ENDBRANCH  83  84
ENDBRANCH  82  83
ENDBRANCH  80  82
ENDBRANCH  72  74
ENDBRANCH  71  72
ENDBRANCH  70  71
ENDBRANCH  69  70
ENDBRANCH   1  69
TORSDOF 20
ENDMDL
MODEL 3
REMARK VINA RESULT:     -10.4      1.587      2.185
REMARK SMILES O=C(OCCOCCOC(=O)C1CCN(C(=O)CCN2C(=O)[C@H]3Cc4ccccc4CN3C2=O)CC1)c1ccc(-c2c3nc(c(-c4ccc(S(=O)(=O)[O-])cc4)c4ccc([nH]4)c(-c4ccc(S(=O)(=O)[O-])cc4)c4nc(c(-c5ccc(S(=O)(=O)[O-])cc5)c5ccc2[nH]5)C=C4)C=C3)cc1
REMARK SMILES IDX 6 1 5 2 4 3 3 4 2 5 1 6 37 7 38 8 96 9 39 10 95 11 40 12
REMARK SMILES IDX 41 13 42 14 89 15 43 16 94 17 88 18 90 19 44 20 93 21 87 22
REMARK SMILES IDX 86 23 45 25 75 26 56 27 74 28 57 29 60 30 73 31 91 32 58 33
REMARK SMILES IDX 59 34 72 36 92 37 61 38 46 39 47 40 55 41 48 42 54 43 49 44
REMARK SMILES IDX 50 45 51 46 52 47 53 48 76 49 77 50 85 51 78 52 84 53 79 54
REMARK SMILES IDX 80 55 81 56 82 57 83 58 62 59 63 60 71 61 64 62 70 63 65 64
REMARK SMILES IDX 66 65 67 66 68 67 69 68 7 69 8 70 9 71 10 72 11 73 12 74
REMARK SMILES IDX 13 75 36 76 14 77 35 78 15 79 16 80 17 81 18 82 19 83 20 84
REMARK SMILES IDX 21 85 33 86 22 87 23 88 32 89 34 90 24 91 31 92 25 93 30 94
REMARK SMILES IDX 26 95 29 96 27 97 28 98
REMARK H PARENT 90 24 60 35
REMARK Flexibility Score: inf
ROOT
ATOM      1  O   UNL A   1      40.194  21.013  26.353  1.00  0.00    -0.374 OA
ENDROOT
BRANCH   1   2
ATOM      2  C   UNL A   1      41.084  20.343  27.243  1.00  0.00     0.202 C 
BRANCH   2   3
ATOM      3  C   UNL A   1      41.737  19.081  26.679  1.00  0.00     0.261 C 
BRANCH   3   4
ATOM      4  O   UNL A   1      43.073  19.247  26.149  1.00  0.00    -0.460 OA
BRANCH   4   5
ATOM      5  C   UNL A   1      43.578  20.155  25.282  1.00  0.00     0.338 C 
ATOM      6  O   UNL A   1      44.130  19.779  24.253  1.00  0.00    -0.246 OA
BRANCH   5   7
ATOM      7  C   UNL A   1      43.620  21.589  25.628  1.00  0.00     0.060 A 
ATOM      8  C   UNL A   1      43.868  21.946  26.968  1.00  0.00     0.016 A 
ATOM      9  C   UNL A   1      43.465  22.583  24.667  1.00  0.00     0.016 A 
ATOM     10  C   UNL A   1      43.931  23.290  27.338  1.00  0.00     0.010 A 
ATOM     11  C   UNL A   1      43.409  23.911  25.044  1.00  0.00     0.010 A 
ATOM     12  C   UNL A   1      43.710  24.272  26.364  1.00  0.00    -0.014 A 
BRANCH  12  13
ATOM     13  C   UNL A   1      44.178  25.657  26.518  1.00  0.00     0.031 A 
ATOM     14  C   UNL A   1      45.622  26.016  26.452  1.00  0.00     0.074 A 
ATOM     15  C   UNL A   1      43.251  26.489  27.033  1.00  0.00     0.049 A 
ATOM     16  N   UNL A   1      46.178  27.172  26.689  1.00  0.00    -0.248 NA
ATOM     17  C   UNL A   1      46.568  24.947  26.100  1.00  0.00     0.031 C 
ATOM     18  C   UNL A   1      41.842  26.125  27.262  1.00  0.00     0.029 A 
ATOM     19  N   UNL A   1      43.354  27.745  27.552  1.00  0.00    -0.354 N 
ATOM     20  C   UNL A   1      47.535  26.991  26.466  1.00  0.00     0.074 A 
ATOM     21  C   UNL A   1      47.729  25.591  26.147  1.00  0.00     0.031 C 
ATOM     22  C   UNL A   1      41.237  27.104  27.939  1.00  0.00     0.029 A 
ATOM     23  C   UNL A   1      42.194  28.178  28.149  1.00  0.00     0.049 A 
ATOM     24  H   UNL A   1      44.174  28.287  27.504  1.00  0.00     0.167 HD
ATOM     25  C   UNL A   1      48.509  27.932  26.504  1.00  0.00     0.031 A 
ATOM     26  C   UNL A   1      41.920  29.332  28.777  1.00  0.00     0.031 A 
ATOM     27  C   UNL A   1      48.258  29.293  26.916  1.00  0.00     0.049 A 
ATOM     28  C   UNL A   1      42.989  30.373  28.773  1.00  0.00     0.074 A 
ATOM     29  C   UNL A   1      49.126  30.368  26.935  1.00  0.00     0.029 A 
ATOM     30  N   UNL A   1      47.040  29.755  27.410  1.00  0.00    -0.354 N 
ATOM     31  N   UNL A   1      44.239  30.252  28.389  1.00  0.00    -0.248 NA
ATOM     32  C   UNL A   1      42.607  31.715  29.212  1.00  0.00     0.031 C 
ATOM     33  C   UNL A   1      48.452  31.461  27.493  1.00  0.00     0.029 A 
ATOM     34  C   UNL A   1      47.142  31.090  27.760  1.00  0.00     0.049 A 
ATOM     35  H   UNL A   1      46.226  29.210  27.498  1.00  0.00     0.167 HD
ATOM     36  C   UNL A   1      44.800  31.509  28.528  1.00  0.00     0.074 A 
ATOM     37  C   UNL A   1      43.737  32.381  29.003  1.00  0.00     0.031 C 
ATOM     38  C   UNL A   1      46.073  31.910  28.287  1.00  0.00     0.031 A 
BRANCH  25  39
ATOM     39  C   UNL A   1      49.894  27.547  26.044  1.00  0.00    -0.014 A 
ATOM     40  C   UNL A   1      50.221  27.500  24.676  1.00  0.00     0.010 A 
ATOM     41  C   UNL A   1      50.856  27.116  26.980  1.00  0.00     0.010 A 
ATOM     42  C   UNL A   1      51.464  27.009  24.254  1.00  0.00     0.020 A 
ATOM     43  C   UNL A   1      52.108  26.652  26.565  1.00  0.00     0.020 A 
ATOM     44  C   UNL A   1      52.396  26.580  25.202  1.00  0.00     0.054 A 
BRANCH  44  45
ATOM     45  S   UNL A   1      53.990  25.917  24.640  1.00  0.00     0.124 S 
ATOM     46  O   UNL A   1      54.902  26.387  25.678  1.00  0.00    -0.237 OA
ATOM     47  O   UNL A   1      53.748  24.476  24.618  1.00  0.00    -0.237 OA
ATOM     48  O   UNL A   1      54.172  26.529  23.326  1.00  0.00    -0.744 OA
ENDBRANCH  44  45
ENDBRANCH  25  39
BRANCH  26  49
ATOM     49  C   UNL A   1      40.529  29.555  29.247  1.00  0.00    -0.014 A 
ATOM     50  C   UNL A   1      39.549  30.076  28.379  1.00  0.00     0.010 A 
ATOM     51  C   UNL A   1      40.255  29.480  30.624  1.00  0.00     0.010 A 
ATOM     52  C   UNL A   1      38.345  30.572  28.890  1.00  0.00     0.020 A 
ATOM     53  C   UNL A   1      39.046  29.958  31.134  1.00  0.00     0.020 A 
ATOM     54  C   UNL A   1      38.113  30.532  30.269  1.00  0.00     0.054 A 
BRANCH  54  55
ATOM     55  S   UNL A   1      36.601  31.290  30.927  1.00  0.00     0.124 S 
ATOM     56  O   UNL A   1      35.804  31.469  29.717  1.00  0.00    -0.237 OA
ATOM     57  O   UNL A   1      36.115  30.274  31.857  1.00  0.00    -0.237 OA
ATOM     58  O   UNL A   1      37.079  32.523  31.548  1.00  0.00    -0.744 OA
ENDBRANCH  54  55
ENDBRANCH  26  49
BRANCH  38  59
ATOM     59  C   UNL A   1      46.393  33.343  28.605  1.00  0.00    -0.014 A 
ATOM     60  C   UNL A   1      46.258  34.333  27.618  1.00  0.00     0.010 A 
ATOM     61  C   UNL A   1      46.889  33.693  29.873  1.00  0.00     0.010 A 
ATOM     62  C   UNL A   1      46.629  35.650  27.888  1.00  0.00     0.020 A 
ATOM     63  C   UNL A   1      47.229  35.015  30.158  1.00  0.00     0.020 A 
ATOM     64  C   UNL A   1      47.115  35.981  29.156  1.00  0.00     0.054 A 
BRANCH  64  65
ATOM     65  S   UNL A   1      47.578  37.699  29.497  1.00  0.00     0.124 S 
ATOM     66  O   UNL A   1      46.278  38.330  29.702  1.00  0.00    -0.237 OA
ATOM     67  O   UNL A   1      48.414  37.577  30.689  1.00  0.00    -0.237 OA
ATOM     68  O   UNL A   1      48.289  38.107  28.288  1.00  0.00    -0.744 OA
ENDBRANCH  64  65
ENDBRANCH  38  59
ENDBRANCH  12  13
ENDBRANCH   5   7
ENDBRANCH   4   5
ENDBRANCH   3   4
ENDBRANCH   2   3
ENDBRANCH   1   2
BRANCH   1  69
ATOM     69  C   UNL A   1      40.055  22.419  26.585  1.00  0.00     0.202 C 
BRANCH  69  70
ATOM     70  C   UNL A   1      38.724  23.023  26.133  1.00  0.00     0.261 C 
BRANCH  70  71
ATOM     71  O   UNL A   1      37.727  22.010  25.996  1.00  0.00    -0.463 OA
BRANCH  71  72
ATOM     72  C   UNL A   1      36.658  22.326  25.213  1.00  0.00     0.309 C 
ATOM     73  O   UNL A   1      36.412  21.838  24.121  1.00  0.00    -0.252 OA
BRANCH  72  74
ATOM     74  C   UNL A   1      35.739  23.298  25.940  1.00  0.00     0.103 C 
ATOM     75  C   UNL A   1      35.089  22.643  27.170  1.00  0.00     0.037 C 
ATOM     76  C   UNL A   1      34.680  23.903  25.007  1.00  0.00     0.037 C 
ATOM     77  C   UNL A   1      33.942  21.713  26.777  1.00  0.00     0.120 C 
ATOM     78  C   UNL A   1      33.627  22.859  24.651  1.00  0.00     0.120 C 
ATOM     79  N   UNL A   1      33.018  22.427  25.898  1.00  0.00    -0.343 N 
ATOM     80  C   UNL A   1      31.833  22.928  26.414  1.00  0.00     0.224 C 
ATOM     81  O   UNL A   1      31.531  22.801  27.603  1.00  0.00    -0.275 OA
BRANCH  80  82
ATOM     82  C   UNL A   1      30.866  23.636  25.482  1.00  0.00     0.122 C 
BRANCH  82  83
ATOM     83  C   UNL A   1      30.350  24.972  26.032  1.00  0.00     0.140 C 
BRANCH  83  84
ATOM     84  N   UNL A   1      30.583  26.146  25.195  1.00  0.00    -0.262 N 
ATOM     85  C   UNL A   1      30.475  26.176  23.825  1.00  0.00     0.253 C 
ATOM     86  C   UNL A   1      31.025  27.356  25.650  1.00  0.00     0.327 C 
ATOM     87  O   UNL A   1      30.170  25.239  23.099  1.00  0.00    -0.272 OA
ATOM     88  C   UNL A   1      30.847  27.578  23.323  1.00  0.00     0.181 C 
ATOM     89  N   UNL A   1      31.002  28.233  24.596  1.00  0.00    -0.308 N 
ATOM     90  O   UNL A   1      31.333  27.646  26.795  1.00  0.00    -0.248 OA
ATOM     91  C   UNL A   1      29.808  28.210  22.401  1.00  0.00     0.071 C 
ATOM     92  C   UNL A   1      31.048  29.665  24.708  1.00  0.00     0.158 C 
ATOM     93  C   UNL A   1      29.496  29.661  22.703  1.00  0.00    -0.040 A 
ATOM     94  C   UNL A   1      29.973  30.299  23.864  1.00  0.00    -0.025 A 
ATOM     95  C   UNL A   1      28.644  30.366  21.846  1.00  0.00     0.004 A 
ATOM     96  C   UNL A   1      29.498  31.576  24.201  1.00  0.00     0.006 A 
ATOM     97  C   UNL A   1      28.209  31.649  22.176  1.00  0.00     0.000 A 
ATOM     98  C   UNL A   1      28.600  32.239  23.371  1.00  0.00     0.000 A 
ENDBRANCH  83  84
ENDBRANCH  82  83
ENDBRANCH  80  82
ENDBRANCH  72  74
ENDBRANCH  71  72
ENDBRANCH  70  71
ENDBRANCH  69  70
ENDBRANCH   1  69
TORSDOF 20
ENDMDL
