MODEL 1
REMARK VINA RESULT:      -8.1      0.000      0.000
REMARK SMILES CCC1(CC)C[NH+]([C@H](C)CCC(=O)OCCOCCOC(=O)c2ccc(-c3c4nc(c(-c5ccc(S(=O)(=O)[O-])cc5)c5ccc([nH]5)c(-c5ccc(S(=O)(=O)[O-])cc5)c5nc(c(-c6ccc(S(=O)(=O)[O-])cc6)c6ccc3[nH]6)C=C5)C=C4)cc2)C1
REMARK SMILES IDX 16 1 15 2 14 3 12 4 13 5 11 6 10 7 8 8 9 9 7 10 3 11 6 12
REMARK SMILES IDX 83 13 2 15 1 16 4 17 5 18 17 19 18 20 19 21 20 22 21 23
REMARK SMILES IDX 22 24 23 25 24 26 82 27 25 28 81 29 26 30 27 31 28 32 75 33
REMARK SMILES IDX 29 34 80 35 74 36 76 37 30 38 79 39 73 40 72 41 31 43 61 44
REMARK SMILES IDX 42 45 60 46 43 47 46 48 59 49 77 50 44 51 45 52 58 54 78 55
REMARK SMILES IDX 47 56 32 57 33 58 41 59 34 60 40 61 35 62 36 63 37 64 38 65
REMARK SMILES IDX 39 66 62 67 63 68 71 69 64 70 70 71 65 72 66 73 67 74 68 75
REMARK SMILES IDX 69 76 48 77 49 78 57 79 50 80 56 81 51 82 52 83 53 84 54 85
REMARK SMILES IDX 55 86
REMARK H PARENT 7 14 76 42 46 53
REMARK Flexibility Score: inf
ROOT
ATOM      1  C   UNL A   1      33.304  27.444  25.752  1.00  0.00     0.202 C 
ENDROOT
BRANCH   1   2
ATOM      2  C   UNL A   1      32.246  26.389  26.088  1.00  0.00     0.261 C 
BRANCH   2   3
ATOM      3  O   UNL A   1      31.239  26.343  25.058  1.00  0.00    -0.463 OA
BRANCH   3   4
ATOM      4  C   UNL A   1      31.450  25.476  24.042  1.00  0.00     0.306 C 
ATOM      5  O   UNL A   1      32.141  25.701  23.055  1.00  0.00    -0.252 OA
BRANCH   4   6
ATOM      6  C   UNL A   1      30.724  24.161  24.223  1.00  0.00     0.129 C 
BRANCH   6   7
ATOM      7  C   UNL A   1      31.250  23.161  25.264  1.00  0.00     0.076 C 
BRANCH   7   8
ATOM      8  C   UNL A   1      32.482  22.302  24.873  1.00  0.00     0.181 C 
ATOM      9  C   UNL A   1      32.513  22.047  23.357  1.00  0.00     0.075 C 
BRANCH   8  10
ATOM     10  N   UNL A   1      33.681  22.892  25.513  1.00  0.00    -0.331 N 
ATOM     11  C   UNL A   1      35.797  22.926  25.185  1.00  0.00     0.068 C 
ATOM     12  C   UNL A   1      34.544  23.687  24.631  1.00  0.00     0.275 C 
ATOM     13  C   UNL A   1      34.755  21.924  25.774  1.00  0.00     0.275 C 
ATOM     14  H   UNL A   1      33.217  23.361  26.290  1.00  0.00     0.348 HD
BRANCH  11  15
ATOM     15  C   UNL A   1      36.795  22.323  24.170  1.00  0.00     0.015 C 
ATOM     16  C   UNL A   1      36.742  22.909  22.771  1.00  0.00     0.005 C 
ENDBRANCH  11  15
BRANCH  11  17
ATOM     17  C   UNL A   1      36.539  23.724  26.287  1.00  0.00     0.015 C 
ATOM     18  C   UNL A   1      38.054  23.703  26.105  1.00  0.00     0.005 C 
ENDBRANCH  11  17
ENDBRANCH   8  10
ENDBRANCH   7   8
ENDBRANCH   6   7
ENDBRANCH   4   6
ENDBRANCH   3   4
ENDBRANCH   2   3
ENDBRANCH   1   2
BRANCH   1  19
ATOM     19  O   UNL A   1      32.842  28.557  24.982  1.00  0.00    -0.374 OA
BRANCH  19  20
ATOM     20  C   UNL A   1      32.984  29.850  25.568  1.00  0.00     0.202 C 
BRANCH  20  21
ATOM     21  C   UNL A   1      32.623  29.967  27.054  1.00  0.00     0.261 C 
BRANCH  21  22
ATOM     22  O   UNL A   1      33.703  29.567  27.915  1.00  0.00    -0.460 OA
BRANCH  22  23
ATOM     23  C   UNL A   1      34.584  30.551  28.213  1.00  0.00     0.338 C 
ATOM     24  O   UNL A   1      34.322  31.721  28.470  1.00  0.00    -0.246 OA
BRANCH  23  25
ATOM     25  C   UNL A   1      35.942  29.998  28.365  1.00  0.00     0.060 A 
ATOM     26  C   UNL A   1      36.313  29.541  29.636  1.00  0.00     0.016 A 
ATOM     27  C   UNL A   1      36.864  29.991  27.316  1.00  0.00     0.016 A 
ATOM     28  C   UNL A   1      37.620  29.125  29.876  1.00  0.00     0.010 A 
ATOM     29  C   UNL A   1      38.180  29.577  27.561  1.00  0.00     0.010 A 
ATOM     30  C   UNL A   1      38.574  29.177  28.851  1.00  0.00    -0.014 A 
BRANCH  30  31
ATOM     31  C   UNL A   1      40.005  28.953  29.177  1.00  0.00     0.031 A 
ATOM     32  C   UNL A   1      40.633  27.624  28.843  1.00  0.00     0.074 A 
ATOM     33  C   UNL A   1      40.753  29.933  29.716  1.00  0.00     0.049 A 
ATOM     34  N   UNL A   1      41.861  27.218  29.035  1.00  0.00    -0.248 NA
ATOM     35  C   UNL A   1      39.761  26.624  28.204  1.00  0.00     0.031 C 
ATOM     36  C   UNL A   1      40.279  31.277  30.043  1.00  0.00     0.029 A 
ATOM     37  N   UNL A   1      42.077  29.947  30.078  1.00  0.00    -0.354 N 
ATOM     38  C   UNL A   1      41.910  25.917  28.548  1.00  0.00     0.074 A 
ATOM     39  C   UNL A   1      40.581  25.591  28.077  1.00  0.00     0.031 C 
ATOM     40  C   UNL A   1      41.298  31.986  30.560  1.00  0.00     0.029 A 
ATOM     41  C   UNL A   1      42.487  31.138  30.629  1.00  0.00     0.049 A 
ATOM     42  H   UNL A   1      42.677  29.177  29.955  1.00  0.00     0.167 HD
ATOM     43  C   UNL A   1      42.966  25.072  28.487  1.00  0.00     0.031 A 
ATOM     44  C   UNL A   1      43.679  31.499  31.144  1.00  0.00     0.031 A 
ATOM     45  C   UNL A   1      44.287  25.390  28.962  1.00  0.00     0.049 A 
ATOM     46  C   UNL A   1      44.821  30.515  31.132  1.00  0.00     0.074 A 
ATOM     47  C   UNL A   1      45.424  24.600  28.935  1.00  0.00     0.029 A 
ATOM     48  N   UNL A   1      44.648  26.591  29.550  1.00  0.00    -0.354 N 
ATOM     49  N   UNL A   1      44.853  29.295  30.651  1.00  0.00    -0.248 NA
ATOM     50  C   UNL A   1      46.089  30.961  31.728  1.00  0.00     0.031 C 
ATOM     51  C   UNL A   1      46.460  25.306  29.554  1.00  0.00     0.029 A 
ATOM     52  C   UNL A   1      45.984  26.557  29.914  1.00  0.00     0.049 A 
ATOM     53  H   UNL A   1      44.045  27.357  29.689  1.00  0.00     0.167 HD
ATOM     54  C   UNL A   1      46.151  28.840  30.860  1.00  0.00     0.074 A 
ATOM     55  C   UNL A   1      46.876  29.918  31.500  1.00  0.00     0.031 C 
ATOM     56  C   UNL A   1      46.695  27.637  30.548  1.00  0.00     0.031 A 
BRANCH  43  57
ATOM     57  C   UNL A   1      42.730  23.701  27.910  1.00  0.00    -0.014 A 
ATOM     58  C   UNL A   1      42.316  22.631  28.723  1.00  0.00     0.010 A 
ATOM     59  C   UNL A   1      42.877  23.494  26.527  1.00  0.00     0.010 A 
ATOM     60  C   UNL A   1      42.085  21.370  28.168  1.00  0.00     0.020 A 
ATOM     61  C   UNL A   1      42.623  22.240  25.963  1.00  0.00     0.020 A 
ATOM     62  C   UNL A   1      42.241  21.182  26.790  1.00  0.00     0.054 A 
BRANCH  62  63
ATOM     63  S   UNL A   1      41.905  19.543  26.091  1.00  0.00     0.124 S 
ATOM     64  O   UNL A   1      42.787  19.525  24.927  1.00  0.00    -0.237 OA
ATOM     65  O   UNL A   1      42.282  18.646  27.180  1.00  0.00    -0.237 OA
ATOM     66  O   UNL A   1      40.475  19.582  25.788  1.00  0.00    -0.744 OA
ENDBRANCH  62  63
ENDBRANCH  43  57
BRANCH  44  67
ATOM     67  C   UNL A   1      43.855  32.852  31.741  1.00  0.00    -0.014 A 
ATOM     68  C   UNL A   1      43.471  33.112  33.067  1.00  0.00     0.010 A 
ATOM     69  C   UNL A   1      44.399  33.897  30.970  1.00  0.00     0.010 A 
ATOM     70  C   UNL A   1      43.606  34.396  33.605  1.00  0.00     0.020 A 
ATOM     71  C   UNL A   1      44.562  35.174  31.513  1.00  0.00     0.020 A 
ATOM     72  C   UNL A   1      44.152  35.419  32.823  1.00  0.00     0.054 A 
BRANCH  72  73
ATOM     73  S   UNL A   1      44.359  37.067  33.554  1.00  0.00     0.124 S 
ATOM     74  O   UNL A   1      43.548  37.895  32.668  1.00  0.00    -0.237 OA
ATOM     75  O   UNL A   1      43.837  36.882  34.906  1.00  0.00    -0.237 OA
ATOM     76  O   UNL A   1      45.801  37.293  33.478  1.00  0.00    -0.744 OA
ENDBRANCH  72  73
ENDBRANCH  44  67
BRANCH  56  77
ATOM     77  C   UNL A   1      48.154  27.430  30.859  1.00  0.00    -0.014 A 
ATOM     78  C   UNL A   1      49.155  27.776  29.934  1.00  0.00     0.010 A 
ATOM     79  C   UNL A   1      48.529  26.935  32.122  1.00  0.00     0.010 A 
ATOM     80  C   UNL A   1      50.504  27.602  30.256  1.00  0.00     0.020 A 
ATOM     81  C   UNL A   1      49.878  26.784  32.456  1.00  0.00     0.020 A 
ATOM     82  C   UNL A   1      50.857  27.106  31.514  1.00  0.00     0.054 A 
BRANCH  82  83
ATOM     83  S   UNL A   1      52.616  26.929  31.923  1.00  0.00     0.124 S 
ATOM     84  O   UNL A   1      52.567  26.088  33.116  1.00  0.00    -0.237 OA
ATOM     85  O   UNL A   1      53.162  26.293  30.727  1.00  0.00    -0.237 OA
ATOM     86  O   UNL A   1      53.060  28.303  32.147  1.00  0.00    -0.744 OA
ENDBRANCH  82  83
ENDBRANCH  56  77
ENDBRANCH  30  31
ENDBRANCH  23  25
ENDBRANCH  22  23
ENDBRANCH  21  22
ENDBRANCH  20  21
ENDBRANCH  19  20
ENDBRANCH   1  19
TORSDOF 22
ENDMDL
MODEL 2
REMARK VINA RESULT:      -7.9      3.188      9.248
REMARK SMILES CCC1(CC)C[NH+]([C@H](C)CCC(=O)OCCOCCOC(=O)c2ccc(-c3c4nc(c(-c5ccc(S(=O)(=O)[O-])cc5)c5ccc([nH]5)c(-c5ccc(S(=O)(=O)[O-])cc5)c5nc(c(-c6ccc(S(=O)(=O)[O-])cc6)c6ccc3[nH]6)C=C5)C=C4)cc2)C1
REMARK SMILES IDX 16 1 15 2 14 3 12 4 13 5 11 6 10 7 8 8 9 9 7 10 3 11 6 12
REMARK SMILES IDX 83 13 2 15 1 16 4 17 5 18 17 19 18 20 19 21 20 22 21 23
REMARK SMILES IDX 22 24 23 25 24 26 82 27 25 28 81 29 26 30 27 31 28 32 75 33
REMARK SMILES IDX 29 34 80 35 74 36 76 37 30 38 79 39 73 40 72 41 31 43 61 44
REMARK SMILES IDX 42 45 60 46 43 47 46 48 59 49 77 50 44 51 45 52 58 54 78 55
REMARK SMILES IDX 47 56 32 57 33 58 41 59 34 60 40 61 35 62 36 63 37 64 38 65
REMARK SMILES IDX 39 66 62 67 63 68 71 69 64 70 70 71 65 72 66 73 67 74 68 75
REMARK SMILES IDX 69 76 48 77 49 78 57 79 50 80 56 81 51 82 52 83 53 84 54 85
REMARK SMILES IDX 55 86
REMARK H PARENT 7 14 76 42 46 53
REMARK Flexibility Score: inf
ROOT
ATOM      1  C   UNL A   1      33.950  25.001  25.704  1.00  0.00     0.202 C 
ENDROOT
BRANCH   1   2
ATOM      2  C   UNL A   1      32.547  24.497  26.054  1.00  0.00     0.261 C 
BRANCH   2   3
ATOM      3  O   UNL A   1      31.640  24.737  24.959  1.00  0.00    -0.463 OA
BRANCH   3   4
ATOM      4  C   UNL A   1      30.467  25.337  25.265  1.00  0.00     0.306 C 
ATOM      5  O   UNL A   1      30.007  25.449  26.395  1.00  0.00    -0.252 OA
BRANCH   4   6
ATOM      6  C   UNL A   1      29.737  25.864  24.050  1.00  0.00     0.129 C 
BRANCH   6   7
ATOM      7  C   UNL A   1      30.327  27.063  23.291  1.00  0.00     0.076 C 
BRANCH   7   8
ATOM      8  C   UNL A   1      29.852  28.480  23.710  1.00  0.00     0.181 C 
ATOM      9  C   UNL A   1      30.996  29.271  24.363  1.00  0.00     0.075 C 
BRANCH   8  10
ATOM     10  N   UNL A   1      29.140  29.088  22.562  1.00  0.00    -0.331 N 
ATOM     11  C   UNL A   1      28.789  31.048  21.773  1.00  0.00     0.068 C 
ATOM     12  C   UNL A   1      29.941  29.987  21.723  1.00  0.00     0.275 C 
ATOM     13  C   UNL A   1      28.223  30.174  22.935  1.00  0.00     0.275 C 
ATOM     14  H   UNL A   1      28.774  28.232  22.145  1.00  0.00     0.348 HD
BRANCH  11  15
ATOM     15  C   UNL A   1      29.149  32.502  22.153  1.00  0.00     0.015 C 
ATOM     16  C   UNL A   1      28.838  32.901  23.584  1.00  0.00     0.005 C 
ENDBRANCH  11  15
BRANCH  11  17
ATOM     17  C   UNL A   1      27.889  31.010  20.511  1.00  0.00     0.015 C 
ATOM     18  C   UNL A   1      27.678  32.393  19.902  1.00  0.00     0.005 C 
ENDBRANCH  11  17
ENDBRANCH   8  10
ENDBRANCH   7   8
ENDBRANCH   6   7
ENDBRANCH   4   6
ENDBRANCH   3   4
ENDBRANCH   2   3
ENDBRANCH   1   2
BRANCH   1  19
ATOM     19  O   UNL A   1      34.033  25.843  24.551  1.00  0.00    -0.374 OA
BRANCH  19  20
ATOM     20  C   UNL A   1      33.697  27.218  24.730  1.00  0.00     0.202 C 
BRANCH  20  21
ATOM     21  C   UNL A   1      33.952  27.805  26.123  1.00  0.00     0.261 C 
BRANCH  21  22
ATOM     22  O   UNL A   1      34.522  29.124  26.069  1.00  0.00    -0.460 OA
BRANCH  22  23
ATOM     23  C   UNL A   1      34.369  29.853  27.199  1.00  0.00     0.338 C 
ATOM     24  O   UNL A   1      33.333  30.357  27.616  1.00  0.00    -0.246 OA
BRANCH  23  25
ATOM     25  C   UNL A   1      35.610  29.832  27.997  1.00  0.00     0.060 A 
ATOM     26  C   UNL A   1      36.808  30.116  27.333  1.00  0.00     0.016 A 
ATOM     27  C   UNL A   1      35.619  29.471  29.347  1.00  0.00     0.016 A 
ATOM     28  C   UNL A   1      38.025  29.989  27.999  1.00  0.00     0.010 A 
ATOM     29  C   UNL A   1      36.844  29.338  30.014  1.00  0.00     0.010 A 
ATOM     30  C   UNL A   1      38.054  29.561  29.333  1.00  0.00    -0.014 A 
BRANCH  30  31
ATOM     31  C   UNL A   1      39.356  29.210  29.956  1.00  0.00     0.031 A 
ATOM     32  C   UNL A   1      39.818  29.975  31.169  1.00  0.00     0.074 A 
ATOM     33  C   UNL A   1      40.096  28.191  29.481  1.00  0.00     0.049 A 
ATOM     34  N   UNL A   1      40.912  29.832  31.870  1.00  0.00    -0.248 NA
ATOM     35  C   UNL A   1      38.924  31.038  31.659  1.00  0.00     0.031 C 
ATOM     36  C   UNL A   1      39.741  27.343  28.344  1.00  0.00     0.029 A 
ATOM     37  N   UNL A   1      41.304  27.694  29.906  1.00  0.00    -0.354 N 
ATOM     38  C   UNL A   1      40.843  30.786  32.878  1.00  0.00     0.074 A 
ATOM     39  C   UNL A   1      39.613  31.522  32.681  1.00  0.00     0.031 C 
ATOM     40  C   UNL A   1      40.711  26.431  28.159  1.00  0.00     0.029 A 
ATOM     41  C   UNL A   1      41.769  26.648  29.144  1.00  0.00     0.049 A 
ATOM     42  H   UNL A   1      41.791  28.053  30.682  1.00  0.00     0.167 HD
ATOM     43  C   UNL A   1      41.719  31.025  33.883  1.00  0.00     0.031 A 
ATOM     44  C   UNL A   1      42.923  25.955  29.222  1.00  0.00     0.031 A 
ATOM     45  C   UNL A   1      42.947  30.300  34.077  1.00  0.00     0.049 A 
ATOM     46  C   UNL A   1      43.916  26.287  30.306  1.00  0.00     0.074 A 
ATOM     47  C   UNL A   1      43.894  30.464  35.074  1.00  0.00     0.029 A 
ATOM     48  N   UNL A   1      43.400  29.277  33.260  1.00  0.00    -0.354 N 
ATOM     49  N   UNL A   1      43.825  27.182  31.261  1.00  0.00    -0.248 NA
ATOM     50  C   UNL A   1      45.164  25.510  30.324  1.00  0.00     0.031 C 
ATOM     51  C   UNL A   1      44.945  29.575  34.828  1.00  0.00     0.029 A 
ATOM     52  C   UNL A   1      44.625  28.816  33.713  1.00  0.00     0.049 A 
ATOM     53  H   UNL A   1      42.922  28.928  32.473  1.00  0.00     0.167 HD
ATOM     54  C   UNL A   1      44.991  27.054  32.010  1.00  0.00     0.074 A 
ATOM     55  C   UNL A   1      45.765  25.990  31.406  1.00  0.00     0.031 C 
ATOM     56  C   UNL A   1      45.384  27.754  33.104  1.00  0.00     0.031 A 
BRANCH  43  57
ATOM     57  C   UNL A   1      41.394  32.140  34.842  1.00  0.00    -0.014 A 
ATOM     58  C   UNL A   1      40.573  31.920  35.962  1.00  0.00     0.010 A 
ATOM     59  C   UNL A   1      41.957  33.414  34.644  1.00  0.00     0.010 A 
ATOM     60  C   UNL A   1      40.296  32.962  36.850  1.00  0.00     0.020 A 
ATOM     61  C   UNL A   1      41.701  34.453  35.543  1.00  0.00     0.020 A 
ATOM     62  C   UNL A   1      40.861  34.223  36.634  1.00  0.00     0.054 A 
BRANCH  62  63
ATOM     63  S   UNL A   1      40.509  35.550  37.819  1.00  0.00     0.124 S 
ATOM     64  O   UNL A   1      41.845  35.871  38.317  1.00  0.00    -0.237 OA
ATOM     65  O   UNL A   1      39.889  36.573  36.981  1.00  0.00    -0.237 OA
ATOM     66  O   UNL A   1      39.617  34.920  38.790  1.00  0.00    -0.744 OA
ENDBRANCH  62  63
ENDBRANCH  43  57
BRANCH  44  67
ATOM     67  C   UNL A   1      43.219  24.887  28.228  1.00  0.00    -0.014 A 
ATOM     68  C   UNL A   1      42.805  23.562  28.446  1.00  0.00     0.010 A 
ATOM     69  C   UNL A   1      43.937  25.194  27.056  1.00  0.00     0.010 A 
ATOM     70  C   UNL A   1      43.121  22.560  27.523  1.00  0.00     0.020 A 
ATOM     71  C   UNL A   1      44.230  24.201  26.118  1.00  0.00     0.020 A 
ATOM     72  C   UNL A   1      43.832  22.887  26.364  1.00  0.00     0.054 A 
BRANCH  72  73
ATOM     73  S   UNL A   1      44.195  21.580  25.159  1.00  0.00     0.124 S 
ATOM     74  O   UNL A   1      45.556  21.201  25.523  1.00  0.00    -0.237 OA
ATOM     75  O   UNL A   1      43.161  20.588  25.446  1.00  0.00    -0.237 OA
ATOM     76  O   UNL A   1      44.055  22.257  23.871  1.00  0.00    -0.744 OA
ENDBRANCH  72  73
ENDBRANCH  44  67
BRANCH  56  77
ATOM     77  C   UNL A   1      46.693  27.372  33.743  1.00  0.00    -0.014 A 
ATOM     78  C   UNL A   1      47.897  27.998  33.373  1.00  0.00     0.010 A 
ATOM     79  C   UNL A   1      46.707  26.413  34.772  1.00  0.00     0.010 A 
ATOM     80  C   UNL A   1      49.096  27.648  34.001  1.00  0.00     0.020 A 
ATOM     81  C   UNL A   1      47.901  26.079  35.419  1.00  0.00     0.020 A 
ATOM     82  C   UNL A   1      49.090  26.690  35.019  1.00  0.00     0.054 A 
BRANCH  82  83
ATOM     83  S   UNL A   1      50.652  26.284  35.848  1.00  0.00     0.124 S 
ATOM     84  O   UNL A   1      51.332  27.576  35.866  1.00  0.00    -0.237 OA
ATOM     85  O   UNL A   1      50.207  25.790  37.149  1.00  0.00    -0.237 OA
ATOM     86  O   UNL A   1      51.254  25.275  34.979  1.00  0.00    -0.744 OA
ENDBRANCH  82  83
ENDBRANCH  56  77
ENDBRANCH  30  31
ENDBRANCH  23  25
ENDBRANCH  22  23
ENDBRANCH  21  22
ENDBRANCH  20  21
ENDBRANCH  19  20
ENDBRANCH   1  19
TORSDOF 22
ENDMDL
MODEL 3
REMARK VINA RESULT:      -7.9      4.490      9.874
REMARK SMILES CCC1(CC)C[NH+]([C@H](C)CCC(=O)OCCOCCOC(=O)c2ccc(-c3c4nc(c(-c5ccc(S(=O)(=O)[O-])cc5)c5ccc([nH]5)c(-c5ccc(S(=O)(=O)[O-])cc5)c5nc(c(-c6ccc(S(=O)(=O)[O-])cc6)c6ccc3[nH]6)C=C5)C=C4)cc2)C1
REMARK SMILES IDX 16 1 15 2 14 3 12 4 13 5 11 6 10 7 8 8 9 9 7 10 3 11 6 12
REMARK SMILES IDX 83 13 2 15 1 16 4 17 5 18 17 19 18 20 19 21 20 22 21 23
REMARK SMILES IDX 22 24 23 25 24 26 82 27 25 28 81 29 26 30 27 31 28 32 75 33
REMARK SMILES IDX 29 34 80 35 74 36 76 37 30 38 79 39 73 40 72 41 31 43 61 44
REMARK SMILES IDX 42 45 60 46 43 47 46 48 59 49 77 50 44 51 45 52 58 54 78 55
REMARK SMILES IDX 47 56 32 57 33 58 41 59 34 60 40 61 35 62 36 63 37 64 38 65
REMARK SMILES IDX 39 66 62 67 63 68 71 69 64 70 70 71 65 72 66 73 67 74 68 75
REMARK SMILES IDX 69 76 48 77 49 78 57 79 50 80 56 81 51 82 52 83 53 84 54 85
REMARK SMILES IDX 55 86
REMARK H PARENT 7 14 76 42 46 53
REMARK Flexibility Score: inf
ROOT
ATOM      1  C   UNL A   1      38.080  21.675  25.138  1.00  0.00     0.202 C 
ENDROOT
BRANCH   1   2
ATOM      2  C   UNL A   1      36.675  22.107  25.567  1.00  0.00     0.261 C 
BRANCH   2   3
ATOM      3  O   UNL A   1      36.277  23.297  24.857  1.00  0.00    -0.463 OA
BRANCH   3   4
ATOM      4  C   UNL A   1      35.762  23.119  23.619  1.00  0.00     0.306 C 
ATOM      5  O   UNL A   1      36.413  23.102  22.581  1.00  0.00    -0.252 OA
BRANCH   4   6
ATOM      6  C   UNL A   1      34.259  22.953  23.620  1.00  0.00     0.129 C 
BRANCH   6   7
ATOM      7  C   UNL A   1      33.375  24.201  23.769  1.00  0.00     0.076 C 
BRANCH   7   8
ATOM      8  C   UNL A   1      32.291  24.184  24.879  1.00  0.00     0.181 C 
ATOM      9  C   UNL A   1      32.621  23.131  25.950  1.00  0.00     0.075 C 
BRANCH   8  10
ATOM     10  N   UNL A   1      32.048  25.579  25.314  1.00  0.00    -0.331 N 
ATOM     11  C   UNL A   1      31.478  27.440  24.422  1.00  0.00     0.068 C 
ATOM     12  C   UNL A   1      30.752  26.147  24.929  1.00  0.00     0.275 C 
ATOM     13  C   UNL A   1      32.778  26.584  24.529  1.00  0.00     0.275 C 
ATOM     14  H   UNL A   1      32.252  25.461  26.306  1.00  0.00     0.348 HD
BRANCH  11  15
ATOM     15  C   UNL A   1      31.142  27.961  23.006  1.00  0.00     0.015 C 
ATOM     16  C   UNL A   1      30.237  29.178  22.953  1.00  0.00     0.005 C 
ENDBRANCH  11  15
BRANCH  11  17
ATOM     17  C   UNL A   1      31.439  28.590  25.460  1.00  0.00     0.015 C 
ATOM     18  C   UNL A   1      32.556  29.608  25.248  1.00  0.00     0.005 C 
ENDBRANCH  11  17
ENDBRANCH   8  10
ENDBRANCH   7   8
ENDBRANCH   6   7
ENDBRANCH   4   6
ENDBRANCH   3   4
ENDBRANCH   2   3
ENDBRANCH   1   2
BRANCH   1  19
ATOM     19  O   UNL A   1      38.867  21.042  26.151  1.00  0.00    -0.374 OA
BRANCH  19  20
ATOM     20  C   UNL A   1      40.112  21.657  26.478  1.00  0.00     0.202 C 
BRANCH  20  21
ATOM     21  C   UNL A   1      40.081  23.172  26.717  1.00  0.00     0.261 C 
BRANCH  21  22
ATOM     22  O   UNL A   1      41.380  23.775  26.597  1.00  0.00    -0.460 OA
BRANCH  22  23
ATOM     23  C   UNL A   1      41.365  25.106  26.349  1.00  0.00     0.338 C 
ATOM     24  O   UNL A   1      41.252  25.651  25.257  1.00  0.00    -0.246 OA
BRANCH  23  25
ATOM     25  C   UNL A   1      41.330  25.865  27.614  1.00  0.00     0.060 A 
ATOM     26  C   UNL A   1      40.093  25.983  28.259  1.00  0.00     0.016 A 
ATOM     27  C   UNL A   1      42.458  26.512  28.124  1.00  0.00     0.016 A 
ATOM     28  C   UNL A   1      39.966  26.791  29.387  1.00  0.00     0.010 A 
ATOM     29  C   UNL A   1      42.327  27.328  29.256  1.00  0.00     0.010 A 
ATOM     30  C   UNL A   1      41.074  27.500  29.871  1.00  0.00    -0.014 A 
BRANCH  30  31
ATOM     31  C   UNL A   1      40.875  28.529  30.924  1.00  0.00     0.031 A 
ATOM     32  C   UNL A   1      41.755  28.504  32.146  1.00  0.00     0.074 A 
ATOM     33  C   UNL A   1      39.959  29.503  30.774  1.00  0.00     0.049 A 
ATOM     34  N   UNL A   1      41.757  29.304  33.180  1.00  0.00    -0.248 NA
ATOM     35  C   UNL A   1      42.770  27.438  32.208  1.00  0.00     0.031 C 
ATOM     36  C   UNL A   1      39.078  29.666  29.619  1.00  0.00     0.029 A 
ATOM     37  N   UNL A   1      39.624  30.546  31.602  1.00  0.00    -0.354 N 
ATOM     38  C   UNL A   1      42.765  28.839  34.017  1.00  0.00     0.074 A 
ATOM     39  C   UNL A   1      43.334  27.669  33.384  1.00  0.00     0.031 C 
ATOM     40  C   UNL A   1      38.299  30.746  29.812  1.00  0.00     0.029 A 
ATOM     41  C   UNL A   1      38.606  31.332  31.117  1.00  0.00     0.049 A 
ATOM     42  H   UNL A   1      40.070  30.715  32.463  1.00  0.00     0.167 HD
ATOM     43  C   UNL A   1      43.187  29.344  35.201  1.00  0.00     0.031 A 
ATOM     44  C   UNL A   1      37.981  32.392  31.667  1.00  0.00     0.031 A 
ATOM     45  C   UNL A   1      42.617  30.503  35.837  1.00  0.00     0.049 A 
ATOM     46  C   UNL A   1      38.420  32.891  33.019  1.00  0.00     0.074 A 
ATOM     47  C   UNL A   1      42.985  31.095  37.033  1.00  0.00     0.029 A 
ATOM     48  N   UNL A   1      41.562  31.244  35.331  1.00  0.00    -0.354 N 
ATOM     49  N   UNL A   1      39.386  32.449  33.787  1.00  0.00    -0.248 NA
ATOM     50  C   UNL A   1      37.685  34.038  33.574  1.00  0.00     0.031 C 
ATOM     51  C   UNL A   1      42.116  32.163  37.277  1.00  0.00     0.029 A 
ATOM     52  C   UNL A   1      41.246  32.273  36.204  1.00  0.00     0.049 A 
ATOM     53  H   UNL A   1      41.103  31.066  34.479  1.00  0.00     0.167 HD
ATOM     54  C   UNL A   1      39.394  33.282  34.903  1.00  0.00     0.074 A 
ATOM     55  C   UNL A   1      38.345  34.260  34.704  1.00  0.00     0.031 C 
ATOM     56  C   UNL A   1      40.200  33.242  35.993  1.00  0.00     0.031 A 
BRANCH  43  57
ATOM     57  C   UNL A   1      44.307  28.625  35.906  1.00  0.00    -0.014 A 
ATOM     58  C   UNL A   1      44.060  27.481  36.685  1.00  0.00     0.010 A 
ATOM     59  C   UNL A   1      45.630  29.074  35.747  1.00  0.00     0.010 A 
ATOM     60  C   UNL A   1      45.113  26.816  37.318  1.00  0.00     0.020 A 
ATOM     61  C   UNL A   1      46.690  28.398  36.359  1.00  0.00     0.020 A 
ATOM     62  C   UNL A   1      46.423  27.281  37.151  1.00  0.00     0.054 A 
BRANCH  62  63
ATOM     63  S   UNL A   1      47.775  26.381  37.959  1.00  0.00     0.124 S 
ATOM     64  O   UNL A   1      47.112  25.144  38.366  1.00  0.00    -0.237 OA
ATOM     65  O   UNL A   1      48.756  26.245  36.886  1.00  0.00    -0.237 OA
ATOM     66  O   UNL A   1      48.173  27.263  39.054  1.00  0.00    -0.744 OA
ENDBRANCH  62  63
ENDBRANCH  43  57
BRANCH  44  67
ATOM     67  C   UNL A   1      36.852  33.046  30.950  1.00  0.00    -0.014 A 
ATOM     68  C   UNL A   1      37.088  34.044  29.989  1.00  0.00     0.010 A 
ATOM     69  C   UNL A   1      35.524  32.678  31.241  1.00  0.00     0.010 A 
ATOM     70  C   UNL A   1      36.018  34.678  29.349  1.00  0.00     0.020 A 
ATOM     71  C   UNL A   1      34.454  33.290  30.583  1.00  0.00     0.020 A 
ATOM     72  C   UNL A   1      34.708  34.296  29.650  1.00  0.00     0.054 A 
BRANCH  72  73
ATOM     73  S   UNL A   1      33.335  35.100  28.777  1.00  0.00     0.124 S 
ATOM     74  O   UNL A   1      34.037  36.038  27.907  1.00  0.00    -0.237 OA
ATOM     75  O   UNL A   1      32.684  33.977  28.107  1.00  0.00    -0.237 OA
ATOM     76  O   UNL A   1      32.557  35.707  29.855  1.00  0.00    -0.744 OA
ENDBRANCH  72  73
ENDBRANCH  44  67
BRANCH  56  77
ATOM     77  C   UNL A   1      40.008  34.305  37.042  1.00  0.00    -0.014 A 
ATOM     78  C   UNL A   1      40.618  35.566  36.925  1.00  0.00     0.010 A 
ATOM     79  C   UNL A   1      39.154  34.054  38.133  1.00  0.00     0.010 A 
ATOM     80  C   UNL A   1      40.402  36.547  37.897  1.00  0.00     0.020 A 
ATOM     81  C   UNL A   1      38.916  35.043  39.092  1.00  0.00     0.020 A 
ATOM     82  C   UNL A   1      39.553  36.279  38.975  1.00  0.00     0.054 A 
BRANCH  82  83
ATOM     83  S   UNL A   1      39.254  37.584  40.200  1.00  0.00     0.124 S 
ATOM     84  O   UNL A   1      38.837  36.815  41.368  1.00  0.00    -0.237 OA
ATOM     85  O   UNL A   1      40.560  38.230  40.306  1.00  0.00    -0.237 OA
ATOM     86  O   UNL A   1      38.210  38.403  39.587  1.00  0.00    -0.744 OA
ENDBRANCH  82  83
ENDBRANCH  56  77
ENDBRANCH  30  31
ENDBRANCH  23  25
ENDBRANCH  22  23
ENDBRANCH  21  22
ENDBRANCH  20  21
ENDBRANCH  19  20
ENDBRANCH   1  19
TORSDOF 22
ENDMDL
