MODEL 1
REMARK VINA RESULT:     -10.1      0.000      0.000
REMARK SMILES C[C@@H]1CCCCN1S(=O)(=O)c1ccc(CCC(=O)OCCOCCOC(=O)c2ccc(-c3c4nc(c(-c5ccc(S(=O)(=O)[O-])cc5)c5ccc([nH]5)c(-c5ccc(S(=O)(=O)[O-])cc5)c5nc(c(-c6ccc(S(=O)(=O)[O-])cc6)c6ccc3[nH]6)C=C5)C=C4)cc2)cc1
REMARK SMILES IDX 21 1 20 2 19 3 17 4 18 5 16 6 15 7 14 8 11 9 12 10 89 11
REMARK SMILES IDX 13 12 88 13 8 14 9 15 10 16 7 17 1 18 2 19 3 20 4 21 6 22
REMARK SMILES IDX 5 23 22 24 23 25 24 26 25 27 26 28 27 29 28 30 29 31 87 32
REMARK SMILES IDX 30 33 86 34 31 35 32 36 33 37 80 38 34 39 85 40 79 41 81 42
REMARK SMILES IDX 35 43 84 44 78 45 77 46 36 48 66 49 47 50 65 51 48 52 51 53
REMARK SMILES IDX 64 54 82 55 49 56 50 57 63 59 83 60 52 61 37 62 38 63 46 64
REMARK SMILES IDX 39 65 45 66 40 67 41 68 42 69 43 70 44 71 67 72 68 73 76 74
REMARK SMILES IDX 69 75 75 76 70 77 71 78 72 79 73 80 74 81 53 82 54 83 62 84
REMARK SMILES IDX 55 85 61 86 56 87 57 88 58 89 59 90 60 91
REMARK H PARENT 81 47 51 58
REMARK Flexibility Score: inf
ROOT
ATOM      1  C   UNL A   1      35.218  31.377  27.607  1.00  0.00     0.202 C 
ENDROOT
BRANCH   1   2
ATOM      2  C   UNL A   1      33.759  30.903  27.595  1.00  0.00     0.261 C 
BRANCH   2   3
ATOM      3  O   UNL A   1      33.572  29.778  26.708  1.00  0.00    -0.463 OA
BRANCH   3   4
ATOM      4  C   UNL A   1      32.670  29.906  25.703  1.00  0.00     0.306 C 
ATOM      5  O   UNL A   1      31.601  30.497  25.781  1.00  0.00    -0.252 OA
BRANCH   4   6
ATOM      6  C   UNL A   1      33.157  29.241  24.434  1.00  0.00     0.127 C 
BRANCH   6   7
ATOM      7  C   UNL A   1      32.186  28.202  23.861  1.00  0.00     0.047 C 
BRANCH   7   8
ATOM      8  C   UNL A   1      32.201  26.891  24.615  1.00  0.00    -0.047 A 
ATOM      9  C   UNL A   1      31.974  24.393  25.901  1.00  0.00     0.082 A 
ATOM     10  C   UNL A   1      31.493  25.550  26.512  1.00  0.00     0.022 A 
ATOM     11  C   UNL A   1      32.592  24.489  24.654  1.00  0.00     0.022 A 
ATOM     12  C   UNL A   1      31.631  26.787  25.885  1.00  0.00     0.005 A 
ATOM     13  C   UNL A   1      32.713  25.732  24.020  1.00  0.00     0.005 A 
BRANCH   9  14
ATOM     14  S   UNL A   1      31.533  22.817  26.612  1.00  0.00     0.243 S 
ATOM     15  O   UNL A   1      30.112  22.638  26.412  1.00  0.00    -0.207 OA
ATOM     16  O   UNL A   1      32.081  22.826  27.952  1.00  0.00    -0.207 OA
BRANCH  14  17
ATOM     17  N   UNL A   1      32.386  21.614  25.742  1.00  0.00    -0.195 NA
ATOM     18  C   UNL A   1      34.729  22.435  26.323  1.00  0.00     0.026 C 
ATOM     19  C   UNL A   1      33.788  21.246  26.134  1.00  0.00     0.070 C 
ATOM     20  C   UNL A   1      34.430  20.304  25.090  1.00  0.00     0.020 C 
ATOM     21  C   UNL A   1      33.404  19.489  24.325  1.00  0.00     0.003 C 
ATOM     22  C   UNL A   1      32.224  21.753  24.261  1.00  0.00     0.103 C 
ATOM     23  C   UNL A   1      32.453  20.409  23.568  1.00  0.00     0.017 C 
ENDBRANCH  14  17
ENDBRANCH   9  14
ENDBRANCH   7   8
ENDBRANCH   6   7
ENDBRANCH   4   6
ENDBRANCH   3   4
ENDBRANCH   2   3
ENDBRANCH   1   2
BRANCH   1  24
ATOM     24  O   UNL A   1      35.454  32.506  28.452  1.00  0.00    -0.374 OA
BRANCH  24  25
ATOM     25  C   UNL A   1      34.572  32.645  29.564  1.00  0.00     0.202 C 
BRANCH  25  26
ATOM     26  C   UNL A   1      35.178  32.223  30.905  1.00  0.00     0.261 C 
BRANCH  26  27
ATOM     27  O   UNL A   1      36.042  31.082  30.751  1.00  0.00    -0.460 OA
BRANCH  27  28
ATOM     28  C   UNL A   1      36.930  30.893  31.759  1.00  0.00     0.338 C 
ATOM     29  O   UNL A   1      36.677  30.806  32.948  1.00  0.00    -0.246 OA
BRANCH  28  30
ATOM     30  C   UNL A   1      38.279  30.649  31.204  1.00  0.00     0.060 A 
ATOM     31  C   UNL A   1      38.427  30.725  29.814  1.00  0.00     0.016 A 
ATOM     32  C   UNL A   1      39.373  30.319  32.008  1.00  0.00     0.016 A 
ATOM     33  C   UNL A   1      39.658  30.438  29.221  1.00  0.00     0.010 A 
ATOM     34  C   UNL A   1      40.611  30.045  31.410  1.00  0.00     0.010 A 
ATOM     35  C   UNL A   1      40.756  30.071  30.011  1.00  0.00    -0.014 A 
BRANCH  35  36
ATOM     36  C   UNL A   1      42.003  29.578  29.362  1.00  0.00     0.031 A 
ATOM     37  C   UNL A   1      43.159  30.527  29.186  1.00  0.00     0.074 A 
ATOM     38  C   UNL A   1      42.134  28.295  28.970  1.00  0.00     0.049 A 
ATOM     39  N   UNL A   1      44.339  30.311  28.661  1.00  0.00    -0.248 NA
ATOM     40  C   UNL A   1      42.962  31.905  29.667  1.00  0.00     0.031 C 
ATOM     41  C   UNL A   1      41.109  27.260  29.091  1.00  0.00     0.029 A 
ATOM     42  N   UNL A   1      43.192  27.647  28.375  1.00  0.00    -0.354 N 
ATOM     43  C   UNL A   1      45.021  31.519  28.754  1.00  0.00     0.074 A 
ATOM     44  C   UNL A   1      44.107  32.478  29.334  1.00  0.00     0.031 C 
ATOM     45  C   UNL A   1      41.578  26.112  28.572  1.00  0.00     0.029 A 
ATOM     46  C   UNL A   1      42.933  26.330  28.072  1.00  0.00     0.049 A 
ATOM     47  H   UNL A   1      44.053  28.083  28.185  1.00  0.00     0.167 HD
ATOM     48  C   UNL A   1      46.300  31.803  28.412  1.00  0.00     0.031 A 
ATOM     49  C   UNL A   1      43.694  25.406  27.452  1.00  0.00     0.031 A 
ATOM     50  C   UNL A   1      47.220  30.857  27.841  1.00  0.00     0.049 A 
ATOM     51  C   UNL A   1      45.092  25.765  27.018  1.00  0.00     0.074 A 
ATOM     52  C   UNL A   1      48.544  31.051  27.488  1.00  0.00     0.029 A 
ATOM     53  N   UNL A   1      46.912  29.540  27.539  1.00  0.00    -0.354 N 
ATOM     54  N   UNL A   1      45.734  26.901  27.151  1.00  0.00    -0.248 NA
ATOM     55  C   UNL A   1      45.878  24.705  26.366  1.00  0.00     0.031 C 
ATOM     56  C   UNL A   1      49.025  29.861  26.931  1.00  0.00     0.029 A 
ATOM     57  C   UNL A   1      48.016  28.915  26.983  1.00  0.00     0.049 A 
ATOM     58  H   UNL A   1      46.040  29.113  27.695  1.00  0.00     0.167 HD
ATOM     59  C   UNL A   1      47.008  26.680  26.639  1.00  0.00     0.074 A 
ATOM     60  C   UNL A   1      47.050  25.303  26.194  1.00  0.00     0.031 C 
ATOM     61  C   UNL A   1      48.053  27.541  26.554  1.00  0.00     0.031 A 
BRANCH  48  62
ATOM     62  C   UNL A   1      46.778  33.210  28.648  1.00  0.00    -0.014 A 
ATOM     63  C   UNL A   1      47.383  33.574  29.865  1.00  0.00     0.010 A 
ATOM     64  C   UNL A   1      46.643  34.174  27.634  1.00  0.00     0.010 A 
ATOM     65  C   UNL A   1      47.806  34.887  30.079  1.00  0.00     0.020 A 
ATOM     66  C   UNL A   1      47.087  35.483  27.834  1.00  0.00     0.020 A 
ATOM     67  C   UNL A   1      47.650  35.836  29.064  1.00  0.00     0.054 A 
BRANCH  67  68
ATOM     68  S   UNL A   1      48.219  37.532  29.362  1.00  0.00     0.124 S 
ATOM     69  O   UNL A   1      49.400  37.606  28.506  1.00  0.00    -0.237 OA
ATOM     70  O   UNL A   1      47.078  38.336  28.929  1.00  0.00    -0.237 OA
ATOM     71  O   UNL A   1      48.487  37.559  30.798  1.00  0.00    -0.744 OA
ENDBRANCH  67  68
ENDBRANCH  48  62
BRANCH  49  72
ATOM     72  C   UNL A   1      43.159  24.039  27.201  1.00  0.00    -0.014 A 
ATOM     73  C   UNL A   1      43.206  23.056  28.205  1.00  0.00     0.010 A 
ATOM     74  C   UNL A   1      42.624  23.706  25.943  1.00  0.00     0.010 A 
ATOM     75  C   UNL A   1      42.758  21.757  27.947  1.00  0.00     0.020 A 
ATOM     76  C   UNL A   1      42.152  22.414  25.689  1.00  0.00     0.020 A 
ATOM     77  C   UNL A   1      42.237  21.444  26.688  1.00  0.00     0.054 A 
BRANCH  77  78
ATOM     78  S   UNL A   1      41.641  19.756  26.383  1.00  0.00     0.124 S 
ATOM     79  O   UNL A   1      42.487  19.331  25.273  1.00  0.00    -0.237 OA
ATOM     80  O   UNL A   1      41.894  19.095  27.661  1.00  0.00    -0.237 OA
ATOM     81  O   UNL A   1      40.229  19.945  26.058  1.00  0.00    -0.744 OA
ENDBRANCH  77  78
ENDBRANCH  49  72
BRANCH  61  82
ATOM     82  C   UNL A   1      49.350  27.013  26.003  1.00  0.00    -0.014 A 
ATOM     83  C   UNL A   1      49.681  27.157  24.645  1.00  0.00     0.010 A 
ATOM     84  C   UNL A   1      50.281  26.418  26.876  1.00  0.00     0.010 A 
ATOM     85  C   UNL A   1      50.908  26.691  24.164  1.00  0.00     0.020 A 
ATOM     86  C   UNL A   1      51.518  25.972  26.403  1.00  0.00     0.020 A 
ATOM     87  C   UNL A   1      51.819  26.101  25.047  1.00  0.00     0.054 A 
BRANCH  87  88
ATOM     88  S   UNL A   1      53.426  25.549  24.409  1.00  0.00     0.124 S 
ATOM     89  O   UNL A   1      53.335  25.915  22.998  1.00  0.00    -0.237 OA
ATOM     90  O   UNL A   1      54.372  26.332  25.201  1.00  0.00    -0.237 OA
ATOM     91  O   UNL A   1      53.433  24.115  24.682  1.00  0.00    -0.744 OA
ENDBRANCH  87  88
ENDBRANCH  61  82
ENDBRANCH  35  36
ENDBRANCH  28  30
ENDBRANCH  27  28
ENDBRANCH  26  27
ENDBRANCH  25  26
ENDBRANCH  24  25
ENDBRANCH   1  24
TORSDOF 21
ENDMDL
MODEL 2
REMARK VINA RESULT:     -10.0      5.853     10.240
REMARK SMILES C[C@@H]1CCCCN1S(=O)(=O)c1ccc(CCC(=O)OCCOCCOC(=O)c2ccc(-c3c4nc(c(-c5ccc(S(=O)(=O)[O-])cc5)c5ccc([nH]5)c(-c5ccc(S(=O)(=O)[O-])cc5)c5nc(c(-c6ccc(S(=O)(=O)[O-])cc6)c6ccc3[nH]6)C=C5)C=C4)cc2)cc1
REMARK SMILES IDX 21 1 20 2 19 3 17 4 18 5 16 6 15 7 14 8 11 9 12 10 89 11
REMARK SMILES IDX 13 12 88 13 8 14 9 15 10 16 7 17 1 18 2 19 3 20 4 21 6 22
REMARK SMILES IDX 5 23 22 24 23 25 24 26 25 27 26 28 27 29 28 30 29 31 87 32
REMARK SMILES IDX 30 33 86 34 31 35 32 36 33 37 80 38 34 39 85 40 79 41 81 42
REMARK SMILES IDX 35 43 84 44 78 45 77 46 36 48 66 49 47 50 65 51 48 52 51 53
REMARK SMILES IDX 64 54 82 55 49 56 50 57 63 59 83 60 52 61 37 62 38 63 46 64
REMARK SMILES IDX 39 65 45 66 40 67 41 68 42 69 43 70 44 71 67 72 68 73 76 74
REMARK SMILES IDX 69 75 75 76 70 77 71 78 72 79 73 80 74 81 53 82 54 83 62 84
REMARK SMILES IDX 55 85 61 86 56 87 57 88 58 89 59 90 60 91
REMARK H PARENT 81 47 51 58
REMARK Flexibility Score: inf
ROOT
ATOM      1  C   UNL A   1      35.785  32.910  28.330  1.00  0.00     0.202 C 
ENDROOT
BRANCH   1   2
ATOM      2  C   UNL A   1      34.749  31.846  28.716  1.00  0.00     0.261 C 
BRANCH   2   3
ATOM      3  O   UNL A   1      34.847  30.678  27.874  1.00  0.00    -0.463 OA
BRANCH   3   4
ATOM      4  C   UNL A   1      33.708  30.207  27.306  1.00  0.00     0.306 C 
ATOM      5  O   UNL A   1      32.811  30.897  26.841  1.00  0.00    -0.252 OA
BRANCH   4   6
ATOM      6  C   UNL A   1      33.682  28.694  27.289  1.00  0.00     0.127 C 
BRANCH   6   7
ATOM      7  C   UNL A   1      32.272  28.094  27.279  1.00  0.00     0.047 C 
BRANCH   7   8
ATOM      8  C   UNL A   1      32.055  27.096  26.164  1.00  0.00    -0.047 A 
ATOM      9  C   UNL A   1      31.813  25.055  24.235  1.00  0.00     0.082 A 
ATOM     10  C   UNL A   1      32.848  25.985  24.155  1.00  0.00     0.022 A 
ATOM     11  C   UNL A   1      30.882  25.160  25.269  1.00  0.00     0.022 A 
ATOM     12  C   UNL A   1      32.949  27.009  25.095  1.00  0.00     0.005 A 
ATOM     13  C   UNL A   1      30.998  26.180  26.221  1.00  0.00     0.005 A 
BRANCH   9  14
ATOM     14  S   UNL A   1      31.885  23.618  23.179  1.00  0.00     0.243 S 
ATOM     15  O   UNL A   1      32.705  23.964  22.039  1.00  0.00    -0.207 OA
ATOM     16  O   UNL A   1      30.511  23.206  22.986  1.00  0.00    -0.207 OA
BRANCH  14  17
ATOM     17  N   UNL A   1      32.649  22.373  24.072  1.00  0.00    -0.195 NA
ATOM     18  C   UNL A   1      35.045  23.002  23.464  1.00  0.00     0.026 C 
ATOM     19  C   UNL A   1      34.066  22.538  24.542  1.00  0.00     0.070 C 
ATOM     20  C   UNL A   1      34.613  21.219  25.135  1.00  0.00     0.020 C 
ATOM     21  C   UNL A   1      33.520  20.323  25.684  1.00  0.00     0.003 C 
ATOM     22  C   UNL A   1      32.391  21.015  23.500  1.00  0.00     0.103 C 
ATOM     23  C   UNL A   1      32.542  19.941  24.579  1.00  0.00     0.017 C 
ENDBRANCH  14  17
ENDBRANCH   9  14
ENDBRANCH   7   8
ENDBRANCH   6   7
ENDBRANCH   4   6
ENDBRANCH   3   4
ENDBRANCH   2   3
ENDBRANCH   1   2
BRANCH   1  24
ATOM     24  O   UNL A   1      35.213  34.118  27.821  1.00  0.00    -0.374 OA
BRANCH  24  25
ATOM     25  C   UNL A   1      33.788  34.176  27.815  1.00  0.00     0.202 C 
BRANCH  25  26
ATOM     26  C   UNL A   1      33.195  35.196  28.791  1.00  0.00     0.261 C 
BRANCH  26  27
ATOM     27  O   UNL A   1      32.592  34.545  29.923  1.00  0.00    -0.460 OA
BRANCH  27  28
ATOM     28  C   UNL A   1      32.997  35.002  31.134  1.00  0.00     0.338 C 
ATOM     29  O   UNL A   1      32.355  35.693  31.906  1.00  0.00    -0.246 OA
BRANCH  28  30
ATOM     30  C   UNL A   1      34.309  34.415  31.481  1.00  0.00     0.060 A 
ATOM     31  C   UNL A   1      34.312  33.131  32.039  1.00  0.00     0.016 A 
ATOM     32  C   UNL A   1      35.511  35.104  31.303  1.00  0.00     0.016 A 
ATOM     33  C   UNL A   1      35.511  32.547  32.453  1.00  0.00     0.010 A 
ATOM     34  C   UNL A   1      36.715  34.508  31.707  1.00  0.00     0.010 A 
ATOM     35  C   UNL A   1      36.722  33.239  32.313  1.00  0.00    -0.014 A 
BRANCH  35  36
ATOM     36  C   UNL A   1      37.961  32.694  32.933  1.00  0.00     0.031 A 
ATOM     37  C   UNL A   1      38.859  31.806  32.112  1.00  0.00     0.074 A 
ATOM     38  C   UNL A   1      38.319  33.012  34.193  1.00  0.00     0.049 A 
ATOM     39  N   UNL A   1      39.990  31.234  32.442  1.00  0.00    -0.248 NA
ATOM     40  C   UNL A   1      38.427  31.526  30.732  1.00  0.00     0.031 C 
ATOM     41  C   UNL A   1      37.561  33.872  35.101  1.00  0.00     0.029 A 
ATOM     42  N   UNL A   1      39.416  32.634  34.933  1.00  0.00    -0.354 N 
ATOM     43  C   UNL A   1      40.403  30.533  31.314  1.00  0.00     0.074 A 
ATOM     44  C   UNL A   1      39.377  30.707  30.309  1.00  0.00     0.031 C 
ATOM     45  C   UNL A   1      38.202  33.943  36.280  1.00  0.00     0.029 A 
ATOM     46  C   UNL A   1      39.412  33.127  36.218  1.00  0.00     0.049 A 
ATOM     47  H   UNL A   1      40.135  32.065  34.577  1.00  0.00     0.167 HD
ATOM     48  C   UNL A   1      41.543  29.830  31.119  1.00  0.00     0.031 A 
ATOM     49  C   UNL A   1      40.277  32.935  37.234  1.00  0.00     0.031 A 
ATOM     50  C   UNL A   1      42.572  29.656  32.108  1.00  0.00     0.049 A 
ATOM     51  C   UNL A   1      41.506  32.090  37.014  1.00  0.00     0.074 A 
ATOM     52  C   UNL A   1      43.773  28.980  31.988  1.00  0.00     0.029 A 
ATOM     53  N   UNL A   1      42.521  30.160  33.398  1.00  0.00    -0.354 N 
ATOM     54  N   UNL A   1      41.900  31.470  35.928  1.00  0.00    -0.248 NA
ATOM     55  C   UNL A   1      42.420  31.938  38.157  1.00  0.00     0.031 C 
ATOM     56  C   UNL A   1      44.431  29.038  33.221  1.00  0.00     0.029 A 
ATOM     57  C   UNL A   1      43.662  29.792  34.092  1.00  0.00     0.049 A 
ATOM     58  H   UNL A   1      41.784  30.698  33.766  1.00  0.00     0.167 HD
ATOM     59  C   UNL A   1      43.124  30.890  36.244  1.00  0.00     0.074 A 
ATOM     60  C   UNL A   1      43.408  31.233  37.621  1.00  0.00     0.031 C 
ATOM     61  C   UNL A   1      43.943  30.147  35.458  1.00  0.00     0.031 A 
BRANCH  48  62
ATOM     62  C   UNL A   1      41.731  29.187  29.771  1.00  0.00    -0.014 A 
ATOM     63  C   UNL A   1      42.417  29.857  28.741  1.00  0.00     0.010 A 
ATOM     64  C   UNL A   1      41.239  27.891  29.539  1.00  0.00     0.010 A 
ATOM     65  C   UNL A   1      42.570  29.257  27.490  1.00  0.00     0.020 A 
ATOM     66  C   UNL A   1      41.412  27.278  28.296  1.00  0.00     0.020 A 
ATOM     67  C   UNL A   1      42.061  27.973  27.272  1.00  0.00     0.054 A 
BRANCH  67  68
ATOM     68  S   UNL A   1      42.284  27.212  25.642  1.00  0.00     0.124 S 
ATOM     69  O   UNL A   1      41.109  26.349  25.551  1.00  0.00    -0.237 OA
ATOM     70  O   UNL A   1      42.286  28.365  24.745  1.00  0.00    -0.237 OA
ATOM     71  O   UNL A   1      43.562  26.514  25.758  1.00  0.00    -0.744 OA
ENDBRANCH  67  68
ENDBRANCH  48  62
BRANCH  49  72
ATOM     72  C   UNL A   1      40.022  33.556  38.563  1.00  0.00    -0.014 A 
ATOM     73  C   UNL A   1      39.185  32.924  39.500  1.00  0.00     0.010 A 
ATOM     74  C   UNL A   1      40.594  34.799  38.888  1.00  0.00     0.010 A 
ATOM     75  C   UNL A   1      38.900  33.538  40.723  1.00  0.00     0.020 A 
ATOM     76  C   UNL A   1      40.330  35.405  40.121  1.00  0.00     0.020 A 
ATOM     77  C   UNL A   1      39.472  34.777  41.024  1.00  0.00     0.054 A 
BRANCH  77  78
ATOM     78  S   UNL A   1      39.104  35.545  42.627  1.00  0.00     0.124 S 
ATOM     79  O   UNL A   1      40.015  34.834  43.520  1.00  0.00    -0.237 OA
ATOM     80  O   UNL A   1      39.423  36.950  42.387  1.00  0.00    -0.237 OA
ATOM     81  O   UNL A   1      37.685  35.262  42.825  1.00  0.00    -0.744 OA
ENDBRANCH  77  78
ENDBRANCH  49  72
BRANCH  61  82
ATOM     82  C   UNL A   1      45.251  29.691  36.047  1.00  0.00    -0.014 A 
ATOM     83  C   UNL A   1      45.370  28.447  36.690  1.00  0.00     0.010 A 
ATOM     84  C   UNL A   1      46.395  30.497  35.896  1.00  0.00     0.010 A 
ATOM     85  C   UNL A   1      46.604  28.029  37.197  1.00  0.00     0.020 A 
ATOM     86  C   UNL A   1      47.635  30.071  36.380  1.00  0.00     0.020 A 
ATOM     87  C   UNL A   1      47.729  28.845  37.039  1.00  0.00     0.054 A 
BRANCH  87  88
ATOM     88  S   UNL A   1      49.331  28.258  37.659  1.00  0.00     0.124 S 
ATOM     89  O   UNL A   1      48.937  27.135  38.504  1.00  0.00    -0.237 OA
ATOM     90  O   UNL A   1      50.041  27.903  36.432  1.00  0.00    -0.237 OA
ATOM     91  O   UNL A   1      49.870  29.415  38.370  1.00  0.00    -0.744 OA
ENDBRANCH  87  88
ENDBRANCH  61  82
ENDBRANCH  35  36
ENDBRANCH  28  30
ENDBRANCH  27  28
ENDBRANCH  26  27
ENDBRANCH  25  26
ENDBRANCH  24  25
ENDBRANCH   1  24
TORSDOF 21
ENDMDL
MODEL 3
REMARK VINA RESULT:      -9.8      1.610      2.261
REMARK SMILES C[C@@H]1CCCCN1S(=O)(=O)c1ccc(CCC(=O)OCCOCCOC(=O)c2ccc(-c3c4nc(c(-c5ccc(S(=O)(=O)[O-])cc5)c5ccc([nH]5)c(-c5ccc(S(=O)(=O)[O-])cc5)c5nc(c(-c6ccc(S(=O)(=O)[O-])cc6)c6ccc3[nH]6)C=C5)C=C4)cc2)cc1
REMARK SMILES IDX 21 1 20 2 19 3 17 4 18 5 16 6 15 7 14 8 11 9 12 10 89 11
REMARK SMILES IDX 13 12 88 13 8 14 9 15 10 16 7 17 1 18 2 19 3 20 4 21 6 22
REMARK SMILES IDX 5 23 22 24 23 25 24 26 25 27 26 28 27 29 28 30 29 31 87 32
REMARK SMILES IDX 30 33 86 34 31 35 32 36 33 37 80 38 34 39 85 40 79 41 81 42
REMARK SMILES IDX 35 43 84 44 78 45 77 46 36 48 66 49 47 50 65 51 48 52 51 53
REMARK SMILES IDX 64 54 82 55 49 56 50 57 63 59 83 60 52 61 37 62 38 63 46 64
REMARK SMILES IDX 39 65 45 66 40 67 41 68 42 69 43 70 44 71 67 72 68 73 76 74
REMARK SMILES IDX 69 75 75 76 70 77 71 78 72 79 73 80 74 81 53 82 54 83 62 84
REMARK SMILES IDX 55 85 61 86 56 87 57 88 58 89 59 90 60 91
REMARK H PARENT 81 47 51 58
REMARK Flexibility Score: inf
ROOT
ATOM      1  C   UNL A   1      34.869  30.991  27.684  1.00  0.00     0.202 C 
ENDROOT
BRANCH   1   2
ATOM      2  C   UNL A   1      33.349  31.193  27.718  1.00  0.00     0.261 C 
BRANCH   2   3
ATOM      3  O   UNL A   1      32.654  30.109  27.065  1.00  0.00    -0.463 OA
BRANCH   3   4
ATOM      4  C   UNL A   1      31.947  30.393  25.942  1.00  0.00     0.306 C 
ATOM      5  O   UNL A   1      31.166  31.326  25.814  1.00  0.00    -0.252 OA
BRANCH   4   6
ATOM      6  C   UNL A   1      32.259  29.416  24.830  1.00  0.00     0.127 C 
BRANCH   6   7
ATOM      7  C   UNL A   1      31.063  28.562  24.393  1.00  0.00     0.047 C 
BRANCH   7   8
ATOM      8  C   UNL A   1      31.196  27.106  24.779  1.00  0.00    -0.047 A 
ATOM      9  C   UNL A   1      31.302  24.458  25.740  1.00  0.00     0.082 A 
ATOM     10  C   UNL A   1      32.324  25.360  26.035  1.00  0.00     0.022 A 
ATOM     11  C   UNL A   1      30.237  24.875  24.942  1.00  0.00     0.022 A 
ATOM     12  C   UNL A   1      32.281  26.660  25.536  1.00  0.00     0.005 A 
ATOM     13  C   UNL A   1      30.189  26.188  24.457  1.00  0.00     0.005 A 
BRANCH   9  14
ATOM     14  S   UNL A   1      31.266  22.905  26.619  1.00  0.00     0.243 S 
ATOM     15  O   UNL A   1      29.888  22.470  26.666  1.00  0.00    -0.207 OA
ATOM     16  O   UNL A   1      31.997  23.135  27.847  1.00  0.00    -0.207 OA
BRANCH  14  17
ATOM     17  N   UNL A   1      32.185  21.787  25.704  1.00  0.00    -0.195 NA
ATOM     18  C   UNL A   1      34.481  22.610  26.451  1.00  0.00     0.026 C 
ATOM     19  C   UNL A   1      33.576  21.419  26.133  1.00  0.00     0.070 C 
ATOM     20  C   UNL A   1      34.286  20.569  25.054  1.00  0.00     0.020 C 
ATOM     21  C   UNL A   1      33.314  19.792  24.186  1.00  0.00     0.003 C 
ATOM     22  C   UNL A   1      32.086  22.031  24.231  1.00  0.00     0.103 C 
ATOM     23  C   UNL A   1      32.377  20.746  23.454  1.00  0.00     0.017 C 
ENDBRANCH  14  17
ENDBRANCH   9  14
ENDBRANCH   7   8
ENDBRANCH   6   7
ENDBRANCH   4   6
ENDBRANCH   3   4
ENDBRANCH   2   3
ENDBRANCH   1   2
BRANCH   1  24
ATOM     24  O   UNL A   1      35.593  31.893  28.526  1.00  0.00    -0.374 OA
BRANCH  24  25
ATOM     25  C   UNL A   1      36.949  32.135  28.156  1.00  0.00     0.202 C 
BRANCH  25  26
ATOM     26  C   UNL A   1      37.951  31.982  29.304  1.00  0.00     0.261 C 
BRANCH  26  27
ATOM     27  O   UNL A   1      37.483  31.038  30.284  1.00  0.00    -0.460 OA
BRANCH  27  28
ATOM     28  C   UNL A   1      37.441  29.748  29.866  1.00  0.00     0.338 C 
ATOM     29  O   UNL A   1      36.455  29.034  29.800  1.00  0.00    -0.246 OA
BRANCH  28  30
ATOM     30  C   UNL A   1      38.762  29.345  29.339  1.00  0.00     0.060 A 
ATOM     31  C   UNL A   1      39.778  29.098  30.270  1.00  0.00     0.016 A 
ATOM     32  C   UNL A   1      39.024  29.240  27.971  1.00  0.00     0.016 A 
ATOM     33  C   UNL A   1      41.067  28.781  29.836  1.00  0.00     0.010 A 
ATOM     34  C   UNL A   1      40.316  28.907  27.539  1.00  0.00     0.010 A 
ATOM     35  C   UNL A   1      41.355  28.706  28.467  1.00  0.00    -0.014 A 
BRANCH  35  36
ATOM     36  C   UNL A   1      42.767  28.562  28.014  1.00  0.00     0.031 A 
ATOM     37  C   UNL A   1      43.705  29.731  28.167  1.00  0.00     0.074 A 
ATOM     38  C   UNL A   1      43.233  27.401  27.513  1.00  0.00     0.049 A 
ATOM     39  N   UNL A   1      44.974  29.825  27.855  1.00  0.00    -0.248 NA
ATOM     40  C   UNL A   1      43.141  30.959  28.753  1.00  0.00     0.031 C 
ATOM     41  C   UNL A   1      42.448  26.182  27.322  1.00  0.00     0.029 A 
ATOM     42  N   UNL A   1      44.488  27.063  27.061  1.00  0.00    -0.354 N 
ATOM     43  C   UNL A   1      45.356  31.114  28.209  1.00  0.00     0.074 A 
ATOM     44  C   UNL A   1      44.175  31.783  28.709  1.00  0.00     0.031 C 
ATOM     45  C   UNL A   1      43.231  25.235  26.776  1.00  0.00     0.029 A 
ATOM     46  C   UNL A   1      44.570  25.780  26.569  1.00  0.00     0.049 A 
ATOM     47  H   UNL A   1      45.253  27.680  27.087  1.00  0.00     0.167 HD
ATOM     48  C   UNL A   1      46.582  31.685  28.150  1.00  0.00     0.031 A 
ATOM     49  C   UNL A   1      45.603  25.122  26.005  1.00  0.00     0.031 A 
ATOM     50  C   UNL A   1      47.763  31.028  27.660  1.00  0.00     0.049 A 
ATOM     51  C   UNL A   1      46.942  25.802  25.886  1.00  0.00     0.074 A 
ATOM     52  C   UNL A   1      49.054  31.523  27.588  1.00  0.00     0.029 A 
ATOM     53  N   UNL A   1      47.799  29.737  27.160  1.00  0.00    -0.354 N 
ATOM     54  N   UNL A   1      47.294  27.008  26.265  1.00  0.00    -0.248 NA
ATOM     55  C   UNL A   1      48.033  25.021  25.281  1.00  0.00     0.031 C 
ATOM     56  C   UNL A   1      49.864  30.543  27.003  1.00  0.00     0.029 A 
ATOM     57  C   UNL A   1      49.087  29.424  26.757  1.00  0.00     0.049 A 
ATOM     58  H   UNL A   1      47.025  29.132  27.100  1.00  0.00     0.167 HD
ATOM     59  C   UNL A   1      48.652  27.114  25.982  1.00  0.00     0.074 A 
ATOM     60  C   UNL A   1      49.060  25.851  25.401  1.00  0.00     0.031 C 
ATOM     61  C   UNL A   1      49.487  28.161  26.192  1.00  0.00     0.031 A 
BRANCH  48  62
ATOM     62  C   UNL A   1      46.701  33.107  28.627  1.00  0.00    -0.014 A 
ATOM     63  C   UNL A   1      47.001  33.395  29.971  1.00  0.00     0.010 A 
ATOM     64  C   UNL A   1      46.535  34.167  27.719  1.00  0.00     0.010 A 
ATOM     65  C   UNL A   1      47.092  34.719  30.406  1.00  0.00     0.020 A 
ATOM     66  C   UNL A   1      46.649  35.492  28.144  1.00  0.00     0.020 A 
ATOM     67  C   UNL A   1      46.909  35.760  29.491  1.00  0.00     0.054 A 
BRANCH  67  68
ATOM     68  S   UNL A   1      47.044  37.470  30.079  1.00  0.00     0.124 S 
ATOM     69  O   UNL A   1      48.093  38.003  29.214  1.00  0.00    -0.237 OA
ATOM     70  O   UNL A   1      45.704  38.000  29.840  1.00  0.00    -0.237 OA
ATOM     71  O   UNL A   1      47.411  37.324  31.485  1.00  0.00    -0.744 OA
ENDBRANCH  67  68
ENDBRANCH  48  62
BRANCH  49  72
ATOM     72  C   UNL A   1      45.422  23.731  25.506  1.00  0.00    -0.014 A 
ATOM     73  C   UNL A   1      44.947  23.493  24.204  1.00  0.00     0.010 A 
ATOM     74  C   UNL A   1      45.696  22.634  26.343  1.00  0.00     0.010 A 
ATOM     75  C   UNL A   1      44.721  22.187  23.759  1.00  0.00     0.020 A 
ATOM     76  C   UNL A   1      45.495  21.325  25.893  1.00  0.00     0.020 A 
ATOM     77  C   UNL A   1      44.993  21.111  24.609  1.00  0.00     0.054 A 
BRANCH  77  78
ATOM     78  S   UNL A   1      44.713  19.423  24.001  1.00  0.00     0.124 S 
ATOM     79  O   UNL A   1      43.591  18.987  24.827  1.00  0.00    -0.237 OA
ATOM     80  O   UNL A   1      44.411  19.641  22.588  1.00  0.00    -0.237 OA
ATOM     81  O   UNL A   1      45.982  18.750  24.262  1.00  0.00    -0.744 OA
ENDBRANCH  77  78
ENDBRANCH  49  72
BRANCH  61  82
ATOM     82  C   UNL A   1      50.940  27.979  25.841  1.00  0.00    -0.014 A 
ATOM     83  C   UNL A   1      51.452  28.403  24.603  1.00  0.00     0.010 A 
ATOM     84  C   UNL A   1      51.818  27.431  26.795  1.00  0.00     0.010 A 
ATOM     85  C   UNL A   1      52.812  28.256  24.314  1.00  0.00     0.020 A 
ATOM     86  C   UNL A   1      53.182  27.306  26.519  1.00  0.00     0.020 A 
ATOM     87  C   UNL A   1      53.669  27.707  25.275  1.00  0.00     0.054 A 
BRANCH  87  88
ATOM     88  S   UNL A   1      55.438  27.575  24.896  1.00  0.00     0.124 S 
ATOM     89  O   UNL A   1      56.035  27.569  26.229  1.00  0.00    -0.237 OA
ATOM     90  O   UNL A   1      55.518  26.311  24.167  1.00  0.00    -0.237 OA
ATOM     91  O   UNL A   1      55.711  28.765  24.096  1.00  0.00    -0.744 OA
ENDBRANCH  87  88
ENDBRANCH  61  82
ENDBRANCH  35  36
ENDBRANCH  28  30
ENDBRANCH  27  28
ENDBRANCH  26  27
ENDBRANCH  25  26
ENDBRANCH  24  25
ENDBRANCH   1  24
TORSDOF 21
ENDMDL
