MODEL 1
REMARK VINA RESULT:      -9.8      0.000      0.000
REMARK SMILES Cc1noc(C)c1CNc1cnc(C(=O)OCCOCCOC(=O)c2ccc(-c3c4nc(c(-c5ccc(S(=O)(=O)[O-])cc5)c5ccc([nH]5)c(-c5ccc(S(=O)(=O)[O-])cc5)c5nc(c(-c6ccc(S(=O)(=O)[O-])cc6)c6ccc3[nH]6)C=C5)C=C4)cc2)cn1
REMARK SMILES IDX 19 1 18 2 17 3 16 4 14 5 15 6 13 7 10 8 11 9 86 10 12 11
REMARK SMILES IDX 85 12 9 13 8 15 7 16 1 17 2 18 3 19 4 20 5 21 6 22 20 23
REMARK SMILES IDX 21 24 22 25 23 26 24 27 25 28 26 29 84 30 27 31 83 32 28 33
REMARK SMILES IDX 29 34 30 35 77 36 31 37 82 38 76 39 78 40 32 41 81 42 75 43
REMARK SMILES IDX 74 44 33 46 63 47 44 48 62 49 45 50 48 51 61 52 79 53 46 54
REMARK SMILES IDX 47 55 60 57 80 58 49 59 34 60 35 61 43 62 36 63 42 64 37 65
REMARK SMILES IDX 38 66 39 67 40 68 41 69 64 70 65 71 73 72 66 73 72 74 67 75
REMARK SMILES IDX 68 76 69 77 70 78 71 79 50 80 51 81 59 82 52 83 58 84 53 85
REMARK SMILES IDX 54 86 55 87 56 88 57 89
REMARK H PARENT 9 14 78 45 48 56
REMARK Flexibility Score: inf
ROOT
ATOM      1  O   UNL A   1      34.771  33.331  28.067  1.00  0.00    -0.374 OA
ENDROOT
BRANCH   1   2
ATOM      2  C   UNL A   1      33.428  33.821  28.013  1.00  0.00     0.202 C 
BRANCH   2   3
ATOM      3  C   UNL A   1      33.211  35.192  28.660  1.00  0.00     0.261 C 
BRANCH   3   4
ATOM      4  O   UNL A   1      32.534  35.057  29.920  1.00  0.00    -0.458 OA
BRANCH   4   5
ATOM      5  C   UNL A   1      32.962  35.884  30.903  1.00  0.00     0.358 C 
ATOM      6  O   UNL A   1      32.618  37.043  31.089  1.00  0.00    -0.244 OA
BRANCH   5   7
ATOM      7  C   UNL A   1      33.801  35.146  31.870  1.00  0.00     0.166 A 
ATOM      8  C   UNL A   1      35.397  33.982  33.715  1.00  0.00     0.144 A 
ATOM      9  C   UNL A   1      34.780  33.254  32.694  1.00  0.00     0.158 A 
ATOM     10  N   UNL A   1      35.152  35.299  33.857  1.00  0.00    -0.235 NA
ATOM     11  N   UNL A   1      33.968  33.805  31.754  1.00  0.00    -0.244 NA
ATOM     12  C   UNL A   1      34.364  35.869  32.910  1.00  0.00     0.149 A 
BRANCH   8  13
ATOM     13  N   UNL A   1      36.325  33.461  34.591  1.00  0.00    -0.365 N 
ATOM     14  H   UNL A   1      36.464  33.872  35.475  1.00  0.00     0.162 HD
BRANCH  13  15
ATOM     15  C   UNL A   1      37.093  32.296  34.185  1.00  0.00     0.156 C 
BRANCH  15  16
ATOM     16  C   UNL A   1      38.553  32.527  33.968  1.00  0.00     0.037 A 
ATOM     17  C   UNL A   1      38.588  34.461  32.191  1.00  0.00     0.071 C 
ATOM     18  C   UNL A   1      39.194  33.459  33.100  1.00  0.00     0.086 A 
ATOM     19  N   UNL A   1      40.526  33.361  33.176  1.00  0.00    -0.085 NA
ATOM     20  O   UNL A   1      40.781  32.356  34.085  1.00  0.00    -0.361 OA
ATOM     21  C   UNL A   1      39.608  31.859  34.552  1.00  0.00     0.138 A 
ATOM     22  C   UNL A   1      39.712  30.760  35.530  1.00  0.00     0.091 C 
ENDBRANCH  15  16
ENDBRANCH  13  15
ENDBRANCH   8  13
ENDBRANCH   5   7
ENDBRANCH   4   5
ENDBRANCH   3   4
ENDBRANCH   2   3
ENDBRANCH   1   2
BRANCH   1  23
ATOM     23  C   UNL A   1      34.933  31.913  28.010  1.00  0.00     0.202 C 
BRANCH  23  24
ATOM     24  C   UNL A   1      35.509  31.251  29.265  1.00  0.00     0.261 C 
BRANCH  24  25
ATOM     25  O   UNL A   1      36.024  29.939  28.978  1.00  0.00    -0.460 OA
BRANCH  25  26
ATOM     26  C   UNL A   1      36.865  29.449  29.918  1.00  0.00     0.338 C 
ATOM     27  O   UNL A   1      36.613  29.258  31.101  1.00  0.00    -0.246 OA
BRANCH  26  28
ATOM     28  C   UNL A   1      38.127  28.996  29.299  1.00  0.00     0.060 A 
ATOM     29  C   UNL A   1      39.061  28.384  30.143  1.00  0.00     0.016 A 
ATOM     30  C   UNL A   1      38.430  29.225  27.954  1.00  0.00     0.016 A 
ATOM     31  C   UNL A   1      40.331  28.072  29.667  1.00  0.00     0.010 A 
ATOM     32  C   UNL A   1      39.710  28.911  27.478  1.00  0.00     0.010 A 
ATOM     33  C   UNL A   1      40.680  28.379  28.345  1.00  0.00    -0.014 A 
BRANCH  33  34
ATOM     34  C   UNL A   1      42.108  28.292  27.949  1.00  0.00     0.031 A 
ATOM     35  C   UNL A   1      43.005  29.479  28.190  1.00  0.00     0.074 A 
ATOM     36  C   UNL A   1      42.618  27.149  27.453  1.00  0.00     0.049 A 
ATOM     37  N   UNL A   1      44.292  29.597  27.989  1.00  0.00    -0.248 NA
ATOM     38  C   UNL A   1      42.371  30.694  28.733  1.00  0.00     0.031 C 
ATOM     39  C   UNL A   1      41.861  25.923  27.199  1.00  0.00     0.029 A 
ATOM     40  N   UNL A   1      43.902  26.833  27.082  1.00  0.00    -0.354 N 
ATOM     41  C   UNL A   1      44.619  30.893  28.370  1.00  0.00     0.074 A 
ATOM     42  C   UNL A   1      43.394  31.534  28.791  1.00  0.00     0.031 C 
ATOM     43  C   UNL A   1      42.696  24.986  26.714  1.00  0.00     0.029 A 
ATOM     44  C   UNL A   1      44.041  25.551  26.605  1.00  0.00     0.049 A 
ATOM     45  H   UNL A   1      44.653  27.466  27.150  1.00  0.00     0.167 HD
ATOM     46  C   UNL A   1      45.832  31.494  28.378  1.00  0.00     0.031 A 
ATOM     47  C   UNL A   1      45.125  24.909  26.128  1.00  0.00     0.031 A 
ATOM     48  C   UNL A   1      47.055  30.854  27.975  1.00  0.00     0.049 A 
ATOM     49  C   UNL A   1      46.456  25.619  26.110  1.00  0.00     0.074 A 
ATOM     50  C   UNL A   1      48.339  31.369  27.996  1.00  0.00     0.029 A 
ATOM     51  N   UNL A   1      47.147  29.567  27.471  1.00  0.00    -0.354 N 
ATOM     52  N   UNL A   1      46.754  26.823  26.535  1.00  0.00    -0.248 NA
ATOM     53  C   UNL A   1      47.598  24.876  25.557  1.00  0.00     0.031 C 
ATOM     54  C   UNL A   1      49.202  30.412  27.451  1.00  0.00     0.029 A 
ATOM     55  C   UNL A   1      48.461  29.281  27.146  1.00  0.00     0.049 A 
ATOM     56  H   UNL A   1      46.389  28.946  27.361  1.00  0.00     0.167 HD
ATOM     57  C   UNL A   1      48.123  26.968  26.327  1.00  0.00     0.074 A 
ATOM     58  C   UNL A   1      48.596  25.726  25.756  1.00  0.00     0.031 C 
ATOM     59  C   UNL A   1      48.918  28.036  26.585  1.00  0.00     0.031 A 
BRANCH  46  60
ATOM     60  C   UNL A   1      45.907  32.931  28.819  1.00  0.00    -0.014 A 
ATOM     61  C   UNL A   1      46.189  33.270  30.153  1.00  0.00     0.010 A 
ATOM     62  C   UNL A   1      45.780  33.954  27.861  1.00  0.00     0.010 A 
ATOM     63  C   UNL A   1      46.331  34.609  30.525  1.00  0.00     0.020 A 
ATOM     64  C   UNL A   1      45.944  35.293  28.226  1.00  0.00     0.020 A 
ATOM     65  C   UNL A   1      46.213  35.612  29.558  1.00  0.00     0.054 A 
BRANCH  65  66
ATOM     66  S   UNL A   1      46.469  37.338  30.055  1.00  0.00     0.124 S 
ATOM     67  O   UNL A   1      46.841  37.194  31.461  1.00  0.00    -0.237 OA
ATOM     68  O   UNL A   1      47.541  37.772  29.164  1.00  0.00    -0.237 OA
ATOM     69  O   UNL A   1      45.171  37.966  29.816  1.00  0.00    -0.744 OA
ENDBRANCH  65  66
ENDBRANCH  46  60
BRANCH  47  70
ATOM     70  C   UNL A   1      45.008  23.522  25.596  1.00  0.00    -0.014 A 
ATOM     71  C   UNL A   1      45.125  22.409  26.447  1.00  0.00     0.010 A 
ATOM     72  C   UNL A   1      44.829  23.313  24.217  1.00  0.00     0.010 A 
ATOM     73  C   UNL A   1      45.108  21.112  25.922  1.00  0.00     0.020 A 
ATOM     74  C   UNL A   1      44.781  22.019  23.692  1.00  0.00     0.020 A 
ATOM     75  C   UNL A   1      44.943  20.926  24.546  1.00  0.00     0.054 A 
BRANCH  75  76
ATOM     76  S   UNL A   1      44.918  19.238  23.882  1.00  0.00     0.124 S 
ATOM     77  O   UNL A   1      44.401  19.451  22.534  1.00  0.00    -0.237 OA
ATOM     78  O   UNL A   1      46.322  18.842  23.968  1.00  0.00    -0.237 OA
ATOM     79  O   UNL A   1      44.023  18.529  24.793  1.00  0.00    -0.744 OA
ENDBRANCH  75  76
ENDBRANCH  47  70
BRANCH  59  80
ATOM     80  C   UNL A   1      50.387  27.899  26.285  1.00  0.00    -0.014 A 
ATOM     81  C   UNL A   1      50.908  28.244  25.026  1.00  0.00     0.010 A 
ATOM     82  C   UNL A   1      51.265  27.474  27.299  1.00  0.00     0.010 A 
ATOM     83  C   UNL A   1      52.278  28.129  24.774  1.00  0.00     0.020 A 
ATOM     84  C   UNL A   1      52.639  27.386  27.059  1.00  0.00     0.020 A 
ATOM     85  C   UNL A   1      53.135  27.700  25.792  1.00  0.00     0.054 A 
BRANCH  85  86
ATOM     86  S   UNL A   1      54.914  27.597  25.454  1.00  0.00     0.124 S 
ATOM     87  O   UNL A   1      55.285  29.005  25.349  1.00  0.00    -0.237 OA
ATOM     88  O   UNL A   1      55.426  26.899  26.631  1.00  0.00    -0.237 OA
ATOM     89  O   UNL A   1      54.986  26.838  24.207  1.00  0.00    -0.744 OA
ENDBRANCH  85  86
ENDBRANCH  59  80
ENDBRANCH  33  34
ENDBRANCH  26  28
ENDBRANCH  25  26
ENDBRANCH  24  25
ENDBRANCH  23  24
ENDBRANCH   1  23
TORSDOF 20
ENDMDL
MODEL 2
REMARK VINA RESULT:      -9.5      7.025     14.014
REMARK SMILES Cc1noc(C)c1CNc1cnc(C(=O)OCCOCCOC(=O)c2ccc(-c3c4nc(c(-c5ccc(S(=O)(=O)[O-])cc5)c5ccc([nH]5)c(-c5ccc(S(=O)(=O)[O-])cc5)c5nc(c(-c6ccc(S(=O)(=O)[O-])cc6)c6ccc3[nH]6)C=C5)C=C4)cc2)cn1
REMARK SMILES IDX 19 1 18 2 17 3 16 4 14 5 15 6 13 7 10 8 11 9 86 10 12 11
REMARK SMILES IDX 85 12 9 13 8 15 7 16 1 17 2 18 3 19 4 20 5 21 6 22 20 23
REMARK SMILES IDX 21 24 22 25 23 26 24 27 25 28 26 29 84 30 27 31 83 32 28 33
REMARK SMILES IDX 29 34 30 35 77 36 31 37 82 38 76 39 78 40 32 41 81 42 75 43
REMARK SMILES IDX 74 44 33 46 63 47 44 48 62 49 45 50 48 51 61 52 79 53 46 54
REMARK SMILES IDX 47 55 60 57 80 58 49 59 34 60 35 61 43 62 36 63 42 64 37 65
REMARK SMILES IDX 38 66 39 67 40 68 41 69 64 70 65 71 73 72 66 73 72 74 67 75
REMARK SMILES IDX 68 76 69 77 70 78 71 79 50 80 51 81 59 82 52 83 58 84 53 85
REMARK SMILES IDX 54 86 55 87 56 88 57 89
REMARK H PARENT 9 14 78 45 48 56
REMARK Flexibility Score: inf
ROOT
ATOM      1  O   UNL A   1      38.203  23.634  26.119  1.00  0.00    -0.374 OA
ENDROOT
BRANCH   1   2
ATOM      2  C   UNL A   1      37.435  23.035  25.072  1.00  0.00     0.202 C 
BRANCH   2   3
ATOM      3  C   UNL A   1      37.061  21.568  25.301  1.00  0.00     0.261 C 
BRANCH   3   4
ATOM      4  O   UNL A   1      35.870  21.466  26.100  1.00  0.00    -0.458 OA
BRANCH   4   5
ATOM      5  C   UNL A   1      34.710  21.381  25.408  1.00  0.00     0.358 C 
ATOM      6  O   UNL A   1      34.358  20.468  24.673  1.00  0.00    -0.244 OA
BRANCH   5   7
ATOM      7  C   UNL A   1      33.801  22.483  25.786  1.00  0.00     0.166 A 
ATOM      8  C   UNL A   1      31.984  24.358  26.483  1.00  0.00     0.144 A 
ATOM      9  C   UNL A   1      33.286  24.687  26.094  1.00  0.00     0.158 A 
ATOM     10  N   UNL A   1      31.610  23.068  26.594  1.00  0.00    -0.235 NA
ATOM     11  N   UNL A   1      34.226  23.771  25.743  1.00  0.00    -0.244 NA
ATOM     12  C   UNL A   1      32.530  22.143  26.221  1.00  0.00     0.149 A 
BRANCH   8  13
ATOM     13  N   UNL A   1      30.984  25.279  26.712  1.00  0.00    -0.365 N 
ATOM     14  H   UNL A   1      30.690  25.480  27.630  1.00  0.00     0.162 HD
BRANCH  13  15
ATOM     15  C   UNL A   1      30.374  25.947  25.574  1.00  0.00     0.156 C 
BRANCH  15  16
ATOM     16  C   UNL A   1      30.918  27.299  25.249  1.00  0.00     0.037 A 
ATOM     17  C   UNL A   1      31.730  28.187  27.584  1.00  0.00     0.071 C 
ATOM     18  C   UNL A   1      31.497  28.266  26.122  1.00  0.00     0.086 A 
ATOM     19  N   UNL A   1      31.863  29.368  25.457  1.00  0.00    -0.085 NA
ATOM     20  O   UNL A   1      31.519  29.147  24.141  1.00  0.00    -0.361 OA
ATOM     21  C   UNL A   1      30.955  27.920  24.019  1.00  0.00     0.138 A 
ATOM     22  C   UNL A   1      30.517  27.537  22.663  1.00  0.00     0.091 C 
ENDBRANCH  15  16
ENDBRANCH  13  15
ENDBRANCH   8  13
ENDBRANCH   5   7
ENDBRANCH   4   5
ENDBRANCH   3   4
ENDBRANCH   2   3
ENDBRANCH   1   2
BRANCH   1  23
ATOM     23  C   UNL A   1      39.274  22.851  26.651  1.00  0.00     0.202 C 
BRANCH  23  24
ATOM     24  C   UNL A   1      40.675  23.456  26.527  1.00  0.00     0.261 C 
BRANCH  24  25
ATOM     25  O   UNL A   1      40.879  24.510  27.484  1.00  0.00    -0.460 OA
BRANCH  25  26
ATOM     26  C   UNL A   1      40.696  25.757  26.992  1.00  0.00     0.338 C 
ATOM     27  O   UNL A   1      40.708  26.091  25.814  1.00  0.00    -0.246 OA
BRANCH  26  28
ATOM     28  C   UNL A   1      40.299  26.686  28.069  1.00  0.00     0.060 A 
ATOM     29  C   UNL A   1      40.972  27.912  28.126  1.00  0.00     0.016 A 
ATOM     30  C   UNL A   1      39.355  26.350  29.043  1.00  0.00     0.016 A 
ATOM     31  C   UNL A   1      40.764  28.773  29.200  1.00  0.00     0.010 A 
ATOM     32  C   UNL A   1      39.148  27.217  30.124  1.00  0.00     0.010 A 
ATOM     33  C   UNL A   1      39.888  28.408  30.232  1.00  0.00    -0.014 A 
BRANCH  33  34
ATOM     34  C   UNL A   1      39.894  29.205  31.484  1.00  0.00     0.031 A 
ATOM     35  C   UNL A   1      40.992  28.971  32.491  1.00  0.00     0.074 A 
ATOM     36  C   UNL A   1      38.984  30.175  31.690  1.00  0.00     0.049 A 
ATOM     37  N   UNL A   1      41.231  29.599  33.613  1.00  0.00    -0.248 NA
ATOM     38  C   UNL A   1      41.948  27.889  32.194  1.00  0.00     0.031 C 
ATOM     39  C   UNL A   1      37.890  30.517  30.780  1.00  0.00     0.029 A 
ATOM     40  N   UNL A   1      38.842  31.058  32.731  1.00  0.00    -0.354 N 
ATOM     41  C   UNL A   1      42.354  28.987  34.158  1.00  0.00     0.074 A 
ATOM     42  C   UNL A   1      42.736  27.921  33.259  1.00  0.00     0.031 C 
ATOM     43  C   UNL A   1      37.189  31.539  31.304  1.00  0.00     0.029 A 
ATOM     44  C   UNL A   1      37.772  31.910  32.593  1.00  0.00     0.049 A 
ATOM     45  H   UNL A   1      39.450  31.079  33.506  1.00  0.00     0.167 HD
ATOM     46  C   UNL A   1      43.015  29.291  35.300  1.00  0.00     0.031 A 
ATOM     47  C   UNL A   1      37.310  32.873  33.415  1.00  0.00     0.031 A 
ATOM     48  C   UNL A   1      42.647  30.361  36.187  1.00  0.00     0.049 A 
ATOM     49  C   UNL A   1      38.043  33.161  34.701  1.00  0.00     0.074 A 
ATOM     50  C   UNL A   1      43.287  30.775  37.343  1.00  0.00     0.029 A 
ATOM     51  N   UNL A   1      41.541  31.179  36.026  1.00  0.00    -0.354 N 
ATOM     52  N   UNL A   1      39.140  32.613  35.166  1.00  0.00    -0.248 NA
ATOM     53  C   UNL A   1      37.479  34.206  35.569  1.00  0.00     0.031 C 
ATOM     54  C   UNL A   1      42.535  31.808  37.911  1.00  0.00     0.029 A 
ATOM     55  C   UNL A   1      41.460  32.074  37.079  1.00  0.00     0.049 A 
ATOM     56  H   UNL A   1      40.906  31.132  35.274  1.00  0.00     0.167 HD
ATOM     57  C   UNL A   1      39.411  33.268  36.364  1.00  0.00     0.074 A 
ATOM     58  C   UNL A   1      38.376  34.262  36.543  1.00  0.00     0.031 C 
ATOM     59  C   UNL A   1      40.427  33.064  37.239  1.00  0.00     0.031 A 
BRANCH  46  60
ATOM     60  C   UNL A   1      44.200  28.445  35.678  1.00  0.00    -0.014 A 
ATOM     61  C   UNL A   1      45.508  28.826  35.331  1.00  0.00     0.010 A 
ATOM     62  C   UNL A   1      44.005  27.298  36.469  1.00  0.00     0.010 A 
ATOM     63  C   UNL A   1      46.600  28.067  35.759  1.00  0.00     0.020 A 
ATOM     64  C   UNL A   1      45.097  26.549  36.917  1.00  0.00     0.020 A 
ATOM     65  C   UNL A   1      46.388  26.936  36.554  1.00  0.00     0.054 A 
BRANCH  65  66
ATOM     66  S   UNL A   1      47.827  26.007  37.152  1.00  0.00     0.124 S 
ATOM     67  O   UNL A   1      48.930  26.894  36.788  1.00  0.00    -0.237 OA
ATOM     68  O   UNL A   1      47.562  25.892  38.583  1.00  0.00    -0.237 OA
ATOM     69  O   UNL A   1      47.766  24.752  36.406  1.00  0.00    -0.744 OA
ENDBRANCH  65  66
ENDBRANCH  46  60
BRANCH  47  70
ATOM     70  C   UNL A   1      36.072  33.627  33.073  1.00  0.00    -0.014 A 
ATOM     71  C   UNL A   1      36.140  34.885  32.447  1.00  0.00     0.010 A 
ATOM     72  C   UNL A   1      34.814  33.105  33.423  1.00  0.00     0.010 A 
ATOM     73  C   UNL A   1      34.975  35.624  32.217  1.00  0.00     0.020 A 
ATOM     74  C   UNL A   1      33.646  33.828  33.167  1.00  0.00     0.020 A 
ATOM     75  C   UNL A   1      33.735  35.093  32.586  1.00  0.00     0.054 A 
BRANCH  75  76
ATOM     76  S   UNL A   1      32.234  36.064  32.276  1.00  0.00     0.124 S 
ATOM     77  O   UNL A   1      31.182  35.101  32.584  1.00  0.00    -0.237 OA
ATOM     78  O   UNL A   1      32.374  37.174  33.216  1.00  0.00    -0.237 OA
ATOM     79  O   UNL A   1      32.354  36.434  30.867  1.00  0.00    -0.744 OA
ENDBRANCH  75  76
ENDBRANCH  47  70
BRANCH  59  80
ATOM     80  C   UNL A   1      40.491  33.954  38.452  1.00  0.00    -0.014 A 
ATOM     81  C   UNL A   1      39.888  33.576  39.665  1.00  0.00     0.010 A 
ATOM     82  C   UNL A   1      41.214  35.159  38.391  1.00  0.00     0.010 A 
ATOM     83  C   UNL A   1      39.977  34.406  40.785  1.00  0.00     0.020 A 
ATOM     84  C   UNL A   1      41.328  35.978  39.517  1.00  0.00     0.020 A 
ATOM     85  C   UNL A   1      40.696  35.603  40.704  1.00  0.00     0.054 A 
BRANCH  85  86
ATOM     86  S   UNL A   1      40.830  36.646  42.182  1.00  0.00     0.124 S 
ATOM     87  O   UNL A   1      41.771  37.673  41.746  1.00  0.00    -0.237 OA
ATOM     88  O   UNL A   1      39.455  37.098  42.383  1.00  0.00    -0.237 OA
ATOM     89  O   UNL A   1      41.334  35.732  43.205  1.00  0.00    -0.744 OA
ENDBRANCH  85  86
ENDBRANCH  59  80
ENDBRANCH  33  34
ENDBRANCH  26  28
ENDBRANCH  25  26
ENDBRANCH  24  25
ENDBRANCH  23  24
ENDBRANCH   1  23
TORSDOF 20
ENDMDL
MODEL 3
REMARK VINA RESULT:      -9.4      3.098      5.351
REMARK SMILES Cc1noc(C)c1CNc1cnc(C(=O)OCCOCCOC(=O)c2ccc(-c3c4nc(c(-c5ccc(S(=O)(=O)[O-])cc5)c5ccc([nH]5)c(-c5ccc(S(=O)(=O)[O-])cc5)c5nc(c(-c6ccc(S(=O)(=O)[O-])cc6)c6ccc3[nH]6)C=C5)C=C4)cc2)cn1
REMARK SMILES IDX 19 1 18 2 17 3 16 4 14 5 15 6 13 7 10 8 11 9 86 10 12 11
REMARK SMILES IDX 85 12 9 13 8 15 7 16 1 17 2 18 3 19 4 20 5 21 6 22 20 23
REMARK SMILES IDX 21 24 22 25 23 26 24 27 25 28 26 29 84 30 27 31 83 32 28 33
REMARK SMILES IDX 29 34 30 35 77 36 31 37 82 38 76 39 78 40 32 41 81 42 75 43
REMARK SMILES IDX 74 44 33 46 63 47 44 48 62 49 45 50 48 51 61 52 79 53 46 54
REMARK SMILES IDX 47 55 60 57 80 58 49 59 34 60 35 61 43 62 36 63 42 64 37 65
REMARK SMILES IDX 38 66 39 67 40 68 41 69 64 70 65 71 73 72 66 73 72 74 67 75
REMARK SMILES IDX 68 76 69 77 70 78 71 79 50 80 51 81 59 82 52 83 58 84 53 85
REMARK SMILES IDX 54 86 55 87 56 88 57 89
REMARK H PARENT 9 14 78 45 48 56
REMARK Flexibility Score: inf
ROOT
ATOM      1  O   UNL A   1      33.747  33.910  31.930  1.00  0.00    -0.374 OA
ENDROOT
BRANCH   1   2
ATOM      2  C   UNL A   1      34.230  35.079  31.262  1.00  0.00     0.202 C 
BRANCH   2   3
ATOM      3  C   UNL A   1      33.174  35.858  30.473  1.00  0.00     0.261 C 
BRANCH   3   4
ATOM      4  O   UNL A   1      32.571  35.025  29.470  1.00  0.00    -0.458 OA
BRANCH   4   5
ATOM      5  C   UNL A   1      33.369  34.696  28.429  1.00  0.00     0.358 C 
ATOM      6  O   UNL A   1      34.374  35.288  28.058  1.00  0.00    -0.244 OA
BRANCH   5   7
ATOM      7  C   UNL A   1      32.973  33.388  27.866  1.00  0.00     0.166 A 
ATOM      8  C   UNL A   1      32.443  30.932  26.872  1.00  0.00     0.144 A 
ATOM      9  C   UNL A   1      31.538  31.993  26.765  1.00  0.00     0.158 A 
ATOM     10  N   UNL A   1      33.596  31.085  27.551  1.00  0.00    -0.235 NA
ATOM     11  N   UNL A   1      31.770  33.238  27.257  1.00  0.00    -0.244 NA
ATOM     12  C   UNL A   1      33.853  32.330  28.025  1.00  0.00     0.149 A 
BRANCH   8  13
ATOM     13  N   UNL A   1      32.279  29.706  26.264  1.00  0.00    -0.365 N 
ATOM     14  H   UNL A   1      32.113  28.898  26.802  1.00  0.00     0.162 HD
BRANCH  13  15
ATOM     15  C   UNL A   1      32.355  29.628  24.814  1.00  0.00     0.156 C 
BRANCH  15  16
ATOM     16  C   UNL A   1      31.180  29.003  24.138  1.00  0.00     0.037 A 
ATOM     17  C   UNL A   1      31.913  26.494  23.874  1.00  0.00     0.071 C 
ATOM     18  C   UNL A   1      30.996  27.650  23.727  1.00  0.00     0.086 A 
ATOM     19  N   UNL A   1      29.805  27.473  23.143  1.00  0.00    -0.085 NA
ATOM     20  O   UNL A   1      29.194  28.709  23.149  1.00  0.00    -0.361 OA
ATOM     21  C   UNL A   1      30.012  29.617  23.737  1.00  0.00     0.138 A 
ATOM     22  C   UNL A   1      29.503  30.999  23.810  1.00  0.00     0.091 C 
ENDBRANCH  15  16
ENDBRANCH  13  15
ENDBRANCH   8  13
ENDBRANCH   5   7
ENDBRANCH   4   5
ENDBRANCH   3   4
ENDBRANCH   2   3
ENDBRANCH   1   2
BRANCH   1  23
ATOM     23  C   UNL A   1      34.338  32.668  31.545  1.00  0.00     0.202 C 
BRANCH  23  24
ATOM     24  C   UNL A   1      35.723  32.373  32.128  1.00  0.00     0.261 C 
BRANCH  24  25
ATOM     25  O   UNL A   1      36.541  31.643  31.197  1.00  0.00    -0.460 OA
BRANCH  25  26
ATOM     26  C   UNL A   1      37.161  30.562  31.723  1.00  0.00     0.338 C 
ATOM     27  O   UNL A   1      36.647  29.676  32.396  1.00  0.00    -0.246 OA
BRANCH  26  28
ATOM     28  C   UNL A   1      38.552  30.475  31.239  1.00  0.00     0.060 A 
ATOM     29  C   UNL A   1      38.769  30.764  29.886  1.00  0.00     0.016 A 
ATOM     30  C   UNL A   1      39.608  30.052  32.051  1.00  0.00     0.016 A 
ATOM     31  C   UNL A   1      40.025  30.555  29.321  1.00  0.00     0.010 A 
ATOM     32  C   UNL A   1      40.870  29.841  31.480  1.00  0.00     0.010 A 
ATOM     33  C   UNL A   1      41.069  30.044  30.103  1.00  0.00    -0.014 A 
BRANCH  33  34
ATOM     34  C   UNL A   1      42.302  29.574  29.422  1.00  0.00     0.031 A 
ATOM     35  C   UNL A   1      43.466  30.522  29.286  1.00  0.00     0.074 A 
ATOM     36  C   UNL A   1      42.414  28.301  29.001  1.00  0.00     0.049 A 
ATOM     37  N   UNL A   1      44.658  30.302  28.795  1.00  0.00    -0.248 NA
ATOM     38  C   UNL A   1      43.263  31.900  29.770  1.00  0.00     0.031 C 
ATOM     39  C   UNL A   1      41.371  27.279  29.100  1.00  0.00     0.029 A 
ATOM     40  N   UNL A   1      43.468  27.647  28.410  1.00  0.00    -0.354 N 
ATOM     41  C   UNL A   1      45.341  31.509  28.901  1.00  0.00     0.074 A 
ATOM     42  C   UNL A   1      44.426  32.466  29.480  1.00  0.00     0.031 C 
ATOM     43  C   UNL A   1      41.838  26.126  28.588  1.00  0.00     0.029 A 
ATOM     44  C   UNL A   1      43.205  26.332  28.109  1.00  0.00     0.049 A 
ATOM     45  H   UNL A   1      44.332  28.080  28.220  1.00  0.00     0.167 HD
ATOM     46  C   UNL A   1      46.619  31.792  28.557  1.00  0.00     0.031 A 
ATOM     47  C   UNL A   1      43.973  25.403  27.506  1.00  0.00     0.031 A 
ATOM     48  C   UNL A   1      47.537  30.838  27.996  1.00  0.00     0.049 A 
ATOM     49  C   UNL A   1      45.380  25.760  27.096  1.00  0.00     0.074 A 
ATOM     50  C   UNL A   1      48.867  31.022  27.662  1.00  0.00     0.029 A 
ATOM     51  N   UNL A   1      47.221  29.526  27.679  1.00  0.00    -0.354 N 
ATOM     52  N   UNL A   1      46.027  26.889  27.264  1.00  0.00    -0.248 NA
ATOM     53  C   UNL A   1      46.162  24.713  26.422  1.00  0.00     0.031 C 
ATOM     54  C   UNL A   1      49.341  29.837  27.090  1.00  0.00     0.029 A 
ATOM     55  C   UNL A   1      48.321  28.899  27.122  1.00  0.00     0.049 A 
ATOM     56  H   UNL A   1      46.344  29.103  27.829  1.00  0.00     0.167 HD
ATOM     57  C   UNL A   1      47.300  26.674  26.744  1.00  0.00     0.074 A 
ATOM     58  C   UNL A   1      47.337  25.307  26.273  1.00  0.00     0.031 C 
ATOM     59  C   UNL A   1      48.346  27.534  26.664  1.00  0.00     0.031 A 
BRANCH  46  60
ATOM     60  C   UNL A   1      47.109  33.201  28.756  1.00  0.00    -0.014 A 
ATOM     61  C   UNL A   1      47.213  34.094  27.676  1.00  0.00     0.010 A 
ATOM     62  C   UNL A   1      47.383  33.660  30.057  1.00  0.00     0.010 A 
ATOM     63  C   UNL A   1      47.595  35.421  27.892  1.00  0.00     0.020 A 
ATOM     64  C   UNL A   1      47.743  34.991  30.280  1.00  0.00     0.020 A 
ATOM     65  C   UNL A   1      47.854  35.862  29.194  1.00  0.00     0.054 A 
BRANCH  65  66
ATOM     66  S   UNL A   1      48.282  37.606  29.456  1.00  0.00     0.124 S 
ATOM     67  O   UNL A   1      47.906  37.802  30.854  1.00  0.00    -0.237 OA
ATOM     68  O   UNL A   1      49.716  37.628  29.183  1.00  0.00    -0.237 OA
ATOM     69  O   UNL A   1      47.455  38.317  28.483  1.00  0.00    -0.744 OA
ENDBRANCH  65  66
ENDBRANCH  46  60
BRANCH  47  70
ATOM     70  C   UNL A   1      43.431  24.045  27.222  1.00  0.00    -0.014 A 
ATOM     71  C   UNL A   1      42.938  23.713  25.948  1.00  0.00     0.010 A 
ATOM     72  C   UNL A   1      43.361  23.089  28.252  1.00  0.00     0.010 A 
ATOM     73  C   UNL A   1      42.346  22.466  25.720  1.00  0.00     0.020 A 
ATOM     74  C   UNL A   1      42.798  21.831  28.020  1.00  0.00     0.020 A 
ATOM     75  C   UNL A   1      42.274  21.536  26.761  1.00  0.00     0.054 A 
BRANCH  75  76
ATOM     76  S   UNL A   1      41.507  19.922  26.447  1.00  0.00     0.124 S 
ATOM     77  O   UNL A   1      40.131  20.296  26.137  1.00  0.00    -0.237 OA
ATOM     78  O   UNL A   1      42.292  19.409  25.327  1.00  0.00    -0.237 OA
ATOM     79  O   UNL A   1      41.694  19.207  27.707  1.00  0.00    -0.744 OA
ENDBRANCH  75  76
ENDBRANCH  47  70
BRANCH  59  80
ATOM     80  C   UNL A   1      49.631  27.015  26.076  1.00  0.00    -0.014 A 
ATOM     81  C   UNL A   1      49.902  27.133  24.701  1.00  0.00     0.010 A 
ATOM     82  C   UNL A   1      50.604  26.452  26.922  1.00  0.00     0.010 A 
ATOM     83  C   UNL A   1      51.110  26.663  24.178  1.00  0.00     0.020 A 
ATOM     84  C   UNL A   1      51.824  26.008  26.406  1.00  0.00     0.020 A 
ATOM     85  C   UNL A   1      52.063  26.102  25.034  1.00  0.00     0.054 A 
BRANCH  85  86
ATOM     86  S   UNL A   1      53.639  25.536  24.337  1.00  0.00     0.124 S 
ATOM     87  O   UNL A   1      53.601  24.104  24.624  1.00  0.00    -0.237 OA
ATOM     88  O   UNL A   1      53.516  25.897  22.927  1.00  0.00    -0.237 OA
ATOM     89  O   UNL A   1      54.640  26.295  25.083  1.00  0.00    -0.744 OA
ENDBRANCH  85  86
ENDBRANCH  59  80
ENDBRANCH  33  34
ENDBRANCH  26  28
ENDBRANCH  25  26
ENDBRANCH  24  25
ENDBRANCH  23  24
ENDBRANCH   1  23
TORSDOF 20
ENDMDL
