MODEL 1
REMARK VINA RESULT:     -12.4      0.000      0.000
REMARK SMILES C[N@@H+]1CCN(C(=O)c2ccc3[nH]c4c(c3c2)CSCC4)C[C@H]1C(=O)OCCOCCOC(=O)c1ccc(-c2c3nc(c(-c4ccc(S(=O)(=O)[O-])cc4)c4ccc([nH]4)c(-c4ccc(S(=O)(=O)[O-])cc4)c4nc(c(-c5ccc(S(=O)(=O)[O-])cc5)c5ccc2[nH]5)C=C4)C=C3)cc1
REMARK SMILES IDX 29 1 28 2 27 3 26 4 25 5 23 6 24 7 22 8 1 9 2 10 3 11 4 13
REMARK SMILES IDX 21 14 5 15 6 16 7 17 8 18 9 19 16 20 10 21 15 22 11 23 14 24
REMARK SMILES IDX 12 25 13 26 17 27 20 29 18 30 19 31 30 32 31 33 32 34 33 35
REMARK SMILES IDX 34 36 35 37 93 38 36 39 92 40 37 41 38 42 39 43 86 44 40 45
REMARK SMILES IDX 91 46 85 47 87 48 41 49 90 50 84 51 83 52 42 54 72 55 53 56
REMARK SMILES IDX 71 57 54 58 57 59 70 60 88 61 55 62 56 63 69 65 89 66 58 67
REMARK SMILES IDX 43 68 44 69 52 70 45 71 51 72 46 73 47 74 48 75 49 76 50 77
REMARK SMILES IDX 73 78 74 79 82 80 75 81 81 82 76 83 77 84 78 85 79 86 80 87
REMARK SMILES IDX 59 88 60 89 68 90 61 91 67 92 62 93 63 94 64 95 65 96 66 97
REMARK H PARENT 2 12 12 28 87 53 57 64
REMARK Flexibility Score: inf
ROOT
ATOM      1  C   UNL A   1      41.376  21.120  26.551  1.00  0.00     0.202 C 
ENDROOT
BRANCH   1   2
ATOM      2  O   UNL A   1      40.569  22.028  27.300  1.00  0.00    -0.374 OA
BRANCH   2   3
ATOM      3  C   UNL A   1      39.507  22.692  26.625  1.00  0.00     0.202 C 
BRANCH   3   4
ATOM      4  C   UNL A   1      38.476  21.889  25.815  1.00  0.00     0.261 C 
BRANCH   4   5
ATOM      5  O   UNL A   1      37.114  22.343  25.877  1.00  0.00    -0.459 OA
BRANCH   5   6
ATOM      6  C   UNL A   1      36.498  22.316  24.668  1.00  0.00     0.366 C 
ATOM      7  O   UNL A   1      37.059  21.999  23.618  1.00  0.00    -0.245 OA
BRANCH   6   8
ATOM      8  C   UNL A   1      35.058  22.777  24.645  1.00  0.00     0.314 C 
ATOM      9  C   UNL A   1      34.026  20.654  25.417  1.00  0.00     0.333 C 
ATOM     10  N   UNL A   1      34.015  22.104  25.492  1.00  0.00    -0.323 N 
ATOM     11  C   UNL A   1      32.693  22.620  25.027  1.00  0.00     0.284 C 
ATOM     12  H   UNL A   1      34.208  22.321  26.470  1.00  0.00     0.348 HD
ATOM     13  C   UNL A   1      32.583  24.163  25.080  1.00  0.00     0.181 C 
ATOM     14  C   UNL A   1      35.034  24.279  24.967  1.00  0.00     0.197 C 
ATOM     15  N   UNL A   1      33.752  24.816  24.490  1.00  0.00    -0.326 N 
BRANCH  15  16
ATOM     16  C   UNL A   1      33.601  25.796  23.522  1.00  0.00     0.254 C 
ATOM     17  O   UNL A   1      33.865  25.629  22.334  1.00  0.00    -0.269 OA
BRANCH  16  18
ATOM     18  C   UNL A   1      33.051  27.102  23.941  1.00  0.00     0.040 A 
ATOM     19  C   UNL A   1      33.642  27.837  24.974  1.00  0.00     0.016 A 
ATOM     20  C   UNL A   1      31.890  27.543  23.298  1.00  0.00     0.024 A 
ATOM     21  C   UNL A   1      33.046  29.017  25.430  1.00  0.00     0.027 A 
ATOM     22  C   UNL A   1      31.299  28.747  23.719  1.00  0.00     0.004 A 
ATOM     23  C   UNL A   1      31.878  29.446  24.784  1.00  0.00     0.046 A 
ATOM     24  C   UNL A   1      30.143  29.476  23.303  1.00  0.00    -0.009 A 
ATOM     25  N   UNL A   1      31.061  30.526  25.040  1.00  0.00    -0.358 N 
ATOM     26  C   UNL A   1      30.095  30.614  24.077  1.00  0.00     0.021 A 
ATOM     27  C   UNL A   1      29.159  29.086  22.254  1.00  0.00     0.107 C 
ATOM     28  H   UNL A   1      31.159  31.142  25.802  1.00  0.00     0.166 HD
ATOM     29  C   UNL A   1      29.107  31.716  23.982  1.00  0.00     0.065 C 
ATOM     30  S   UNL A   1      27.915  30.349  21.797  1.00  0.00    -0.157 SA
ATOM     31  C   UNL A   1      28.638  31.862  22.533  1.00  0.00     0.076 C 
ENDBRANCH  16  18
ENDBRANCH  15  16
ENDBRANCH   6   8
ENDBRANCH   5   6
ENDBRANCH   4   5
ENDBRANCH   3   4
ENDBRANCH   2   3
ENDBRANCH   1   2
BRANCH   1  32
ATOM     32  C   UNL A   1      42.721  21.622  25.999  1.00  0.00     0.261 C 
BRANCH  32  33
ATOM     33  O   UNL A   1      42.528  22.658  25.026  1.00  0.00    -0.460 OA
BRANCH  33  34
ATOM     34  C   UNL A   1      43.458  23.647  25.087  1.00  0.00     0.338 C 
ATOM     35  O   UNL A   1      44.402  23.814  24.332  1.00  0.00    -0.246 OA
BRANCH  34  36
ATOM     36  C   UNL A   1      42.869  24.692  25.944  1.00  0.00     0.060 A 
ATOM     37  C   UNL A   1      41.823  25.496  25.489  1.00  0.00     0.016 A 
ATOM     38  C   UNL A   1      43.589  25.029  27.102  1.00  0.00     0.016 A 
ATOM     39  C   UNL A   1      41.529  26.666  26.184  1.00  0.00     0.010 A 
ATOM     40  C   UNL A   1      43.310  26.215  27.775  1.00  0.00     0.010 A 
ATOM     41  C   UNL A   1      42.290  27.046  27.308  1.00  0.00    -0.014 A 
BRANCH  41  42
ATOM     42  C   UNL A   1      41.822  28.199  28.086  1.00  0.00     0.031 A 
ATOM     43  C   UNL A   1      42.756  29.359  28.037  1.00  0.00     0.074 A 
ATOM     44  C   UNL A   1      40.623  28.381  28.678  1.00  0.00     0.049 A 
ATOM     45  N   UNL A   1      43.400  29.909  29.012  1.00  0.00    -0.248 NA
ATOM     46  C   UNL A   1      43.085  29.898  26.708  1.00  0.00     0.031 C 
ATOM     47  C   UNL A   1      39.418  27.557  28.588  1.00  0.00     0.029 A 
ATOM     48  N   UNL A   1      40.211  29.447  29.432  1.00  0.00    -0.354 N 
ATOM     49  C   UNL A   1      44.112  30.966  28.450  1.00  0.00     0.074 A 
ATOM     50  C   UNL A   1      43.975  30.839  27.021  1.00  0.00     0.031 C 
ATOM     51  C   UNL A   1      38.361  28.259  29.068  1.00  0.00     0.029 A 
ATOM     52  C   UNL A   1      38.839  29.512  29.634  1.00  0.00     0.049 A 
ATOM     53  H   UNL A   1      40.836  30.113  29.802  1.00  0.00     0.167 HD
ATOM     54  C   UNL A   1      44.647  31.971  29.197  1.00  0.00     0.031 A 
ATOM     55  C   UNL A   1      38.150  30.546  30.178  1.00  0.00     0.031 A 
ATOM     56  C   UNL A   1      44.705  31.641  30.593  1.00  0.00     0.049 A 
ATOM     57  C   UNL A   1      39.093  31.356  30.982  1.00  0.00     0.074 A 
ATOM     58  C   UNL A   1      45.358  30.686  31.344  1.00  0.00     0.029 A 
ATOM     59  N   UNL A   1      43.729  32.166  31.404  1.00  0.00    -0.354 N 
ATOM     60  N   UNL A   1      39.652  30.946  32.084  1.00  0.00    -0.248 NA
ATOM     61  C   UNL A   1      39.670  32.556  30.399  1.00  0.00     0.031 C 
ATOM     62  C   UNL A   1      44.467  30.374  32.410  1.00  0.00     0.029 A 
ATOM     63  C   UNL A   1      43.332  31.178  32.268  1.00  0.00     0.049 A 
ATOM     64  H   UNL A   1      43.379  33.085  31.371  1.00  0.00     0.167 HD
ATOM     65  C   UNL A   1      40.888  31.568  32.106  1.00  0.00     0.074 A 
ATOM     66  C   UNL A   1      40.782  32.647  31.130  1.00  0.00     0.031 C 
ATOM     67  C   UNL A   1      41.963  30.979  32.706  1.00  0.00     0.031 A 
BRANCH  54  68
ATOM     68  C   UNL A   1      44.853  33.375  28.692  1.00  0.00    -0.014 A 
ATOM     69  C   UNL A   1      43.798  34.299  28.552  1.00  0.00     0.010 A 
ATOM     70  C   UNL A   1      46.164  33.882  28.575  1.00  0.00     0.010 A 
ATOM     71  C   UNL A   1      44.026  35.648  28.279  1.00  0.00     0.020 A 
ATOM     72  C   UNL A   1      46.406  35.244  28.350  1.00  0.00     0.020 A 
ATOM     73  C   UNL A   1      45.331  36.117  28.195  1.00  0.00     0.054 A 
BRANCH  73  74
ATOM     74  S   UNL A   1      45.585  37.894  27.970  1.00  0.00     0.124 S 
ATOM     75  O   UNL A   1      44.722  38.454  29.007  1.00  0.00    -0.237 OA
ATOM     76  O   UNL A   1      47.020  38.036  28.201  1.00  0.00    -0.237 OA
ATOM     77  O   UNL A   1      45.149  38.132  26.597  1.00  0.00    -0.744 OA
ENDBRANCH  73  74
ENDBRANCH  54  68
BRANCH  55  78
ATOM     78  C   UNL A   1      36.821  31.090  29.801  1.00  0.00    -0.014 A 
ATOM     79  C   UNL A   1      36.555  31.399  28.454  1.00  0.00     0.010 A 
ATOM     80  C   UNL A   1      35.969  31.634  30.785  1.00  0.00     0.010 A 
ATOM     81  C   UNL A   1      35.542  32.301  28.106  1.00  0.00     0.020 A 
ATOM     82  C   UNL A   1      34.954  32.540  30.444  1.00  0.00     0.020 A 
ATOM     83  C   UNL A   1      34.776  32.900  29.107  1.00  0.00     0.054 A 
BRANCH  83  84
ATOM     84  S   UNL A   1      33.631  34.228  28.635  1.00  0.00     0.124 S 
ATOM     85  O   UNL A   1      33.105  34.649  29.931  1.00  0.00    -0.237 OA
ATOM     86  O   UNL A   1      34.516  35.187  27.977  1.00  0.00    -0.237 OA
ATOM     87  O   UNL A   1      32.672  33.566  27.755  1.00  0.00    -0.744 OA
ENDBRANCH  83  84
ENDBRANCH  55  78
BRANCH  67  88
ATOM     88  C   UNL A   1      41.723  29.830  33.661  1.00  0.00    -0.014 A 
ATOM     89  C   UNL A   1      41.662  30.125  35.037  1.00  0.00     0.010 A 
ATOM     90  C   UNL A   1      41.729  28.476  33.269  1.00  0.00     0.010 A 
ATOM     91  C   UNL A   1      41.645  29.106  35.991  1.00  0.00     0.020 A 
ATOM     92  C   UNL A   1      41.680  27.449  34.220  1.00  0.00     0.020 A 
ATOM     93  C   UNL A   1      41.666  27.774  35.577  1.00  0.00     0.054 A 
BRANCH  93  94
ATOM     94  S   UNL A   1      41.714  26.478  36.839  1.00  0.00     0.124 S 
ATOM     95  O   UNL A   1      40.501  26.757  37.602  1.00  0.00    -0.237 OA
ATOM     96  O   UNL A   1      41.691  25.251  36.044  1.00  0.00    -0.237 OA
ATOM     97  O   UNL A   1      42.971  26.718  37.550  1.00  0.00    -0.744 OA
ENDBRANCH  93  94
ENDBRANCH  67  88
ENDBRANCH  41  42
ENDBRANCH  34  36
ENDBRANCH  33  34
ENDBRANCH  32  33
ENDBRANCH   1  32
TORSDOF 19
ENDMDL
MODEL 2
REMARK VINA RESULT:     -12.0      1.444      1.906
REMARK SMILES C[N@@H+]1CCN(C(=O)c2ccc3[nH]c4c(c3c2)CSCC4)C[C@H]1C(=O)OCCOCCOC(=O)c1ccc(-c2c3nc(c(-c4ccc(S(=O)(=O)[O-])cc4)c4ccc([nH]4)c(-c4ccc(S(=O)(=O)[O-])cc4)c4nc(c(-c5ccc(S(=O)(=O)[O-])cc5)c5ccc2[nH]5)C=C4)C=C3)cc1
REMARK SMILES IDX 29 1 28 2 27 3 26 4 25 5 23 6 24 7 22 8 1 9 2 10 3 11 4 13
REMARK SMILES IDX 21 14 5 15 6 16 7 17 8 18 9 19 16 20 10 21 15 22 11 23 14 24
REMARK SMILES IDX 12 25 13 26 17 27 20 29 18 30 19 31 30 32 31 33 32 34 33 35
REMARK SMILES IDX 34 36 35 37 93 38 36 39 92 40 37 41 38 42 39 43 86 44 40 45
REMARK SMILES IDX 91 46 85 47 87 48 41 49 90 50 84 51 83 52 42 54 72 55 53 56
REMARK SMILES IDX 71 57 54 58 57 59 70 60 88 61 55 62 56 63 69 65 89 66 58 67
REMARK SMILES IDX 43 68 44 69 52 70 45 71 51 72 46 73 47 74 48 75 49 76 50 77
REMARK SMILES IDX 73 78 74 79 82 80 75 81 81 82 76 83 77 84 78 85 79 86 80 87
REMARK SMILES IDX 59 88 60 89 68 90 61 91 67 92 62 93 63 94 64 95 65 96 66 97
REMARK H PARENT 2 12 12 28 87 53 57 64
REMARK Flexibility Score: inf
ROOT
ATOM      1  C   UNL A   1      40.794  21.521  26.635  1.00  0.00     0.202 C 
ENDROOT
BRANCH   1   2
ATOM      2  O   UNL A   1      40.187  20.247  26.425  1.00  0.00    -0.374 OA
BRANCH   2   3
ATOM      3  C   UNL A   1      39.225  20.128  25.383  1.00  0.00     0.202 C 
BRANCH   3   4
ATOM      4  C   UNL A   1      37.998  21.054  25.346  1.00  0.00     0.261 C 
BRANCH   4   5
ATOM      5  O   UNL A   1      36.786  20.497  24.809  1.00  0.00    -0.459 OA
BRANCH   5   6
ATOM      6  C   UNL A   1      35.672  21.058  25.342  1.00  0.00     0.366 C 
ATOM      7  O   UNL A   1      35.591  21.454  26.506  1.00  0.00    -0.245 OA
BRANCH   6   8
ATOM      8  C   UNL A   1      34.459  21.116  24.439  1.00  0.00     0.314 C 
ATOM      9  C   UNL A   1      33.812  18.724  24.615  1.00  0.00     0.333 C 
ATOM     10  N   UNL A   1      33.357  20.102  24.558  1.00  0.00    -0.323 N 
ATOM     11  C   UNL A   1      32.478  20.290  23.366  1.00  0.00     0.284 C 
ATOM     12  H   UNL A   1      32.872  20.259  25.442  1.00  0.00     0.348 HD
ATOM     13  C   UNL A   1      31.934  21.732  23.225  1.00  0.00     0.181 C 
ATOM     14  C   UNL A   1      33.836  22.514  24.570  1.00  0.00     0.197 C 
ATOM     15  N   UNL A   1      32.988  22.734  23.390  1.00  0.00    -0.326 N 
BRANCH  15  16
ATOM     16  C   UNL A   1      33.166  23.734  22.447  1.00  0.00     0.254 C 
ATOM     17  O   UNL A   1      33.735  23.564  21.371  1.00  0.00    -0.269 OA
BRANCH  16  18
ATOM     18  C   UNL A   1      32.602  25.068  22.739  1.00  0.00     0.040 A 
ATOM     19  C   UNL A   1      31.638  25.643  21.907  1.00  0.00     0.016 A 
ATOM     20  C   UNL A   1      33.114  25.748  23.850  1.00  0.00     0.024 A 
ATOM     21  C   UNL A   1      31.196  26.951  22.138  1.00  0.00     0.027 A 
ATOM     22  C   UNL A   1      32.652  27.050  24.117  1.00  0.00     0.004 A 
ATOM     23  C   UNL A   1      31.720  27.626  23.248  1.00  0.00     0.046 A 
ATOM     24  C   UNL A   1      32.948  28.010  25.132  1.00  0.00    -0.009 A 
ATOM     25  N   UNL A   1      31.510  28.914  23.691  1.00  0.00    -0.358 N 
ATOM     26  C   UNL A   1      32.146  29.103  24.886  1.00  0.00     0.021 A 
ATOM     27  C   UNL A   1      33.940  27.882  26.236  1.00  0.00     0.107 C 
ATOM     28  H   UNL A   1      30.980  29.596  23.217  1.00  0.00     0.166 HD
ATOM     29  C   UNL A   1      32.048  30.339  25.699  1.00  0.00     0.065 C 
ATOM     30  S   UNL A   1      33.916  29.198  27.508  1.00  0.00    -0.157 SA
ATOM     31  C   UNL A   1      32.309  30.008  27.170  1.00  0.00     0.076 C 
ENDBRANCH  16  18
ENDBRANCH  15  16
ENDBRANCH   6   8
ENDBRANCH   5   6
ENDBRANCH   4   5
ENDBRANCH   3   4
ENDBRANCH   2   3
ENDBRANCH   1   2
BRANCH   1  32
ATOM     32  C   UNL A   1      42.236  21.733  26.146  1.00  0.00     0.261 C 
BRANCH  32  33
ATOM     33  O   UNL A   1      42.281  22.653  25.046  1.00  0.00    -0.460 OA
BRANCH  33  34
ATOM     34  C   UNL A   1      43.263  23.586  25.151  1.00  0.00     0.338 C 
ATOM     35  O   UNL A   1      44.249  23.698  24.441  1.00  0.00    -0.246 OA
BRANCH  34  36
ATOM     36  C   UNL A   1      42.697  24.664  25.983  1.00  0.00     0.060 A 
ATOM     37  C   UNL A   1      41.698  25.506  25.493  1.00  0.00     0.016 A 
ATOM     38  C   UNL A   1      43.401  24.983  27.156  1.00  0.00     0.016 A 
ATOM     39  C   UNL A   1      41.436  26.695  26.169  1.00  0.00     0.010 A 
ATOM     40  C   UNL A   1      43.155  26.188  27.809  1.00  0.00     0.010 A 
ATOM     41  C   UNL A   1      42.183  27.055  27.308  1.00  0.00    -0.014 A 
BRANCH  41  42
ATOM     42  C   UNL A   1      41.745  28.235  28.063  1.00  0.00     0.031 A 
ATOM     43  C   UNL A   1      42.691  29.381  27.962  1.00  0.00     0.074 A 
ATOM     44  C   UNL A   1      40.561  28.449  28.674  1.00  0.00     0.049 A 
ATOM     45  N   UNL A   1      43.362  29.951  28.907  1.00  0.00    -0.248 NA
ATOM     46  C   UNL A   1      42.999  29.880  26.612  1.00  0.00     0.031 C 
ATOM     47  C   UNL A   1      39.344  27.636  28.632  1.00  0.00     0.029 A 
ATOM     48  N   UNL A   1      40.177  29.540  29.405  1.00  0.00    -0.354 N 
ATOM     49  C   UNL A   1      44.074  30.983  28.302  1.00  0.00     0.074 A 
ATOM     50  C   UNL A   1      43.906  30.818  26.880  1.00  0.00     0.031 C 
ATOM     51  C   UNL A   1      38.306  28.365  29.113  1.00  0.00     0.029 A 
ATOM     52  C   UNL A   1      38.810  29.627  29.633  1.00  0.00     0.049 A 
ATOM     53  H   UNL A   1      40.817  30.208  29.743  1.00  0.00     0.167 HD
ATOM     54  C   UNL A   1      44.636  32.002  29.009  1.00  0.00     0.031 A 
ATOM     55  C   UNL A   1      38.144  30.685  30.161  1.00  0.00     0.031 A 
ATOM     56  C   UNL A   1      44.718  31.710  30.413  1.00  0.00     0.049 A 
ATOM     57  C   UNL A   1      39.113  31.505  30.923  1.00  0.00     0.074 A 
ATOM     58  C   UNL A   1      45.376  30.769  31.177  1.00  0.00     0.029 A 
ATOM     59  N   UNL A   1      43.766  32.270  31.228  1.00  0.00    -0.354 N 
ATOM     60  N   UNL A   1      39.689  31.120  32.025  1.00  0.00    -0.248 NA
ATOM     61  C   UNL A   1      39.692  32.682  30.294  1.00  0.00     0.031 C 
ATOM     62  C   UNL A   1      44.503  30.498  32.269  1.00  0.00     0.029 A 
ATOM     63  C   UNL A   1      43.375  31.311  32.128  1.00  0.00     0.049 A 
ATOM     64  H   UNL A   1      43.426  33.192  31.176  1.00  0.00     0.167 HD
ATOM     65  C   UNL A   1      40.933  31.727  32.003  1.00  0.00     0.074 A 
ATOM     66  C   UNL A   1      40.820  32.779  31.000  1.00  0.00     0.031 C 
ATOM     67  C   UNL A   1      42.013  31.142  32.598  1.00  0.00     0.031 A 
BRANCH  54  68
ATOM     68  C   UNL A   1      44.848  33.389  28.461  1.00  0.00    -0.014 A 
ATOM     69  C   UNL A   1      43.785  34.216  28.045  1.00  0.00     0.010 A 
ATOM     70  C   UNL A   1      46.117  33.991  28.578  1.00  0.00     0.010 A 
ATOM     71  C   UNL A   1      43.974  35.563  27.731  1.00  0.00     0.020 A 
ATOM     72  C   UNL A   1      46.309  35.354  28.313  1.00  0.00     0.020 A 
ATOM     73  C   UNL A   1      45.234  36.129  27.883  1.00  0.00     0.054 A 
BRANCH  73  74
ATOM     74  S   UNL A   1      45.410  37.906  27.592  1.00  0.00     0.124 S 
ATOM     75  O   UNL A   1      45.613  38.413  28.946  1.00  0.00    -0.237 OA
ATOM     76  O   UNL A   1      46.577  37.966  26.716  1.00  0.00    -0.237 OA
ATOM     77  O   UNL A   1      44.143  38.279  26.967  1.00  0.00    -0.744 OA
ENDBRANCH  73  74
ENDBRANCH  54  68
BRANCH  55  78
ATOM     78  C   UNL A   1      36.814  31.234  29.796  1.00  0.00    -0.014 A 
ATOM     79  C   UNL A   1      36.577  31.656  28.474  1.00  0.00     0.010 A 
ATOM     80  C   UNL A   1      35.925  31.672  30.799  1.00  0.00     0.010 A 
ATOM     81  C   UNL A   1      35.554  32.565  28.178  1.00  0.00     0.020 A 
ATOM     82  C   UNL A   1      34.899  32.586  30.510  1.00  0.00     0.020 A 
ATOM     83  C   UNL A   1      34.750  33.058  29.206  1.00  0.00     0.054 A 
BRANCH  83  84
ATOM     84  S   UNL A   1      33.589  34.400  28.819  1.00  0.00     0.124 S 
ATOM     85  O   UNL A   1      33.016  34.692  30.131  1.00  0.00    -0.237 OA
ATOM     86  O   UNL A   1      34.471  35.433  28.278  1.00  0.00    -0.237 OA
ATOM     87  O   UNL A   1      32.671  33.801  27.855  1.00  0.00    -0.744 OA
ENDBRANCH  83  84
ENDBRANCH  55  78
BRANCH  67  88
ATOM     88  C   UNL A   1      41.780  30.023  33.590  1.00  0.00    -0.014 A 
ATOM     89  C   UNL A   1      41.971  30.309  34.956  1.00  0.00     0.010 A 
ATOM     90  C   UNL A   1      41.552  28.684  33.215  1.00  0.00     0.010 A 
ATOM     91  C   UNL A   1      41.972  29.291  35.911  1.00  0.00     0.020 A 
ATOM     92  C   UNL A   1      41.520  27.661  34.172  1.00  0.00     0.020 A 
ATOM     93  C   UNL A   1      41.758  27.971  35.512  1.00  0.00     0.054 A 
BRANCH  93  94
ATOM     94  S   UNL A   1      41.836  26.667  36.764  1.00  0.00     0.124 S 
ATOM     95  O   UNL A   1      40.564  26.843  37.459  1.00  0.00    -0.237 OA
ATOM     96  O   UNL A   1      41.951  25.453  35.958  1.00  0.00    -0.237 OA
ATOM     97  O   UNL A   1      43.029  26.994  37.546  1.00  0.00    -0.744 OA
ENDBRANCH  93  94
ENDBRANCH  67  88
ENDBRANCH  41  42
ENDBRANCH  34  36
ENDBRANCH  33  34
ENDBRANCH  32  33
ENDBRANCH   1  32
TORSDOF 19
ENDMDL
MODEL 3
REMARK VINA RESULT:     -11.4      3.034     10.001
REMARK SMILES C[N@@H+]1CCN(C(=O)c2ccc3[nH]c4c(c3c2)CSCC4)C[C@H]1C(=O)OCCOCCOC(=O)c1ccc(-c2c3nc(c(-c4ccc(S(=O)(=O)[O-])cc4)c4ccc([nH]4)c(-c4ccc(S(=O)(=O)[O-])cc4)c4nc(c(-c5ccc(S(=O)(=O)[O-])cc5)c5ccc2[nH]5)C=C4)C=C3)cc1
REMARK SMILES IDX 29 1 28 2 27 3 26 4 25 5 23 6 24 7 22 8 1 9 2 10 3 11 4 13
REMARK SMILES IDX 21 14 5 15 6 16 7 17 8 18 9 19 16 20 10 21 15 22 11 23 14 24
REMARK SMILES IDX 12 25 13 26 17 27 20 29 18 30 19 31 30 32 31 33 32 34 33 35
REMARK SMILES IDX 34 36 35 37 93 38 36 39 92 40 37 41 38 42 39 43 86 44 40 45
REMARK SMILES IDX 91 46 85 47 87 48 41 49 90 50 84 51 83 52 42 54 72 55 53 56
REMARK SMILES IDX 71 57 54 58 57 59 70 60 88 61 55 62 56 63 69 65 89 66 58 67
REMARK SMILES IDX 43 68 44 69 52 70 45 71 51 72 46 73 47 74 48 75 49 76 50 77
REMARK SMILES IDX 73 78 74 79 82 80 75 81 81 82 76 83 77 84 78 85 79 86 80 87
REMARK SMILES IDX 59 88 60 89 68 90 61 91 67 92 62 93 63 94 64 95 65 96 66 97
REMARK H PARENT 2 12 12 28 87 53 57 64
REMARK Flexibility Score: inf
ROOT
ATOM      1  C   UNL A   1      34.498  32.600  27.950  1.00  0.00     0.202 C 
ENDROOT
BRANCH   1   2
ATOM      2  O   UNL A   1      33.757  31.383  28.037  1.00  0.00    -0.374 OA
BRANCH   2   3
ATOM      3  C   UNL A   1      34.264  30.241  27.356  1.00  0.00     0.202 C 
BRANCH   3   4
ATOM      4  C   UNL A   1      33.510  29.654  26.151  1.00  0.00     0.261 C 
BRANCH   4   5
ATOM      5  O   UNL A   1      34.029  28.432  25.600  1.00  0.00    -0.459 OA
BRANCH   5   6
ATOM      6  C   UNL A   1      33.524  28.157  24.371  1.00  0.00     0.366 C 
ATOM      7  O   UNL A   1      34.067  28.487  23.315  1.00  0.00    -0.245 OA
BRANCH   6   8
ATOM      8  C   UNL A   1      32.179  27.467  24.344  1.00  0.00     0.314 C 
ATOM      9  C   UNL A   1      30.934  29.234  23.119  1.00  0.00     0.333 C 
ATOM     10  N   UNL A   1      31.154  27.809  23.300  1.00  0.00    -0.323 N 
ATOM     11  C   UNL A   1      29.880  27.157  23.726  1.00  0.00     0.284 C 
ATOM     12  H   UNL A   1      31.492  27.475  22.397  1.00  0.00     0.348 HD
ATOM     13  C   UNL A   1      30.013  25.629  23.936  1.00  0.00     0.181 C 
ATOM     14  C   UNL A   1      32.423  25.951  24.291  1.00  0.00     0.197 C 
ATOM     15  N   UNL A   1      31.190  25.287  24.736  1.00  0.00    -0.326 N 
BRANCH  15  16
ATOM     16  C   UNL A   1      31.076  24.462  25.844  1.00  0.00     0.254 C 
ATOM     17  O   UNL A   1      30.232  24.613  26.723  1.00  0.00    -0.269 OA
BRANCH  16  18
ATOM     18  C   UNL A   1      31.998  23.312  25.948  1.00  0.00     0.040 A 
ATOM     19  C   UNL A   1      32.992  23.270  26.931  1.00  0.00     0.016 A 
ATOM     20  C   UNL A   1      31.868  22.300  24.991  1.00  0.00     0.024 A 
ATOM     21  C   UNL A   1      33.924  22.227  26.946  1.00  0.00     0.027 A 
ATOM     22  C   UNL A   1      32.775  21.225  25.016  1.00  0.00     0.004 A 
ATOM     23  C   UNL A   1      33.790  21.222  25.979  1.00  0.00     0.046 A 
ATOM     24  C   UNL A   1      32.935  20.053  24.216  1.00  0.00    -0.009 A 
ATOM     25  N   UNL A   1      34.572  20.116  25.725  1.00  0.00    -0.358 N 
ATOM     26  C   UNL A   1      33.991  19.351  24.753  1.00  0.00     0.021 A 
ATOM     27  C   UNL A   1      32.140  19.661  23.019  1.00  0.00     0.107 C 
ATOM     28  H   UNL A   1      35.422  19.908  26.177  1.00  0.00     0.166 HD
ATOM     29  C   UNL A   1      34.508  18.035  24.304  1.00  0.00     0.065 C 
ATOM     30  S   UNL A   1      32.446  17.984  22.353  1.00  0.00    -0.157 SA
ATOM     31  C   UNL A   1      33.361  17.201  23.733  1.00  0.00     0.076 C 
ENDBRANCH  16  18
ENDBRANCH  15  16
ENDBRANCH   6   8
ENDBRANCH   5   6
ENDBRANCH   4   5
ENDBRANCH   3   4
ENDBRANCH   2   3
ENDBRANCH   1   2
BRANCH   1  32
ATOM     32  C   UNL A   1      34.430  33.583  29.130  1.00  0.00     0.261 C 
BRANCH  32  33
ATOM     33  O   UNL A   1      35.580  33.457  29.979  1.00  0.00    -0.460 OA
BRANCH  33  34
ATOM     34  C   UNL A   1      35.470  32.473  30.909  1.00  0.00     0.338 C 
ATOM     35  O   UNL A   1      34.442  32.046  31.408  1.00  0.00    -0.246 OA
BRANCH  34  36
ATOM     36  C   UNL A   1      36.752  31.746  30.869  1.00  0.00     0.060 A 
ATOM     37  C   UNL A   1      37.970  32.426  30.895  1.00  0.00     0.016 A 
ATOM     38  C   UNL A   1      36.689  30.388  30.514  1.00  0.00     0.016 A 
ATOM     39  C   UNL A   1      39.125  31.742  30.522  1.00  0.00     0.010 A 
ATOM     40  C   UNL A   1      37.843  29.719  30.114  1.00  0.00     0.010 A 
ATOM     41  C   UNL A   1      39.062  30.399  30.100  1.00  0.00    -0.014 A 
BRANCH  41  42
ATOM     42  C   UNL A   1      40.331  29.695  29.883  1.00  0.00     0.031 A 
ATOM     43  C   UNL A   1      41.083  29.438  31.143  1.00  0.00     0.074 A 
ATOM     44  C   UNL A   1      40.795  29.134  28.746  1.00  0.00     0.049 A 
ATOM     45  N   UNL A   1      42.247  29.880  31.484  1.00  0.00    -0.248 NA
ATOM     46  C   UNL A   1      40.392  28.671  32.191  1.00  0.00     0.031 C 
ATOM     47  C   UNL A   1      40.110  28.944  27.467  1.00  0.00     0.029 A 
ATOM     48  N   UNL A   1      41.997  28.511  28.547  1.00  0.00    -0.354 N 
ATOM     49  C   UNL A   1      42.512  29.332  32.736  1.00  0.00     0.074 A 
ATOM     50  C   UNL A   1      41.293  28.698  33.172  1.00  0.00     0.031 C 
ATOM     51  C   UNL A   1      40.815  28.065  26.712  1.00  0.00     0.029 A 
ATOM     52  C   UNL A   1      42.066  27.752  27.386  1.00  0.00     0.049 A 
ATOM     53  H   UNL A   1      42.752  28.593  29.175  1.00  0.00     0.167 HD
ATOM     54  C   UNL A   1      43.761  29.303  33.276  1.00  0.00     0.031 A 
ATOM     55  C   UNL A   1      43.058  26.894  27.039  1.00  0.00     0.031 A 
ATOM     56  C   UNL A   1      44.670  30.184  32.599  1.00  0.00     0.049 A 
ATOM     57  C   UNL A   1      44.273  27.260  27.801  1.00  0.00     0.074 A 
ATOM     58  C   UNL A   1      44.746  31.548  32.408  1.00  0.00     0.029 A 
ATOM     59  N   UNL A   1      45.536  29.620  31.695  1.00  0.00    -0.354 N 
ATOM     60  N   UNL A   1      44.948  28.357  27.616  1.00  0.00    -0.248 NA
ATOM     61  C   UNL A   1      44.594  26.526  29.015  1.00  0.00     0.031 C 
ATOM     62  C   UNL A   1      45.315  31.713  31.112  1.00  0.00     0.029 A 
ATOM     63  C   UNL A   1      45.582  30.441  30.597  1.00  0.00     0.049 A 
ATOM     64  H   UNL A   1      46.033  28.779  31.814  1.00  0.00     0.167 HD
ATOM     65  C   UNL A   1      45.459  28.672  28.864  1.00  0.00     0.074 A 
ATOM     66  C   UNL A   1      45.331  27.445  29.641  1.00  0.00     0.031 C 
ATOM     67  C   UNL A   1      45.677  29.968  29.229  1.00  0.00     0.031 A 
BRANCH  54  68
ATOM     68  C   UNL A   1      44.233  28.249  34.245  1.00  0.00    -0.014 A 
ATOM     69  C   UNL A   1      43.969  28.309  35.628  1.00  0.00     0.010 A 
ATOM     70  C   UNL A   1      44.752  27.036  33.746  1.00  0.00     0.010 A 
ATOM     71  C   UNL A   1      44.233  27.236  36.479  1.00  0.00     0.020 A 
ATOM     72  C   UNL A   1      44.975  25.935  34.584  1.00  0.00     0.020 A 
ATOM     73  C   UNL A   1      44.720  26.047  35.950  1.00  0.00     0.054 A 
BRANCH  73  74
ATOM     74  S   UNL A   1      44.926  24.638  37.066  1.00  0.00     0.124 S 
ATOM     75  O   UNL A   1      44.329  23.553  36.292  1.00  0.00    -0.237 OA
ATOM     76  O   UNL A   1      46.376  24.574  37.224  1.00  0.00    -0.237 OA
ATOM     77  O   UNL A   1      44.186  25.036  38.261  1.00  0.00    -0.744 OA
ENDBRANCH  73  74
ENDBRANCH  54  68
BRANCH  55  78
ATOM     78  C   UNL A   1      42.963  25.578  26.356  1.00  0.00    -0.014 A 
ATOM     79  C   UNL A   1      42.545  24.448  27.084  1.00  0.00     0.010 A 
ATOM     80  C   UNL A   1      43.616  25.367  25.124  1.00  0.00     0.010 A 
ATOM     81  C   UNL A   1      42.859  23.154  26.651  1.00  0.00     0.020 A 
ATOM     82  C   UNL A   1      43.936  24.073  24.686  1.00  0.00     0.020 A 
ATOM     83  C   UNL A   1      43.591  22.977  25.476  1.00  0.00     0.054 A 
BRANCH  83  84
ATOM     84  S   UNL A   1      44.171  21.304  25.069  1.00  0.00     0.124 S 
ATOM     85  O   UNL A   1      44.405  21.407  23.632  1.00  0.00    -0.237 OA
ATOM     86  O   UNL A   1      45.373  21.180  25.892  1.00  0.00    -0.237 OA
ATOM     87  O   UNL A   1      43.059  20.444  25.463  1.00  0.00    -0.744 OA
ENDBRANCH  83  84
ENDBRANCH  55  78
BRANCH  67  88
ATOM     88  C   UNL A   1      45.713  31.031  28.152  1.00  0.00    -0.014 A 
ATOM     89  C   UNL A   1      46.975  31.476  27.713  1.00  0.00     0.010 A 
ATOM     90  C   UNL A   1      44.569  31.714  27.693  1.00  0.00     0.010 A 
ATOM     91  C   UNL A   1      47.096  32.586  26.875  1.00  0.00     0.020 A 
ATOM     92  C   UNL A   1      44.680  32.809  26.827  1.00  0.00     0.020 A 
ATOM     93  C   UNL A   1      45.948  33.253  26.446  1.00  0.00     0.054 A 
BRANCH  93  94
ATOM     94  S   UNL A   1      46.141  34.730  25.418  1.00  0.00     0.124 S 
ATOM     95  O   UNL A   1      47.567  34.694  25.107  1.00  0.00    -0.237 OA
ATOM     96  O   UNL A   1      45.244  34.462  24.296  1.00  0.00    -0.237 OA
ATOM     97  O   UNL A   1      45.716  35.828  26.288  1.00  0.00    -0.744 OA
ENDBRANCH  93  94
ENDBRANCH  67  88
ENDBRANCH  41  42
ENDBRANCH  34  36
ENDBRANCH  33  34
ENDBRANCH  32  33
ENDBRANCH   1  32
TORSDOF 19
ENDMDL
