MODEL 1
REMARK VINA RESULT:      -9.5      0.000      0.000
REMARK SMILES C[C@H](Cc1ccco1)[NH2+]Cc1cc(C(=O)OCCOCCOC(=O)c2ccc(-c3c4nc(c(-c5ccc(S(=O)(=O)[O-])cc5)c5ccc([nH]5)c(-c5ccc(S(=O)(=O)[O-])cc5)c5nc(c(-c6ccc(S(=O)(=O)[O-])cc6)c6ccc3[nH]6)C=C5)C=C4)cc2)cs1
REMARK SMILES IDX 18 1 17 2 16 3 14 4 15 5 13 6 11 7 12 8 86 9 85 10 10 11
REMARK SMILES IDX 9 12 2 15 1 16 3 17 4 18 5 19 8 20 6 21 7 22 19 23 20 24
REMARK SMILES IDX 21 25 22 26 23 27 24 28 25 29 26 30 84 31 27 32 83 33 28 34
REMARK SMILES IDX 29 35 30 36 77 37 31 38 82 39 76 40 78 41 32 42 81 43 75 44
REMARK SMILES IDX 74 45 33 47 63 48 44 49 62 50 45 51 48 52 61 53 79 54 46 55
REMARK SMILES IDX 47 56 60 58 80 59 49 60 34 61 35 62 43 63 36 64 42 65 37 66
REMARK SMILES IDX 38 67 39 68 40 69 41 70 64 71 65 72 73 73 66 74 72 75 67 76
REMARK SMILES IDX 68 77 69 78 70 79 71 80 50 81 51 82 59 83 52 84 58 85 53 86
REMARK SMILES IDX 54 87 55 88 56 89 57 90
REMARK H PARENT 9 13 9 14 78 46 48 57
REMARK Flexibility Score: inf
ROOT
ATOM      1  C   UNL A   1      40.131  22.418  27.007  1.00  0.00     0.202 C 
ENDROOT
BRANCH   1   2
ATOM      2  C   UNL A   1      39.449  21.408  26.082  1.00  0.00     0.261 C 
BRANCH   2   3
ATOM      3  O   UNL A   1      38.130  21.843  25.708  1.00  0.00    -0.460 OA
BRANCH   3   4
ATOM      4  C   UNL A   1      37.376  20.911  25.058  1.00  0.00     0.339 C 
ATOM      5  O   UNL A   1      37.772  19.798  24.728  1.00  0.00    -0.246 OA
BRANCH   4   6
ATOM      6  C   UNL A   1      36.005  21.357  24.803  1.00  0.00     0.071 A 
ATOM      7  C   UNL A   1      34.167  22.711  24.218  1.00  0.00     0.060 A 
ATOM      8  C   UNL A   1      35.547  22.637  24.332  1.00  0.00     0.037 A 
ATOM      9  S   UNL A   1      33.440  21.194  24.565  1.00  0.00    -0.142 S 
ATOM     10  C   UNL A   1      34.930  20.519  25.035  1.00  0.00     0.081 A 
BRANCH   7  11
ATOM     11  C   UNL A   1      33.323  23.881  23.792  1.00  0.00     0.308 C 
BRANCH  11  12
ATOM     12  N   UNL A   1      32.506  24.466  24.863  1.00  0.00    -0.339 N 
ATOM     13  H   UNL A   1      32.866  24.129  25.756  1.00  0.00     0.346 HD
ATOM     14  H   UNL A   1      32.577  25.478  24.755  1.00  0.00     0.346 HD
BRANCH  12  15
ATOM     15  C   UNL A   1      31.069  24.143  24.796  1.00  0.00     0.187 C 
ATOM     16  C   UNL A   1      30.628  23.871  23.348  1.00  0.00     0.075 C 
BRANCH  15  17
ATOM     17  C   UNL A   1      30.261  25.328  25.382  1.00  0.00     0.140 C 
BRANCH  17  18
ATOM     18  C   UNL A   1      30.265  26.543  24.509  1.00  0.00     0.109 A 
ATOM     19  C   UNL A   1      29.367  27.115  23.629  1.00  0.00     0.046 A 
ATOM     20  O   UNL A   1      31.393  27.312  24.570  1.00  0.00    -0.469 OA
ATOM     21  C   UNL A   1      29.973  28.292  23.134  1.00  0.00     0.042 A 
ATOM     22  C   UNL A   1      31.202  28.371  23.743  1.00  0.00     0.195 A 
ENDBRANCH  17  18
ENDBRANCH  15  17
ENDBRANCH  12  15
ENDBRANCH  11  12
ENDBRANCH   7  11
ENDBRANCH   4   6
ENDBRANCH   3   4
ENDBRANCH   2   3
ENDBRANCH   1   2
BRANCH   1  23
ATOM     23  O   UNL A   1      41.542  22.252  27.148  1.00  0.00    -0.374 OA
BRANCH  23  24
ATOM     24  C   UNL A   1      42.285  22.101  25.936  1.00  0.00     0.202 C 
BRANCH  24  25
ATOM     25  C   UNL A   1      42.767  23.407  25.294  1.00  0.00     0.261 C 
BRANCH  25  26
ATOM     26  O   UNL A   1      42.985  24.430  26.285  1.00  0.00    -0.460 OA
BRANCH  26  27
ATOM     27  C   UNL A   1      42.147  25.493  26.194  1.00  0.00     0.338 C 
ATOM     28  O   UNL A   1      41.409  25.765  25.262  1.00  0.00    -0.246 OA
BRANCH  27  29
ATOM     29  C   UNL A   1      42.097  26.214  27.482  1.00  0.00     0.060 A 
ATOM     30  C   UNL A   1      41.015  25.935  28.325  1.00  0.00     0.016 A 
ATOM     31  C   UNL A   1      43.039  27.183  27.841  1.00  0.00     0.016 A 
ATOM     32  C   UNL A   1      40.832  26.667  29.495  1.00  0.00     0.010 A 
ATOM     33  C   UNL A   1      42.853  27.920  29.018  1.00  0.00     0.010 A 
ATOM     34  C   UNL A   1      41.725  27.695  29.827  1.00  0.00    -0.014 A 
BRANCH  34  35
ATOM     35  C   UNL A   1      41.373  28.608  30.944  1.00  0.00     0.031 A 
ATOM     36  C   UNL A   1      42.211  28.597  32.195  1.00  0.00     0.074 A 
ATOM     37  C   UNL A   1      40.373  29.498  30.813  1.00  0.00     0.049 A 
ATOM     38  N   UNL A   1      42.147  29.379  33.241  1.00  0.00    -0.248 NA
ATOM     39  C   UNL A   1      43.264  27.570  32.275  1.00  0.00     0.031 C 
ATOM     40  C   UNL A   1      39.504  29.627  29.643  1.00  0.00     0.029 A 
ATOM     41  N   UNL A   1      39.929  30.474  31.670  1.00  0.00    -0.354 N 
ATOM     42  C   UNL A   1      43.150  28.945  34.102  1.00  0.00     0.074 A 
ATOM     43  C   UNL A   1      43.782  27.806  33.472  1.00  0.00     0.031 C 
ATOM     44  C   UNL A   1      38.640  30.636  29.851  1.00  0.00     0.029 A 
ATOM     45  C   UNL A   1      38.881  31.211  31.173  1.00  0.00     0.049 A 
ATOM     46  H   UNL A   1      40.325  30.632  32.558  1.00  0.00     0.167 HD
ATOM     47  C   UNL A   1      43.521  29.455  35.301  1.00  0.00     0.031 A 
ATOM     48  C   UNL A   1      38.195  32.234  31.719  1.00  0.00     0.031 A 
ATOM     49  C   UNL A   1      42.884  30.578  35.936  1.00  0.00     0.049 A 
ATOM     50  C   UNL A   1      38.597  32.755  33.073  1.00  0.00     0.074 A 
ATOM     51  C   UNL A   1      43.197  31.177  37.145  1.00  0.00     0.029 A 
ATOM     52  N   UNL A   1      41.800  31.270  35.419  1.00  0.00    -0.354 N 
ATOM     53  N   UNL A   1      39.572  32.355  33.856  1.00  0.00    -0.248 NA
ATOM     54  C   UNL A   1      37.819  33.881  33.608  1.00  0.00     0.031 C 
ATOM     55  C   UNL A   1      42.270  32.197  37.381  1.00  0.00     0.029 A 
ATOM     56  C   UNL A   1      41.417  32.274  36.293  1.00  0.00     0.049 A 
ATOM     57  H   UNL A   1      41.366  31.076  34.556  1.00  0.00     0.167 HD
ATOM     58  C   UNL A   1      39.539  33.197  34.963  1.00  0.00     0.074 A 
ATOM     59  C   UNL A   1      38.460  34.138  34.739  1.00  0.00     0.031 C 
ATOM     60  C   UNL A   1      40.332  33.195  36.064  1.00  0.00     0.031 A 
BRANCH  47  61
ATOM     61  C   UNL A   1      44.657  28.776  36.020  1.00  0.00    -0.014 A 
ATOM     62  C   UNL A   1      44.534  27.457  36.496  1.00  0.00     0.010 A 
ATOM     63  C   UNL A   1      45.876  29.455  36.198  1.00  0.00     0.010 A 
ATOM     64  C   UNL A   1      45.596  26.845  37.169  1.00  0.00     0.020 A 
ATOM     65  C   UNL A   1      46.948  28.838  36.848  1.00  0.00     0.020 A 
ATOM     66  C   UNL A   1      46.795  27.542  37.344  1.00  0.00     0.054 A 
BRANCH  66  67
ATOM     67  S   UNL A   1      48.163  26.720  38.207  1.00  0.00     0.124 S 
ATOM     68  O   UNL A   1      48.669  25.817  37.176  1.00  0.00    -0.237 OA
ATOM     69  O   UNL A   1      49.041  27.834  38.551  1.00  0.00    -0.237 OA
ATOM     70  O   UNL A   1      47.515  26.067  39.343  1.00  0.00    -0.744 OA
ENDBRANCH  66  67
ENDBRANCH  47  61
BRANCH  48  71
ATOM     71  C   UNL A   1      37.056  32.841  30.979  1.00  0.00    -0.014 A 
ATOM     72  C   UNL A   1      37.271  33.847  30.021  1.00  0.00     0.010 A 
ATOM     73  C   UNL A   1      35.741  32.406  31.230  1.00  0.00     0.010 A 
ATOM     74  C   UNL A   1      36.191  34.418  29.339  1.00  0.00     0.020 A 
ATOM     75  C   UNL A   1      34.663  32.954  30.532  1.00  0.00     0.020 A 
ATOM     76  C   UNL A   1      34.895  33.965  29.597  1.00  0.00     0.054 A 
BRANCH  76  77
ATOM     77  S   UNL A   1      33.513  34.677  28.659  1.00  0.00     0.124 S 
ATOM     78  O   UNL A   1      32.576  35.029  29.719  1.00  0.00    -0.237 OA
ATOM     79  O   UNL A   1      34.145  35.801  27.971  1.00  0.00    -0.237 OA
ATOM     80  O   UNL A   1      33.094  33.582  27.787  1.00  0.00    -0.744 OA
ENDBRANCH  76  77
ENDBRANCH  48  71
BRANCH  60  81
ATOM     81  C   UNL A   1      40.079  34.263  37.097  1.00  0.00    -0.014 A 
ATOM     82  C   UNL A   1      39.150  34.072  38.135  1.00  0.00     0.010 A 
ATOM     83  C   UNL A   1      40.800  35.470  37.036  1.00  0.00     0.010 A 
ATOM     84  C   UNL A   1      38.907  35.089  39.062  1.00  0.00     0.020 A 
ATOM     85  C   UNL A   1      40.581  36.479  37.979  1.00  0.00     0.020 A 
ATOM     86  C   UNL A   1      39.618  36.290  38.972  1.00  0.00     0.054 A 
BRANCH  86  87
ATOM     87  S   UNL A   1      39.290  37.596  40.188  1.00  0.00     0.124 S 
ATOM     88  O   UNL A   1      38.944  36.823  41.377  1.00  0.00    -0.237 OA
ATOM     89  O   UNL A   1      40.564  38.308  40.249  1.00  0.00    -0.237 OA
ATOM     90  O   UNL A   1      38.189  38.352  39.595  1.00  0.00    -0.744 OA
ENDBRANCH  86  87
ENDBRANCH  60  81
ENDBRANCH  34  35
ENDBRANCH  27  29
ENDBRANCH  26  27
ENDBRANCH  25  26
ENDBRANCH  24  25
ENDBRANCH  23  24
ENDBRANCH   1  23
TORSDOF 22
ENDMDL
MODEL 2
REMARK VINA RESULT:      -9.0      5.917     11.958
REMARK SMILES C[C@H](Cc1ccco1)[NH2+]Cc1cc(C(=O)OCCOCCOC(=O)c2ccc(-c3c4nc(c(-c5ccc(S(=O)(=O)[O-])cc5)c5ccc([nH]5)c(-c5ccc(S(=O)(=O)[O-])cc5)c5nc(c(-c6ccc(S(=O)(=O)[O-])cc6)c6ccc3[nH]6)C=C5)C=C4)cc2)cs1
REMARK SMILES IDX 18 1 17 2 16 3 14 4 15 5 13 6 11 7 12 8 86 9 85 10 10 11
REMARK SMILES IDX 9 12 2 15 1 16 3 17 4 18 5 19 8 20 6 21 7 22 19 23 20 24
REMARK SMILES IDX 21 25 22 26 23 27 24 28 25 29 26 30 84 31 27 32 83 33 28 34
REMARK SMILES IDX 29 35 30 36 77 37 31 38 82 39 76 40 78 41 32 42 81 43 75 44
REMARK SMILES IDX 74 45 33 47 63 48 44 49 62 50 45 51 48 52 61 53 79 54 46 55
REMARK SMILES IDX 47 56 60 58 80 59 49 60 34 61 35 62 43 63 36 64 42 65 37 66
REMARK SMILES IDX 38 67 39 68 40 69 41 70 64 71 65 72 73 73 66 74 72 75 67 76
REMARK SMILES IDX 68 77 69 78 70 79 71 80 50 81 51 82 59 83 52 84 58 85 53 86
REMARK SMILES IDX 54 87 55 88 56 89 57 90
REMARK H PARENT 9 13 9 14 78 46 48 57
REMARK Flexibility Score: inf
ROOT
ATOM      1  C   UNL A   1      33.449  32.121  27.788  1.00  0.00     0.202 C 
ENDROOT
BRANCH   1   2
ATOM      2  C   UNL A   1      32.856  30.828  27.225  1.00  0.00     0.261 C 
BRANCH   2   3
ATOM      3  O   UNL A   1      33.728  30.229  26.251  1.00  0.00    -0.460 OA
BRANCH   3   4
ATOM      4  C   UNL A   1      33.768  28.866  26.270  1.00  0.00     0.339 C 
ATOM      5  O   UNL A   1      34.086  28.190  27.243  1.00  0.00    -0.246 OA
BRANCH   4   6
ATOM      6  C   UNL A   1      33.362  28.261  25.001  1.00  0.00     0.071 A 
ATOM      7  C   UNL A   1      33.064  26.694  23.265  1.00  0.00     0.060 A 
ATOM      8  C   UNL A   1      33.579  26.917  24.533  1.00  0.00     0.037 A 
ATOM      9  S   UNL A   1      32.215  28.074  22.696  1.00  0.00    -0.142 S 
ATOM     10  C   UNL A   1      32.693  28.999  24.042  1.00  0.00     0.081 A 
BRANCH   7  11
ATOM     11  C   UNL A   1      33.121  25.439  22.438  1.00  0.00     0.308 C 
BRANCH  11  12
ATOM     12  N   UNL A   1      32.734  24.217  23.155  1.00  0.00    -0.339 N 
ATOM     13  H   UNL A   1      32.923  24.359  24.147  1.00  0.00     0.346 HD
ATOM     14  H   UNL A   1      31.747  24.066  22.949  1.00  0.00     0.346 HD
BRANCH  12  15
ATOM     15  C   UNL A   1      33.438  22.994  22.725  1.00  0.00     0.187 C 
ATOM     16  C   UNL A   1      32.494  21.781  22.728  1.00  0.00     0.075 C 
BRANCH  15  17
ATOM     17  C   UNL A   1      34.631  22.740  23.679  1.00  0.00     0.140 C 
BRANCH  17  18
ATOM     18  C   UNL A   1      34.235  22.656  25.120  1.00  0.00     0.109 A 
ATOM     19  C   UNL A   1      33.865  23.573  26.085  1.00  0.00     0.046 A 
ATOM     20  O   UNL A   1      34.198  21.397  25.651  1.00  0.00    -0.469 OA
ATOM     21  C   UNL A   1      33.584  22.838  27.259  1.00  0.00     0.042 A 
ATOM     22  C   UNL A   1      33.794  21.519  26.941  1.00  0.00     0.195 A 
ENDBRANCH  17  18
ENDBRANCH  15  17
ENDBRANCH  12  15
ENDBRANCH  11  12
ENDBRANCH   7  11
ENDBRANCH   4   6
ENDBRANCH   3   4
ENDBRANCH   2   3
ENDBRANCH   1   2
BRANCH   1  23
ATOM     23  O   UNL A   1      34.840  32.313  27.524  1.00  0.00    -0.374 OA
BRANCH  23  24
ATOM     24  C   UNL A   1      35.678  32.516  28.665  1.00  0.00     0.202 C 
BRANCH  24  25
ATOM     25  C   UNL A   1      35.236  31.790  29.941  1.00  0.00     0.261 C 
BRANCH  25  26
ATOM     26  O   UNL A   1      35.982  30.573  30.139  1.00  0.00    -0.460 OA
BRANCH  26  27
ATOM     27  C   UNL A   1      36.805  30.584  31.216  1.00  0.00     0.338 C 
ATOM     28  O   UNL A   1      36.475  30.569  32.390  1.00  0.00    -0.246 OA
BRANCH  27  29
ATOM     29  C   UNL A   1      38.210  30.426  30.787  1.00  0.00     0.060 A 
ATOM     30  C   UNL A   1      38.497  30.694  29.443  1.00  0.00     0.016 A 
ATOM     31  C   UNL A   1      39.215  29.971  31.646  1.00  0.00     0.016 A 
ATOM     32  C   UNL A   1      39.770  30.445  28.936  1.00  0.00     0.010 A 
ATOM     33  C   UNL A   1      40.495  29.719  31.133  1.00  0.00     0.010 A 
ATOM     34  C   UNL A   1      40.765  29.914  29.767  1.00  0.00    -0.014 A 
BRANCH  34  35
ATOM     35  C   UNL A   1      42.029  29.438  29.149  1.00  0.00     0.031 A 
ATOM     36  C   UNL A   1      43.207  30.373  29.069  1.00  0.00     0.074 A 
ATOM     37  C   UNL A   1      42.154  28.162  28.741  1.00  0.00     0.049 A 
ATOM     38  N   UNL A   1      44.428  30.132  28.668  1.00  0.00    -0.248 NA
ATOM     39  C   UNL A   1      42.978  31.761  29.502  1.00  0.00     0.031 C 
ATOM     40  C   UNL A   1      41.096  27.151  28.788  1.00  0.00     0.029 A 
ATOM     41  N   UNL A   1      43.234  27.494  28.220  1.00  0.00    -0.354 N 
ATOM     42  C   UNL A   1      45.115  31.334  28.804  1.00  0.00     0.074 A 
ATOM     43  C   UNL A   1      44.164  32.311  29.287  1.00  0.00     0.031 C 
ATOM     44  C   UNL A   1      41.586  25.987  28.328  1.00  0.00     0.029 A 
ATOM     45  C   UNL A   1      42.982  26.173  27.937  1.00  0.00     0.049 A 
ATOM     46  H   UNL A   1      44.108  27.921  28.064  1.00  0.00     0.167 HD
ATOM     47  C   UNL A   1      46.422  31.599  28.562  1.00  0.00     0.031 A 
ATOM     48  C   UNL A   1      43.786  25.220  27.424  1.00  0.00     0.031 A 
ATOM     49  C   UNL A   1      47.365  30.631  28.066  1.00  0.00     0.049 A 
ATOM     50  C   UNL A   1      45.223  25.550  27.120  1.00  0.00     0.074 A 
ATOM     51  C   UNL A   1      48.715  30.800  27.802  1.00  0.00     0.029 A 
ATOM     52  N   UNL A   1      47.061  29.316  27.753  1.00  0.00    -0.354 N 
ATOM     53  N   UNL A   1      45.864  26.683  27.290  1.00  0.00    -0.248 NA
ATOM     54  C   UNL A   1      46.051  24.464  26.575  1.00  0.00     0.031 C 
ATOM     55  C   UNL A   1      49.212  29.602  27.281  1.00  0.00     0.029 A 
ATOM     56  C   UNL A   1      48.189  28.668  27.277  1.00  0.00     0.049 A 
ATOM     57  H   UNL A   1      46.173  28.903  27.854  1.00  0.00     0.167 HD
ATOM     58  C   UNL A   1      47.176  26.437  26.897  1.00  0.00     0.074 A 
ATOM     59  C   UNL A   1      47.240  25.046  26.498  1.00  0.00     0.031 C 
ATOM     60  C   UNL A   1      48.235  27.286  26.871  1.00  0.00     0.031 A 
BRANCH  47  61
ATOM     61  C   UNL A   1      46.900  33.006  28.803  1.00  0.00    -0.014 A 
ATOM     62  C   UNL A   1      47.439  33.389  30.046  1.00  0.00     0.010 A 
ATOM     63  C   UNL A   1      46.836  33.952  27.765  1.00  0.00     0.010 A 
ATOM     64  C   UNL A   1      47.870  34.702  30.255  1.00  0.00     0.020 A 
ATOM     65  C   UNL A   1      47.290  35.260  27.963  1.00  0.00     0.020 A 
ATOM     66  C   UNL A   1      47.789  35.631  29.213  1.00  0.00     0.054 A 
BRANCH  66  67
ATOM     67  S   UNL A   1      48.369  37.324  29.506  1.00  0.00     0.124 S 
ATOM     68  O   UNL A   1      47.518  37.746  30.616  1.00  0.00    -0.237 OA
ATOM     69  O   UNL A   1      49.778  37.128  29.835  1.00  0.00    -0.237 OA
ATOM     70  O   UNL A   1      48.118  38.002  28.236  1.00  0.00    -0.744 OA
ENDBRANCH  66  67
ENDBRANCH  47  61
BRANCH  48  71
ATOM     71  C   UNL A   1      43.248  23.856  27.170  1.00  0.00    -0.014 A 
ATOM     72  C   UNL A   1      42.902  23.448  25.870  1.00  0.00     0.010 A 
ATOM     73  C   UNL A   1      43.085  22.953  28.236  1.00  0.00     0.010 A 
ATOM     74  C   UNL A   1      42.387  22.167  25.644  1.00  0.00     0.020 A 
ATOM     75  C   UNL A   1      42.597  21.664  28.011  1.00  0.00     0.020 A 
ATOM     76  C   UNL A   1      42.241  21.283  26.715  1.00  0.00     0.054 A 
BRANCH  76  77
ATOM     77  S   UNL A   1      41.627  19.605  26.392  1.00  0.00     0.124 S 
ATOM     78  O   UNL A   1      41.959  18.916  27.634  1.00  0.00    -0.237 OA
ATOM     79  O   UNL A   1      40.203  19.831  26.153  1.00  0.00    -0.237 OA
ATOM     80  O   UNL A   1      42.388  19.185  25.218  1.00  0.00    -0.744 OA
ENDBRANCH  76  77
ENDBRANCH  48  71
BRANCH  60  81
ATOM     81  C   UNL A   1      49.559  26.722  26.424  1.00  0.00    -0.014 A 
ATOM     82  C   UNL A   1      50.351  25.942  27.285  1.00  0.00     0.010 A 
ATOM     83  C   UNL A   1      50.006  26.962  25.111  1.00  0.00     0.010 A 
ATOM     84  C   UNL A   1      51.591  25.457  26.860  1.00  0.00     0.020 A 
ATOM     85  C   UNL A   1      51.232  26.453  24.672  1.00  0.00     0.020 A 
ATOM     86  C   UNL A   1      52.028  25.724  25.559  1.00  0.00     0.054 A 
BRANCH  86  87
ATOM     87  S   UNL A   1      53.639  25.081  25.026  1.00  0.00     0.124 S 
ATOM     88  O   UNL A   1      53.774  25.670  23.697  1.00  0.00    -0.237 OA
ATOM     89  O   UNL A   1      54.547  25.606  26.042  1.00  0.00    -0.237 OA
ATOM     90  O   UNL A   1      53.458  23.632  25.050  1.00  0.00    -0.744 OA
ENDBRANCH  86  87
ENDBRANCH  60  81
ENDBRANCH  34  35
ENDBRANCH  27  29
ENDBRANCH  26  27
ENDBRANCH  25  26
ENDBRANCH  24  25
ENDBRANCH  23  24
ENDBRANCH   1  23
TORSDOF 22
ENDMDL
MODEL 3
REMARK VINA RESULT:      -8.9      2.639      9.144
REMARK SMILES C[C@H](Cc1ccco1)[NH2+]Cc1cc(C(=O)OCCOCCOC(=O)c2ccc(-c3c4nc(c(-c5ccc(S(=O)(=O)[O-])cc5)c5ccc([nH]5)c(-c5ccc(S(=O)(=O)[O-])cc5)c5nc(c(-c6ccc(S(=O)(=O)[O-])cc6)c6ccc3[nH]6)C=C5)C=C4)cc2)cs1
REMARK SMILES IDX 18 1 17 2 16 3 14 4 15 5 13 6 11 7 12 8 86 9 85 10 10 11
REMARK SMILES IDX 9 12 2 15 1 16 3 17 4 18 5 19 8 20 6 21 7 22 19 23 20 24
REMARK SMILES IDX 21 25 22 26 23 27 24 28 25 29 26 30 84 31 27 32 83 33 28 34
REMARK SMILES IDX 29 35 30 36 77 37 31 38 82 39 76 40 78 41 32 42 81 43 75 44
REMARK SMILES IDX 74 45 33 47 63 48 44 49 62 50 45 51 48 52 61 53 79 54 46 55
REMARK SMILES IDX 47 56 60 58 80 59 49 60 34 61 35 62 43 63 36 64 42 65 37 66
REMARK SMILES IDX 38 67 39 68 40 69 41 70 64 71 65 72 73 73 66 74 72 75 67 76
REMARK SMILES IDX 68 77 69 78 70 79 71 80 50 81 51 82 59 83 52 84 58 85 53 86
REMARK SMILES IDX 54 87 55 88 56 89 57 90
REMARK H PARENT 9 13 9 14 78 46 48 57
REMARK Flexibility Score: inf
ROOT
ATOM      1  C   UNL A   1      32.030  28.890  23.640  1.00  0.00     0.202 C 
ENDROOT
BRANCH   1   2
ATOM      2  C   UNL A   1      31.913  27.436  23.178  1.00  0.00     0.261 C 
BRANCH   2   3
ATOM      3  O   UNL A   1      33.122  26.703  23.436  1.00  0.00    -0.460 OA
BRANCH   3   4
ATOM      4  C   UNL A   1      33.466  25.796  22.476  1.00  0.00     0.339 C 
ATOM      5  O   UNL A   1      33.586  26.053  21.283  1.00  0.00    -0.246 OA
BRANCH   4   6
ATOM      6  C   UNL A   1      33.711  24.457  23.012  1.00  0.00     0.071 A 
ATOM      7  C   UNL A   1      33.355  22.267  23.808  1.00  0.00     0.060 A 
ATOM      8  C   UNL A   1      32.764  23.409  23.289  1.00  0.00     0.037 A 
ATOM      9  S   UNL A   1      35.064  22.423  23.846  1.00  0.00    -0.142 S 
ATOM     10  C   UNL A   1      34.989  24.050  23.353  1.00  0.00     0.081 A 
BRANCH   7  11
ATOM     11  C   UNL A   1      32.696  20.987  24.245  1.00  0.00     0.308 C 
BRANCH  11  12
ATOM     12  N   UNL A   1      32.459  20.886  25.691  1.00  0.00    -0.339 N 
ATOM     13  H   UNL A   1      31.459  20.753  25.839  1.00  0.00     0.346 HD
ATOM     14  H   UNL A   1      33.023  20.102  26.018  1.00  0.00     0.346 HD
BRANCH  12  15
ATOM     15  C   UNL A   1      32.887  22.059  26.475  1.00  0.00     0.187 C 
ATOM     16  C   UNL A   1      33.987  21.682  27.481  1.00  0.00     0.075 C 
BRANCH  15  17
ATOM     17  C   UNL A   1      31.659  22.637  27.223  1.00  0.00     0.140 C 
BRANCH  17  18
ATOM     18  C   UNL A   1      31.298  24.024  26.794  1.00  0.00     0.109 A 
ATOM     19  C   UNL A   1      32.012  25.165  26.480  1.00  0.00     0.046 A 
ATOM     20  O   UNL A   1      29.962  24.269  26.646  1.00  0.00    -0.469 OA
ATOM     21  C   UNL A   1      31.066  26.151  26.118  1.00  0.00     0.042 A 
ATOM     22  C   UNL A   1      29.834  25.554  26.228  1.00  0.00     0.195 A 
ENDBRANCH  17  18
ENDBRANCH  15  17
ENDBRANCH  12  15
ENDBRANCH  11  12
ENDBRANCH   7  11
ENDBRANCH   4   6
ENDBRANCH   3   4
ENDBRANCH   2   3
ENDBRANCH   1   2
BRANCH   1  23
ATOM     23  O   UNL A   1      31.371  29.187  24.872  1.00  0.00    -0.374 OA
BRANCH  23  24
ATOM     24  C   UNL A   1      31.993  30.173  25.700  1.00  0.00     0.202 C 
BRANCH  24  25
ATOM     25  C   UNL A   1      32.737  29.626  26.924  1.00  0.00     0.261 C 
BRANCH  25  26
ATOM     26  O   UNL A   1      34.136  29.968  26.884  1.00  0.00    -0.460 OA
BRANCH  26  27
ATOM     27  C   UNL A   1      34.455  31.118  27.531  1.00  0.00     0.338 C 
ATOM     28  O   UNL A   1      33.831  32.165  27.511  1.00  0.00    -0.246 OA
BRANCH  27  29
ATOM     29  C   UNL A   1      35.595  30.891  28.443  1.00  0.00     0.060 A 
ATOM     30  C   UNL A   1      36.659  31.798  28.368  1.00  0.00     0.016 A 
ATOM     31  C   UNL A   1      35.662  29.794  29.307  1.00  0.00     0.016 A 
ATOM     32  C   UNL A   1      37.820  31.575  29.104  1.00  0.00     0.010 A 
ATOM     33  C   UNL A   1      36.832  29.571  30.045  1.00  0.00     0.010 A 
ATOM     34  C   UNL A   1      37.932  30.437  29.913  1.00  0.00    -0.014 A 
BRANCH  34  35
ATOM     35  C   UNL A   1      39.258  30.105  30.493  1.00  0.00     0.031 A 
ATOM     36  C   UNL A   1      39.688  30.768  31.774  1.00  0.00     0.074 A 
ATOM     37  C   UNL A   1      40.034  29.160  29.931  1.00  0.00     0.049 A 
ATOM     38  N   UNL A   1      40.751  30.547  32.504  1.00  0.00    -0.248 NA
ATOM     39  C   UNL A   1      38.801  31.815  32.305  1.00  0.00     0.031 C 
ATOM     40  C   UNL A   1      39.719  28.426  28.704  1.00  0.00     0.029 A 
ATOM     41  N   UNL A   1      41.241  28.644  30.330  1.00  0.00    -0.354 N 
ATOM     42  C   UNL A   1      40.660  31.422  33.581  1.00  0.00     0.074 A 
ATOM     43  C   UNL A   1      39.458  32.204  33.389  1.00  0.00     0.031 C 
ATOM     44  C   UNL A   1      40.704  27.544  28.459  1.00  0.00     0.029 A 
ATOM     45  C   UNL A   1      41.725  27.662  29.498  1.00  0.00     0.049 A 
ATOM     46  H   UNL A   1      41.717  28.948  31.138  1.00  0.00     0.167 HD
ATOM     47  C   UNL A   1      41.493  31.554  34.642  1.00  0.00     0.031 A 
ATOM     48  C   UNL A   1      42.860  26.939  29.567  1.00  0.00     0.031 A 
ATOM     49  C   UNL A   1      42.696  30.787  34.827  1.00  0.00     0.049 A 
ATOM     50  C   UNL A   1      43.793  27.136  30.732  1.00  0.00     0.074 A 
ATOM     51  C   UNL A   1      43.599  30.840  35.877  1.00  0.00     0.029 A 
ATOM     52  N   UNL A   1      43.172  29.834  33.941  1.00  0.00    -0.354 N 
ATOM     53  N   UNL A   1      43.671  27.943  31.761  1.00  0.00    -0.248 NA
ATOM     54  C   UNL A   1      45.007  26.308  30.756  1.00  0.00     0.031 C 
ATOM     55  C   UNL A   1      44.645  29.955  35.599  1.00  0.00     0.029 A 
ATOM     56  C   UNL A   1      44.366  29.307  34.407  1.00  0.00     0.049 A 
ATOM     57  H   UNL A   1      42.727  29.570  33.104  1.00  0.00     0.167 HD
ATOM     58  C   UNL A   1      44.780  27.699  32.566  1.00  0.00     0.074 A 
ATOM     59  C   UNL A   1      45.550  26.659  31.914  1.00  0.00     0.031 C 
ATOM     60  C   UNL A   1      45.129  28.281  33.741  1.00  0.00     0.031 A 
BRANCH  47  61
ATOM     61  C   UNL A   1      41.141  32.594  35.673  1.00  0.00    -0.014 A 
ATOM     62  C   UNL A   1      40.248  32.306  36.723  1.00  0.00     0.010 A 
ATOM     63  C   UNL A   1      41.733  33.868  35.610  1.00  0.00     0.010 A 
ATOM     64  C   UNL A   1      39.925  33.286  37.666  1.00  0.00     0.020 A 
ATOM     65  C   UNL A   1      41.433  34.842  36.567  1.00  0.00     0.020 A 
ATOM     66  C   UNL A   1      40.517  34.549  37.580  1.00  0.00     0.054 A 
BRANCH  66  67
ATOM     67  S   UNL A   1      40.094  35.798  38.826  1.00  0.00     0.124 S 
ATOM     68  O   UNL A   1      41.408  36.139  39.368  1.00  0.00    -0.237 OA
ATOM     69  O   UNL A   1      39.453  36.841  38.030  1.00  0.00    -0.237 OA
ATOM     70  O   UNL A   1      39.208  35.086  39.744  1.00  0.00    -0.744 OA
ENDBRANCH  66  67
ENDBRANCH  47  61
BRANCH  48  71
ATOM     71  C   UNL A   1      43.176  25.953  28.498  1.00  0.00    -0.014 A 
ATOM     72  C   UNL A   1      42.843  24.596  28.647  1.00  0.00     0.010 A 
ATOM     73  C   UNL A   1      43.812  26.375  27.316  1.00  0.00     0.010 A 
ATOM     74  C   UNL A   1      43.154  23.676  27.641  1.00  0.00     0.020 A 
ATOM     75  C   UNL A   1      44.100  25.465  26.297  1.00  0.00     0.020 A 
ATOM     76  C   UNL A   1      43.778  24.117  26.471  1.00  0.00     0.054 A 
BRANCH  76  77
ATOM     77  S   UNL A   1      44.120  22.918  25.152  1.00  0.00     0.124 S 
ATOM     78  O   UNL A   1      44.894  23.717  24.209  1.00  0.00    -0.237 OA
ATOM     79  O   UNL A   1      44.862  21.875  25.858  1.00  0.00    -0.237 OA
ATOM     80  O   UNL A   1      42.789  22.523  24.697  1.00  0.00    -0.744 OA
ENDBRANCH  76  77
ENDBRANCH  48  71
BRANCH  60  81
ATOM     81  C   UNL A   1      46.383  27.783  34.411  1.00  0.00    -0.014 A 
ATOM     82  C   UNL A   1      46.345  26.740  35.354  1.00  0.00     0.010 A 
ATOM     83  C   UNL A   1      47.623  28.357  34.074  1.00  0.00     0.010 A 
ATOM     84  C   UNL A   1      47.517  26.317  35.987  1.00  0.00     0.020 A 
ATOM     85  C   UNL A   1      48.801  27.916  34.683  1.00  0.00     0.020 A 
ATOM     86  C   UNL A   1      48.736  26.914  35.654  1.00  0.00     0.054 A 
BRANCH  86  87
ATOM     87  S   UNL A   1      50.246  26.346  36.485  1.00  0.00     0.124 S 
ATOM     88  O   UNL A   1      50.756  25.356  35.542  1.00  0.00    -0.237 OA
ATOM     89  O   UNL A   1      51.032  27.572  36.597  1.00  0.00    -0.237 OA
ATOM     90  O   UNL A   1      49.761  25.807  37.754  1.00  0.00    -0.744 OA
ENDBRANCH  86  87
ENDBRANCH  60  81
ENDBRANCH  34  35
ENDBRANCH  27  29
ENDBRANCH  26  27
ENDBRANCH  25  26
ENDBRANCH  24  25
ENDBRANCH  23  24
ENDBRANCH   1  23
TORSDOF 22
ENDMDL
