MODEL 1
REMARK VINA RESULT:     -11.4      0.000      0.000
REMARK SMILES O=C(/C=C/C(=O)N1CCn2c1nc1ccccc12)OCCOCCOC(=O)c1ccc(-c2c3nc(c(-c4ccc(S(=O)(=O)[O-])cc4)c4ccc([nH]4)c(-c4ccc(S(=O)(=O)[O-])cc4)c4nc(c(-c5ccc(S(=O)(=O)[O-])cc5)c5ccc2[nH]5)C=C4)C=C3)cc1
REMARK SMILES IDX 23 1 22 2 21 3 20 4 19 5 2 6 1 7 3 8 4 9 5 10 6 11 7 12 8 13
REMARK SMILES IDX 11 14 9 15 10 16 12 17 18 18 13 19 17 20 14 21 16 22 15 23
REMARK SMILES IDX 24 24 25 25 26 26 27 27 28 28 29 29 87 30 30 31 86 32 31 33
REMARK SMILES IDX 32 34 33 35 80 36 34 37 85 38 79 39 81 40 35 41 84 42 78 43
REMARK SMILES IDX 77 44 36 46 66 47 47 48 65 49 48 50 51 51 64 52 82 53 49 54
REMARK SMILES IDX 50 55 63 57 83 58 52 59 37 60 38 61 46 62 39 63 45 64 40 65
REMARK SMILES IDX 41 66 42 67 43 68 44 69 67 70 68 71 76 72 69 73 75 74 70 75
REMARK SMILES IDX 71 76 72 77 73 78 74 79 53 80 54 81 62 82 55 83 61 84 56 85
REMARK SMILES IDX 57 86 58 87 59 88 60 89
REMARK H PARENT 81 45 51 56
REMARK Flexibility Score: inf
ROOT
ATOM      1  C   UNL A   1      38.217  21.664  25.614  1.00  0.00     0.202 C 
ENDROOT
BRANCH   1   2
ATOM      2  O   UNL A   1      36.920  21.125  25.348  1.00  0.00    -0.374 OA
BRANCH   2   3
ATOM      3  C   UNL A   1      35.872  22.044  25.061  1.00  0.00     0.202 C 
BRANCH   3   4
ATOM      4  C   UNL A   1      35.822  23.392  25.806  1.00  0.00     0.261 C 
BRANCH   4   5
ATOM      5  O   UNL A   1      34.624  23.697  26.538  1.00  0.00    -0.460 OA
BRANCH   5   6
ATOM      6  C   UNL A   1      33.391  23.229  26.212  1.00  0.00     0.331 C 
ATOM      7  O   UNL A   1      33.080  22.059  26.397  1.00  0.00    -0.247 OA
BRANCH   6   8
ATOM      8  C   UNL A   1      32.580  24.075  25.332  1.00  0.00     0.099 C 
ATOM      9  C   UNL A   1      32.366  25.387  25.489  1.00  0.00     0.079 C 
BRANCH   9  10
ATOM     10  C   UNL A   1      31.935  26.169  24.306  1.00  0.00     0.253 C 
ATOM     11  O   UNL A   1      31.733  25.561  23.253  1.00  0.00    -0.269 OA
BRANCH  10  12
ATOM     12  N   UNL A   1      31.782  27.521  24.394  1.00  0.00    -0.277 N 
ATOM     13  C   UNL A   1      32.534  28.375  25.324  1.00  0.00     0.151 C 
ATOM     14  C   UNL A   1      30.827  28.262  23.761  1.00  0.00     0.213 A 
ATOM     15  C   UNL A   1      31.691  29.661  25.425  1.00  0.00     0.148 C 
ATOM     16  N   UNL A   1      30.774  29.504  24.311  1.00  0.00    -0.308 N 
ATOM     17  N   UNL A   1      29.927  28.091  22.841  1.00  0.00    -0.212 NA
ATOM     18  C   UNL A   1      29.746  30.191  23.771  1.00  0.00     0.070 A 
ATOM     19  C   UNL A   1      29.250  29.293  22.813  1.00  0.00     0.091 A 
ATOM     20  C   UNL A   1      29.186  31.447  24.001  1.00  0.00     0.028 A 
ATOM     21  C   UNL A   1      28.173  29.677  22.005  1.00  0.00     0.031 A 
ATOM     22  C   UNL A   1      28.096  31.799  23.195  1.00  0.00     0.002 A 
ATOM     23  C   UNL A   1      27.603  30.939  22.208  1.00  0.00     0.002 A 
ENDBRANCH  10  12
ENDBRANCH   9  10
ENDBRANCH   6   8
ENDBRANCH   5   6
ENDBRANCH   4   5
ENDBRANCH   3   4
ENDBRANCH   2   3
ENDBRANCH   1   2
BRANCH   1  24
ATOM     24  C   UNL A   1      39.328  20.646  25.881  1.00  0.00     0.261 C 
BRANCH  24  25
ATOM     25  O   UNL A   1      40.258  21.193  26.826  1.00  0.00    -0.460 OA
BRANCH  25  26
ATOM     26  C   UNL A   1      41.533  21.369  26.410  1.00  0.00     0.338 C 
ATOM     27  O   UNL A   1      42.205  20.631  25.713  1.00  0.00    -0.246 OA
BRANCH  26  28
ATOM     28  C   UNL A   1      41.856  22.769  26.726  1.00  0.00     0.060 A 
ATOM     29  C   UNL A   1      41.218  23.416  27.783  1.00  0.00     0.016 A 
ATOM     30  C   UNL A   1      42.709  23.463  25.863  1.00  0.00     0.016 A 
ATOM     31  C   UNL A   1      41.441  24.776  27.974  1.00  0.00     0.010 A 
ATOM     32  C   UNL A   1      42.878  24.832  26.020  1.00  0.00     0.010 A 
ATOM     33  C   UNL A   1      42.272  25.491  27.096  1.00  0.00    -0.014 A 
BRANCH  33  34
ATOM     34  C   UNL A   1      42.636  26.874  27.459  1.00  0.00     0.031 A 
ATOM     35  C   UNL A   1      41.463  27.816  27.566  1.00  0.00     0.074 A 
ATOM     36  C   UNL A   1      43.756  27.098  28.177  1.00  0.00     0.049 A 
ATOM     37  N   UNL A   1      40.704  27.972  28.614  1.00  0.00    -0.248 NA
ATOM     38  C   UNL A   1      40.909  28.423  26.353  1.00  0.00     0.031 C 
ATOM     39  C   UNL A   1      44.066  26.455  29.458  1.00  0.00     0.029 A 
ATOM     40  N   UNL A   1      44.696  28.098  28.056  1.00  0.00    -0.354 N 
ATOM     41  C   UNL A   1      39.589  28.708  28.215  1.00  0.00     0.074 A 
ATOM     42  C   UNL A   1      39.752  28.935  26.797  1.00  0.00     0.031 C 
ATOM     43  C   UNL A   1      45.009  27.186  30.088  1.00  0.00     0.029 A 
ATOM     44  C   UNL A   1      45.431  28.293  29.226  1.00  0.00     0.049 A 
ATOM     45  H   UNL A   1      44.835  28.619  27.233  1.00  0.00     0.167 HD
ATOM     46  C   UNL A   1      38.614  29.137  29.067  1.00  0.00     0.031 A 
ATOM     47  C   UNL A   1      45.838  29.525  29.655  1.00  0.00     0.031 A 
ATOM     48  C   UNL A   1      38.863  28.846  30.447  1.00  0.00     0.049 A 
ATOM     49  C   UNL A   1      44.569  30.009  30.322  1.00  0.00     0.074 A 
ATOM     50  C   UNL A   1      38.446  27.960  31.414  1.00  0.00     0.029 A 
ATOM     51  N   UNL A   1      39.787  29.638  31.085  1.00  0.00    -0.354 N 
ATOM     52  N   UNL A   1      44.125  29.663  31.503  1.00  0.00    -0.248 NA
ATOM     53  C   UNL A   1      43.557  30.600  29.441  1.00  0.00     0.031 C 
ATOM     54  C   UNL A   1      39.476  27.977  32.408  1.00  0.00     0.029 A 
ATOM     55  C   UNL A   1      40.470  28.851  31.968  1.00  0.00     0.049 A 
ATOM     56  H   UNL A   1      39.930  30.600  30.934  1.00  0.00     0.167 HD
ATOM     57  C   UNL A   1      42.732  29.692  31.398  1.00  0.00     0.074 A 
ATOM     58  C   UNL A   1      42.453  30.297  30.109  1.00  0.00     0.031 C 
ATOM     59  C   UNL A   1      41.875  29.064  32.255  1.00  0.00     0.031 A 
BRANCH  46  60
ATOM     60  C   UNL A   1      37.516  30.078  28.711  1.00  0.00    -0.014 A 
ATOM     61  C   UNL A   1      36.193  29.679  28.465  1.00  0.00     0.010 A 
ATOM     62  C   UNL A   1      37.798  31.457  28.792  1.00  0.00     0.010 A 
ATOM     63  C   UNL A   1      35.180  30.645  28.320  1.00  0.00     0.020 A 
ATOM     64  C   UNL A   1      36.798  32.418  28.661  1.00  0.00     0.020 A 
ATOM     65  C   UNL A   1      35.490  32.008  28.426  1.00  0.00     0.054 A 
BRANCH  65  66
ATOM     66  S   UNL A   1      34.170  33.246  28.287  1.00  0.00     0.124 S 
ATOM     67  O   UNL A   1      33.142  32.515  27.553  1.00  0.00    -0.237 OA
ATOM     68  O   UNL A   1      33.860  33.538  29.685  1.00  0.00    -0.237 OA
ATOM     69  O   UNL A   1      34.796  34.343  27.550  1.00  0.00    -0.744 OA
ENDBRANCH  65  66
ENDBRANCH  46  60
BRANCH  47  70
ATOM     70  C   UNL A   1      46.608  30.328  28.643  1.00  0.00    -0.014 A 
ATOM     71  C   UNL A   1      47.964  30.151  28.323  1.00  0.00     0.010 A 
ATOM     72  C   UNL A   1      45.930  31.403  28.025  1.00  0.00     0.010 A 
ATOM     73  C   UNL A   1      48.666  31.131  27.607  1.00  0.00     0.020 A 
ATOM     74  C   UNL A   1      46.614  32.368  27.280  1.00  0.00     0.020 A 
ATOM     75  C   UNL A   1      47.993  32.260  27.136  1.00  0.00     0.054 A 
BRANCH  75  76
ATOM     76  S   UNL A   1      48.954  33.622  26.423  1.00  0.00     0.124 S 
ATOM     77  O   UNL A   1      50.074  32.906  25.816  1.00  0.00    -0.237 OA
ATOM     78  O   UNL A   1      48.009  34.226  25.490  1.00  0.00    -0.237 OA
ATOM     79  O   UNL A   1      49.300  34.445  27.580  1.00  0.00    -0.744 OA
ENDBRANCH  75  76
ENDBRANCH  47  70
BRANCH  59  80
ATOM     80  C   UNL A   1      42.445  28.441  33.488  1.00  0.00    -0.014 A 
ATOM     81  C   UNL A   1      42.974  27.137  33.453  1.00  0.00     0.010 A 
ATOM     82  C   UNL A   1      42.269  29.075  34.726  1.00  0.00     0.010 A 
ATOM     83  C   UNL A   1      43.192  26.430  34.637  1.00  0.00     0.020 A 
ATOM     84  C   UNL A   1      42.506  28.382  35.913  1.00  0.00     0.020 A 
ATOM     85  C   UNL A   1      42.916  27.048  35.859  1.00  0.00     0.054 A 
BRANCH  85  86
ATOM     86  S   UNL A   1      42.995  26.052  37.370  1.00  0.00     0.124 S 
ATOM     87  O   UNL A   1      41.584  25.896  37.712  1.00  0.00    -0.237 OA
ATOM     88  O   UNL A   1      43.669  24.836  36.919  1.00  0.00    -0.237 OA
ATOM     89  O   UNL A   1      43.766  26.879  38.296  1.00  0.00    -0.744 OA
ENDBRANCH  85  86
ENDBRANCH  59  80
ENDBRANCH  33  34
ENDBRANCH  26  28
ENDBRANCH  25  26
ENDBRANCH  24  25
ENDBRANCH   1  24
TORSDOF 19
ENDMDL
MODEL 2
REMARK VINA RESULT:     -11.1      2.833      9.240
REMARK SMILES O=C(/C=C/C(=O)N1CCn2c1nc1ccccc12)OCCOCCOC(=O)c1ccc(-c2c3nc(c(-c4ccc(S(=O)(=O)[O-])cc4)c4ccc([nH]4)c(-c4ccc(S(=O)(=O)[O-])cc4)c4nc(c(-c5ccc(S(=O)(=O)[O-])cc5)c5ccc2[nH]5)C=C4)C=C3)cc1
REMARK SMILES IDX 23 1 22 2 21 3 20 4 19 5 2 6 1 7 3 8 4 9 5 10 6 11 7 12 8 13
REMARK SMILES IDX 11 14 9 15 10 16 12 17 18 18 13 19 17 20 14 21 16 22 15 23
REMARK SMILES IDX 24 24 25 25 26 26 27 27 28 28 29 29 87 30 30 31 86 32 31 33
REMARK SMILES IDX 32 34 33 35 80 36 34 37 85 38 79 39 81 40 35 41 84 42 78 43
REMARK SMILES IDX 77 44 36 46 66 47 47 48 65 49 48 50 51 51 64 52 82 53 49 54
REMARK SMILES IDX 50 55 63 57 83 58 52 59 37 60 38 61 46 62 39 63 45 64 40 65
REMARK SMILES IDX 41 66 42 67 43 68 44 69 67 70 68 71 76 72 69 73 75 74 70 75
REMARK SMILES IDX 71 76 72 77 73 78 74 79 53 80 54 81 62 82 55 83 61 84 56 85
REMARK SMILES IDX 57 86 58 87 59 88 60 89
REMARK H PARENT 81 45 51 56
REMARK Flexibility Score: inf
ROOT
ATOM      1  C   UNL A   1      33.582  30.257  26.791  1.00  0.00     0.202 C 
ENDROOT
BRANCH   1   2
ATOM      2  O   UNL A   1      32.881  30.212  25.545  1.00  0.00    -0.374 OA
BRANCH   2   3
ATOM      3  C   UNL A   1      32.860  28.972  24.847  1.00  0.00     0.202 C 
BRANCH   3   4
ATOM      4  C   UNL A   1      31.544  28.175  24.758  1.00  0.00     0.261 C 
BRANCH   4   5
ATOM      5  O   UNL A   1      31.641  26.771  24.470  1.00  0.00    -0.460 OA
BRANCH   5   6
ATOM      6  C   UNL A   1      32.314  26.255  23.408  1.00  0.00     0.331 C 
ATOM      7  O   UNL A   1      31.849  26.290  22.276  1.00  0.00    -0.247 OA
BRANCH   6   8
ATOM      8  C   UNL A   1      33.439  25.366  23.714  1.00  0.00     0.099 C 
ATOM      9  C   UNL A   1      34.184  25.402  24.826  1.00  0.00     0.079 C 
BRANCH   9  10
ATOM     10  C   UNL A   1      34.949  24.186  25.191  1.00  0.00     0.253 C 
ATOM     11  O   UNL A   1      36.154  24.161  24.929  1.00  0.00    -0.269 OA
BRANCH  10  12
ATOM     12  N   UNL A   1      34.322  23.133  25.788  1.00  0.00    -0.277 N 
ATOM     13  C   UNL A   1      34.289  22.910  27.239  1.00  0.00     0.151 C 
ATOM     14  C   UNL A   1      33.768  22.064  25.146  1.00  0.00     0.213 A 
ATOM     15  C   UNL A   1      33.950  21.414  27.386  1.00  0.00     0.148 C 
ATOM     16  N   UNL A   1      33.516  21.074  26.044  1.00  0.00    -0.308 N 
ATOM     17  N   UNL A   1      33.482  21.711  23.929  1.00  0.00    -0.212 NA
ATOM     18  C   UNL A   1      33.088  19.974  25.391  1.00  0.00     0.070 A 
ATOM     19  C   UNL A   1      33.033  20.412  24.059  1.00  0.00     0.091 A 
ATOM     20  C   UNL A   1      32.762  18.676  25.780  1.00  0.00     0.028 A 
ATOM     21  C   UNL A   1      32.588  19.534  23.065  1.00  0.00     0.031 A 
ATOM     22  C   UNL A   1      32.340  17.809  24.764  1.00  0.00     0.002 A 
ATOM     23  C   UNL A   1      32.242  18.229  23.433  1.00  0.00     0.002 A 
ENDBRANCH  10  12
ENDBRANCH   9  10
ENDBRANCH   6   8
ENDBRANCH   5   6
ENDBRANCH   4   5
ENDBRANCH   3   4
ENDBRANCH   2   3
ENDBRANCH   1   2
BRANCH   1  24
ATOM     24  C   UNL A   1      33.252  31.438  27.707  1.00  0.00     0.261 C 
BRANCH  24  25
ATOM     25  O   UNL A   1      34.330  32.384  27.670  1.00  0.00    -0.460 OA
BRANCH  25  26
ATOM     26  C   UNL A   1      34.643  33.013  28.825  1.00  0.00     0.338 C 
ATOM     27  O   UNL A   1      33.963  33.798  29.461  1.00  0.00    -0.246 OA
BRANCH  26  28
ATOM     28  C   UNL A   1      35.855  32.342  29.318  1.00  0.00     0.060 A 
ATOM     29  C   UNL A   1      36.803  31.853  28.420  1.00  0.00     0.016 A 
ATOM     30  C   UNL A   1      35.963  32.091  30.689  1.00  0.00     0.016 A 
ATOM     31  C   UNL A   1      37.869  31.104  28.907  1.00  0.00     0.010 A 
ATOM     32  C   UNL A   1      36.993  31.291  31.162  1.00  0.00     0.010 A 
ATOM     33  C   UNL A   1      37.971  30.820  30.279  1.00  0.00    -0.014 A 
BRANCH  33  34
ATOM     34  C   UNL A   1      39.219  30.202  30.767  1.00  0.00     0.031 A 
ATOM     35  C   UNL A   1      39.476  28.815  30.231  1.00  0.00     0.074 A 
ATOM     36  C   UNL A   1      40.251  30.991  31.133  1.00  0.00     0.049 A 
ATOM     37  N   UNL A   1      40.037  28.531  29.090  1.00  0.00    -0.248 NA
ATOM     38  C   UNL A   1      38.819  27.665  30.857  1.00  0.00     0.031 C 
ATOM     39  C   UNL A   1      40.847  32.028  30.285  1.00  0.00     0.029 A 
ATOM     40  N   UNL A   1      41.123  30.868  32.192  1.00  0.00    -0.354 N 
ATOM     41  C   UNL A   1      39.831  27.172  28.852  1.00  0.00     0.074 A 
ATOM     42  C   UNL A   1      39.045  26.691  29.964  1.00  0.00     0.031 C 
ATOM     43  C   UNL A   1      42.073  32.322  30.765  1.00  0.00     0.029 A 
ATOM     44  C   UNL A   1      42.316  31.563  31.994  1.00  0.00     0.049 A 
ATOM     45  H   UNL A   1      40.925  30.345  33.003  1.00  0.00     0.167 HD
ATOM     46  C   UNL A   1      40.353  26.498  27.786  1.00  0.00     0.031 A 
ATOM     47  C   UNL A   1      43.530  31.098  32.416  1.00  0.00     0.031 A 
ATOM     48  C   UNL A   1      41.217  27.281  26.955  1.00  0.00     0.049 A 
ATOM     49  C   UNL A   1      43.854  30.139  31.291  1.00  0.00     0.074 A 
ATOM     50  C   UNL A   1      41.188  27.920  25.737  1.00  0.00     0.029 A 
ATOM     51  N   UNL A   1      42.481  27.522  27.437  1.00  0.00    -0.354 N 
ATOM     52  N   UNL A   1      44.303  30.449  30.104  1.00  0.00    -0.248 NA
ATOM     53  C   UNL A   1      43.259  28.802  31.387  1.00  0.00     0.031 C 
ATOM     54  C   UNL A   1      42.250  28.879  25.791  1.00  0.00     0.029 A 
ATOM     55  C   UNL A   1      42.840  28.782  27.052  1.00  0.00     0.049 A 
ATOM     56  H   UNL A   1      43.030  26.898  27.965  1.00  0.00     0.167 HD
ATOM     57  C   UNL A   1      43.762  29.492  29.241  1.00  0.00     0.074 A 
ATOM     58  C   UNL A   1      43.148  28.499  30.102  1.00  0.00     0.031 C 
ATOM     59  C   UNL A   1      43.665  29.633  27.886  1.00  0.00     0.031 A 
BRANCH  46  60
ATOM     60  C   UNL A   1      40.313  25.021  27.603  1.00  0.00    -0.014 A 
ATOM     61  C   UNL A   1      39.304  24.348  26.897  1.00  0.00     0.010 A 
ATOM     62  C   UNL A   1      41.442  24.289  28.024  1.00  0.00     0.010 A 
ATOM     63  C   UNL A   1      39.438  22.977  26.609  1.00  0.00     0.020 A 
ATOM     64  C   UNL A   1      41.586  22.934  27.732  1.00  0.00     0.020 A 
ATOM     65  C   UNL A   1      40.582  22.281  27.025  1.00  0.00     0.054 A 
BRANCH  65  66
ATOM     66  S   UNL A   1      40.770  20.525  26.607  1.00  0.00     0.124 S 
ATOM     67  O   UNL A   1      40.896  19.910  27.925  1.00  0.00    -0.237 OA
ATOM     68  O   UNL A   1      39.531  20.234  25.891  1.00  0.00    -0.237 OA
ATOM     69  O   UNL A   1      41.981  20.490  25.788  1.00  0.00    -0.744 OA
ENDBRANCH  65  66
ENDBRANCH  46  60
BRANCH  47  70
ATOM     70  C   UNL A   1      43.599  30.732  33.872  1.00  0.00    -0.014 A 
ATOM     71  C   UNL A   1      43.586  31.641  34.943  1.00  0.00     0.010 A 
ATOM     72  C   UNL A   1      43.775  29.365  34.184  1.00  0.00     0.010 A 
ATOM     73  C   UNL A   1      43.961  31.236  36.232  1.00  0.00     0.020 A 
ATOM     74  C   UNL A   1      44.116  28.946  35.473  1.00  0.00     0.020 A 
ATOM     75  C   UNL A   1      44.276  29.898  36.475  1.00  0.00     0.054 A 
BRANCH  75  76
ATOM     76  S   UNL A   1      44.984  29.438  38.079  1.00  0.00     0.124 S 
ATOM     77  O   UNL A   1      46.412  29.628  37.835  1.00  0.00    -0.237 OA
ATOM     78  O   UNL A   1      44.364  30.397  38.988  1.00  0.00    -0.237 OA
ATOM     79  O   UNL A   1      44.565  28.050  38.257  1.00  0.00    -0.744 OA
ENDBRANCH  75  76
ENDBRANCH  47  70
BRANCH  59  80
ATOM     80  C   UNL A   1      44.330  30.811  27.253  1.00  0.00    -0.014 A 
ATOM     81  C   UNL A   1      45.649  30.717  26.771  1.00  0.00     0.010 A 
ATOM     82  C   UNL A   1      43.714  32.069  27.320  1.00  0.00     0.010 A 
ATOM     83  C   UNL A   1      46.385  31.870  26.495  1.00  0.00     0.020 A 
ATOM     84  C   UNL A   1      44.438  33.225  27.024  1.00  0.00     0.020 A 
ATOM     85  C   UNL A   1      45.783  33.119  26.664  1.00  0.00     0.054 A 
BRANCH  85  86
ATOM     86  S   UNL A   1      46.810  34.603  26.513  1.00  0.00     0.124 S 
ATOM     87  O   UNL A   1      47.180  34.867  27.902  1.00  0.00    -0.237 OA
ATOM     88  O   UNL A   1      47.900  34.155  25.649  1.00  0.00    -0.237 OA
ATOM     89  O   UNL A   1      45.914  35.592  25.916  1.00  0.00    -0.744 OA
ENDBRANCH  85  86
ENDBRANCH  59  80
ENDBRANCH  33  34
ENDBRANCH  26  28
ENDBRANCH  25  26
ENDBRANCH  24  25
ENDBRANCH   1  24
TORSDOF 19
ENDMDL
MODEL 3
REMARK VINA RESULT:     -10.9      2.690      9.195
REMARK SMILES O=C(/C=C/C(=O)N1CCn2c1nc1ccccc12)OCCOCCOC(=O)c1ccc(-c2c3nc(c(-c4ccc(S(=O)(=O)[O-])cc4)c4ccc([nH]4)c(-c4ccc(S(=O)(=O)[O-])cc4)c4nc(c(-c5ccc(S(=O)(=O)[O-])cc5)c5ccc2[nH]5)C=C4)C=C3)cc1
REMARK SMILES IDX 23 1 22 2 21 3 20 4 19 5 2 6 1 7 3 8 4 9 5 10 6 11 7 12 8 13
REMARK SMILES IDX 11 14 9 15 10 16 12 17 18 18 13 19 17 20 14 21 16 22 15 23
REMARK SMILES IDX 24 24 25 25 26 26 27 27 28 28 29 29 87 30 30 31 86 32 31 33
REMARK SMILES IDX 32 34 33 35 80 36 34 37 85 38 79 39 81 40 35 41 84 42 78 43
REMARK SMILES IDX 77 44 36 46 66 47 47 48 65 49 48 50 51 51 64 52 82 53 49 54
REMARK SMILES IDX 50 55 63 57 83 58 52 59 37 60 38 61 46 62 39 63 45 64 40 65
REMARK SMILES IDX 41 66 42 67 43 68 44 69 67 70 68 71 76 72 69 73 75 74 70 75
REMARK SMILES IDX 71 76 72 77 73 78 74 79 53 80 54 81 62 82 55 83 61 84 56 85
REMARK SMILES IDX 57 86 58 87 59 88 60 89
REMARK H PARENT 81 45 51 56
REMARK Flexibility Score: inf
ROOT
ATOM      1  C   UNL A   1      33.480  30.621  27.238  1.00  0.00     0.202 C 
ENDROOT
BRANCH   1   2
ATOM      2  O   UNL A   1      32.227  30.895  26.604  1.00  0.00    -0.374 OA
BRANCH   2   3
ATOM      3  C   UNL A   1      31.748  29.948  25.657  1.00  0.00     0.202 C 
BRANCH   3   4
ATOM      4  C   UNL A   1      30.758  30.400  24.567  1.00  0.00     0.261 C 
BRANCH   4   5
ATOM      5  O   UNL A   1      30.043  29.376  23.858  1.00  0.00    -0.460 OA
BRANCH   5   6
ATOM      6  C   UNL A   1      30.439  28.854  22.668  1.00  0.00     0.331 C 
ATOM      7  O   UNL A   1      29.924  29.200  21.612  1.00  0.00    -0.247 OA
BRANCH   6   8
ATOM      8  C   UNL A   1      31.252  27.635  22.725  1.00  0.00     0.099 C 
ATOM      9  C   UNL A   1      31.161  26.595  21.887  1.00  0.00     0.079 C 
BRANCH   9  10
ATOM     10  C   UNL A   1      32.322  25.680  21.783  1.00  0.00     0.253 C 
ATOM     11  O   UNL A   1      33.242  25.997  21.025  1.00  0.00    -0.269 OA
BRANCH  10  12
ATOM     12  N   UNL A   1      32.352  24.522  22.503  1.00  0.00    -0.277 N 
ATOM     13  C   UNL A   1      31.174  23.921  23.142  1.00  0.00     0.151 C 
ATOM     14  C   UNL A   1      33.472  23.833  22.864  1.00  0.00     0.213 A 
ATOM     15  C   UNL A   1      31.761  22.981  24.212  1.00  0.00     0.148 C 
ATOM     16  N   UNL A   1      33.157  22.920  23.822  1.00  0.00    -0.308 N 
ATOM     17  N   UNL A   1      34.744  23.852  22.600  1.00  0.00    -0.212 NA
ATOM     18  C   UNL A   1      34.285  22.330  24.267  1.00  0.00     0.070 A 
ATOM     19  C   UNL A   1      35.272  22.903  23.452  1.00  0.00     0.091 A 
ATOM     20  C   UNL A   1      34.568  21.400  25.267  1.00  0.00     0.028 A 
ATOM     21  C   UNL A   1      36.605  22.500  23.600  1.00  0.00     0.031 A 
ATOM     22  C   UNL A   1      35.911  21.029  25.410  1.00  0.00     0.002 A 
ATOM     23  C   UNL A   1      36.911  21.557  24.587  1.00  0.00     0.002 A 
ENDBRANCH  10  12
ENDBRANCH   9  10
ENDBRANCH   6   8
ENDBRANCH   5   6
ENDBRANCH   4   5
ENDBRANCH   3   4
ENDBRANCH   2   3
ENDBRANCH   1   2
BRANCH   1  24
ATOM     24  C   UNL A   1      33.892  31.579  28.358  1.00  0.00     0.261 C 
BRANCH  24  25
ATOM     25  O   UNL A   1      34.661  32.656  27.804  1.00  0.00    -0.460 OA
BRANCH  25  26
ATOM     26  C   UNL A   1      35.255  33.506  28.672  1.00  0.00     0.338 C 
ATOM     27  O   UNL A   1      34.818  34.552  29.117  1.00  0.00    -0.246 OA
BRANCH  26  28
ATOM     28  C   UNL A   1      36.414  32.773  29.203  1.00  0.00     0.060 A 
ATOM     29  C   UNL A   1      37.191  31.981  28.359  1.00  0.00     0.016 A 
ATOM     30  C   UNL A   1      36.631  32.785  30.584  1.00  0.00     0.016 A 
ATOM     31  C   UNL A   1      38.197  31.193  28.910  1.00  0.00     0.010 A 
ATOM     32  C   UNL A   1      37.594  31.951  31.134  1.00  0.00     0.010 A 
ATOM     33  C   UNL A   1      38.405  31.175  30.299  1.00  0.00    -0.014 A 
BRANCH  33  34
ATOM     34  C   UNL A   1      39.607  30.488  30.809  1.00  0.00     0.031 A 
ATOM     35  C   UNL A   1      39.792  29.087  30.281  1.00  0.00     0.074 A 
ATOM     36  C   UNL A   1      40.675  31.217  31.192  1.00  0.00     0.049 A 
ATOM     37  N   UNL A   1      40.355  28.767  29.151  1.00  0.00    -0.248 NA
ATOM     38  C   UNL A   1      39.059  27.978  30.899  1.00  0.00     0.031 C 
ATOM     39  C   UNL A   1      41.344  32.216  30.353  1.00  0.00     0.029 A 
ATOM     40  N   UNL A   1      41.520  31.047  32.267  1.00  0.00    -0.354 N 
ATOM     41  C   UNL A   1      40.076  27.422  28.912  1.00  0.00     0.074 A 
ATOM     42  C   UNL A   1      39.244  26.990  30.011  1.00  0.00     0.031 C 
ATOM     43  C   UNL A   1      42.577  32.440  30.853  1.00  0.00     0.029 A 
ATOM     44  C   UNL A   1      42.755  31.672  32.088  1.00  0.00     0.049 A 
ATOM     45  H   UNL A   1      41.279  30.539  33.075  1.00  0.00     0.167 HD
ATOM     46  C   UNL A   1      40.576  26.716  27.857  1.00  0.00     0.031 A 
ATOM     47  C   UNL A   1      43.932  31.139  32.532  1.00  0.00     0.031 A 
ATOM     48  C   UNL A   1      41.498  27.444  27.040  1.00  0.00     0.049 A 
ATOM     49  C   UNL A   1      44.220  30.159  31.415  1.00  0.00     0.074 A 
ATOM     50  C   UNL A   1      41.527  28.081  25.820  1.00  0.00     0.029 A 
ATOM     51  N   UNL A   1      42.766  27.614  27.543  1.00  0.00    -0.354 N 
ATOM     52  N   UNL A   1      44.707  30.439  30.235  1.00  0.00    -0.248 NA
ATOM     53  C   UNL A   1      43.547  28.859  31.503  1.00  0.00     0.031 C 
ATOM     54  C   UNL A   1      42.642  28.977  25.890  1.00  0.00     0.029 A 
ATOM     55  C   UNL A   1      43.203  28.850  27.161  1.00  0.00     0.049 A 
ATOM     56  H   UNL A   1      43.269  26.961  28.082  1.00  0.00     0.167 HD
ATOM     57  C   UNL A   1      44.126  29.513  29.365  1.00  0.00     0.074 A 
ATOM     58  C   UNL A   1      43.442  28.559  30.217  1.00  0.00     0.031 C 
ATOM     59  C   UNL A   1      44.061  29.654  28.008  1.00  0.00     0.031 A 
BRANCH  46  60
ATOM     60  C   UNL A   1      40.454  25.242  27.676  1.00  0.00    -0.014 A 
ATOM     61  C   UNL A   1      39.431  24.628  26.938  1.00  0.00     0.010 A 
ATOM     62  C   UNL A   1      41.523  24.446  28.136  1.00  0.00     0.010 A 
ATOM     63  C   UNL A   1      39.493  23.250  26.659  1.00  0.00     0.020 A 
ATOM     64  C   UNL A   1      41.595  23.084  27.853  1.00  0.00     0.020 A 
ATOM     65  C   UNL A   1      40.579  22.489  27.114  1.00  0.00     0.054 A 
BRANCH  65  66
ATOM     66  S   UNL A   1      40.675  20.722  26.707  1.00  0.00     0.124 S 
ATOM     67  O   UNL A   1      40.783  20.111  28.028  1.00  0.00    -0.237 OA
ATOM     68  O   UNL A   1      39.417  20.489  26.004  1.00  0.00    -0.237 OA
ATOM     69  O   UNL A   1      41.875  20.622  25.878  1.00  0.00    -0.744 OA
ENDBRANCH  65  66
ENDBRANCH  46  60
BRANCH  47  70
ATOM     70  C   UNL A   1      43.955  30.775  33.990  1.00  0.00    -0.014 A 
ATOM     71  C   UNL A   1      43.890  31.683  35.059  1.00  0.00     0.010 A 
ATOM     72  C   UNL A   1      44.141  29.410  34.308  1.00  0.00     0.010 A 
ATOM     73  C   UNL A   1      44.225  31.284  36.361  1.00  0.00     0.020 A 
ATOM     74  C   UNL A   1      44.443  28.996  35.609  1.00  0.00     0.020 A 
ATOM     75  C   UNL A   1      44.551  29.951  36.615  1.00  0.00     0.054 A 
BRANCH  75  76
ATOM     76  S   UNL A   1      45.209  29.502  38.244  1.00  0.00     0.124 S 
ATOM     77  O   UNL A   1      44.555  30.484  39.106  1.00  0.00    -0.237 OA
ATOM     78  O   UNL A   1      44.758  28.123  38.401  1.00  0.00    -0.237 OA
ATOM     79  O   UNL A   1      46.652  29.673  38.094  1.00  0.00    -0.744 OA
ENDBRANCH  75  76
ENDBRANCH  47  70
BRANCH  59  80
ATOM     80  C   UNL A   1      44.804  30.791  27.384  1.00  0.00    -0.014 A 
ATOM     81  C   UNL A   1      46.158  30.652  27.026  1.00  0.00     0.010 A 
ATOM     82  C   UNL A   1      44.211  32.061  27.340  1.00  0.00     0.010 A 
ATOM     83  C   UNL A   1      46.940  31.778  26.765  1.00  0.00     0.020 A 
ATOM     84  C   UNL A   1      44.982  33.189  27.058  1.00  0.00     0.020 A 
ATOM     85  C   UNL A   1      46.351  33.043  26.823  1.00  0.00     0.054 A 
BRANCH  85  86
ATOM     86  S   UNL A   1      47.419  34.501  26.697  1.00  0.00     0.124 S 
ATOM     87  O   UNL A   1      48.685  34.006  27.233  1.00  0.00    -0.237 OA
ATOM     88  O   UNL A   1      47.413  34.783  25.264  1.00  0.00    -0.237 OA
ATOM     89  O   UNL A   1      46.748  35.501  27.527  1.00  0.00    -0.744 OA
ENDBRANCH  85  86
ENDBRANCH  59  80
ENDBRANCH  33  34
ENDBRANCH  26  28
ENDBRANCH  25  26
ENDBRANCH  24  25
ENDBRANCH   1  24
TORSDOF 19
ENDMDL
