MODEL 1
REMARK VINA RESULT:     -10.2      0.000      0.000
REMARK SMILES [NH3+][C@H](CS[C@@H]1CC(=O)N(c2ccc3ccccc3c2)C1=O)C(=O)OCCOCCOC(=O)c1ccc(-c2c3nc(c(-c4ccc(S(=O)(=O)[O-])cc4)c4ccc([nH]4)c(-c4ccc(S(=O)(=O)[O-])cc4)c4nc(c(-c5ccc(S(=O)(=O)[O-])cc5)c5ccc2[nH]5)C=C4)C=C3)cc1
REMARK SMILES IDX 26 1 25 2 24 3 22 4 23 5 2 6 1 7 3 11 4 12 5 13 6 14 20 15
REMARK SMILES IDX 7 16 9 17 21 18 8 19 10 20 11 21 19 22 12 23 18 24 13 25
REMARK SMILES IDX 17 26 14 27 16 28 15 29 27 30 28 31 29 32 30 33 31 34 32 35
REMARK SMILES IDX 33 36 34 37 92 38 35 39 91 40 36 41 37 42 38 43 85 44 39 45
REMARK SMILES IDX 90 46 84 47 86 48 40 49 89 50 83 51 82 52 41 54 71 55 52 56
REMARK SMILES IDX 70 57 53 58 56 59 69 60 87 61 54 62 55 63 68 65 88 66 57 67
REMARK SMILES IDX 42 68 43 69 51 70 44 71 50 72 45 73 46 74 47 75 48 76 49 77
REMARK SMILES IDX 72 78 73 79 81 80 74 81 80 82 75 83 76 84 77 85 78 86 79 87
REMARK SMILES IDX 58 88 59 89 67 90 60 91 66 92 61 93 62 94 63 95 64 96 65 97
REMARK H PARENT 1 8 1 9 1 10 86 53 56 64
REMARK Flexibility Score: inf
ROOT
ATOM      1  C   UNL A   1      34.500  29.741  27.110  1.00  0.00     0.202 C 
ENDROOT
BRANCH   1   2
ATOM      2  C   UNL A   1      34.088  28.289  26.860  1.00  0.00     0.261 C 
BRANCH   2   3
ATOM      3  O   UNL A   1      32.814  28.202  26.200  1.00  0.00    -0.459 OA
BRANCH   3   4
ATOM      4  C   UNL A   1      32.829  28.415  24.854  1.00  0.00     0.365 C 
ATOM      5  O   UNL A   1      33.723  28.045  24.101  1.00  0.00    -0.245 OA
BRANCH   4   6
ATOM      6  C   UNL A   1      31.580  29.186  24.379  1.00  0.00     0.301 C 
BRANCH   6   7
ATOM      7  N   UNL A   1      31.552  30.500  25.051  1.00  0.00    -0.345 N 
ATOM      8  H   UNL A   1      30.781  31.055  24.680  1.00  0.00     0.345 HD
ATOM      9  H   UNL A   1      32.433  30.987  24.883  1.00  0.00     0.345 HD
ATOM     10  H   UNL A   1      31.424  30.367  26.054  1.00  0.00     0.345 HD
ENDBRANCH   6   7
BRANCH   6  11
ATOM     11  C   UNL A   1      30.283  28.359  24.528  1.00  0.00     0.147 C 
BRANCH  11  12
ATOM     12  S   UNL A   1      29.939  27.219  23.141  1.00  0.00    -0.141 SA
BRANCH  12  13
ATOM     13  C   UNL A   1      30.245  25.629  23.967  1.00  0.00     0.146 C 
ATOM     14  C   UNL A   1      30.154  25.715  25.473  1.00  0.00     0.125 C 
ATOM     15  C   UNL A   1      31.650  25.154  23.698  1.00  0.00     0.247 C 
ATOM     16  C   UNL A   1      31.298  24.858  25.933  1.00  0.00     0.235 C 
ATOM     17  N   UNL A   1      32.171  24.687  24.882  1.00  0.00    -0.250 N 
ATOM     18  O   UNL A   1      32.136  25.089  22.575  1.00  0.00    -0.273 OA
ATOM     19  O   UNL A   1      31.415  24.487  27.091  1.00  0.00    -0.274 OA
BRANCH  17  20
ATOM     20  C   UNL A   1      33.436  24.059  24.985  1.00  0.00     0.052 A 
ATOM     21  C   UNL A   1      34.600  24.810  25.166  1.00  0.00     0.027 A 
ATOM     22  C   UNL A   1      33.544  22.662  24.900  1.00  0.00     0.035 A 
ATOM     23  C   UNL A   1      35.841  24.180  25.299  1.00  0.00     0.011 A 
ATOM     24  C   UNL A   1      34.791  22.018  24.973  1.00  0.00    -0.016 A 
ATOM     25  C   UNL A   1      35.953  22.787  25.196  1.00  0.00    -0.018 A 
ATOM     26  C   UNL A   1      34.906  20.628  24.818  1.00  0.00     0.009 A 
ATOM     27  C   UNL A   1      37.195  22.142  25.300  1.00  0.00     0.009 A 
ATOM     28  C   UNL A   1      36.151  20.002  24.897  1.00  0.00     0.001 A 
ATOM     29  C   UNL A   1      37.293  20.758  25.148  1.00  0.00     0.001 A 
ENDBRANCH  17  20
ENDBRANCH  12  13
ENDBRANCH  11  12
ENDBRANCH   6  11
ENDBRANCH   4   6
ENDBRANCH   3   4
ENDBRANCH   2   3
ENDBRANCH   1   2
BRANCH   1  30
ATOM     30  O   UNL A   1      33.452  30.656  27.428  1.00  0.00    -0.374 OA
BRANCH  30  31
ATOM     31  C   UNL A   1      33.829  31.933  27.941  1.00  0.00     0.202 C 
BRANCH  31  32
ATOM     32  C   UNL A   1      32.940  33.124  27.562  1.00  0.00     0.261 C 
BRANCH  32  33
ATOM     33  O   UNL A   1      32.652  33.969  28.691  1.00  0.00    -0.460 OA
BRANCH  33  34
ATOM     34  C   UNL A   1      33.542  34.973  28.887  1.00  0.00     0.338 C 
ATOM     35  O   UNL A   1      33.438  36.132  28.510  1.00  0.00    -0.246 OA
BRANCH  34  36
ATOM     36  C   UNL A   1      34.606  34.533  29.807  1.00  0.00     0.060 A 
ATOM     37  C   UNL A   1      35.926  34.563  29.337  1.00  0.00     0.016 A 
ATOM     38  C   UNL A   1      34.314  34.026  31.074  1.00  0.00     0.016 A 
ATOM     39  C   UNL A   1      36.957  34.031  30.109  1.00  0.00     0.010 A 
ATOM     40  C   UNL A   1      35.348  33.483  31.844  1.00  0.00     0.010 A 
ATOM     41  C   UNL A   1      36.664  33.447  31.347  1.00  0.00    -0.014 A 
BRANCH  41  42
ATOM     42  C   UNL A   1      37.684  32.632  32.046  1.00  0.00     0.031 A 
ATOM     43  C   UNL A   1      38.180  33.099  33.387  1.00  0.00     0.074 A 
ATOM     44  C   UNL A   1      38.177  31.510  31.493  1.00  0.00     0.049 A 
ATOM     45  N   UNL A   1      39.154  32.629  34.120  1.00  0.00    -0.248 NA
ATOM     46  C   UNL A   1      37.487  34.258  33.971  1.00  0.00     0.031 C 
ATOM     47  C   UNL A   1      37.737  30.927  30.228  1.00  0.00     0.029 A 
ATOM     48  N   UNL A   1      39.178  30.676  31.922  1.00  0.00    -0.354 N 
ATOM     49  C   UNL A   1      39.211  33.452  35.240  1.00  0.00     0.074 A 
ATOM     50  C   UNL A   1      38.184  34.457  35.079  1.00  0.00     0.031 C 
ATOM     51  C   UNL A   1      38.485  29.841  29.968  1.00  0.00     0.029 A 
ATOM     52  C   UNL A   1      39.482  29.681  31.027  1.00  0.00     0.049 A 
ATOM     53  H   UNL A   1      39.635  30.781  32.788  1.00  0.00     0.167 HD
ATOM     54  C   UNL A   1      40.048  33.380  36.301  1.00  0.00     0.031 A 
ATOM     55  C   UNL A   1      40.475  28.769  31.039  1.00  0.00     0.031 A 
ATOM     56  C   UNL A   1      41.079  32.386  36.444  1.00  0.00     0.049 A 
ATOM     57  C   UNL A   1      41.439  28.741  32.194  1.00  0.00     0.074 A 
ATOM     58  C   UNL A   1      41.973  32.217  37.486  1.00  0.00     0.029 A 
ATOM     59  N   UNL A   1      41.358  31.400  35.509  1.00  0.00    -0.354 N 
ATOM     60  N   UNL A   1      41.479  29.518  33.251  1.00  0.00    -0.248 NA
ATOM     61  C   UNL A   1      42.487  27.711  32.164  1.00  0.00     0.031 C 
ATOM     62  C   UNL A   1      42.829  31.161  37.155  1.00  0.00     0.029 A 
ATOM     63  C   UNL A   1      42.427  30.632  35.938  1.00  0.00     0.049 A 
ATOM     64  H   UNL A   1      40.868  31.266  34.666  1.00  0.00     0.167 HD
ATOM     65  C   UNL A   1      42.535  29.052  34.027  1.00  0.00     0.074 A 
ATOM     66  C   UNL A   1      43.108  27.925  33.318  1.00  0.00     0.031 C 
ATOM     67  C   UNL A   1      42.982  29.510  35.222  1.00  0.00     0.031 A 
BRANCH  54  68
ATOM     68  C   UNL A   1      39.915  34.446  37.356  1.00  0.00    -0.014 A 
ATOM     69  C   UNL A   1      39.101  34.262  38.489  1.00  0.00     0.010 A 
ATOM     70  C   UNL A   1      40.610  35.659  37.203  1.00  0.00     0.010 A 
ATOM     71  C   UNL A   1      38.937  35.296  39.416  1.00  0.00     0.020 A 
ATOM     72  C   UNL A   1      40.472  36.684  38.142  1.00  0.00     0.020 A 
ATOM     73  C   UNL A   1      39.615  36.505  39.230  1.00  0.00     0.054 A 
BRANCH  73  74
ATOM     74  S   UNL A   1      39.368  37.838  40.434  1.00  0.00     0.124 S 
ATOM     75  O   UNL A   1      40.605  38.602  40.292  1.00  0.00    -0.237 OA
ATOM     76  O   UNL A   1      38.163  38.499  39.941  1.00  0.00    -0.237 OA
ATOM     77  O   UNL A   1      39.214  37.134  41.705  1.00  0.00    -0.744 OA
ENDBRANCH  73  74
ENDBRANCH  54  68
BRANCH  55  78
ATOM     78  C   UNL A   1      40.608  27.824  29.897  1.00  0.00    -0.014 A 
ATOM     79  C   UNL A   1      39.804  26.675  29.819  1.00  0.00     0.010 A 
ATOM     80  C   UNL A   1      41.507  28.105  28.849  1.00  0.00     0.010 A 
ATOM     81  C   UNL A   1      39.886  25.829  28.708  1.00  0.00     0.020 A 
ATOM     82  C   UNL A   1      41.574  27.276  27.727  1.00  0.00     0.020 A 
ATOM     83  C   UNL A   1      40.762  26.142  27.664  1.00  0.00     0.054 A 
BRANCH  83  84
ATOM     84  S   UNL A   1      40.774  25.089  26.186  1.00  0.00     0.124 S 
ATOM     85  O   UNL A   1      41.325  25.987  25.177  1.00  0.00    -0.237 OA
ATOM     86  O   UNL A   1      41.640  23.986  26.594  1.00  0.00    -0.237 OA
ATOM     87  O   UNL A   1      39.368  24.733  26.009  1.00  0.00    -0.744 OA
ENDBRANCH  83  84
ENDBRANCH  55  78
BRANCH  67  88
ATOM     88  C   UNL A   1      44.119  28.771  35.878  1.00  0.00    -0.014 A 
ATOM     89  C   UNL A   1      45.452  29.182  35.715  1.00  0.00     0.010 A 
ATOM     90  C   UNL A   1      43.831  27.702  36.748  1.00  0.00     0.010 A 
ATOM     91  C   UNL A   1      46.480  28.528  36.403  1.00  0.00     0.020 A 
ATOM     92  C   UNL A   1      44.851  27.064  37.455  1.00  0.00     0.020 A 
ATOM     93  C   UNL A   1      46.172  27.477  37.272  1.00  0.00     0.054 A 
BRANCH  93  94
ATOM     94  S   UNL A   1      47.515  26.694  38.208  1.00  0.00     0.124 S 
ATOM     95  O   UNL A   1      47.516  27.470  39.445  1.00  0.00    -0.237 OA
ATOM     96  O   UNL A   1      47.055  25.312  38.332  1.00  0.00    -0.237 OA
ATOM     97  O   UNL A   1      48.687  26.880  37.354  1.00  0.00    -0.744 OA
ENDBRANCH  93  94
ENDBRANCH  67  88
ENDBRANCH  41  42
ENDBRANCH  34  36
ENDBRANCH  33  34
ENDBRANCH  32  33
ENDBRANCH  31  32
ENDBRANCH  30  31
ENDBRANCH   1  30
TORSDOF 22
ENDMDL
MODEL 2
REMARK VINA RESULT:      -9.9      6.300     10.740
REMARK SMILES [NH3+][C@H](CS[C@@H]1CC(=O)N(c2ccc3ccccc3c2)C1=O)C(=O)OCCOCCOC(=O)c1ccc(-c2c3nc(c(-c4ccc(S(=O)(=O)[O-])cc4)c4ccc([nH]4)c(-c4ccc(S(=O)(=O)[O-])cc4)c4nc(c(-c5ccc(S(=O)(=O)[O-])cc5)c5ccc2[nH]5)C=C4)C=C3)cc1
REMARK SMILES IDX 26 1 25 2 24 3 22 4 23 5 2 6 1 7 3 11 4 12 5 13 6 14 20 15
REMARK SMILES IDX 7 16 9 17 21 18 8 19 10 20 11 21 19 22 12 23 18 24 13 25
REMARK SMILES IDX 17 26 14 27 16 28 15 29 27 30 28 31 29 32 30 33 31 34 32 35
REMARK SMILES IDX 33 36 34 37 92 38 35 39 91 40 36 41 37 42 38 43 85 44 39 45
REMARK SMILES IDX 90 46 84 47 86 48 40 49 89 50 83 51 82 52 41 54 71 55 52 56
REMARK SMILES IDX 70 57 53 58 56 59 69 60 87 61 54 62 55 63 68 65 88 66 57 67
REMARK SMILES IDX 42 68 43 69 51 70 44 71 50 72 45 73 46 74 47 75 48 76 49 77
REMARK SMILES IDX 72 78 73 79 81 80 74 81 80 82 75 83 76 84 77 85 78 86 79 87
REMARK SMILES IDX 58 88 59 89 67 90 60 91 66 92 61 93 62 94 63 95 64 96 65 97
REMARK H PARENT 1 8 1 9 1 10 86 53 56 64
REMARK Flexibility Score: inf
ROOT
ATOM      1  C   UNL A   1      38.282  23.824  26.428  1.00  0.00     0.202 C 
ENDROOT
BRANCH   1   2
ATOM      2  C   UNL A   1      36.968  23.852  25.645  1.00  0.00     0.261 C 
BRANCH   2   3
ATOM      3  O   UNL A   1      35.845  23.506  26.474  1.00  0.00    -0.459 OA
BRANCH   3   4
ATOM      4  C   UNL A   1      34.621  23.859  25.989  1.00  0.00     0.365 C 
ATOM      5  O   UNL A   1      34.338  24.970  25.556  1.00  0.00    -0.245 OA
BRANCH   4   6
ATOM      6  C   UNL A   1      33.618  22.688  26.051  1.00  0.00     0.301 C 
BRANCH   6   7
ATOM      7  N   UNL A   1      34.302  21.457  25.610  1.00  0.00    -0.345 N 
ATOM      8  H   UNL A   1      33.707  20.651  25.800  1.00  0.00     0.345 HD
ATOM      9  H   UNL A   1      35.182  21.357  26.116  1.00  0.00     0.345 HD
ATOM     10  H   UNL A   1      34.490  21.512  24.609  1.00  0.00     0.345 HD
ENDBRANCH   6   7
BRANCH   6  11
ATOM     11  C   UNL A   1      32.302  22.997  25.302  1.00  0.00     0.147 C 
BRANCH  11  12
ATOM     12  S   UNL A   1      32.099  22.114  23.714  1.00  0.00    -0.141 SA
BRANCH  12  13
ATOM     13  C   UNL A   1      32.055  23.533  22.577  1.00  0.00     0.146 C 
ATOM     14  C   UNL A   1      33.416  24.150  22.345  1.00  0.00     0.125 C 
ATOM     15  C   UNL A   1      31.227  24.650  23.156  1.00  0.00     0.247 C 
ATOM     16  C   UNL A   1      33.128  25.623  22.354  1.00  0.00     0.235 C 
ATOM     17  N   UNL A   1      31.903  25.829  22.947  1.00  0.00    -0.250 N 
ATOM     18  O   UNL A   1      30.093  24.491  23.595  1.00  0.00    -0.273 OA
ATOM     19  O   UNL A   1      33.937  26.451  21.964  1.00  0.00    -0.274 OA
BRANCH  17  20
ATOM     20  C   UNL A   1      31.369  27.102  23.262  1.00  0.00     0.052 A 
ATOM     21  C   UNL A   1      31.936  27.893  24.265  1.00  0.00     0.027 A 
ATOM     22  C   UNL A   1      30.249  27.593  22.572  1.00  0.00     0.035 A 
ATOM     23  C   UNL A   1      31.423  29.163  24.548  1.00  0.00     0.011 A 
ATOM     24  C   UNL A   1      29.686  28.842  22.885  1.00  0.00    -0.016 A 
ATOM     25  C   UNL A   1      30.294  29.646  23.872  1.00  0.00    -0.018 A 
ATOM     26  C   UNL A   1      28.525  29.302  22.244  1.00  0.00     0.009 A 
ATOM     27  C   UNL A   1      29.750  30.906  24.164  1.00  0.00     0.009 A 
ATOM     28  C   UNL A   1      27.979  30.546  22.562  1.00  0.00     0.001 A 
ATOM     29  C   UNL A   1      28.598  31.352  23.514  1.00  0.00     0.001 A 
ENDBRANCH  17  20
ENDBRANCH  12  13
ENDBRANCH  11  12
ENDBRANCH   6  11
ENDBRANCH   4   6
ENDBRANCH   3   4
ENDBRANCH   2   3
ENDBRANCH   1   2
BRANCH   1  30
ATOM     30  O   UNL A   1      39.134  22.700  26.204  1.00  0.00    -0.374 OA
BRANCH  30  31
ATOM     31  C   UNL A   1      38.620  21.639  25.401  1.00  0.00     0.202 C 
BRANCH  31  32
ATOM     32  C   UNL A   1      39.082  20.218  25.748  1.00  0.00     0.261 C 
BRANCH  32  33
ATOM     33  O   UNL A   1      40.088  20.210  26.777  1.00  0.00    -0.460 OA
BRANCH  33  34
ATOM     34  C   UNL A   1      41.336  19.903  26.345  1.00  0.00     0.338 C 
ATOM     35  O   UNL A   1      41.669  18.923  25.692  1.00  0.00    -0.246 OA
BRANCH  34  36
ATOM     36  C   UNL A   1      42.252  21.028  26.604  1.00  0.00     0.060 A 
ATOM     37  C   UNL A   1      42.417  21.440  27.934  1.00  0.00     0.016 A 
ATOM     38  C   UNL A   1      42.875  21.719  25.563  1.00  0.00     0.016 A 
ATOM     39  C   UNL A   1      43.160  22.582  28.226  1.00  0.00     0.010 A 
ATOM     40  C   UNL A   1      43.611  22.870  25.857  1.00  0.00     0.010 A 
ATOM     41  C   UNL A   1      43.722  23.328  27.184  1.00  0.00    -0.014 A 
BRANCH  41  42
ATOM     42  C   UNL A   1      44.265  24.681  27.444  1.00  0.00     0.031 A 
ATOM     43  C   UNL A   1      43.311  25.770  27.851  1.00  0.00     0.074 A 
ATOM     44  C   UNL A   1      45.575  24.945  27.302  1.00  0.00     0.049 A 
ATOM     45  N   UNL A   1      43.529  27.049  28.002  1.00  0.00    -0.248 NA
ATOM     46  C   UNL A   1      41.923  25.357  28.112  1.00  0.00     0.031 C 
ATOM     47  C   UNL A   1      46.604  23.963  26.969  1.00  0.00     0.029 A 
ATOM     48  N   UNL A   1      46.256  26.132  27.399  1.00  0.00    -0.354 N 
ATOM     49  C   UNL A   1      42.300  27.601  28.348  1.00  0.00     0.074 A 
ATOM     50  C   UNL A   1      41.341  26.519  28.369  1.00  0.00     0.031 C 
ATOM     51  C   UNL A   1      47.786  24.593  26.860  1.00  0.00     0.029 A 
ATOM     52  C   UNL A   1      47.587  26.026  27.076  1.00  0.00     0.049 A 
ATOM     53  H   UNL A   1      45.833  26.977  27.673  1.00  0.00     0.167 HD
ATOM     54  C   UNL A   1      41.998  28.893  28.617  1.00  0.00     0.031 A 
ATOM     55  C   UNL A   1      48.528  26.981  26.931  1.00  0.00     0.031 A 
ATOM     56  C   UNL A   1      42.956  29.966  28.576  1.00  0.00     0.049 A 
ATOM     57  C   UNL A   1      48.164  28.421  27.170  1.00  0.00     0.074 A 
ATOM     58  C   UNL A   1      42.756  31.308  28.843  1.00  0.00     0.029 A 
ATOM     59  N   UNL A   1      44.293  29.817  28.236  1.00  0.00    -0.354 N 
ATOM     60  N   UNL A   1      47.000  28.930  27.504  1.00  0.00    -0.248 NA
ATOM     61  C   UNL A   1      49.236  29.415  27.020  1.00  0.00     0.031 C 
ATOM     62  C   UNL A   1      43.961  31.980  28.612  1.00  0.00     0.029 A 
ATOM     63  C   UNL A   1      44.926  31.047  28.263  1.00  0.00     0.049 A 
ATOM     64  H   UNL A   1      44.726  28.963  28.010  1.00  0.00     0.167 HD
ATOM     65  C   UNL A   1      47.208  30.299  27.635  1.00  0.00     0.074 A 
ATOM     66  C   UNL A   1      48.607  30.539  27.343  1.00  0.00     0.031 C 
ATOM     67  C   UNL A   1      46.322  31.268  27.975  1.00  0.00     0.031 A 
BRANCH  54  68
ATOM     68  C   UNL A   1      40.558  29.215  28.916  1.00  0.00    -0.014 A 
ATOM     69  C   UNL A   1      39.580  29.217  27.905  1.00  0.00     0.010 A 
ATOM     70  C   UNL A   1      40.180  29.531  30.233  1.00  0.00     0.010 A 
ATOM     71  C   UNL A   1      38.264  29.590  28.196  1.00  0.00     0.020 A 
ATOM     72  C   UNL A   1      38.860  29.877  30.534  1.00  0.00     0.020 A 
ATOM     73  C   UNL A   1      37.915  29.929  29.507  1.00  0.00     0.054 A 
BRANCH  73  74
ATOM     74  S   UNL A   1      36.209  30.432  29.855  1.00  0.00     0.124 S 
ATOM     75  O   UNL A   1      35.928  29.704  31.090  1.00  0.00    -0.237 OA
ATOM     76  O   UNL A   1      36.321  31.881  29.993  1.00  0.00    -0.237 OA
ATOM     77  O   UNL A   1      35.466  29.977  28.682  1.00  0.00    -0.744 OA
ENDBRANCH  73  74
ENDBRANCH  54  68
BRANCH  55  78
ATOM     78  C   UNL A   1      49.902  26.589  26.517  1.00  0.00    -0.014 A 
ATOM     79  C   UNL A   1      50.844  26.162  27.467  1.00  0.00     0.010 A 
ATOM     80  C   UNL A   1      50.255  26.589  25.153  1.00  0.00     0.010 A 
ATOM     81  C   UNL A   1      52.111  25.729  27.061  1.00  0.00     0.020 A 
ATOM     82  C   UNL A   1      51.511  26.134  24.743  1.00  0.00     0.020 A 
ATOM     83  C   UNL A   1      52.431  25.707  25.701  1.00  0.00     0.054 A 
BRANCH  83  84
ATOM     84  S   UNL A   1      54.041  25.041  25.191  1.00  0.00     0.124 S 
ATOM     85  O   UNL A   1      53.709  23.659  24.864  1.00  0.00    -0.237 OA
ATOM     86  O   UNL A   1      54.388  25.896  24.058  1.00  0.00    -0.237 OA
ATOM     87  O   UNL A   1      54.876  25.223  26.376  1.00  0.00    -0.744 OA
ENDBRANCH  83  84
ENDBRANCH  55  78
BRANCH  67  88
ATOM     88  C   UNL A   1      46.836  32.678  28.104  1.00  0.00    -0.014 A 
ATOM     89  C   UNL A   1      46.822  33.566  27.015  1.00  0.00     0.010 A 
ATOM     90  C   UNL A   1      47.251  33.144  29.365  1.00  0.00     0.010 A 
ATOM     91  C   UNL A   1      47.227  34.894  27.184  1.00  0.00     0.020 A 
ATOM     92  C   UNL A   1      47.632  34.475  29.544  1.00  0.00     0.020 A 
ATOM     93  C   UNL A   1      47.625  35.341  28.448  1.00  0.00     0.054 A 
BRANCH  93  94
ATOM     94  S   UNL A   1      48.075  37.086  28.657  1.00  0.00     0.124 S 
ATOM     95  O   UNL A   1      47.124  37.754  27.774  1.00  0.00    -0.237 OA
ATOM     96  O   UNL A   1      47.865  37.302  30.087  1.00  0.00    -0.237 OA
ATOM     97  O   UNL A   1      49.471  37.138  28.224  1.00  0.00    -0.744 OA
ENDBRANCH  93  94
ENDBRANCH  67  88
ENDBRANCH  41  42
ENDBRANCH  34  36
ENDBRANCH  33  34
ENDBRANCH  32  33
ENDBRANCH  31  32
ENDBRANCH  30  31
ENDBRANCH   1  30
TORSDOF 22
ENDMDL
MODEL 3
REMARK VINA RESULT:      -9.8      2.247      9.246
REMARK SMILES [NH3+][C@H](CS[C@@H]1CC(=O)N(c2ccc3ccccc3c2)C1=O)C(=O)OCCOCCOC(=O)c1ccc(-c2c3nc(c(-c4ccc(S(=O)(=O)[O-])cc4)c4ccc([nH]4)c(-c4ccc(S(=O)(=O)[O-])cc4)c4nc(c(-c5ccc(S(=O)(=O)[O-])cc5)c5ccc2[nH]5)C=C4)C=C3)cc1
REMARK SMILES IDX 26 1 25 2 24 3 22 4 23 5 2 6 1 7 3 11 4 12 5 13 6 14 20 15
REMARK SMILES IDX 7 16 9 17 21 18 8 19 10 20 11 21 19 22 12 23 18 24 13 25
REMARK SMILES IDX 17 26 14 27 16 28 15 29 27 30 28 31 29 32 30 33 31 34 32 35
REMARK SMILES IDX 33 36 34 37 92 38 35 39 91 40 36 41 37 42 38 43 85 44 39 45
REMARK SMILES IDX 90 46 84 47 86 48 40 49 89 50 83 51 82 52 41 54 71 55 52 56
REMARK SMILES IDX 70 57 53 58 56 59 69 60 87 61 54 62 55 63 68 65 88 66 57 67
REMARK SMILES IDX 42 68 43 69 51 70 44 71 50 72 45 73 46 74 47 75 48 76 49 77
REMARK SMILES IDX 72 78 73 79 81 80 74 81 80 82 75 83 76 84 77 85 78 86 79 87
REMARK SMILES IDX 58 88 59 89 67 90 60 91 66 92 61 93 62 94 63 95 64 96 65 97
REMARK H PARENT 1 8 1 9 1 10 86 53 56 64
REMARK Flexibility Score: inf
ROOT
ATOM      1  C   UNL A   1      38.236  21.005  25.356  1.00  0.00     0.202 C 
ENDROOT
BRANCH   1   2
ATOM      2  C   UNL A   1      37.249  21.922  24.630  1.00  0.00     0.261 C 
BRANCH   2   3
ATOM      3  O   UNL A   1      35.889  21.499  24.821  1.00  0.00    -0.459 OA
BRANCH   3   4
ATOM      4  C   UNL A   1      35.187  22.174  25.775  1.00  0.00     0.365 C 
ATOM      5  O   UNL A   1      35.047  21.798  26.933  1.00  0.00    -0.245 OA
BRANCH   4   6
ATOM      6  C   UNL A   1      34.580  23.482  25.224  1.00  0.00     0.301 C 
BRANCH   6   7
ATOM      7  N   UNL A   1      35.620  24.529  25.238  1.00  0.00    -0.345 N 
ATOM      8  H   UNL A   1      36.302  24.340  24.503  1.00  0.00     0.345 HD
ATOM      9  H   UNL A   1      36.088  24.531  26.145  1.00  0.00     0.345 HD
ATOM     10  H   UNL A   1      35.189  25.439  25.077  1.00  0.00     0.345 HD
ENDBRANCH   6   7
BRANCH   6  11
ATOM     11  C   UNL A   1      33.266  23.870  25.940  1.00  0.00     0.147 C 
BRANCH  11  12
ATOM     12  S   UNL A   1      31.863  22.738  25.631  1.00  0.00    -0.141 SA
BRANCH  12  13
ATOM     13  C   UNL A   1      31.040  23.632  24.279  1.00  0.00     0.146 C 
ATOM     14  C   UNL A   1      31.949  23.896  23.100  1.00  0.00     0.125 C 
ATOM     15  C   UNL A   1      30.606  25.001  24.736  1.00  0.00     0.247 C 
ATOM     16  C   UNL A   1      31.589  25.296  22.698  1.00  0.00     0.235 C 
ATOM     17  N   UNL A   1      30.925  25.898  23.743  1.00  0.00    -0.250 N 
ATOM     18  O   UNL A   1      29.958  25.196  25.758  1.00  0.00    -0.273 OA
ATOM     19  O   UNL A   1      31.943  25.784  21.636  1.00  0.00    -0.274 OA
BRANCH  17  20
ATOM     20  C   UNL A   1      30.562  27.266  23.781  1.00  0.00     0.052 A 
ATOM     21  C   UNL A   1      31.315  28.191  24.509  1.00  0.00     0.027 A 
ATOM     22  C   UNL A   1      29.429  27.720  23.087  1.00  0.00     0.035 A 
ATOM     23  C   UNL A   1      30.969  29.546  24.515  1.00  0.00     0.011 A 
ATOM     24  C   UNL A   1      29.034  29.067  23.131  1.00  0.00    -0.016 A 
ATOM     25  C   UNL A   1      29.827  29.997  23.838  1.00  0.00    -0.018 A 
ATOM     26  C   UNL A   1      27.862  29.507  22.496  1.00  0.00     0.009 A 
ATOM     27  C   UNL A   1      29.451  31.348  23.857  1.00  0.00     0.009 A 
ATOM     28  C   UNL A   1      27.486  30.850  22.545  1.00  0.00     0.001 A 
ATOM     29  C   UNL A   1      28.285  31.771  23.216  1.00  0.00     0.001 A 
ENDBRANCH  17  20
ENDBRANCH  12  13
ENDBRANCH  11  12
ENDBRANCH   6  11
ENDBRANCH   4   6
ENDBRANCH   3   4
ENDBRANCH   2   3
ENDBRANCH   1   2
BRANCH   1  30
ATOM     30  O   UNL A   1      39.235  21.646  26.151  1.00  0.00    -0.374 OA
BRANCH  30  31
ATOM     31  C   UNL A   1      40.446  20.928  26.384  1.00  0.00     0.202 C 
BRANCH  31  32
ATOM     32  C   UNL A   1      41.758  21.675  26.115  1.00  0.00     0.261 C 
BRANCH  32  33
ATOM     33  O   UNL A   1      41.537  23.050  25.753  1.00  0.00    -0.460 OA
BRANCH  33  34
ATOM     34  C   UNL A   1      42.564  23.885  26.047  1.00  0.00     0.338 C 
ATOM     35  O   UNL A   1      43.692  23.860  25.573  1.00  0.00    -0.246 OA
BRANCH  34  36
ATOM     36  C   UNL A   1      42.090  24.988  26.901  1.00  0.00     0.060 A 
ATOM     37  C   UNL A   1      42.707  26.238  26.754  1.00  0.00     0.016 A 
ATOM     38  C   UNL A   1      41.118  24.787  27.883  1.00  0.00     0.016 A 
ATOM     39  C   UNL A   1      42.399  27.279  27.626  1.00  0.00     0.010 A 
ATOM     40  C   UNL A   1      40.817  25.830  28.764  1.00  0.00     0.010 A 
ATOM     41  C   UNL A   1      41.485  27.065  28.664  1.00  0.00    -0.014 A 
BRANCH  41  42
ATOM     42  C   UNL A   1      41.358  28.052  29.761  1.00  0.00     0.031 A 
ATOM     43  C   UNL A   1      42.272  27.928  30.949  1.00  0.00     0.074 A 
ATOM     44  C   UNL A   1      40.435  29.029  29.714  1.00  0.00     0.049 A 
ATOM     45  N   UNL A   1      42.259  28.586  32.077  1.00  0.00    -0.248 NA
ATOM     46  C   UNL A   1      43.336  26.916  30.849  1.00  0.00     0.031 C 
ATOM     47  C   UNL A   1      39.532  29.286  28.595  1.00  0.00     0.029 A 
ATOM     48  N   UNL A   1      40.092  29.970  30.651  1.00  0.00    -0.354 N 
ATOM     49  C   UNL A   1      43.294  28.050  32.835  1.00  0.00     0.074 A 
ATOM     50  C   UNL A   1      43.902  27.004  32.043  1.00  0.00     0.031 C 
ATOM     51  C   UNL A   1      38.716  30.303  28.921  1.00  0.00     0.029 A 
ATOM     52  C   UNL A   1      39.013  30.738  30.286  1.00  0.00     0.049 A 
ATOM     53  H   UNL A   1      40.573  30.085  31.503  1.00  0.00     0.167 HD
ATOM     54  C   UNL A   1      43.697  28.394  34.081  1.00  0.00     0.031 A 
ATOM     55  C   UNL A   1      38.320  31.657  30.987  1.00  0.00     0.031 A 
ATOM     56  C   UNL A   1      43.075  29.425  34.869  1.00  0.00     0.049 A 
ATOM     57  C   UNL A   1      38.738  31.985  32.395  1.00  0.00     0.074 A 
ATOM     58  C   UNL A   1      43.413  29.860  36.137  1.00  0.00     0.029 A 
ATOM     59  N   UNL A   1      41.979  30.173  34.465  1.00  0.00    -0.354 N 
ATOM     60  N   UNL A   1      39.723  31.477  33.099  1.00  0.00    -0.248 NA
ATOM     61  C   UNL A   1      37.959  33.011  33.101  1.00  0.00     0.031 C 
ATOM     62  C   UNL A   1      42.487  30.836  36.522  1.00  0.00     0.029 A 
ATOM     63  C   UNL A   1      41.612  31.052  35.468  1.00  0.00     0.049 A 
ATOM     64  H   UNL A   1      41.530  30.092  33.593  1.00  0.00     0.167 HD
ATOM     65  C   UNL A   1      39.701  32.144  34.319  1.00  0.00     0.074 A 
ATOM     66  C   UNL A   1      38.606  33.091  34.258  1.00  0.00     0.031 C 
ATOM     67  C   UNL A   1      40.521  31.993  35.389  1.00  0.00     0.031 A 
BRANCH  54  68
ATOM     68  C   UNL A   1      44.826  27.600  34.683  1.00  0.00    -0.014 A 
ATOM     69  C   UNL A   1      44.639  26.278  35.129  1.00  0.00     0.010 A 
ATOM     70  C   UNL A   1      46.094  28.193  34.814  1.00  0.00     0.010 A 
ATOM     71  C   UNL A   1      45.684  25.589  35.751  1.00  0.00     0.020 A 
ATOM     72  C   UNL A   1      47.150  27.497  35.408  1.00  0.00     0.020 A 
ATOM     73  C   UNL A   1      46.930  26.207  35.897  1.00  0.00     0.054 A 
BRANCH  73  74
ATOM     74  S   UNL A   1      48.263  25.300  36.727  1.00  0.00     0.124 S 
ATOM     75  O   UNL A   1      47.627  24.918  37.985  1.00  0.00    -0.237 OA
ATOM     76  O   UNL A   1      48.532  24.203  35.802  1.00  0.00    -0.237 OA
ATOM     77  O   UNL A   1      49.333  26.288  36.845  1.00  0.00    -0.744 OA
ENDBRANCH  73  74
ENDBRANCH  54  68
BRANCH  55  78
ATOM     78  C   UNL A   1      37.141  32.312  30.358  1.00  0.00    -0.014 A 
ATOM     79  C   UNL A   1      35.846  31.812  30.567  1.00  0.00     0.010 A 
ATOM     80  C   UNL A   1      37.310  33.480  29.589  1.00  0.00     0.010 A 
ATOM     81  C   UNL A   1      34.737  32.474  30.029  1.00  0.00     0.020 A 
ATOM     82  C   UNL A   1      36.203  34.157  29.071  1.00  0.00     0.020 A 
ATOM     83  C   UNL A   1      34.922  33.649  29.295  1.00  0.00     0.054 A 
BRANCH  83  84
ATOM     84  S   UNL A   1      33.463  34.549  28.698  1.00  0.00     0.124 S 
ATOM     85  O   UNL A   1      32.764  34.854  29.941  1.00  0.00    -0.237 OA
ATOM     86  O   UNL A   1      34.060  35.690  28.009  1.00  0.00    -0.237 OA
ATOM     87  O   UNL A   1      32.800  33.583  27.825  1.00  0.00    -0.744 OA
ENDBRANCH  83  84
ENDBRANCH  55  78
BRANCH  67  88
ATOM     88  C   UNL A   1      40.308  32.900  36.572  1.00  0.00    -0.014 A 
ATOM     89  C   UNL A   1      41.012  34.109  36.706  1.00  0.00     0.010 A 
ATOM     90  C   UNL A   1      39.315  32.575  37.515  1.00  0.00     0.010 A 
ATOM     91  C   UNL A   1      40.733  34.971  37.772  1.00  0.00     0.020 A 
ATOM     92  C   UNL A   1      39.016  33.445  38.565  1.00  0.00     0.020 A 
ATOM     93  C   UNL A   1      39.734  34.636  38.691  1.00  0.00     0.054 A 
BRANCH  93  94
ATOM     94  S   UNL A   1      39.341  35.805  40.022  1.00  0.00     0.124 S 
ATOM     95  O   UNL A   1      40.635  35.964  40.679  1.00  0.00    -0.237 OA
ATOM     96  O   UNL A   1      38.860  36.974  39.289  1.00  0.00    -0.237 OA
ATOM     97  O   UNL A   1      38.324  35.108  40.807  1.00  0.00    -0.744 OA
ENDBRANCH  93  94
ENDBRANCH  67  88
ENDBRANCH  41  42
ENDBRANCH  34  36
ENDBRANCH  33  34
ENDBRANCH  32  33
ENDBRANCH  31  32
ENDBRANCH  30  31
ENDBRANCH   1  30
TORSDOF 22
ENDMDL
