MODEL 1
REMARK VINA RESULT:     -12.7      0.000      0.000
REMARK SMILES Cc1c(NC(=O)c2ccccc2NC(=O)[C@@H]2CCCO2)cccc1C(=O)OCCOCCOC(=O)c1ccc(-c2c3nc(c(-c4ccc(S(=O)(=O)[O-])cc4)c4ccc([nH]4)c(-c4ccc(S(=O)(=O)[O-])cc4)c4nc(c(-c5ccc(S(=O)(=O)[O-])cc5)c5ccc2[nH]5)C=C4)C=C3)cc1
REMARK SMILES IDX 29 1 28 2 27 3 25 4 26 5 24 6 1 7 2 8 3 9 21 10 23 11 22 12
REMARK SMILES IDX 4 13 5 14 6 16 7 17 8 18 12 19 9 20 11 21 10 22 13 23 14 24
REMARK SMILES IDX 15 26 16 27 17 28 20 29 18 30 19 31 30 32 31 33 32 34 33 35
REMARK SMILES IDX 34 36 35 37 36 38 37 39 95 40 38 41 94 42 39 43 40 44 41 45
REMARK SMILES IDX 88 46 42 47 93 48 87 49 89 50 43 51 92 52 86 53 85 54 44 56
REMARK SMILES IDX 74 57 55 58 73 59 56 60 59 61 72 62 90 63 57 64 58 65 71 67
REMARK SMILES IDX 91 68 60 69 45 70 46 71 54 72 47 73 53 74 48 75 49 76 50 77
REMARK SMILES IDX 51 78 52 79 75 80 76 81 84 82 77 83 83 84 78 85 79 86 80 87
REMARK SMILES IDX 81 88 82 89 61 90 62 91 70 92 63 93 69 94 64 95 65 96 66 97
REMARK SMILES IDX 67 98 68 99
REMARK H PARENT 4 15 13 25 89 55 59 66
REMARK Flexibility Score: inf
ROOT
ATOM      1  C   UNL A   1      30.791  28.910  23.749  1.00  0.00     0.202 C 
ENDROOT
BRANCH   1   2
ATOM      2  C   UNL A   1      31.971  28.868  22.857  1.00  0.00     0.261 C 
BRANCH   2   3
ATOM      3  O   UNL A   1      32.852  27.815  23.287  1.00  0.00    -0.460 OA
BRANCH   3   4
ATOM      4  C   UNL A   1      33.166  26.693  22.617  1.00  0.00     0.338 C 
ATOM      5  O   UNL A   1      33.811  26.551  21.606  1.00  0.00    -0.246 OA
BRANCH   4   6
ATOM      6  C   UNL A   1      32.602  25.570  23.422  1.00  0.00     0.065 A 
ATOM      7  C   UNL A   1      33.806  26.172  25.655  1.00  0.00     0.047 C 
ATOM      8  C   UNL A   1      32.886  25.323  24.791  1.00  0.00    -0.013 A 
ATOM      9  C   UNL A   1      32.447  24.096  25.337  1.00  0.00     0.045 A 
ATOM     10  C   UNL A   1      31.680  23.197  24.586  1.00  0.00     0.026 A 
ATOM     11  C   UNL A   1      31.829  24.656  22.679  1.00  0.00     0.016 A 
ATOM     12  C   UNL A   1      31.369  23.477  23.258  1.00  0.00     0.003 A 
BRANCH   9  13
ATOM     13  N   UNL A   1      32.911  23.780  26.626  1.00  0.00    -0.322 N 
ATOM     14  C   UNL A   1      34.005  23.088  27.066  1.00  0.00     0.257 C 
ATOM     15  H   UNL A   1      32.341  24.125  27.350  1.00  0.00     0.170 HD
ATOM     16  O   UNL A   1      34.173  22.969  28.282  1.00  0.00    -0.269 OA
BRANCH  14  17
ATOM     17  C   UNL A   1      34.993  22.477  26.152  1.00  0.00     0.063 A 
ATOM     18  C   UNL A   1      36.063  23.343  25.853  1.00  0.00     0.016 A 
ATOM     19  C   UNL A   1      34.938  21.175  25.600  1.00  0.00     0.054 A 
ATOM     20  C   UNL A   1      37.135  22.908  25.092  1.00  0.00     0.001 A 
ATOM     21  C   UNL A   1      36.088  20.734  24.940  1.00  0.00     0.027 A 
ATOM     22  C   UNL A   1      37.164  21.589  24.673  1.00  0.00     0.002 A 
BRANCH  19  23
ATOM     23  N   UNL A   1      33.763  20.392  25.732  1.00  0.00    -0.323 N 
ATOM     24  C   UNL A   1      33.359  19.140  25.352  1.00  0.00     0.253 C 
ATOM     25  H   UNL A   1      33.057  20.872  26.222  1.00  0.00     0.170 HD
ATOM     26  O   UNL A   1      32.260  18.763  25.770  1.00  0.00    -0.272 OA
BRANCH  24  27
ATOM     27  C   UNL A   1      34.184  18.256  24.409  1.00  0.00     0.207 C 
ATOM     28  C   UNL A   1      33.327  17.811  23.230  1.00  0.00     0.044 C 
ATOM     29  O   UNL A   1      34.685  17.035  24.989  1.00  0.00    -0.368 OA
ATOM     30  C   UNL A   1      34.049  16.579  22.763  1.00  0.00     0.032 C 
ATOM     31  C   UNL A   1      34.447  15.954  24.079  1.00  0.00     0.161 C 
ENDBRANCH  24  27
ENDBRANCH  19  23
ENDBRANCH  14  17
ENDBRANCH   9  13
ENDBRANCH   4   6
ENDBRANCH   3   4
ENDBRANCH   2   3
ENDBRANCH   1   2
BRANCH   1  32
ATOM     32  O   UNL A   1      31.176  29.833  24.758  1.00  0.00    -0.374 OA
BRANCH  32  33
ATOM     33  C   UNL A   1      31.604  29.255  25.960  1.00  0.00     0.202 C 
BRANCH  33  34
ATOM     34  C   UNL A   1      32.253  30.302  26.864  1.00  0.00     0.261 C 
BRANCH  34  35
ATOM     35  O   UNL A   1      33.674  30.411  26.594  1.00  0.00    -0.460 OA
BRANCH  35  36
ATOM     36  C   UNL A   1      34.436  31.105  27.499  1.00  0.00     0.338 C 
ATOM     37  O   UNL A   1      34.167  32.231  27.880  1.00  0.00    -0.246 OA
BRANCH  36  38
ATOM     38  C   UNL A   1      35.542  30.260  28.047  1.00  0.00     0.060 A 
ATOM     39  C   UNL A   1      35.546  29.793  29.378  1.00  0.00     0.016 A 
ATOM     40  C   UNL A   1      36.676  30.088  27.264  1.00  0.00     0.016 A 
ATOM     41  C   UNL A   1      36.733  29.301  29.963  1.00  0.00     0.010 A 
ATOM     42  C   UNL A   1      37.857  29.716  27.870  1.00  0.00     0.010 A 
ATOM     43  C   UNL A   1      37.914  29.341  29.224  1.00  0.00    -0.014 A 
BRANCH  43  44
ATOM     44  C   UNL A   1      39.287  29.104  29.696  1.00  0.00     0.031 A 
ATOM     45  C   UNL A   1      39.924  27.835  29.263  1.00  0.00     0.074 A 
ATOM     46  C   UNL A   1      40.058  30.119  30.171  1.00  0.00     0.049 A 
ATOM     47  N   UNL A   1      41.110  27.478  29.602  1.00  0.00    -0.248 NA
ATOM     48  C   UNL A   1      39.270  26.831  28.418  1.00  0.00     0.031 C 
ATOM     49  C   UNL A   1      41.515  30.279  30.101  1.00  0.00     0.029 A 
ATOM     50  N   UNL A   1      39.671  31.284  30.833  1.00  0.00    -0.354 N 
ATOM     51  C   UNL A   1      41.491  26.444  28.781  1.00  0.00     0.074 A 
ATOM     52  C   UNL A   1      40.280  26.001  28.143  1.00  0.00     0.031 C 
ATOM     53  C   UNL A   1      41.905  31.291  30.901  1.00  0.00     0.029 A 
ATOM     54  C   UNL A   1      40.728  31.758  31.618  1.00  0.00     0.049 A 
ATOM     55  H   UNL A   1      38.786  31.709  30.760  1.00  0.00     0.167 HD
ATOM     56  C   UNL A   1      42.821  26.186  28.660  1.00  0.00     0.031 A 
ATOM     57  C   UNL A   1      40.560  31.892  32.961  1.00  0.00     0.031 A 
ATOM     58  C   UNL A   1      43.583  26.985  29.630  1.00  0.00     0.049 A 
ATOM     59  C   UNL A   1      41.400  30.823  33.600  1.00  0.00     0.074 A 
ATOM     60  C   UNL A   1      44.396  28.098  29.520  1.00  0.00     0.029 A 
ATOM     61  N   UNL A   1      43.251  26.875  30.982  1.00  0.00    -0.354 N 
ATOM     62  N   UNL A   1      41.742  29.734  32.961  1.00  0.00    -0.248 NA
ATOM     63  C   UNL A   1      42.059  30.946  34.895  1.00  0.00     0.031 C 
ATOM     64  C   UNL A   1      44.439  28.726  30.804  1.00  0.00     0.029 A 
ATOM     65  C   UNL A   1      43.688  27.974  31.699  1.00  0.00     0.049 A 
ATOM     66  H   UNL A   1      42.769  26.113  31.375  1.00  0.00     0.167 HD
ATOM     67  C   UNL A   1      42.742  29.114  33.635  1.00  0.00     0.074 A 
ATOM     68  C   UNL A   1      42.859  29.864  34.878  1.00  0.00     0.031 C 
ATOM     69  C   UNL A   1      43.441  28.057  33.137  1.00  0.00     0.031 A 
BRANCH  56  70
ATOM     70  C   UNL A   1      43.454  25.350  27.571  1.00  0.00    -0.014 A 
ATOM     71  C   UNL A   1      44.285  24.271  27.936  1.00  0.00     0.010 A 
ATOM     72  C   UNL A   1      43.342  25.599  26.187  1.00  0.00     0.010 A 
ATOM     73  C   UNL A   1      44.955  23.486  26.982  1.00  0.00     0.020 A 
ATOM     74  C   UNL A   1      43.985  24.809  25.219  1.00  0.00     0.020 A 
ATOM     75  C   UNL A   1      44.794  23.757  25.624  1.00  0.00     0.054 A 
BRANCH  75  76
ATOM     76  S   UNL A   1      45.653  22.723  24.408  1.00  0.00     0.124 S 
ATOM     77  O   UNL A   1      46.634  23.649  23.848  1.00  0.00    -0.237 OA
ATOM     78  O   UNL A   1      46.199  21.650  25.235  1.00  0.00    -0.237 OA
ATOM     79  O   UNL A   1      44.595  22.315  23.487  1.00  0.00    -0.744 OA
ENDBRANCH  75  76
ENDBRANCH  56  70
BRANCH  57  80
ATOM     80  C   UNL A   1      39.186  32.399  33.313  1.00  0.00    -0.014 A 
ATOM     81  C   UNL A   1      38.902  33.743  32.960  1.00  0.00     0.010 A 
ATOM     82  C   UNL A   1      38.097  31.516  33.446  1.00  0.00     0.010 A 
ATOM     83  C   UNL A   1      37.608  34.145  32.585  1.00  0.00     0.020 A 
ATOM     84  C   UNL A   1      36.799  31.913  33.056  1.00  0.00     0.020 A 
ATOM     85  C   UNL A   1      36.574  33.210  32.579  1.00  0.00     0.054 A 
BRANCH  85  86
ATOM     86  S   UNL A   1      35.042  33.605  31.653  1.00  0.00     0.124 S 
ATOM     87  O   UNL A   1      34.449  34.663  32.463  1.00  0.00    -0.237 OA
ATOM     88  O   UNL A   1      35.551  34.027  30.348  1.00  0.00    -0.237 OA
ATOM     89  O   UNL A   1      34.325  32.335  31.639  1.00  0.00    -0.744 OA
ENDBRANCH  85  86
ENDBRANCH  57  80
BRANCH  69  90
ATOM     90  C   UNL A   1      43.986  27.002  34.046  1.00  0.00    -0.014 A 
ATOM     91  C   UNL A   1      43.167  26.008  34.609  1.00  0.00     0.010 A 
ATOM     92  C   UNL A   1      45.381  26.872  34.208  1.00  0.00     0.010 A 
ATOM     93  C   UNL A   1      43.704  25.001  35.404  1.00  0.00     0.020 A 
ATOM     94  C   UNL A   1      45.932  25.825  34.939  1.00  0.00     0.020 A 
ATOM     95  C   UNL A   1      45.083  24.925  35.573  1.00  0.00     0.054 A 
BRANCH  95  96
ATOM     96  S   UNL A   1      45.753  23.630  36.630  1.00  0.00     0.124 S 
ATOM     97  O   UNL A   1      45.108  23.934  37.906  1.00  0.00    -0.237 OA
ATOM     98  O   UNL A   1      45.295  22.408  35.973  1.00  0.00    -0.237 OA
ATOM     99  O   UNL A   1      47.194  23.856  36.584  1.00  0.00    -0.744 OA
ENDBRANCH  95  96
ENDBRANCH  69  90
ENDBRANCH  43  44
ENDBRANCH  36  38
ENDBRANCH  35  36
ENDBRANCH  34  35
ENDBRANCH  33  34
ENDBRANCH  32  33
ENDBRANCH   1  32
TORSDOF 21
ENDMDL
MODEL 2
REMARK VINA RESULT:     -12.1      3.433     10.402
REMARK SMILES Cc1c(NC(=O)c2ccccc2NC(=O)[C@@H]2CCCO2)cccc1C(=O)OCCOCCOC(=O)c1ccc(-c2c3nc(c(-c4ccc(S(=O)(=O)[O-])cc4)c4ccc([nH]4)c(-c4ccc(S(=O)(=O)[O-])cc4)c4nc(c(-c5ccc(S(=O)(=O)[O-])cc5)c5ccc2[nH]5)C=C4)C=C3)cc1
REMARK SMILES IDX 29 1 28 2 27 3 25 4 26 5 24 6 1 7 2 8 3 9 21 10 23 11 22 12
REMARK SMILES IDX 4 13 5 14 6 16 7 17 8 18 12 19 9 20 11 21 10 22 13 23 14 24
REMARK SMILES IDX 15 26 16 27 17 28 20 29 18 30 19 31 30 32 31 33 32 34 33 35
REMARK SMILES IDX 34 36 35 37 36 38 37 39 95 40 38 41 94 42 39 43 40 44 41 45
REMARK SMILES IDX 88 46 42 47 93 48 87 49 89 50 43 51 92 52 86 53 85 54 44 56
REMARK SMILES IDX 74 57 55 58 73 59 56 60 59 61 72 62 90 63 57 64 58 65 71 67
REMARK SMILES IDX 91 68 60 69 45 70 46 71 54 72 47 73 53 74 48 75 49 76 50 77
REMARK SMILES IDX 51 78 52 79 75 80 76 81 84 82 77 83 83 84 78 85 79 86 80 87
REMARK SMILES IDX 81 88 82 89 61 90 62 91 70 92 63 93 69 94 64 95 65 96 66 97
REMARK SMILES IDX 67 98 68 99
REMARK H PARENT 4 15 13 25 89 55 59 66
REMARK Flexibility Score: inf
ROOT
ATOM      1  C   UNL A   1      35.031  19.598  24.908  1.00  0.00     0.202 C 
ENDROOT
BRANCH   1   2
ATOM      2  C   UNL A   1      33.853  20.476  25.086  1.00  0.00     0.261 C 
BRANCH   2   3
ATOM      3  O   UNL A   1      34.036  21.283  26.262  1.00  0.00    -0.460 OA
BRANCH   3   4
ATOM      4  C   UNL A   1      34.147  22.621  26.322  1.00  0.00     0.338 C 
ATOM      5  O   UNL A   1      35.079  23.304  26.673  1.00  0.00    -0.246 OA
BRANCH   4   6
ATOM      6  C   UNL A   1      32.864  23.158  25.782  1.00  0.00     0.065 A 
ATOM      7  C   UNL A   1      33.734  23.640  23.372  1.00  0.00     0.047 C 
ATOM      8  C   UNL A   1      32.666  23.624  24.455  1.00  0.00    -0.013 A 
ATOM      9  C   UNL A   1      31.459  24.304  24.176  1.00  0.00     0.045 A 
ATOM     10  C   UNL A   1      30.455  24.431  25.143  1.00  0.00     0.026 A 
ATOM     11  C   UNL A   1      31.844  23.295  26.744  1.00  0.00     0.016 A 
ATOM     12  C   UNL A   1      30.645  23.926  26.426  1.00  0.00     0.003 A 
BRANCH   9  13
ATOM     13  N   UNL A   1      31.369  24.933  22.922  1.00  0.00    -0.322 N 
ATOM     14  C   UNL A   1      31.527  26.233  22.532  1.00  0.00     0.257 C 
ATOM     15  H   UNL A   1      31.153  24.319  22.183  1.00  0.00     0.170 HD
ATOM     16  O   UNL A   1      31.395  26.507  21.337  1.00  0.00    -0.269 OA
BRANCH  14  17
ATOM     17  C   UNL A   1      31.849  27.324  23.476  1.00  0.00     0.063 A 
ATOM     18  C   UNL A   1      33.171  27.254  23.955  1.00  0.00     0.016 A 
ATOM     19  C   UNL A   1      30.978  28.358  23.897  1.00  0.00     0.054 A 
ATOM     20  C   UNL A   1      33.682  28.248  24.771  1.00  0.00     0.001 A 
ATOM     21  C   UNL A   1      31.562  29.401  24.620  1.00  0.00     0.027 A 
ATOM     22  C   UNL A   1      32.888  29.343  25.068  1.00  0.00     0.002 A 
BRANCH  19  23
ATOM     23  N   UNL A   1      29.597  28.303  23.580  1.00  0.00    -0.323 N 
ATOM     24  C   UNL A   1      28.730  29.022  22.802  1.00  0.00     0.253 C 
ATOM     25  H   UNL A   1      29.147  27.557  24.038  1.00  0.00     0.170 HD
ATOM     26  O   UNL A   1      27.583  28.575  22.693  1.00  0.00    -0.272 OA
BRANCH  24  27
ATOM     27  C   UNL A   1      29.119  30.348  22.139  1.00  0.00     0.207 C 
ATOM     28  C   UNL A   1      28.735  31.514  23.041  1.00  0.00     0.044 C 
ATOM     29  O   UNL A   1      28.473  30.620  20.879  1.00  0.00    -0.368 OA
ATOM     30  C   UNL A   1      28.650  32.653  22.064  1.00  0.00     0.032 C 
ATOM     31  C   UNL A   1      28.007  31.976  20.877  1.00  0.00     0.161 C 
ENDBRANCH  24  27
ENDBRANCH  19  23
ENDBRANCH  14  17
ENDBRANCH   9  13
ENDBRANCH   4   6
ENDBRANCH   3   4
ENDBRANCH   2   3
ENDBRANCH   1   2
BRANCH   1  32
ATOM     32  O   UNL A   1      36.099  20.374  25.434  1.00  0.00    -0.374 OA
BRANCH  32  33
ATOM     33  C   UNL A   1      37.091  20.724  24.508  1.00  0.00     0.202 C 
BRANCH  33  34
ATOM     34  C   UNL A   1      37.696  22.084  24.851  1.00  0.00     0.261 C 
BRANCH  34  35
ATOM     35  O   UNL A   1      38.105  22.134  26.242  1.00  0.00    -0.460 OA
BRANCH  35  36
ATOM     36  C   UNL A   1      39.416  22.437  26.503  1.00  0.00     0.338 C 
ATOM     37  O   UNL A   1      40.316  21.617  26.456  1.00  0.00    -0.246 OA
BRANCH  36  38
ATOM     38  C   UNL A   1      39.608  23.905  26.716  1.00  0.00     0.060 A 
ATOM     39  C   UNL A   1      40.347  24.706  25.821  1.00  0.00     0.016 A 
ATOM     40  C   UNL A   1      39.193  24.445  27.927  1.00  0.00     0.016 A 
ATOM     41  C   UNL A   1      40.798  25.986  26.208  1.00  0.00     0.010 A 
ATOM     42  C   UNL A   1      39.730  25.644  28.343  1.00  0.00     0.010 A 
ATOM     43  C   UNL A   1      40.554  26.421  27.509  1.00  0.00    -0.014 A 
BRANCH  43  44
ATOM     44  C   UNL A   1      41.118  27.595  28.194  1.00  0.00     0.031 A 
ATOM     45  C   UNL A   1      40.173  28.701  28.494  1.00  0.00     0.074 A 
ATOM     46  C   UNL A   1      42.311  27.532  28.844  1.00  0.00     0.049 A 
ATOM     47  N   UNL A   1      40.513  29.795  29.073  1.00  0.00    -0.248 NA
ATOM     48  C   UNL A   1      38.748  28.685  28.146  1.00  0.00     0.031 C 
ATOM     49  C   UNL A   1      42.752  28.270  30.033  1.00  0.00     0.029 A 
ATOM     50  N   UNL A   1      43.423  26.737  28.568  1.00  0.00    -0.354 N 
ATOM     51  C   UNL A   1      39.366  30.432  29.479  1.00  0.00     0.074 A 
ATOM     52  C   UNL A   1      38.297  29.769  28.783  1.00  0.00     0.031 C 
ATOM     53  C   UNL A   1      44.078  28.104  30.210  1.00  0.00     0.029 A 
ATOM     54  C   UNL A   1      44.577  27.343  29.076  1.00  0.00     0.049 A 
ATOM     55  H   UNL A   1      43.400  25.879  28.086  1.00  0.00     0.167 HD
ATOM     56  C   UNL A   1      39.473  31.368  30.461  1.00  0.00     0.031 A 
ATOM     57  C   UNL A   1      45.594  27.664  28.231  1.00  0.00     0.031 A 
ATOM     58  C   UNL A   1      40.888  31.640  30.751  1.00  0.00     0.049 A 
ATOM     59  C   UNL A   1      45.612  29.163  28.141  1.00  0.00     0.074 A 
ATOM     60  C   UNL A   1      41.729  31.308  31.798  1.00  0.00     0.029 A 
ATOM     61  N   UNL A   1      41.714  32.036  29.697  1.00  0.00    -0.354 N 
ATOM     62  N   UNL A   1      44.552  29.886  28.397  1.00  0.00    -0.248 NA
ATOM     63  C   UNL A   1      46.809  29.972  27.942  1.00  0.00     0.031 C 
ATOM     64  C   UNL A   1      43.071  31.388  31.311  1.00  0.00     0.029 A 
ATOM     65  C   UNL A   1      43.046  31.806  29.986  1.00  0.00     0.049 A 
ATOM     66  H   UNL A   1      41.389  32.430  28.856  1.00  0.00     0.167 HD
ATOM     67  C   UNL A   1      44.920  31.181  28.557  1.00  0.00     0.074 A 
ATOM     68  C   UNL A   1      46.329  31.204  28.190  1.00  0.00     0.031 C 
ATOM     69  C   UNL A   1      44.079  32.151  29.011  1.00  0.00     0.031 A 
BRANCH  56  70
ATOM     70  C   UNL A   1      38.323  31.916  31.276  1.00  0.00    -0.014 A 
ATOM     71  C   UNL A   1      37.472  32.877  30.693  1.00  0.00     0.010 A 
ATOM     72  C   UNL A   1      38.059  31.596  32.624  1.00  0.00     0.010 A 
ATOM     73  C   UNL A   1      36.419  33.475  31.407  1.00  0.00     0.020 A 
ATOM     74  C   UNL A   1      36.996  32.167  33.345  1.00  0.00     0.020 A 
ATOM     75  C   UNL A   1      36.182  33.109  32.731  1.00  0.00     0.054 A 
BRANCH  75  76
ATOM     76  S   UNL A   1      34.810  33.879  33.630  1.00  0.00     0.124 S 
ATOM     77  O   UNL A   1      35.189  33.666  35.024  1.00  0.00    -0.237 OA
ATOM     78  O   UNL A   1      34.865  35.263  33.166  1.00  0.00    -0.237 OA
ATOM     79  O   UNL A   1      33.637  33.127  33.188  1.00  0.00    -0.744 OA
ENDBRANCH  75  76
ENDBRANCH  56  70
BRANCH  57  80
ATOM     80  C   UNL A   1      45.801  26.617  27.168  1.00  0.00    -0.014 A 
ATOM     81  C   UNL A   1      46.436  25.418  27.581  1.00  0.00     0.010 A 
ATOM     82  C   UNL A   1      44.967  26.555  26.035  1.00  0.00     0.010 A 
ATOM     83  C   UNL A   1      46.115  24.179  26.999  1.00  0.00     0.020 A 
ATOM     84  C   UNL A   1      44.631  25.311  25.458  1.00  0.00     0.020 A 
ATOM     85  C   UNL A   1      45.168  24.127  25.977  1.00  0.00     0.054 A 
BRANCH  85  86
ATOM     86  S   UNL A   1      44.415  22.508  25.564  1.00  0.00     0.124 S 
ATOM     87  O   UNL A   1      43.357  22.389  26.561  1.00  0.00    -0.237 OA
ATOM     88  O   UNL A   1      43.958  22.703  24.188  1.00  0.00    -0.237 OA
ATOM     89  O   UNL A   1      45.530  21.578  25.704  1.00  0.00    -0.744 OA
ENDBRANCH  85  86
ENDBRANCH  57  80
BRANCH  69  90
ATOM     90  C   UNL A   1      44.222  33.567  28.551  1.00  0.00    -0.014 A 
ATOM     91  C   UNL A   1      43.776  33.987  27.286  1.00  0.00     0.010 A 
ATOM     92  C   UNL A   1      44.641  34.558  29.461  1.00  0.00     0.010 A 
ATOM     93  C   UNL A   1      43.864  35.321  26.901  1.00  0.00     0.020 A 
ATOM     94  C   UNL A   1      44.662  35.904  29.111  1.00  0.00     0.020 A 
ATOM     95  C   UNL A   1      44.319  36.268  27.814  1.00  0.00     0.054 A 
BRANCH  95  96
ATOM     96  S   UNL A   1      44.452  37.984  27.282  1.00  0.00     0.124 S 
ATOM     97  O   UNL A   1      45.687  37.951  26.502  1.00  0.00    -0.237 OA
ATOM     98  O   UNL A   1      43.227  38.178  26.510  1.00  0.00    -0.237 OA
ATOM     99  O   UNL A   1      44.519  38.729  28.536  1.00  0.00    -0.744 OA
ENDBRANCH  95  96
ENDBRANCH  69  90
ENDBRANCH  43  44
ENDBRANCH  36  38
ENDBRANCH  35  36
ENDBRANCH  34  35
ENDBRANCH  33  34
ENDBRANCH  32  33
ENDBRANCH   1  32
TORSDOF 21
ENDMDL
MODEL 3
REMARK VINA RESULT:     -12.0      3.616      9.900
REMARK SMILES Cc1c(NC(=O)c2ccccc2NC(=O)[C@@H]2CCCO2)cccc1C(=O)OCCOCCOC(=O)c1ccc(-c2c3nc(c(-c4ccc(S(=O)(=O)[O-])cc4)c4ccc([nH]4)c(-c4ccc(S(=O)(=O)[O-])cc4)c4nc(c(-c5ccc(S(=O)(=O)[O-])cc5)c5ccc2[nH]5)C=C4)C=C3)cc1
REMARK SMILES IDX 29 1 28 2 27 3 25 4 26 5 24 6 1 7 2 8 3 9 21 10 23 11 22 12
REMARK SMILES IDX 4 13 5 14 6 16 7 17 8 18 12 19 9 20 11 21 10 22 13 23 14 24
REMARK SMILES IDX 15 26 16 27 17 28 20 29 18 30 19 31 30 32 31 33 32 34 33 35
REMARK SMILES IDX 34 36 35 37 36 38 37 39 95 40 38 41 94 42 39 43 40 44 41 45
REMARK SMILES IDX 88 46 42 47 93 48 87 49 89 50 43 51 92 52 86 53 85 54 44 56
REMARK SMILES IDX 74 57 55 58 73 59 56 60 59 61 72 62 90 63 57 64 58 65 71 67
REMARK SMILES IDX 91 68 60 69 45 70 46 71 54 72 47 73 53 74 48 75 49 76 50 77
REMARK SMILES IDX 51 78 52 79 75 80 76 81 84 82 77 83 83 84 78 85 79 86 80 87
REMARK SMILES IDX 81 88 82 89 61 90 62 91 70 92 63 93 69 94 64 95 65 96 66 97
REMARK SMILES IDX 67 98 68 99
REMARK H PARENT 4 15 13 25 89 55 59 66
REMARK Flexibility Score: inf
ROOT
ATOM      1  C   UNL A   1      38.497  23.724  26.644  1.00  0.00     0.202 C 
ENDROOT
BRANCH   1   2
ATOM      2  C   UNL A   1      37.649  23.341  25.493  1.00  0.00     0.261 C 
BRANCH   2   3
ATOM      3  O   UNL A   1      36.470  22.673  25.974  1.00  0.00    -0.460 OA
BRANCH   3   4
ATOM      4  C   UNL A   1      35.643  21.877  25.275  1.00  0.00     0.338 C 
ATOM      5  O   UNL A   1      35.653  20.676  25.146  1.00  0.00    -0.246 OA
BRANCH   4   6
ATOM      6  C   UNL A   1      34.602  22.778  24.702  1.00  0.00     0.065 A 
ATOM      7  C   UNL A   1      33.316  23.202  26.929  1.00  0.00     0.047 C 
ATOM      8  C   UNL A   1      33.545  23.378  25.436  1.00  0.00    -0.013 A 
ATOM      9  C   UNL A   1      32.522  24.019  24.702  1.00  0.00     0.045 A 
ATOM     10  C   UNL A   1      32.593  24.141  23.309  1.00  0.00     0.026 A 
ATOM     11  C   UNL A   1      34.658  22.909  23.300  1.00  0.00     0.016 A 
ATOM     12  C   UNL A   1      33.661  23.588  22.607  1.00  0.00     0.003 A 
BRANCH   9  13
ATOM     13  N   UNL A   1      31.389  24.425  25.427  1.00  0.00    -0.322 N 
ATOM     14  C   UNL A   1      30.904  25.659  25.761  1.00  0.00     0.257 C 
ATOM     15  H   UNL A   1      30.839  23.679  25.757  1.00  0.00     0.170 HD
ATOM     16  O   UNL A   1      29.859  25.721  26.413  1.00  0.00    -0.269 OA
BRANCH  14  17
ATOM     17  C   UNL A   1      31.573  26.919  25.374  1.00  0.00     0.063 A 
ATOM     18  C   UNL A   1      32.812  27.096  26.021  1.00  0.00     0.016 A 
ATOM     19  C   UNL A   1      31.085  27.886  24.464  1.00  0.00     0.054 A 
ATOM     20  C   UNL A   1      33.627  28.170  25.707  1.00  0.00     0.001 A 
ATOM     21  C   UNL A   1      31.983  28.888  24.085  1.00  0.00     0.027 A 
ATOM     22  C   UNL A   1      33.228  29.042  24.708  1.00  0.00     0.002 A 
BRANCH  19  23
ATOM     23  N   UNL A   1      29.753  27.808  23.983  1.00  0.00    -0.323 N 
ATOM     24  C   UNL A   1      28.959  28.540  23.140  1.00  0.00     0.253 C 
ATOM     25  H   UNL A   1      29.278  27.028  24.348  1.00  0.00     0.170 HD
ATOM     26  O   UNL A   1      27.850  28.066  22.875  1.00  0.00    -0.272 OA
BRANCH  24  27
ATOM     27  C   UNL A   1      29.378  29.908  22.591  1.00  0.00     0.207 C 
ATOM     28  C   UNL A   1      28.765  31.019  23.434  1.00  0.00     0.044 C 
ATOM     29  O   UNL A   1      28.955  30.186  21.241  1.00  0.00    -0.368 OA
ATOM     30  C   UNL A   1      28.787  32.183  22.485  1.00  0.00     0.032 C 
ATOM     31  C   UNL A   1      28.414  31.512  21.185  1.00  0.00     0.161 C 
ENDBRANCH  24  27
ENDBRANCH  19  23
ENDBRANCH  14  17
ENDBRANCH   9  13
ENDBRANCH   4   6
ENDBRANCH   3   4
ENDBRANCH   2   3
ENDBRANCH   1   2
BRANCH   1  32
ATOM     32  O   UNL A   1      39.334  24.740  26.110  1.00  0.00    -0.374 OA
BRANCH  32  33
ATOM     33  C   UNL A   1      40.574  24.883  26.746  1.00  0.00     0.202 C 
BRANCH  33  34
ATOM     34  C   UNL A   1      41.588  25.544  25.814  1.00  0.00     0.261 C 
BRANCH  34  35
ATOM     35  O   UNL A   1      41.140  26.865  25.414  1.00  0.00    -0.460 OA
BRANCH  35  36
ATOM     36  C   UNL A   1      42.052  27.887  25.480  1.00  0.00     0.338 C 
ATOM     37  O   UNL A   1      42.937  28.051  24.658  1.00  0.00    -0.246 OA
BRANCH  36  38
ATOM     38  C   UNL A   1      41.738  28.832  26.597  1.00  0.00     0.060 A 
ATOM     39  C   UNL A   1      42.737  29.576  27.258  1.00  0.00     0.016 A 
ATOM     40  C   UNL A   1      40.444  28.830  27.103  1.00  0.00     0.016 A 
ATOM     41  C   UNL A   1      42.472  30.184  28.504  1.00  0.00     0.010 A 
ATOM     42  C   UNL A   1      40.222  29.326  28.370  1.00  0.00     0.010 A 
ATOM     43  C   UNL A   1      41.227  29.987  29.099  1.00  0.00    -0.014 A 
BRANCH  43  44
ATOM     44  C   UNL A   1      40.814  30.322  30.470  1.00  0.00     0.031 A 
ATOM     45  C   UNL A   1      40.005  31.556  30.633  1.00  0.00     0.074 A 
ATOM     46  C   UNL A   1      40.837  29.394  31.465  1.00  0.00     0.049 A 
ATOM     47  N   UNL A   1      39.581  31.990  31.765  1.00  0.00    -0.248 NA
ATOM     48  C   UNL A   1      39.614  32.437  29.527  1.00  0.00     0.031 C 
ATOM     49  C   UNL A   1      39.960  29.277  32.635  1.00  0.00     0.029 A 
ATOM     50  N   UNL A   1      41.683  28.297  31.626  1.00  0.00    -0.354 N 
ATOM     51  C   UNL A   1      38.618  32.938  31.520  1.00  0.00     0.074 A 
ATOM     52  C   UNL A   1      38.753  33.266  30.126  1.00  0.00     0.031 C 
ATOM     53  C   UNL A   1      40.466  28.375  33.499  1.00  0.00     0.029 A 
ATOM     54  C   UNL A   1      41.757  27.950  32.980  1.00  0.00     0.049 A 
ATOM     55  H   UNL A   1      42.158  27.836  30.898  1.00  0.00     0.167 HD
ATOM     56  C   UNL A   1      37.743  33.227  32.520  1.00  0.00     0.031 A 
ATOM     57  C   UNL A   1      42.962  27.961  33.611  1.00  0.00     0.031 A 
ATOM     58  C   UNL A   1      38.160  32.567  33.766  1.00  0.00     0.049 A 
ATOM     59  C   UNL A   1      42.930  29.123  34.562  1.00  0.00     0.074 A 
ATOM     60  C   UNL A   1      37.686  31.478  34.474  1.00  0.00     0.029 A 
ATOM     61  N   UNL A   1      39.447  32.816  34.245  1.00  0.00    -0.354 N 
ATOM     62  N   UNL A   1      42.133  30.145  34.384  1.00  0.00    -0.248 NA
ATOM     63  C   UNL A   1      43.623  29.168  35.845  1.00  0.00     0.031 C 
ATOM     64  C   UNL A   1      38.758  30.998  35.290  1.00  0.00     0.029 A 
ATOM     65  C   UNL A   1      39.864  31.819  35.109  1.00  0.00     0.049 A 
ATOM     66  H   UNL A   1      39.989  33.600  34.001  1.00  0.00     0.167 HD
ATOM     67  C   UNL A   1      42.071  30.870  35.527  1.00  0.00     0.074 A 
ATOM     68  C   UNL A   1      43.075  30.268  36.392  1.00  0.00     0.031 C 
ATOM     69  C   UNL A   1      41.188  31.888  35.724  1.00  0.00     0.031 A 
BRANCH  56  70
ATOM     70  C   UNL A   1      36.430  33.958  32.350  1.00  0.00    -0.014 A 
ATOM     71  C   UNL A   1      35.964  34.777  33.400  1.00  0.00     0.010 A 
ATOM     72  C   UNL A   1      35.572  33.838  31.236  1.00  0.00     0.010 A 
ATOM     73  C   UNL A   1      34.726  35.440  33.338  1.00  0.00     0.020 A 
ATOM     74  C   UNL A   1      34.343  34.514  31.149  1.00  0.00     0.020 A 
ATOM     75  C   UNL A   1      33.925  35.310  32.206  1.00  0.00     0.054 A 
BRANCH  75  76
ATOM     76  S   UNL A   1      32.339  36.186  32.139  1.00  0.00     0.124 S 
ATOM     77  O   UNL A   1      32.245  36.556  30.729  1.00  0.00    -0.237 OA
ATOM     78  O   UNL A   1      31.395  35.167  32.589  1.00  0.00    -0.237 OA
ATOM     79  O   UNL A   1      32.522  37.307  33.059  1.00  0.00    -0.744 OA
ENDBRANCH  75  76
ENDBRANCH  56  70
BRANCH  57  80
ATOM     80  C   UNL A   1      44.069  27.449  32.728  1.00  0.00    -0.014 A 
ATOM     81  C   UNL A   1      44.149  26.042  32.570  1.00  0.00     0.010 A 
ATOM     82  C   UNL A   1      44.616  28.251  31.707  1.00  0.00     0.010 A 
ATOM     83  C   UNL A   1      44.592  25.462  31.368  1.00  0.00     0.020 A 
ATOM     84  C   UNL A   1      45.048  27.673  30.494  1.00  0.00     0.020 A 
ATOM     85  C   UNL A   1      44.986  26.286  30.314  1.00  0.00     0.054 A 
BRANCH  85  86
ATOM     86  S   UNL A   1      45.098  25.562  28.634  1.00  0.00     0.124 S 
ATOM     87  O   UNL A   1      46.497  25.159  28.557  1.00  0.00    -0.237 OA
ATOM     88  O   UNL A   1      44.133  24.464  28.688  1.00  0.00    -0.237 OA
ATOM     89  O   UNL A   1      44.704  26.668  27.768  1.00  0.00    -0.744 OA
ENDBRANCH  85  86
ENDBRANCH  57  80
BRANCH  69  90
ATOM     90  C   UNL A   1      41.546  33.057  36.587  1.00  0.00    -0.014 A 
ATOM     91  C   UNL A   1      42.552  33.969  36.226  1.00  0.00     0.010 A 
ATOM     92  C   UNL A   1      40.743  33.373  37.702  1.00  0.00     0.010 A 
ATOM     93  C   UNL A   1      42.828  35.082  37.013  1.00  0.00     0.020 A 
ATOM     94  C   UNL A   1      40.963  34.523  38.452  1.00  0.00     0.020 A 
ATOM     95  C   UNL A   1      42.038  35.343  38.129  1.00  0.00     0.054 A 
BRANCH  95  96
ATOM     96  S   UNL A   1      42.433  36.774  39.149  1.00  0.00     0.124 S 
ATOM     97  O   UNL A   1      43.324  37.523  38.266  1.00  0.00    -0.237 OA
ATOM     98  O   UNL A   1      41.124  37.379  39.378  1.00  0.00    -0.237 OA
ATOM     99  O   UNL A   1      43.062  36.192  40.331  1.00  0.00    -0.744 OA
ENDBRANCH  95  96
ENDBRANCH  69  90
ENDBRANCH  43  44
ENDBRANCH  36  38
ENDBRANCH  35  36
ENDBRANCH  34  35
ENDBRANCH  33  34
ENDBRANCH  32  33
ENDBRANCH   1  32
TORSDOF 21
ENDMDL
