MODEL 1
REMARK VINA RESULT:     -10.5      0.000      0.000
REMARK SMILES COc1c(C(=O)OCCOCCOC(=O)c2ccc(-c3c4nc(c(-c5ccc(S(=O)(=O)[O-])cc5)c5ccc([nH]5)c(-c5ccc(S(=O)(=O)[O-])cc5)c5nc(c(-c6ccc(S(=O)(=O)[O-])cc6)c6ccc3[nH]6)C=C5)C=C4)cc2)cccc1-c1cc(C)ccc1C
REMARK SMILES IDX 11 1 10 2 9 3 8 4 7 5 5 6 6 7 4 8 3 9 79 10 76 11 78 12
REMARK SMILES IDX 77 13 2 14 1 15 80 16 81 17 86 18 82 19 85 20 87 21 83 22
REMARK SMILES IDX 84 23 12 24 13 25 14 26 15 27 16 28 17 29 75 30 18 31 74 32
REMARK SMILES IDX 19 33 20 34 21 35 68 36 22 37 73 38 67 39 69 40 23 41 72 42
REMARK SMILES IDX 66 43 65 44 24 46 54 47 35 48 53 49 36 50 39 51 52 52 70 53
REMARK SMILES IDX 37 54 38 55 51 57 71 58 40 59 25 60 26 61 34 62 27 63 33 64
REMARK SMILES IDX 28 65 29 66 30 67 31 68 32 69 55 70 56 71 64 72 57 73 63 74
REMARK SMILES IDX 58 75 59 76 60 77 61 78 62 79 41 80 42 81 50 82 43 83 49 84
REMARK SMILES IDX 44 85 45 86 46 87 47 88 48 89
REMARK H PARENT 69 45 39 56
REMARK Flexibility Score: inf
ROOT
ATOM      1  C   UNL A   1      31.902  29.683  25.981  1.00  0.00     0.202 C 
ENDROOT
BRANCH   1   2
ATOM      2  O   UNL A   1      31.135  30.182  24.886  1.00  0.00    -0.374 OA
BRANCH   2   3
ATOM      3  C   UNL A   1      30.665  29.233  23.924  1.00  0.00     0.202 C 
BRANCH   3   4
ATOM      4  C   UNL A   1      31.687  28.777  22.879  1.00  0.00     0.261 C 
BRANCH   4   5
ATOM      5  O   UNL A   1      31.694  27.342  22.801  1.00  0.00    -0.460 OA
BRANCH   5   6
ATOM      6  C   UNL A   1      32.918  26.769  22.752  1.00  0.00     0.342 C 
ATOM      7  O   UNL A   1      33.843  27.079  22.014  1.00  0.00    -0.246 OA
BRANCH   6   8
ATOM      8  C   UNL A   1      33.108  25.861  23.906  1.00  0.00     0.102 A 
ATOM      9  C   UNL A   1      33.847  24.669  23.852  1.00  0.00     0.141 A 
ATOM     10  C   UNL A   1      34.133  23.969  25.049  1.00  0.00     0.025 A 
ATOM     11  C   UNL A   1      32.519  26.280  25.109  1.00  0.00     0.019 A 
ATOM     12  C   UNL A   1      33.506  24.407  26.238  1.00  0.00     0.012 A 
ATOM     13  C   UNL A   1      32.688  25.534  26.267  1.00  0.00     0.002 A 
BRANCH   9  14
ATOM     14  O   UNL A   1      34.370  24.291  22.640  1.00  0.00    -0.495 OA
ATOM     15  C   UNL A   1      33.482  23.449  21.900  1.00  0.00     0.278 C 
ENDBRANCH   9  14
BRANCH  10  16
ATOM     16  C   UNL A   1      35.130  22.873  25.152  1.00  0.00    -0.011 A 
ATOM     17  C   UNL A   1      36.457  23.182  25.527  1.00  0.00     0.012 A 
ATOM     18  C   UNL A   1      34.832  21.530  24.817  1.00  0.00    -0.043 A 
ATOM     19  C   UNL A   1      37.463  22.204  25.583  1.00  0.00    -0.050 A 
ATOM     20  C   UNL A   1      35.831  20.547  24.934  1.00  0.00     0.004 A 
ATOM     21  C   UNL A   1      33.470  21.070  24.361  1.00  0.00     0.045 C 
ATOM     22  C   UNL A   1      38.873  22.590  25.920  1.00  0.00     0.044 C 
ATOM     23  C   UNL A   1      37.132  20.880  25.301  1.00  0.00     0.004 A 
ENDBRANCH  10  16
ENDBRANCH   6   8
ENDBRANCH   5   6
ENDBRANCH   4   5
ENDBRANCH   3   4
ENDBRANCH   2   3
ENDBRANCH   1   2
BRANCH   1  24
ATOM     24  C   UNL A   1      32.809  30.683  26.706  1.00  0.00     0.261 C 
BRANCH  24  25
ATOM     25  O   UNL A   1      33.575  30.080  27.763  1.00  0.00    -0.460 OA
BRANCH  25  26
ATOM     26  C   UNL A   1      34.512  30.896  28.304  1.00  0.00     0.338 C 
ATOM     27  O   UNL A   1      34.328  32.000  28.802  1.00  0.00    -0.246 OA
BRANCH  26  28
ATOM     28  C   UNL A   1      35.813  30.210  28.376  1.00  0.00     0.060 A 
ATOM     29  C   UNL A   1      36.203  29.703  29.622  1.00  0.00     0.016 A 
ATOM     30  C   UNL A   1      36.676  30.135  27.279  1.00  0.00     0.016 A 
ATOM     31  C   UNL A   1      37.479  29.173  29.791  1.00  0.00     0.010 A 
ATOM     32  C   UNL A   1      37.962  29.607  27.454  1.00  0.00     0.010 A 
ATOM     33  C   UNL A   1      38.381  29.161  28.720  1.00  0.00    -0.014 A 
BRANCH  33  34
ATOM     34  C   UNL A   1      39.801  28.818  28.981  1.00  0.00     0.031 A 
ATOM     35  C   UNL A   1      40.689  29.830  29.655  1.00  0.00     0.074 A 
ATOM     36  C   UNL A   1      40.275  27.592  28.689  1.00  0.00     0.049 A 
ATOM     37  N   UNL A   1      41.941  29.721  30.018  1.00  0.00    -0.248 NA
ATOM     38  C   UNL A   1      40.085  31.137  29.963  1.00  0.00     0.031 C 
ATOM     39  C   UNL A   1      39.505  26.512  28.072  1.00  0.00     0.029 A 
ATOM     40  N   UNL A   1      41.519  27.049  28.884  1.00  0.00    -0.354 N 
ATOM     41  C   UNL A   1      42.272  30.937  30.606  1.00  0.00     0.074 A 
ATOM     42  C   UNL A   1      41.103  31.784  30.511  1.00  0.00     0.031 C 
ATOM     43  C   UNL A   1      40.296  25.433  27.940  1.00  0.00     0.029 A 
ATOM     44  C   UNL A   1      41.631  25.752  28.443  1.00  0.00     0.049 A 
ATOM     45  H   UNL A   1      42.263  27.542  29.302  1.00  0.00     0.167 HD
ATOM     46  C   UNL A   1      43.437  31.313  31.187  1.00  0.00     0.031 A 
ATOM     47  C   UNL A   1      42.691  24.920  28.437  1.00  0.00     0.031 A 
ATOM     48  C   UNL A   1      44.607  30.479  31.265  1.00  0.00     0.049 A 
ATOM     49  C   UNL A   1      43.998  25.386  29.026  1.00  0.00     0.074 A 
ATOM     50  C   UNL A   1      45.840  30.772  31.821  1.00  0.00     0.029 A 
ATOM     51  N   UNL A   1      44.691  29.186  30.770  1.00  0.00    -0.354 N 
ATOM     52  N   UNL A   1      44.287  26.535  29.589  1.00  0.00    -0.248 NA
ATOM     53  C   UNL A   1      45.116  24.432  28.992  1.00  0.00     0.031 C 
ATOM     54  C   UNL A   1      46.683  29.673  31.624  1.00  0.00     0.029 A 
ATOM     55  C   UNL A   1      45.959  28.674  30.996  1.00  0.00     0.049 A 
ATOM     56  H   UNL A   1      43.958  28.703  30.325  1.00  0.00     0.167 HD
ATOM     57  C   UNL A   1      45.612  26.430  30.002  1.00  0.00     0.074 A 
ATOM     58  C   UNL A   1      46.060  25.101  29.639  1.00  0.00     0.031 C 
ATOM     59  C   UNL A   1      46.390  27.350  30.627  1.00  0.00     0.031 A 
BRANCH  46  60
ATOM     60  C   UNL A   1      43.504  32.699  31.771  1.00  0.00    -0.014 A 
ATOM     61  C   UNL A   1      43.818  33.809  30.966  1.00  0.00     0.010 A 
ATOM     62  C   UNL A   1      43.217  32.900  33.134  1.00  0.00     0.010 A 
ATOM     63  C   UNL A   1      43.878  35.091  31.521  1.00  0.00     0.020 A 
ATOM     64  C   UNL A   1      43.251  34.184  33.686  1.00  0.00     0.020 A 
ATOM     65  C   UNL A   1      43.597  35.269  32.879  1.00  0.00     0.054 A 
BRANCH  65  66
ATOM     66  S   UNL A   1      43.663  36.947  33.567  1.00  0.00     0.124 S 
ATOM     67  O   UNL A   1      44.866  36.887  34.393  1.00  0.00    -0.237 OA
ATOM     68  O   UNL A   1      43.762  37.781  32.372  1.00  0.00    -0.237 OA
ATOM     69  O   UNL A   1      42.407  37.068  34.304  1.00  0.00    -0.744 OA
ENDBRANCH  65  66
ENDBRANCH  46  60
BRANCH  47  70
ATOM     70  C   UNL A   1      42.571  23.562  27.839  1.00  0.00    -0.014 A 
ATOM     71  C   UNL A   1      42.893  23.336  26.489  1.00  0.00     0.010 A 
ATOM     72  C   UNL A   1      42.107  22.488  28.619  1.00  0.00     0.010 A 
ATOM     73  C   UNL A   1      42.723  22.069  25.923  1.00  0.00     0.020 A 
ATOM     74  C   UNL A   1      41.962  21.214  28.064  1.00  0.00     0.020 A 
ATOM     75  C   UNL A   1      42.256  21.017  26.715  1.00  0.00     0.054 A 
BRANCH  75  76
ATOM     76  S   UNL A   1      42.066  19.373  25.969  1.00  0.00     0.124 S 
ATOM     77  O   UNL A   1      42.567  18.501  27.028  1.00  0.00    -0.237 OA
ATOM     78  O   UNL A   1      40.629  19.303  25.717  1.00  0.00    -0.237 OA
ATOM     79  O   UNL A   1      42.899  19.445  24.771  1.00  0.00    -0.744 OA
ENDBRANCH  75  76
ENDBRANCH  47  70
BRANCH  59  80
ATOM     80  C   UNL A   1      47.791  26.935  30.993  1.00  0.00    -0.014 A 
ATOM     81  C   UNL A   1      48.073  26.316  32.224  1.00  0.00     0.010 A 
ATOM     82  C   UNL A   1      48.838  27.145  30.076  1.00  0.00     0.010 A 
ATOM     83  C   UNL A   1      49.384  25.957  32.551  1.00  0.00     0.020 A 
ATOM     84  C   UNL A   1      50.145  26.763  30.388  1.00  0.00     0.020 A 
ATOM     85  C   UNL A   1      50.413  26.191  31.633  1.00  0.00     0.054 A 
BRANCH  85  86
ATOM     86  S   UNL A   1      52.104  25.704  32.072  1.00  0.00     0.124 S 
ATOM     87  O   UNL A   1      52.374  26.555  33.227  1.00  0.00    -0.237 OA
ATOM     88  O   UNL A   1      51.965  24.279  32.360  1.00  0.00    -0.237 OA
ATOM     89  O   UNL A   1      52.877  26.018  30.872  1.00  0.00    -0.744 OA
ENDBRANCH  85  86
ENDBRANCH  59  80
ENDBRANCH  33  34
ENDBRANCH  26  28
ENDBRANCH  25  26
ENDBRANCH  24  25
ENDBRANCH   1  24
TORSDOF 19
ENDMDL
MODEL 2
REMARK VINA RESULT:     -10.0      0.551      8.184
REMARK SMILES COc1c(C(=O)OCCOCCOC(=O)c2ccc(-c3c4nc(c(-c5ccc(S(=O)(=O)[O-])cc5)c5ccc([nH]5)c(-c5ccc(S(=O)(=O)[O-])cc5)c5nc(c(-c6ccc(S(=O)(=O)[O-])cc6)c6ccc3[nH]6)C=C5)C=C4)cc2)cccc1-c1cc(C)ccc1C
REMARK SMILES IDX 11 1 10 2 9 3 8 4 7 5 5 6 6 7 4 8 3 9 79 10 76 11 78 12
REMARK SMILES IDX 77 13 2 14 1 15 80 16 81 17 86 18 82 19 85 20 87 21 83 22
REMARK SMILES IDX 84 23 12 24 13 25 14 26 15 27 16 28 17 29 75 30 18 31 74 32
REMARK SMILES IDX 19 33 20 34 21 35 68 36 22 37 73 38 67 39 69 40 23 41 72 42
REMARK SMILES IDX 66 43 65 44 24 46 54 47 35 48 53 49 36 50 39 51 52 52 70 53
REMARK SMILES IDX 37 54 38 55 51 57 71 58 40 59 25 60 26 61 34 62 27 63 33 64
REMARK SMILES IDX 28 65 29 66 30 67 31 68 32 69 55 70 56 71 64 72 57 73 63 74
REMARK SMILES IDX 58 75 59 76 60 77 61 78 62 79 41 80 42 81 50 82 43 83 49 84
REMARK SMILES IDX 44 85 45 86 46 87 47 88 48 89
REMARK H PARENT 69 45 39 56
REMARK Flexibility Score: inf
ROOT
ATOM      1  C   UNL A   1      31.880  29.431  25.815  1.00  0.00     0.202 C 
ENDROOT
BRANCH   1   2
ATOM      2  O   UNL A   1      31.091  30.029  24.787  1.00  0.00    -0.374 OA
BRANCH   2   3
ATOM      3  C   UNL A   1      30.347  29.155  23.935  1.00  0.00     0.202 C 
BRANCH   3   4
ATOM      4  C   UNL A   1      31.089  28.627  22.704  1.00  0.00     0.261 C 
BRANCH   4   5
ATOM      5  O   UNL A   1      31.451  27.251  22.908  1.00  0.00    -0.460 OA
BRANCH   5   6
ATOM      6  C   UNL A   1      32.736  27.036  23.269  1.00  0.00     0.342 C 
ATOM      7  O   UNL A   1      33.698  27.748  23.013  1.00  0.00    -0.246 OA
BRANCH   6   8
ATOM      8  C   UNL A   1      32.816  25.939  24.260  1.00  0.00     0.102 A 
ATOM      9  C   UNL A   1      33.602  24.788  24.092  1.00  0.00     0.141 A 
ATOM     10  C   UNL A   1      33.764  23.889  25.174  1.00  0.00     0.025 A 
ATOM     11  C   UNL A   1      32.067  26.126  25.432  1.00  0.00     0.019 A 
ATOM     12  C   UNL A   1      32.978  24.097  26.331  1.00  0.00     0.012 A 
ATOM     13  C   UNL A   1      32.120  25.188  26.452  1.00  0.00     0.002 A 
BRANCH   9  14
ATOM     14  O   UNL A   1      34.285  24.642  22.910  1.00  0.00    -0.495 OA
ATOM     15  C   UNL A   1      33.585  23.819  21.972  1.00  0.00     0.278 C 
ENDBRANCH   9  14
BRANCH  10  16
ATOM     16  C   UNL A   1      34.782  22.808  25.210  1.00  0.00    -0.011 A 
ATOM     17  C   UNL A   1      36.102  23.117  25.611  1.00  0.00     0.012 A 
ATOM     18  C   UNL A   1      34.511  21.485  24.787  1.00  0.00    -0.043 A 
ATOM     19  C   UNL A   1      37.126  22.158  25.607  1.00  0.00    -0.050 A 
ATOM     20  C   UNL A   1      35.528  20.516  24.844  1.00  0.00     0.004 A 
ATOM     21  C   UNL A   1      33.160  21.029  24.296  1.00  0.00     0.045 C 
ATOM     22  C   UNL A   1      38.527  22.548  25.975  1.00  0.00     0.044 C 
ATOM     23  C   UNL A   1      36.822  20.849  25.238  1.00  0.00     0.004 A 
ENDBRANCH  10  16
ENDBRANCH   6   8
ENDBRANCH   5   6
ENDBRANCH   4   5
ENDBRANCH   3   4
ENDBRANCH   2   3
ENDBRANCH   1   2
BRANCH   1  24
ATOM     24  C   UNL A   1      32.559  30.379  26.810  1.00  0.00     0.261 C 
BRANCH  24  25
ATOM     25  O   UNL A   1      33.681  29.779  27.479  1.00  0.00    -0.460 OA
BRANCH  25  26
ATOM     26  C   UNL A   1      34.513  30.667  28.074  1.00  0.00     0.338 C 
ATOM     27  O   UNL A   1      34.213  31.759  28.539  1.00  0.00    -0.246 OA
BRANCH  26  28
ATOM     28  C   UNL A   1      35.853  30.080  28.251  1.00  0.00     0.060 A 
ATOM     29  C   UNL A   1      36.193  29.634  29.533  1.00  0.00     0.016 A 
ATOM     30  C   UNL A   1      36.790  30.043  27.215  1.00  0.00     0.016 A 
ATOM     31  C   UNL A   1      37.489  29.204  29.801  1.00  0.00     0.010 A 
ATOM     32  C   UNL A   1      38.096  29.615  27.489  1.00  0.00     0.010 A 
ATOM     33  C   UNL A   1      38.460  29.232  28.792  1.00  0.00    -0.014 A 
BRANCH  33  34
ATOM     34  C   UNL A   1      39.880  29.000  29.155  1.00  0.00     0.031 A 
ATOM     35  C   UNL A   1      40.508  27.666  28.845  1.00  0.00     0.074 A 
ATOM     36  C   UNL A   1      40.622  29.988  29.687  1.00  0.00     0.049 A 
ATOM     37  N   UNL A   1      41.739  27.268  29.033  1.00  0.00    -0.248 NA
ATOM     38  C   UNL A   1      39.632  26.649  28.241  1.00  0.00     0.031 C 
ATOM     39  C   UNL A   1      40.142  31.335  29.998  1.00  0.00     0.029 A 
ATOM     40  N   UNL A   1      41.945  30.012  30.050  1.00  0.00    -0.354 N 
ATOM     41  C   UNL A   1      41.791  25.961  28.561  1.00  0.00     0.074 A 
ATOM     42  C   UNL A   1      40.456  25.619  28.120  1.00  0.00     0.031 C 
ATOM     43  C   UNL A   1      41.158  32.054  30.505  1.00  0.00     0.029 A 
ATOM     44  C   UNL A   1      42.352  31.215  30.574  1.00  0.00     0.049 A 
ATOM     45  H   UNL A   1      42.547  29.239  29.945  1.00  0.00     0.167 HD
ATOM     46  C   UNL A   1      42.854  25.124  28.487  1.00  0.00     0.031 A 
ATOM     47  C   UNL A   1      43.550  31.595  31.062  1.00  0.00     0.031 A 
ATOM     48  C   UNL A   1      44.178  25.456  28.943  1.00  0.00     0.049 A 
ATOM     49  C   UNL A   1      44.701  30.622  31.032  1.00  0.00     0.074 A 
ATOM     50  C   UNL A   1      45.319  24.672  28.924  1.00  0.00     0.029 A 
ATOM     51  N   UNL A   1      44.539  26.671  29.504  1.00  0.00    -0.354 N 
ATOM     52  N   UNL A   1      44.733  29.394  30.570  1.00  0.00    -0.248 NA
ATOM     53  C   UNL A   1      45.982  31.095  31.577  1.00  0.00     0.031 C 
ATOM     54  C   UNL A   1      46.359  25.398  29.512  1.00  0.00     0.029 A 
ATOM     55  C   UNL A   1      45.881  26.654  29.847  1.00  0.00     0.049 A 
ATOM     56  H   UNL A   1      43.932  27.435  29.639  1.00  0.00     0.167 HD
ATOM     57  C   UNL A   1      46.044  28.960  30.742  1.00  0.00     0.074 A 
ATOM     58  C   UNL A   1      46.776  30.061  31.334  1.00  0.00     0.031 C 
ATOM     59  C   UNL A   1      46.595  27.758  30.437  1.00  0.00     0.031 A 
BRANCH  46  60
ATOM     60  C   UNL A   1      42.619  23.757  27.901  1.00  0.00    -0.014 A 
ATOM     61  C   UNL A   1      42.241  22.676  28.716  1.00  0.00     0.010 A 
ATOM     62  C   UNL A   1      42.744  23.558  26.513  1.00  0.00     0.010 A 
ATOM     63  C   UNL A   1      42.027  21.411  28.161  1.00  0.00     0.020 A 
ATOM     64  C   UNL A   1      42.505  22.301  25.951  1.00  0.00     0.020 A 
ATOM     65  C   UNL A   1      42.164  21.231  26.781  1.00  0.00     0.054 A 
BRANCH  65  66
ATOM     66  S   UNL A   1      41.859  19.584  26.084  1.00  0.00     0.124 S 
ATOM     67  O   UNL A   1      42.728  19.588  24.909  1.00  0.00    -0.237 OA
ATOM     68  O   UNL A   1      42.273  18.695  27.168  1.00  0.00    -0.237 OA
ATOM     69  O   UNL A   1      40.426  19.588  25.799  1.00  0.00    -0.744 OA
ENDBRANCH  65  66
ENDBRANCH  46  60
BRANCH  47  70
ATOM     70  C   UNL A   1      43.725  32.956  31.637  1.00  0.00    -0.014 A 
ATOM     71  C   UNL A   1      43.454  33.208  32.994  1.00  0.00     0.010 A 
ATOM     72  C   UNL A   1      44.142  34.020  30.816  1.00  0.00     0.010 A 
ATOM     73  C   UNL A   1      43.567  34.502  33.511  1.00  0.00     0.020 A 
ATOM     74  C   UNL A   1      44.284  35.309  31.335  1.00  0.00     0.020 A 
ATOM     75  C   UNL A   1      43.979  35.545  32.676  1.00  0.00     0.054 A 
BRANCH  75  76
ATOM     76  S   UNL A   1      44.145  37.213  33.371  1.00  0.00     0.124 S 
ATOM     77  O   UNL A   1      43.193  37.177  34.476  1.00  0.00    -0.237 OA
ATOM     78  O   UNL A   1      45.555  37.259  33.751  1.00  0.00    -0.237 OA
ATOM     79  O   UNL A   1      43.780  38.084  32.256  1.00  0.00    -0.744 OA
ENDBRANCH  75  76
ENDBRANCH  47  70
BRANCH  59  80
ATOM     80  C   UNL A   1      48.068  27.587  30.701  1.00  0.00    -0.014 A 
ATOM     81  C   UNL A   1      49.031  27.948  29.741  1.00  0.00     0.010 A 
ATOM     82  C   UNL A   1      48.496  27.082  31.943  1.00  0.00     0.010 A 
ATOM     83  C   UNL A   1      50.391  27.762  30.000  1.00  0.00     0.020 A 
ATOM     84  C   UNL A   1      49.856  26.921  32.216  1.00  0.00     0.020 A 
ATOM     85  C   UNL A   1      50.795  27.242  31.234  1.00  0.00     0.054 A 
BRANCH  85  86
ATOM     86  S   UNL A   1      52.567  27.023  31.554  1.00  0.00     0.124 S 
ATOM     87  O   UNL A   1      53.168  27.857  30.516  1.00  0.00    -0.237 OA
ATOM     88  O   UNL A   1      52.711  27.518  32.920  1.00  0.00    -0.237 OA
ATOM     89  O   UNL A   1      52.772  25.585  31.395  1.00  0.00    -0.744 OA
ENDBRANCH  85  86
ENDBRANCH  59  80
ENDBRANCH  33  34
ENDBRANCH  26  28
ENDBRANCH  25  26
ENDBRANCH  24  25
ENDBRANCH   1  24
TORSDOF 19
ENDMDL
MODEL 3
REMARK VINA RESULT:      -9.9      2.595      9.540
REMARK SMILES COc1c(C(=O)OCCOCCOC(=O)c2ccc(-c3c4nc(c(-c5ccc(S(=O)(=O)[O-])cc5)c5ccc([nH]5)c(-c5ccc(S(=O)(=O)[O-])cc5)c5nc(c(-c6ccc(S(=O)(=O)[O-])cc6)c6ccc3[nH]6)C=C5)C=C4)cc2)cccc1-c1cc(C)ccc1C
REMARK SMILES IDX 11 1 10 2 9 3 8 4 7 5 5 6 6 7 4 8 3 9 79 10 76 11 78 12
REMARK SMILES IDX 77 13 2 14 1 15 80 16 81 17 86 18 82 19 85 20 87 21 83 22
REMARK SMILES IDX 84 23 12 24 13 25 14 26 15 27 16 28 17 29 75 30 18 31 74 32
REMARK SMILES IDX 19 33 20 34 21 35 68 36 22 37 73 38 67 39 69 40 23 41 72 42
REMARK SMILES IDX 66 43 65 44 24 46 54 47 35 48 53 49 36 50 39 51 52 52 70 53
REMARK SMILES IDX 37 54 38 55 51 57 71 58 40 59 25 60 26 61 34 62 27 63 33 64
REMARK SMILES IDX 28 65 29 66 30 67 31 68 32 69 55 70 56 71 64 72 57 73 63 74
REMARK SMILES IDX 58 75 59 76 60 77 61 78 62 79 41 80 42 81 50 82 43 83 49 84
REMARK SMILES IDX 44 85 45 86 46 87 47 88 48 89
REMARK H PARENT 69 45 39 56
REMARK Flexibility Score: inf
ROOT
ATOM      1  C   UNL A   1      35.815  22.185  24.331  1.00  0.00     0.202 C 
ENDROOT
BRANCH   1   2
ATOM      2  O   UNL A   1      34.518  22.772  24.423  1.00  0.00    -0.374 OA
BRANCH   2   3
ATOM      3  C   UNL A   1      33.943  22.898  25.727  1.00  0.00     0.202 C 
BRANCH   3   4
ATOM      4  C   UNL A   1      33.695  24.328  26.214  1.00  0.00     0.261 C 
BRANCH   4   5
ATOM      5  O   UNL A   1      34.368  25.260  25.352  1.00  0.00    -0.460 OA
BRANCH   5   6
ATOM      6  C   UNL A   1      33.823  26.496  25.294  1.00  0.00     0.342 C 
ATOM      7  O   UNL A   1      34.169  27.478  25.936  1.00  0.00    -0.246 OA
BRANCH   6   8
ATOM      8  C   UNL A   1      32.896  26.597  24.145  1.00  0.00     0.102 A 
ATOM      9  C   UNL A   1      31.625  27.190  24.214  1.00  0.00     0.141 A 
ATOM     10  C   UNL A   1      30.893  27.412  23.023  1.00  0.00     0.025 A 
ATOM     11  C   UNL A   1      33.377  26.081  22.931  1.00  0.00     0.019 A 
ATOM     12  C   UNL A   1      31.398  26.861  21.822  1.00  0.00     0.012 A 
ATOM     13  C   UNL A   1      32.613  26.182  21.778  1.00  0.00     0.002 A 
BRANCH   9  14
ATOM     14  O   UNL A   1      31.192  27.644  25.435  1.00  0.00    -0.495 OA
ATOM     15  C   UNL A   1      30.705  26.589  26.270  1.00  0.00     0.278 C 
ENDBRANCH   9  14
BRANCH  10  16
ATOM     16  C   UNL A   1      29.687  28.275  22.938  1.00  0.00    -0.011 A 
ATOM     17  C   UNL A   1      29.826  29.614  22.508  1.00  0.00     0.012 A 
ATOM     18  C   UNL A   1      28.402  27.840  23.342  1.00  0.00    -0.043 A 
ATOM     19  C   UNL A   1      28.739  30.501  22.465  1.00  0.00    -0.050 A 
ATOM     20  C   UNL A   1      27.307  28.717  23.239  1.00  0.00     0.004 A 
ATOM     21  C   UNL A   1      28.119  26.452  23.861  1.00  0.00     0.045 C 
ATOM     22  C   UNL A   1      28.948  31.932  22.067  1.00  0.00     0.044 C 
ATOM     23  C   UNL A   1      27.474  30.034  22.816  1.00  0.00     0.004 A 
ENDBRANCH  10  16
ENDBRANCH   6   8
ENDBRANCH   5   6
ENDBRANCH   4   5
ENDBRANCH   3   4
ENDBRANCH   2   3
ENDBRANCH   1   2
BRANCH   1  24
ATOM     24  C   UNL A   1      36.995  23.138  24.113  1.00  0.00     0.261 C 
BRANCH  24  25
ATOM     25  O   UNL A   1      37.360  23.858  25.303  1.00  0.00    -0.460 OA
BRANCH  25  26
ATOM     26  C   UNL A   1      38.383  23.303  25.996  1.00  0.00     0.338 C 
ATOM     27  O   UNL A   1      38.750  22.135  25.959  1.00  0.00    -0.246 OA
BRANCH  26  28
ATOM     28  C   UNL A   1      39.143  24.341  26.714  1.00  0.00     0.060 A 
ATOM     29  C   UNL A   1      38.873  24.506  28.077  1.00  0.00     0.016 A 
ATOM     30  C   UNL A   1      40.036  25.195  26.060  1.00  0.00     0.016 A 
ATOM     31  C   UNL A   1      39.448  25.561  28.780  1.00  0.00     0.010 A 
ATOM     32  C   UNL A   1      40.608  26.259  26.768  1.00  0.00     0.010 A 
ATOM     33  C   UNL A   1      40.285  26.470  28.120  1.00  0.00    -0.014 A 
BRANCH  33  34
ATOM     34  C   UNL A   1      40.691  27.712  28.822  1.00  0.00     0.031 A 
ATOM     35  C   UNL A   1      42.093  27.824  29.362  1.00  0.00     0.074 A 
ATOM     36  C   UNL A   1      39.847  28.756  28.913  1.00  0.00     0.049 A 
ATOM     37  N   UNL A   1      42.669  28.832  29.964  1.00  0.00    -0.248 NA
ATOM     38  C   UNL A   1      42.960  26.646  29.199  1.00  0.00     0.031 C 
ATOM     39  C   UNL A   1      38.479  28.786  28.396  1.00  0.00     0.029 A 
ATOM     40  N   UNL A   1      40.024  29.999  29.466  1.00  0.00    -0.354 N 
ATOM     41  C   UNL A   1      43.966  28.416  30.242  1.00  0.00     0.074 A 
ATOM     42  C   UNL A   1      44.079  27.049  29.783  1.00  0.00     0.031 C 
ATOM     43  C   UNL A   1      37.941  29.990  28.655  1.00  0.00     0.029 A 
ATOM     44  C   UNL A   1      38.916  30.806  29.375  1.00  0.00     0.049 A 
ATOM     45  H   UNL A   1      40.866  30.286  29.888  1.00  0.00     0.167 HD
ATOM     46  C   UNL A   1      44.979  29.111  30.813  1.00  0.00     0.031 A 
ATOM     47  C   UNL A   1      38.709  32.059  29.827  1.00  0.00     0.031 A 
ATOM     48  C   UNL A   1      44.864  30.465  31.289  1.00  0.00     0.049 A 
ATOM     49  C   UNL A   1      39.830  32.787  30.523  1.00  0.00     0.074 A 
ATOM     50  C   UNL A   1      45.829  31.251  31.894  1.00  0.00     0.029 A 
ATOM     51  N   UNL A   1      43.713  31.234  31.214  1.00  0.00    -0.354 N 
ATOM     52  N   UNL A   1      41.054  32.381  30.765  1.00  0.00    -0.248 NA
ATOM     53  C   UNL A   1      39.543  34.151  30.992  1.00  0.00     0.031 C 
ATOM     54  C   UNL A   1      45.248  32.480  32.225  1.00  0.00     0.029 A 
ATOM     55  C   UNL A   1      43.939  32.480  31.775  1.00  0.00     0.049 A 
ATOM     56  H   UNL A   1      42.860  30.938  30.819  1.00  0.00     0.167 HD
ATOM     57  C   UNL A   1      41.691  33.451  31.387  1.00  0.00     0.074 A 
ATOM     58  C   UNL A   1      40.723  34.525  31.469  1.00  0.00     0.031 C 
ATOM     59  C   UNL A   1      42.964  33.538  31.850  1.00  0.00     0.031 A 
BRANCH  46  60
ATOM     60  C   UNL A   1      46.301  28.407  30.969  1.00  0.00    -0.014 A 
ATOM     61  C   UNL A   1      46.590  27.658  32.124  1.00  0.00     0.010 A 
ATOM     62  C   UNL A   1      47.254  28.465  29.935  1.00  0.00     0.010 A 
ATOM     63  C   UNL A   1      47.821  27.009  32.258  1.00  0.00     0.020 A 
ATOM     64  C   UNL A   1      48.475  27.796  30.054  1.00  0.00     0.020 A 
ATOM     65  C   UNL A   1      48.757  27.085  31.222  1.00  0.00     0.054 A 
BRANCH  65  66
ATOM     66  S   UNL A   1      50.338  26.216  31.413  1.00  0.00     0.124 S 
ATOM     67  O   UNL A   1      50.755  26.639  32.748  1.00  0.00    -0.237 OA
ATOM     68  O   UNL A   1      49.950  24.813  31.291  1.00  0.00    -0.237 OA
ATOM     69  O   UNL A   1      51.152  26.732  30.314  1.00  0.00    -0.744 OA
ENDBRANCH  65  66
ENDBRANCH  46  60
BRANCH  47  70
ATOM     70  C   UNL A   1      37.380  32.706  29.653  1.00  0.00    -0.014 A 
ATOM     71  C   UNL A   1      37.040  33.350  28.449  1.00  0.00     0.010 A 
ATOM     72  C   UNL A   1      36.451  32.701  30.710  1.00  0.00     0.010 A 
ATOM     73  C   UNL A   1      35.811  34.002  28.318  1.00  0.00     0.020 A 
ATOM     74  C   UNL A   1      35.210  33.328  30.572  1.00  0.00     0.020 A 
ATOM     75  C   UNL A   1      34.905  33.989  29.382  1.00  0.00     0.054 A 
BRANCH  75  76
ATOM     76  S   UNL A   1      33.303  34.819  29.183  1.00  0.00     0.124 S 
ATOM     77  O   UNL A   1      32.621  33.937  28.240  1.00  0.00    -0.237 OA
ATOM     78  O   UNL A   1      32.775  34.820  30.545  1.00  0.00    -0.237 OA
ATOM     79  O   UNL A   1      33.664  36.135  28.662  1.00  0.00    -0.744 OA
ENDBRANCH  75  76
ENDBRANCH  47  70
BRANCH  59  80
ATOM     80  C   UNL A   1      43.392  34.853  32.448  1.00  0.00    -0.014 A 
ATOM     81  C   UNL A   1      43.881  35.899  31.644  1.00  0.00     0.010 A 
ATOM     82  C   UNL A   1      43.277  35.053  33.836  1.00  0.00     0.010 A 
ATOM     83  C   UNL A   1      44.291  37.102  32.223  1.00  0.00     0.020 A 
ATOM     84  C   UNL A   1      43.660  36.265  34.415  1.00  0.00     0.020 A 
ATOM     85  C   UNL A   1      44.185  37.275  33.606  1.00  0.00     0.054 A 
BRANCH  85  86
ATOM     86  S   UNL A   1      44.709  38.851  34.335  1.00  0.00     0.124 S 
ATOM     87  O   UNL A   1      46.165  38.731  34.302  1.00  0.00    -0.237 OA
ATOM     88  O   UNL A   1      44.140  39.836  33.418  1.00  0.00    -0.237 OA
ATOM     89  O   UNL A   1      44.112  38.832  35.669  1.00  0.00    -0.744 OA
ENDBRANCH  85  86
ENDBRANCH  59  80
ENDBRANCH  33  34
ENDBRANCH  26  28
ENDBRANCH  25  26
ENDBRANCH  24  25
ENDBRANCH   1  24
TORSDOF 19
ENDMDL
