MODEL 1
REMARK VINA RESULT:     -11.5      0.000      0.000
REMARK SMILES Cc1c(C[NH2+]Cc2cccc(F)c2)c(C(=O)OCCOCCOC(=O)c2ccc(-c3c4nc(c(-c5ccc(S(=O)(=O)[O-])cc5)c5ccc([nH]5)c(-c5ccc(S(=O)(=O)[O-])cc5)c5nc(c(-c6ccc(S(=O)(=O)[O-])cc6)c6ccc3[nH]6)C=C5)C=C4)cc2)c(C)n1Cc1c(F)cccc1Cl
REMARK SMILES IDX 19 1 18 2 17 3 15 4 16 5 14 6 1 7 2 8 3 9 88 10 86 11 87 12
REMARK SMILES IDX 4 13 5 14 6 17 7 18 8 19 13 20 9 21 11 22 10 23 12 24 89 25
REMARK SMILES IDX 90 26 91 27 96 28 92 29 93 30 95 31 97 32 94 33 20 34 21 35
REMARK SMILES IDX 22 36 23 37 24 38 25 39 26 40 27 41 85 42 28 43 84 44 29 45
REMARK SMILES IDX 30 46 31 47 78 48 32 49 83 50 77 51 79 52 33 53 82 54 76 55
REMARK SMILES IDX 75 56 34 58 64 59 45 60 63 61 46 62 49 63 62 64 80 65 47 66
REMARK SMILES IDX 48 67 61 69 81 70 50 71 35 72 36 73 44 74 37 75 43 76 38 77
REMARK SMILES IDX 39 78 40 79 41 80 42 81 65 82 66 83 74 84 67 85 73 86 68 87
REMARK SMILES IDX 69 88 70 89 71 90 72 91 51 92 52 93 60 94 53 95 59 96 54 97
REMARK SMILES IDX 55 98 56 99 57 100 58 101
REMARK H PARENT 5 15 5 16 79 57 49 68
REMARK Flexibility Score: inf
ROOT
ATOM      1  C   UNL A   1      38.127  22.640  25.740  1.00  0.00     0.202 C 
ENDROOT
BRANCH   1   2
ATOM      2  C   UNL A   1      37.014  22.535  24.682  1.00  0.00     0.261 C 
BRANCH   2   3
ATOM      3  O   UNL A   1      35.864  23.275  25.096  1.00  0.00    -0.460 OA
BRANCH   3   4
ATOM      4  C   UNL A   1      34.897  23.504  24.171  1.00  0.00     0.340 C 
ATOM      5  O   UNL A   1      35.058  23.324  22.952  1.00  0.00    -0.246 OA
BRANCH   4   6
ATOM      6  C   UNL A   1      33.637  23.922  24.791  1.00  0.00     0.089 A 
ATOM      7  C   UNL A   1      30.283  23.619  26.421  1.00  0.00     0.065 C 
ATOM      8  C   UNL A   1      31.615  23.958  25.836  1.00  0.00     0.025 A 
ATOM      9  C   UNL A   1      32.557  23.102  25.264  1.00  0.00     0.042 A 
ATOM     10  N   UNL A   1      32.131  25.251  25.821  1.00  0.00    -0.343 N 
ATOM     11  C   UNL A   1      33.274  25.248  25.038  1.00  0.00     0.030 A 
ATOM     12  C   UNL A   1      33.997  26.471  24.579  1.00  0.00     0.065 C 
BRANCH   9  13
ATOM     13  C   UNL A   1      32.502  21.594  25.193  1.00  0.00     0.300 C 
BRANCH  13  14
ATOM     14  N   UNL A   1      33.677  21.044  25.851  1.00  0.00    -0.339 N 
ATOM     15  H   UNL A   1      33.371  20.541  26.684  1.00  0.00     0.346 HD
ATOM     16  H   UNL A   1      34.288  21.831  26.070  1.00  0.00     0.346 HD
BRANCH  14  17
ATOM     17  C   UNL A   1      34.448  20.131  25.021  1.00  0.00     0.297 C 
BRANCH  17  18
ATOM     18  C   UNL A   1      33.917  18.715  24.912  1.00  0.00     0.009 A 
ATOM     19  C   UNL A   1      32.931  18.188  25.762  1.00  0.00     0.010 A 
ATOM     20  C   UNL A   1      34.402  17.896  23.877  1.00  0.00     0.048 A 
ATOM     21  C   UNL A   1      32.465  16.879  25.606  1.00  0.00     0.004 A 
ATOM     22  C   UNL A   1      33.927  16.596  23.725  1.00  0.00     0.123 A 
ATOM     23  C   UNL A   1      32.967  16.079  24.585  1.00  0.00     0.039 A 
ATOM     24  F   UNL A   1      34.401  15.831  22.732  1.00  0.00    -0.207 F 
ENDBRANCH  17  18
ENDBRANCH  14  17
ENDBRANCH  13  14
ENDBRANCH   9  13
BRANCH  10  25
ATOM     25  C   UNL A   1      31.480  26.449  26.393  1.00  0.00     0.162 C 
BRANCH  25  26
ATOM     26  C   UNL A   1      31.052  27.499  25.387  1.00  0.00     0.026 A 
ATOM     27  C   UNL A   1      30.166  27.165  24.351  1.00  0.00     0.129 A 
ATOM     28  C   UNL A   1      31.411  28.855  25.473  1.00  0.00     0.048 A 
ATOM     29  F   UNL A   1      29.620  25.948  24.298  1.00  0.00    -0.207 F 
ATOM     30  C   UNL A   1      29.729  28.082  23.396  1.00  0.00     0.040 A 
ATOM     31  C   UNL A   1      30.957  29.794  24.527  1.00  0.00     0.021 A 
ATOM     32  Cl  UNL A   1      32.341  29.486  26.787  1.00  0.00    -0.084 Cl
ATOM     33  C   UNL A   1      30.134  29.404  23.474  1.00  0.00     0.005 A 
ENDBRANCH  25  26
ENDBRANCH  10  25
ENDBRANCH   4   6
ENDBRANCH   3   4
ENDBRANCH   2   3
ENDBRANCH   1   2
BRANCH   1  34
ATOM     34  O   UNL A   1      38.992  21.501  25.795  1.00  0.00    -0.374 OA
BRANCH  34  35
ATOM     35  C   UNL A   1      40.060  21.576  26.767  1.00  0.00     0.202 C 
BRANCH  35  36
ATOM     36  C   UNL A   1      41.266  20.622  26.493  1.00  0.00     0.261 C 
BRANCH  36  37
ATOM     37  O   UNL A   1      42.201  20.984  25.397  1.00  0.00    -0.460 OA
BRANCH  37  38
ATOM     38  C   UNL A   1      43.418  21.517  25.772  1.00  0.00     0.338 C 
ATOM     39  O   UNL A   1      44.463  20.884  25.677  1.00  0.00    -0.246 OA
BRANCH  38  40
ATOM     40  C   UNL A   1      43.448  22.998  26.212  1.00  0.00     0.060 A 
ATOM     41  C   UNL A   1      43.325  23.281  27.569  1.00  0.00     0.016 A 
ATOM     42  C   UNL A   1      43.315  24.132  25.380  1.00  0.00     0.016 A 
ATOM     43  C   UNL A   1      43.127  24.624  28.060  1.00  0.00     0.010 A 
ATOM     44  C   UNL A   1      43.034  25.503  25.890  1.00  0.00     0.010 A 
ATOM     45  C   UNL A   1      42.920  25.812  27.262  1.00  0.00    -0.014 A 
BRANCH  45  46
ATOM     46  C   UNL A   1      42.148  27.082  28.001  1.00  0.00     0.031 A 
ATOM     47  C   UNL A   1      43.243  28.090  28.098  1.00  0.00     0.074 A 
ATOM     48  C   UNL A   1      40.971  27.533  28.631  1.00  0.00     0.049 A 
ATOM     49  N   UNL A   1      44.352  27.781  28.705  1.00  0.00    -0.248 NA
ATOM     50  C   UNL A   1      43.321  29.271  27.237  1.00  0.00     0.031 C 
ATOM     51  C   UNL A   1      39.735  26.783  28.923  1.00  0.00     0.029 A 
ATOM     52  N   UNL A   1      40.580  28.818  29.181  1.00  0.00    -0.354 N 
ATOM     53  C   UNL A   1      45.183  28.858  28.554  1.00  0.00     0.074 A 
ATOM     54  C   UNL A   1      44.589  29.626  27.466  1.00  0.00     0.031 C 
ATOM     55  C   UNL A   1      38.744  27.583  29.427  1.00  0.00     0.029 A 
ATOM     56  C   UNL A   1      39.194  28.967  29.604  1.00  0.00     0.049 A 
ATOM     57  H   UNL A   1      41.224  29.558  29.264  1.00  0.00     0.167 HD
ATOM     58  C   UNL A   1      45.789  29.322  29.684  1.00  0.00     0.031 A 
ATOM     59  C   UNL A   1      38.481  30.059  30.130  1.00  0.00     0.031 A 
ATOM     60  C   UNL A   1      45.162  30.523  30.171  1.00  0.00     0.049 A 
ATOM     61  C   UNL A   1      39.478  30.934  30.764  1.00  0.00     0.074 A 
ATOM     62  C   UNL A   1      44.715  31.678  29.563  1.00  0.00     0.029 A 
ATOM     63  N   UNL A   1      44.494  30.417  31.378  1.00  0.00    -0.354 N 
ATOM     64  N   UNL A   1      39.984  30.640  31.922  1.00  0.00    -0.248 NA
ATOM     65  C   UNL A   1      39.825  32.256  30.249  1.00  0.00     0.031 C 
ATOM     66  C   UNL A   1      43.461  31.935  30.162  1.00  0.00     0.029 A 
ATOM     67  C   UNL A   1      43.335  31.158  31.308  1.00  0.00     0.049 A 
ATOM     68  H   UNL A   1      44.797  29.899  32.157  1.00  0.00     0.167 HD
ATOM     69  C   UNL A   1      41.072  31.451  31.997  1.00  0.00     0.074 A 
ATOM     70  C   UNL A   1      40.766  32.580  31.139  1.00  0.00     0.031 C 
ATOM     71  C   UNL A   1      42.261  30.836  32.216  1.00  0.00     0.031 A 
BRANCH  58  72
ATOM     72  C   UNL A   1      46.349  28.285  30.622  1.00  0.00    -0.014 A 
ATOM     73  C   UNL A   1      45.643  27.973  31.791  1.00  0.00     0.010 A 
ATOM     74  C   UNL A   1      47.566  27.613  30.371  1.00  0.00     0.010 A 
ATOM     75  C   UNL A   1      46.174  27.063  32.711  1.00  0.00     0.020 A 
ATOM     76  C   UNL A   1      48.115  26.725  31.296  1.00  0.00     0.020 A 
ATOM     77  C   UNL A   1      47.416  26.460  32.468  1.00  0.00     0.054 A 
BRANCH  77  78
ATOM     78  S   UNL A   1      48.123  25.378  33.736  1.00  0.00     0.124 S 
ATOM     79  O   UNL A   1      47.069  24.380  33.921  1.00  0.00    -0.237 OA
ATOM     80  O   UNL A   1      49.329  24.884  33.080  1.00  0.00    -0.237 OA
ATOM     81  O   UNL A   1      48.328  26.261  34.881  1.00  0.00    -0.744 OA
ENDBRANCH  77  78
ENDBRANCH  58  72
BRANCH  59  82
ATOM     82  C   UNL A   1      37.067  30.649  30.532  1.00  0.00    -0.014 A 
ATOM     83  C   UNL A   1      36.734  30.808  31.930  1.00  0.00     0.010 A 
ATOM     84  C   UNL A   1      36.285  31.449  29.679  1.00  0.00     0.010 A 
ATOM     85  C   UNL A   1      35.830  31.777  32.441  1.00  0.00     0.020 A 
ATOM     86  C   UNL A   1      35.335  32.405  30.185  1.00  0.00     0.020 A 
ATOM     87  C   UNL A   1      35.152  32.602  31.561  1.00  0.00     0.054 A 
BRANCH  87  88
ATOM     88  S   UNL A   1      34.162  34.003  32.229  1.00  0.00     0.124 S 
ATOM     89  O   UNL A   1      35.181  34.913  32.744  1.00  0.00    -0.237 OA
ATOM     90  O   UNL A   1      33.437  34.476  31.051  1.00  0.00    -0.237 OA
ATOM     91  O   UNL A   1      33.322  33.375  33.248  1.00  0.00    -0.744 OA
ENDBRANCH  87  88
ENDBRANCH  59  82
BRANCH  71  92
ATOM     92  C   UNL A   1      42.259  29.671  33.200  1.00  0.00    -0.014 A 
ATOM     93  C   UNL A   1      42.048  28.317  32.843  1.00  0.00     0.010 A 
ATOM     94  C   UNL A   1      42.386  29.961  34.568  1.00  0.00     0.010 A 
ATOM     95  C   UNL A   1      41.860  27.318  33.808  1.00  0.00     0.020 A 
ATOM     96  C   UNL A   1      42.246  28.958  35.540  1.00  0.00     0.020 A 
ATOM     97  C   UNL A   1      41.940  27.651  35.157  1.00  0.00     0.054 A 
BRANCH  97  98
ATOM     98  S   UNL A   1      41.612  26.368  36.399  1.00  0.00     0.124 S 
ATOM     99  O   UNL A   1      42.959  26.039  36.866  1.00  0.00    -0.237 OA
ATOM    100  O   UNL A   1      40.772  27.061  37.372  1.00  0.00    -0.237 OA
ATOM    101  O   UNL A   1      40.954  25.309  35.639  1.00  0.00    -0.744 OA
ENDBRANCH  97  98
ENDBRANCH  71  92
ENDBRANCH  45  46
ENDBRANCH  38  40
ENDBRANCH  37  38
ENDBRANCH  36  37
ENDBRANCH  35  36
ENDBRANCH  34  35
ENDBRANCH   1  34
TORSDOF 23
ENDMDL
MODEL 2
REMARK VINA RESULT:     -11.1      1.523      2.099
REMARK SMILES Cc1c(C[NH2+]Cc2cccc(F)c2)c(C(=O)OCCOCCOC(=O)c2ccc(-c3c4nc(c(-c5ccc(S(=O)(=O)[O-])cc5)c5ccc([nH]5)c(-c5ccc(S(=O)(=O)[O-])cc5)c5nc(c(-c6ccc(S(=O)(=O)[O-])cc6)c6ccc3[nH]6)C=C5)C=C4)cc2)c(C)n1Cc1c(F)cccc1Cl
REMARK SMILES IDX 19 1 18 2 17 3 15 4 16 5 14 6 1 7 2 8 3 9 88 10 86 11 87 12
REMARK SMILES IDX 4 13 5 14 6 17 7 18 8 19 13 20 9 21 11 22 10 23 12 24 89 25
REMARK SMILES IDX 90 26 91 27 96 28 92 29 93 30 95 31 97 32 94 33 20 34 21 35
REMARK SMILES IDX 22 36 23 37 24 38 25 39 26 40 27 41 85 42 28 43 84 44 29 45
REMARK SMILES IDX 30 46 31 47 78 48 32 49 83 50 77 51 79 52 33 53 82 54 76 55
REMARK SMILES IDX 75 56 34 58 64 59 45 60 63 61 46 62 49 63 62 64 80 65 47 66
REMARK SMILES IDX 48 67 61 69 81 70 50 71 35 72 36 73 44 74 37 75 43 76 38 77
REMARK SMILES IDX 39 78 40 79 41 80 42 81 65 82 66 83 74 84 67 85 73 86 68 87
REMARK SMILES IDX 69 88 70 89 71 90 72 91 51 92 52 93 60 94 53 95 59 96 54 97
REMARK SMILES IDX 55 98 56 99 57 100 58 101
REMARK H PARENT 5 15 5 16 79 57 49 68
REMARK Flexibility Score: inf
ROOT
ATOM      1  C   UNL A   1      37.384  22.916  24.355  1.00  0.00     0.202 C 
ENDROOT
BRANCH   1   2
ATOM      2  C   UNL A   1      35.996  22.665  23.740  1.00  0.00     0.261 C 
BRANCH   2   3
ATOM      3  O   UNL A   1      35.110  23.741  24.055  1.00  0.00    -0.460 OA
BRANCH   3   4
ATOM      4  C   UNL A   1      34.072  23.970  23.210  1.00  0.00     0.340 C 
ATOM      5  O   UNL A   1      34.015  23.514  22.056  1.00  0.00    -0.246 OA
BRANCH   4   6
ATOM      6  C   UNL A   1      33.013  24.757  23.848  1.00  0.00     0.089 A 
ATOM      7  C   UNL A   1      30.121  25.544  26.088  1.00  0.00     0.065 C 
ATOM      8  C   UNL A   1      31.294  25.455  25.168  1.00  0.00     0.025 A 
ATOM      9  C   UNL A   1      32.035  24.327  24.808  1.00  0.00     0.042 A 
ATOM     10  N   UNL A   1      31.855  26.565  24.543  1.00  0.00    -0.343 N 
ATOM     11  C   UNL A   1      32.783  26.115  23.618  1.00  0.00     0.030 A 
ATOM     12  C   UNL A   1      33.438  26.966  22.581  1.00  0.00     0.065 C 
BRANCH   9  13
ATOM     13  C   UNL A   1      31.891  22.925  25.351  1.00  0.00     0.300 C 
BRANCH  13  14
ATOM     14  N   UNL A   1      33.030  22.628  26.206  1.00  0.00    -0.339 N 
ATOM     15  H   UNL A   1      32.841  23.008  27.134  1.00  0.00     0.346 HD
ATOM     16  H   UNL A   1      33.848  23.051  25.767  1.00  0.00     0.346 HD
BRANCH  14  17
ATOM     17  C   UNL A   1      33.313  21.207  26.342  1.00  0.00     0.297 C 
BRANCH  17  18
ATOM     18  C   UNL A   1      32.916  20.329  25.171  1.00  0.00     0.009 A 
ATOM     19  C   UNL A   1      32.677  20.823  23.878  1.00  0.00     0.010 A 
ATOM     20  C   UNL A   1      32.826  18.942  25.375  1.00  0.00     0.048 A 
ATOM     21  C   UNL A   1      32.329  19.966  22.829  1.00  0.00     0.004 A 
ATOM     22  C   UNL A   1      32.486  18.095  24.323  1.00  0.00     0.123 A 
ATOM     23  C   UNL A   1      32.231  18.597  23.053  1.00  0.00     0.039 A 
ATOM     24  F   UNL A   1      32.406  16.775  24.536  1.00  0.00    -0.207 F 
ENDBRANCH  17  18
ENDBRANCH  14  17
ENDBRANCH  13  14
ENDBRANCH   9  13
BRANCH  10  25
ATOM     25  C   UNL A   1      31.415  27.967  24.711  1.00  0.00     0.162 C 
BRANCH  25  26
ATOM     26  C   UNL A   1      32.200  28.778  25.723  1.00  0.00     0.026 A 
ATOM     27  C   UNL A   1      33.308  28.213  26.374  1.00  0.00     0.129 A 
ATOM     28  C   UNL A   1      31.954  30.134  25.997  1.00  0.00     0.048 A 
ATOM     29  F   UNL A   1      33.737  26.994  26.039  1.00  0.00    -0.207 F 
ATOM     30  C   UNL A   1      34.075  28.904  27.311  1.00  0.00     0.040 A 
ATOM     31  C   UNL A   1      32.737  30.847  26.925  1.00  0.00     0.021 A 
ATOM     32  Cl  UNL A   1      30.752  31.047  25.152  1.00  0.00    -0.084 Cl
ATOM     33  C   UNL A   1      33.784  30.227  27.599  1.00  0.00     0.005 A 
ENDBRANCH  25  26
ENDBRANCH  10  25
ENDBRANCH   4   6
ENDBRANCH   3   4
ENDBRANCH   2   3
ENDBRANCH   1   2
BRANCH   1  34
ATOM     34  O   UNL A   1      37.778  21.941  25.327  1.00  0.00    -0.374 OA
BRANCH  34  35
ATOM     35  C   UNL A   1      38.802  22.366  26.255  1.00  0.00     0.202 C 
BRANCH  35  36
ATOM     36  C   UNL A   1      40.047  21.426  26.337  1.00  0.00     0.261 C 
BRANCH  36  37
ATOM     37  O   UNL A   1      41.207  21.735  25.461  1.00  0.00    -0.460 OA
BRANCH  37  38
ATOM     38  C   UNL A   1      42.353  22.184  26.087  1.00  0.00     0.338 C 
ATOM     39  O   UNL A   1      43.310  21.449  26.300  1.00  0.00    -0.246 OA
BRANCH  38  40
ATOM     40  C   UNL A   1      42.448  23.692  26.415  1.00  0.00     0.060 A 
ATOM     41  C   UNL A   1      42.293  24.085  27.741  1.00  0.00     0.016 A 
ATOM     42  C   UNL A   1      42.406  24.763  25.494  1.00  0.00     0.016 A 
ATOM     43  C   UNL A   1      42.151  25.471  28.120  1.00  0.00     0.010 A 
ATOM     44  C   UNL A   1      42.183  26.182  25.888  1.00  0.00     0.010 A 
ATOM     45  C   UNL A   1      42.037  26.602  27.227  1.00  0.00    -0.014 A 
BRANCH  45  46
ATOM     46  C   UNL A   1      41.310  27.964  27.836  1.00  0.00     0.031 A 
ATOM     47  C   UNL A   1      42.453  28.920  27.894  1.00  0.00     0.074 A 
ATOM     48  C   UNL A   1      40.139  28.522  28.386  1.00  0.00     0.049 A 
ATOM     49  N   UNL A   1      43.525  28.605  28.562  1.00  0.00    -0.248 NA
ATOM     50  C   UNL A   1      42.620  30.023  26.946  1.00  0.00     0.031 C 
ATOM     51  C   UNL A   1      38.857  27.860  28.691  1.00  0.00     0.029 A 
ATOM     52  N   UNL A   1      39.799  29.864  28.820  1.00  0.00    -0.354 N 
ATOM     53  C   UNL A   1      44.416  29.624  28.358  1.00  0.00     0.074 A 
ATOM     54  C   UNL A   1      43.898  30.332  27.193  1.00  0.00     0.031 C 
ATOM     55  C   UNL A   1      37.894  28.747  29.095  1.00  0.00     0.029 A 
ATOM     56  C   UNL A   1      38.410  30.116  29.180  1.00  0.00     0.049 A 
ATOM     57  H   UNL A   1      40.478  30.576  28.868  1.00  0.00     0.167 HD
ATOM     58  C   UNL A   1      45.009  30.146  29.470  1.00  0.00     0.031 A 
ATOM     59  C   UNL A   1      37.739  31.281  29.594  1.00  0.00     0.031 A 
ATOM     60  C   UNL A   1      44.430  31.412  29.838  1.00  0.00     0.049 A 
ATOM     61  C   UNL A   1      38.761  32.153  30.193  1.00  0.00     0.074 A 
ATOM     62  C   UNL A   1      44.065  32.535  29.126  1.00  0.00     0.029 A 
ATOM     63  N   UNL A   1      43.720  31.436  31.025  1.00  0.00    -0.354 N 
ATOM     64  N   UNL A   1      39.212  31.926  31.387  1.00  0.00    -0.248 NA
ATOM     65  C   UNL A   1      39.192  33.410  29.589  1.00  0.00     0.031 C 
ATOM     66  C   UNL A   1      42.808  32.902  29.658  1.00  0.00     0.029 A 
ATOM     67  C   UNL A   1      42.605  32.226  30.856  1.00  0.00     0.049 A 
ATOM     68  H   UNL A   1      43.970  30.967  31.852  1.00  0.00     0.167 HD
ATOM     69  C   UNL A   1      40.339  32.686  31.438  1.00  0.00     0.074 A 
ATOM     70  C   UNL A   1      40.121  33.756  30.484  1.00  0.00     0.031 C 
ATOM     71  C   UNL A   1      41.487  32.032  31.747  1.00  0.00     0.031 A 
BRANCH  58  72
ATOM     72  C   UNL A   1      45.483  29.160  30.505  1.00  0.00    -0.014 A 
ATOM     73  C   UNL A   1      46.597  28.360  30.221  1.00  0.00     0.010 A 
ATOM     74  C   UNL A   1      44.844  29.007  31.756  1.00  0.00     0.010 A 
ATOM     75  C   UNL A   1      47.018  27.390  31.138  1.00  0.00     0.020 A 
ATOM     76  C   UNL A   1      45.240  28.024  32.663  1.00  0.00     0.020 A 
ATOM     77  C   UNL A   1      46.325  27.215  32.344  1.00  0.00     0.054 A 
BRANCH  77  78
ATOM     78  S   UNL A   1      46.827  25.872  33.451  1.00  0.00     0.124 S 
ATOM     79  O   UNL A   1      46.309  24.689  32.765  1.00  0.00    -0.237 OA
ATOM     80  O   UNL A   1      48.281  26.000  33.446  1.00  0.00    -0.237 OA
ATOM     81  O   UNL A   1      46.158  26.183  34.711  1.00  0.00    -0.744 OA
ENDBRANCH  77  78
ENDBRANCH  58  72
BRANCH  59  82
ATOM     82  C   UNL A   1      36.346  31.971  29.897  1.00  0.00    -0.014 A 
ATOM     83  C   UNL A   1      35.853  32.011  31.256  1.00  0.00     0.010 A 
ATOM     84  C   UNL A   1      35.756  32.938  29.063  1.00  0.00     0.010 A 
ATOM     85  C   UNL A   1      34.986  33.010  31.772  1.00  0.00     0.020 A 
ATOM     86  C   UNL A   1      34.843  33.929  29.567  1.00  0.00     0.020 A 
ATOM     87  C   UNL A   1      34.504  33.994  30.926  1.00  0.00     0.054 A 
BRANCH  87  88
ATOM     88  S   UNL A   1      33.572  35.410  31.639  1.00  0.00     0.124 S 
ATOM     89  O   UNL A   1      34.573  36.089  32.457  1.00  0.00    -0.237 OA
ATOM     90  O   UNL A   1      33.135  36.141  30.450  1.00  0.00    -0.237 OA
ATOM     91  O   UNL A   1      32.492  34.769  32.388  1.00  0.00    -0.744 OA
ENDBRANCH  87  88
ENDBRANCH  59  82
BRANCH  71  92
ATOM     92  C   UNL A   1      41.392  30.951  32.818  1.00  0.00    -0.014 A 
ATOM     93  C   UNL A   1      41.596  31.169  34.203  1.00  0.00     0.010 A 
ATOM     94  C   UNL A   1      41.177  29.627  32.404  1.00  0.00     0.010 A 
ATOM     95  C   UNL A   1      41.693  30.108  35.113  1.00  0.00     0.020 A 
ATOM     96  C   UNL A   1      41.225  28.561  33.317  1.00  0.00     0.020 A 
ATOM     97  C   UNL A   1      41.526  28.804  34.659  1.00  0.00     0.054 A 
BRANCH  97  98
ATOM     98  S   UNL A   1      41.736  27.432  35.829  1.00  0.00     0.124 S 
ATOM     99  O   UNL A   1      40.912  27.860  36.958  1.00  0.00    -0.237 OA
ATOM    100  O   UNL A   1      41.219  26.285  35.086  1.00  0.00    -0.237 OA
ATOM    101  O   UNL A   1      43.172  27.417  36.092  1.00  0.00    -0.744 OA
ENDBRANCH  97  98
ENDBRANCH  71  92
ENDBRANCH  45  46
ENDBRANCH  38  40
ENDBRANCH  37  38
ENDBRANCH  36  37
ENDBRANCH  35  36
ENDBRANCH  34  35
ENDBRANCH   1  34
TORSDOF 23
ENDMDL
MODEL 3
REMARK VINA RESULT:     -10.9      3.826      6.137
REMARK SMILES Cc1c(C[NH2+]Cc2cccc(F)c2)c(C(=O)OCCOCCOC(=O)c2ccc(-c3c4nc(c(-c5ccc(S(=O)(=O)[O-])cc5)c5ccc([nH]5)c(-c5ccc(S(=O)(=O)[O-])cc5)c5nc(c(-c6ccc(S(=O)(=O)[O-])cc6)c6ccc3[nH]6)C=C5)C=C4)cc2)c(C)n1Cc1c(F)cccc1Cl
REMARK SMILES IDX 19 1 18 2 17 3 15 4 16 5 14 6 1 7 2 8 3 9 88 10 86 11 87 12
REMARK SMILES IDX 4 13 5 14 6 17 7 18 8 19 13 20 9 21 11 22 10 23 12 24 89 25
REMARK SMILES IDX 90 26 91 27 96 28 92 29 93 30 95 31 97 32 94 33 20 34 21 35
REMARK SMILES IDX 22 36 23 37 24 38 25 39 26 40 27 41 85 42 28 43 84 44 29 45
REMARK SMILES IDX 30 46 31 47 78 48 32 49 83 50 77 51 79 52 33 53 82 54 76 55
REMARK SMILES IDX 75 56 34 58 64 59 45 60 63 61 46 62 49 63 62 64 80 65 47 66
REMARK SMILES IDX 48 67 61 69 81 70 50 71 35 72 36 73 44 74 37 75 43 76 38 77
REMARK SMILES IDX 39 78 40 79 41 80 42 81 65 82 66 83 74 84 67 85 73 86 68 87
REMARK SMILES IDX 69 88 70 89 71 90 72 91 51 92 52 93 60 94 53 95 59 96 54 97
REMARK SMILES IDX 55 98 56 99 57 100 58 101
REMARK H PARENT 5 15 5 16 79 57 49 68
REMARK Flexibility Score: inf
ROOT
ATOM      1  C   UNL A   1      43.636  18.474  25.979  1.00  0.00     0.202 C 
ENDROOT
BRANCH   1   2
ATOM      2  C   UNL A   1      42.145  18.818  25.816  1.00  0.00     0.261 C 
BRANCH   2   3
ATOM      3  O   UNL A   1      41.914  20.192  26.134  1.00  0.00    -0.460 OA
BRANCH   3   4
ATOM      4  C   UNL A   1      41.148  20.466  27.221  1.00  0.00     0.340 C 
ATOM      5  O   UNL A   1      40.925  19.645  28.127  1.00  0.00    -0.246 OA
BRANCH   4   6
ATOM      6  C   UNL A   1      40.680  21.855  27.222  1.00  0.00     0.089 A 
ATOM      7  C   UNL A   1      38.522  24.808  26.436  1.00  0.00     0.065 C 
ATOM      8  C   UNL A   1      39.476  23.761  26.910  1.00  0.00     0.025 A 
ATOM      9  C   UNL A   1      39.550  22.418  26.538  1.00  0.00     0.042 A 
ATOM     10  N   UNL A   1      40.453  24.004  27.871  1.00  0.00    -0.343 N 
ATOM     11  C   UNL A   1      41.283  22.896  27.931  1.00  0.00     0.030 A 
ATOM     12  C   UNL A   1      42.582  22.840  28.664  1.00  0.00     0.065 C 
BRANCH   9  13
ATOM     13  C   UNL A   1      38.603  21.663  25.635  1.00  0.00     0.300 C 
BRANCH  13  14
ATOM     14  N   UNL A   1      37.238  21.880  26.090  1.00  0.00    -0.339 N 
ATOM     15  H   UNL A   1      37.261  22.541  26.867  1.00  0.00     0.346 HD
ATOM     16  H   UNL A   1      36.869  20.969  26.361  1.00  0.00     0.346 HD
BRANCH  14  17
ATOM     17  C   UNL A   1      36.349  22.407  25.066  1.00  0.00     0.297 C 
BRANCH  17  18
ATOM     18  C   UNL A   1      35.147  21.551  24.717  1.00  0.00     0.009 A 
ATOM     19  C   UNL A   1      35.055  20.183  25.021  1.00  0.00     0.010 A 
ATOM     20  C   UNL A   1      34.046  22.166  24.097  1.00  0.00     0.048 A 
ATOM     21  C   UNL A   1      33.915  19.444  24.690  1.00  0.00     0.004 A 
ATOM     22  C   UNL A   1      32.911  21.424  23.778  1.00  0.00     0.123 A 
ATOM     23  C   UNL A   1      32.840  20.066  24.065  1.00  0.00     0.039 A 
ATOM     24  F   UNL A   1      31.870  22.027  23.189  1.00  0.00    -0.207 F 
ENDBRANCH  17  18
ENDBRANCH  14  17
ENDBRANCH  13  14
ENDBRANCH   9  13
BRANCH  10  25
ATOM     25  C   UNL A   1      40.672  25.284  28.579  1.00  0.00     0.162 C 
BRANCH  25  26
ATOM     26  C   UNL A   1      40.843  26.499  27.688  1.00  0.00     0.026 A 
ATOM     27  C   UNL A   1      39.979  27.598  27.818  1.00  0.00     0.129 A 
ATOM     28  C   UNL A   1      41.899  26.654  26.775  1.00  0.00     0.048 A 
ATOM     29  F   UNL A   1      39.063  27.623  28.789  1.00  0.00    -0.207 F 
ATOM     30  C   UNL A   1      40.083  28.746  27.034  1.00  0.00     0.040 A 
ATOM     31  C   UNL A   1      42.027  27.819  25.994  1.00  0.00     0.021 A 
ATOM     32  Cl  UNL A   1      43.165  25.487  26.614  1.00  0.00    -0.084 Cl
ATOM     33  C   UNL A   1      41.106  28.857  26.107  1.00  0.00     0.005 A 
ENDBRANCH  25  26
ENDBRANCH  10  25
ENDBRANCH   4   6
ENDBRANCH   3   4
ENDBRANCH   2   3
ENDBRANCH   1   2
BRANCH   1  34
ATOM     34  O   UNL A   1      44.335  18.300  24.742  1.00  0.00    -0.374 OA
BRANCH  34  35
ATOM     35  C   UNL A   1      45.476  19.167  24.543  1.00  0.00     0.202 C 
BRANCH  35  36
ATOM     36  C   UNL A   1      45.191  20.688  24.756  1.00  0.00     0.261 C 
BRANCH  36  37
ATOM     37  O   UNL A   1      46.344  21.571  25.074  1.00  0.00    -0.460 OA
BRANCH  37  38
ATOM     38  C   UNL A   1      46.185  22.915  24.808  1.00  0.00     0.338 C 
ATOM     39  O   UNL A   1      45.699  23.319  23.757  1.00  0.00    -0.246 OA
BRANCH  38  40
ATOM     40  C   UNL A   1      46.533  23.916  25.933  1.00  0.00     0.060 A 
ATOM     41  C   UNL A   1      46.125  23.612  27.229  1.00  0.00     0.016 A 
ATOM     42  C   UNL A   1      46.984  25.246  25.775  1.00  0.00     0.016 A 
ATOM     43  C   UNL A   1      46.209  24.571  28.306  1.00  0.00     0.010 A 
ATOM     44  C   UNL A   1      46.996  26.250  26.874  1.00  0.00     0.010 A 
ATOM     45  C   UNL A   1      46.600  25.958  28.196  1.00  0.00    -0.014 A 
BRANCH  45  46
ATOM     46  C   UNL A   1      46.069  26.980  29.393  1.00  0.00     0.031 A 
ATOM     47  C   UNL A   1      47.351  27.555  29.893  1.00  0.00     0.074 A 
ATOM     48  C   UNL A   1      44.970  27.423  30.155  1.00  0.00     0.049 A 
ATOM     49  N   UNL A   1      48.292  26.763  30.317  1.00  0.00    -0.248 NA
ATOM     50  C   UNL A   1      47.784  28.920  29.592  1.00  0.00     0.031 C 
ATOM     51  C   UNL A   1      43.571  26.954  30.115  1.00  0.00     0.029 A 
ATOM     52  N   UNL A   1      44.830  28.435  31.184  1.00  0.00    -0.354 N 
ATOM     53  C   UNL A   1      49.359  27.565  30.621  1.00  0.00     0.074 A 
ATOM     54  C   UNL A   1      49.071  28.824  29.945  1.00  0.00     0.031 C 
ATOM     55  C   UNL A   1      42.745  27.709  30.905  1.00  0.00     0.029 A 
ATOM     56  C   UNL A   1      43.480  28.747  31.634  1.00  0.00     0.049 A 
ATOM     57  H   UNL A   1      45.615  28.894  31.563  1.00  0.00     0.167 HD
ATOM     58  C   UNL A   1      49.937  27.373  31.841  1.00  0.00     0.031 A 
ATOM     59  C   UNL A   1      42.988  29.680  32.563  1.00  0.00     0.031 A 
ATOM     60  C   UNL A   1      49.557  28.397  32.779  1.00  0.00     0.049 A 
ATOM     61  C   UNL A   1      44.090  29.950  33.499  1.00  0.00     0.074 A 
ATOM     62  C   UNL A   1      49.452  29.769  32.699  1.00  0.00     0.029 A 
ATOM     63  N   UNL A   1      48.764  27.991  33.836  1.00  0.00    -0.354 N 
ATOM     64  N   UNL A   1      44.394  29.103  34.432  1.00  0.00    -0.248 NA
ATOM     65  C   UNL A   1      44.781  31.234  33.571  1.00  0.00     0.031 C 
ATOM     66  C   UNL A   1      48.236  30.073  33.352  1.00  0.00     0.029 A 
ATOM     67  C   UNL A   1      47.820  28.963  34.079  1.00  0.00     0.049 A 
ATOM     68  H   UNL A   1      48.859  27.147  34.334  1.00  0.00     0.167 HD
ATOM     69  C   UNL A   1      45.626  29.516  34.832  1.00  0.00     0.074 A 
ATOM     70  C   UNL A   1      45.676  30.930  34.513  1.00  0.00     0.031 C 
ATOM     71  C   UNL A   1      46.614  28.588  34.777  1.00  0.00     0.031 A 
BRANCH  58  72
ATOM     72  C   UNL A   1      50.146  25.944  32.269  1.00  0.00    -0.014 A 
ATOM     73  C   UNL A   1      49.219  25.351  33.135  1.00  0.00     0.010 A 
ATOM     74  C   UNL A   1      51.248  25.174  31.833  1.00  0.00     0.010 A 
ATOM     75  C   UNL A   1      49.425  24.048  33.600  1.00  0.00     0.020 A 
ATOM     76  C   UNL A   1      51.475  23.885  32.315  1.00  0.00     0.020 A 
ATOM     77  C   UNL A   1      50.561  23.331  33.204  1.00  0.00     0.054 A 
BRANCH  77  78
ATOM     78  S   UNL A   1      50.852  21.692  33.919  1.00  0.00     0.124 S 
ATOM     79  O   UNL A   1      52.280  21.491  33.672  1.00  0.00    -0.237 OA
ATOM     80  O   UNL A   1      50.492  21.901  35.318  1.00  0.00    -0.237 OA
ATOM     81  O   UNL A   1      49.976  20.810  33.153  1.00  0.00    -0.744 OA
ENDBRANCH  77  78
ENDBRANCH  58  72
BRANCH  59  82
ATOM     82  C   UNL A   1      41.713  30.396  33.175  1.00  0.00    -0.014 A 
ATOM     83  C   UNL A   1      41.247  31.635  32.595  1.00  0.00     0.010 A 
ATOM     84  C   UNL A   1      40.728  29.727  33.924  1.00  0.00     0.010 A 
ATOM     85  C   UNL A   1      39.900  32.085  32.622  1.00  0.00     0.020 A 
ATOM     86  C   UNL A   1      39.370  30.196  33.993  1.00  0.00     0.020 A 
ATOM     87  C   UNL A   1      38.950  31.340  33.300  1.00  0.00     0.054 A 
BRANCH  87  88
ATOM     88  S   UNL A   1      37.175  31.797  33.143  1.00  0.00     0.124 S 
ATOM     89  O   UNL A   1      36.552  30.557  32.691  1.00  0.00    -0.237 OA
ATOM     90  O   UNL A   1      36.827  32.214  34.500  1.00  0.00    -0.237 OA
ATOM     91  O   UNL A   1      37.184  32.879  32.158  1.00  0.00    -0.744 OA
ENDBRANCH  87  88
ENDBRANCH  59  82
BRANCH  71  92
ATOM     92  C   UNL A   1      46.245  27.169  35.196  1.00  0.00    -0.014 A 
ATOM     93  C   UNL A   1      46.485  26.620  36.480  1.00  0.00     0.010 A 
ATOM     94  C   UNL A   1      45.711  26.310  34.223  1.00  0.00     0.010 A 
ATOM     95  C   UNL A   1      46.307  25.256  36.748  1.00  0.00     0.020 A 
ATOM     96  C   UNL A   1      45.485  24.951  34.496  1.00  0.00     0.020 A 
ATOM     97  C   UNL A   1      45.826  24.423  35.743  1.00  0.00     0.054 A 
BRANCH  97  98
ATOM     98  S   UNL A   1      45.679  22.644  36.073  1.00  0.00     0.124 S 
ATOM     99  O   UNL A   1      44.486  22.285  35.307  1.00  0.00    -0.237 OA
ATOM    100  O   UNL A   1      46.934  22.109  35.549  1.00  0.00    -0.237 OA
ATOM    101  O   UNL A   1      45.519  22.571  37.522  1.00  0.00    -0.744 OA
ENDBRANCH  97  98
ENDBRANCH  71  92
ENDBRANCH  45  46
ENDBRANCH  38  40
ENDBRANCH  37  38
ENDBRANCH  36  37
ENDBRANCH  35  36
ENDBRANCH  34  35
ENDBRANCH   1  34
TORSDOF 23
ENDMDL
