MODEL 1
REMARK VINA RESULT:     -10.1      0.000      0.000
REMARK SMILES Cc1c(Cl)cc2c(c1C)O[C@@H](C(F)(F)F)C(C(=O)OCCOCCOC(=O)c1ccc(-c3c4nc(c(-c5ccc(S(=O)(=O)[O-])cc5)c5ccc([nH]5)c(-c5ccc(S(=O)(=O)[O-])cc5)c5nc(c(-c6ccc(S(=O)(=O)[O-])cc6)c6ccc3[nH]6)C=C5)C=C4)cc1)=C2
REMARK SMILES IDX 23 1 22 2 21 3 20 4 19 5 17 6 18 7 16 8 1 9 2 10 3 11 8 12
REMARK SMILES IDX 4 13 5 14 7 15 9 16 6 17 10 18 88 19 11 20 12 21 13 22 14 23
REMARK SMILES IDX 15 24 24 25 25 26 26 27 27 28 28 29 29 30 87 31 30 32 86 33
REMARK SMILES IDX 31 34 32 35 33 36 80 37 34 38 85 39 79 40 81 41 35 42 84 43
REMARK SMILES IDX 78 44 77 45 36 47 66 48 47 49 65 50 48 51 51 52 64 53 82 54
REMARK SMILES IDX 49 55 50 56 63 58 83 59 52 60 37 61 38 62 46 63 39 64 45 65
REMARK SMILES IDX 40 66 41 67 42 68 43 69 44 70 67 71 68 72 76 73 69 74 75 75
REMARK SMILES IDX 70 76 71 77 72 78 73 79 74 80 53 81 54 82 62 83 55 84 61 85
REMARK SMILES IDX 56 86 57 87 58 88 59 89 60 90
REMARK H PARENT 81 46 51 57
REMARK Flexibility Score: inf
ROOT
ATOM      1  C   UNL A   1      33.147  34.165  28.645  1.00  0.00     0.202 C 
ENDROOT
BRANCH   1   2
ATOM      2  O   UNL A   1      33.192  35.593  28.576  1.00  0.00    -0.374 OA
BRANCH   2   3
ATOM      3  C   UNL A   1      33.496  36.289  29.786  1.00  0.00     0.202 C 
BRANCH   3   4
ATOM      4  C   UNL A   1      32.949  35.669  31.076  1.00  0.00     0.261 C 
BRANCH   4   5
ATOM      5  O   UNL A   1      33.964  35.654  32.094  1.00  0.00    -0.460 OA
BRANCH   5   6
ATOM      6  C   UNL A   1      34.001  34.531  32.836  1.00  0.00     0.338 C 
ATOM      7  O   UNL A   1      33.096  33.720  32.963  1.00  0.00    -0.246 OA
BRANCH   6   8
ATOM      8  C   UNL A   1      35.352  34.324  33.390  1.00  0.00     0.087 C 
ATOM      9  C   UNL A   1      40.335  34.228  37.597  1.00  0.00     0.046 C 
ATOM     10  C   UNL A   1      39.082  34.059  36.775  1.00  0.00    -0.026 A 
ATOM     11  C   UNL A   1      37.912  33.551  37.380  1.00  0.00     0.045 A 
ATOM     12  C   UNL A   1      39.015  34.500  35.424  1.00  0.00    -0.004 A 
ATOM     13  Cl  UNL A   1      37.860  33.072  39.044  1.00  0.00    -0.084 Cl
ATOM     14  C   UNL A   1      36.717  33.455  36.669  1.00  0.00     0.032 A 
ATOM     15  C   UNL A   1      37.795  34.396  34.720  1.00  0.00     0.131 A 
ATOM     16  C   UNL A   1      40.207  35.067  34.693  1.00  0.00     0.049 C 
ATOM     17  C   UNL A   1      36.654  33.893  35.349  1.00  0.00     0.019 A 
ATOM     18  O   UNL A   1      37.757  34.894  33.439  1.00  0.00    -0.475 OA
ATOM     19  C   UNL A   1      35.372  33.957  34.678  1.00  0.00     0.027 C 
ATOM     20  C   UNL A   1      36.608  34.564  32.596  1.00  0.00     0.316 C 
BRANCH  20  21
ATOM     21  C   UNL A   1      37.007  33.410  31.652  1.00  0.00     0.430 C 
ATOM     22  F   UNL A   1      38.248  32.938  31.900  1.00  0.00    -0.167 F 
ATOM     23  F   UNL A   1      36.163  32.356  31.785  1.00  0.00    -0.167 F 
ATOM     24  F   UNL A   1      36.973  33.785  30.349  1.00  0.00    -0.167 F 
ENDBRANCH  20  21
ENDBRANCH   6   8
ENDBRANCH   5   6
ENDBRANCH   4   5
ENDBRANCH   3   4
ENDBRANCH   2   3
ENDBRANCH   1   2
BRANCH   1  25
ATOM     25  C   UNL A   1      34.385  33.402  28.157  1.00  0.00     0.261 C 
BRANCH  25  26
ATOM     26  O   UNL A   1      34.691  32.282  29.006  1.00  0.00    -0.460 OA
BRANCH  26  27
ATOM     27  C   UNL A   1      34.603  31.071  28.407  1.00  0.00     0.338 C 
ATOM     28  O   UNL A   1      33.660  30.640  27.758  1.00  0.00    -0.246 OA
BRANCH  27  29
ATOM     29  C   UNL A   1      35.913  30.394  28.452  1.00  0.00     0.060 A 
ATOM     30  C   UNL A   1      36.318  29.857  29.682  1.00  0.00     0.016 A 
ATOM     31  C   UNL A   1      36.752  30.321  27.337  1.00  0.00     0.016 A 
ATOM     32  C   UNL A   1      37.584  29.293  29.816  1.00  0.00     0.010 A 
ATOM     33  C   UNL A   1      38.028  29.766  27.478  1.00  0.00     0.010 A 
ATOM     34  C   UNL A   1      38.463  29.285  28.727  1.00  0.00    -0.014 A 
BRANCH  34  35
ATOM     35  C   UNL A   1      39.885  28.922  28.944  1.00  0.00     0.031 A 
ATOM     36  C   UNL A   1      40.803  29.936  29.573  1.00  0.00     0.074 A 
ATOM     37  C   UNL A   1      40.340  27.690  28.648  1.00  0.00     0.049 A 
ATOM     38  N   UNL A   1      42.076  29.836  29.856  1.00  0.00    -0.248 NA
ATOM     39  C   UNL A   1      40.206  31.233  29.937  1.00  0.00     0.031 C 
ATOM     40  C   UNL A   1      39.535  26.601  28.097  1.00  0.00     0.029 A 
ATOM     41  N   UNL A   1      41.594  27.147  28.781  1.00  0.00    -0.354 N 
ATOM     42  C   UNL A   1      42.432  31.050  30.432  1.00  0.00     0.074 A 
ATOM     43  C   UNL A   1      41.251  31.886  30.424  1.00  0.00     0.031 C 
ATOM     44  C   UNL A   1      40.315  25.516  27.947  1.00  0.00     0.029 A 
ATOM     45  C   UNL A   1      41.680  25.843  28.355  1.00  0.00     0.049 A 
ATOM     46  H   UNL A   1      42.360  27.646  29.147  1.00  0.00     0.167 HD
ATOM     47  C   UNL A   1      43.629  31.432  30.936  1.00  0.00     0.031 A 
ATOM     48  C   UNL A   1      42.741  25.013  28.289  1.00  0.00     0.031 A 
ATOM     49  C   UNL A   1      44.805  30.603  30.933  1.00  0.00     0.049 A 
ATOM     50  C   UNL A   1      44.089  25.499  28.755  1.00  0.00     0.074 A 
ATOM     51  C   UNL A   1      46.067  30.905  31.415  1.00  0.00     0.029 A 
ATOM     52  N   UNL A   1      44.868  29.317  30.423  1.00  0.00    -0.354 N 
ATOM     53  N   UNL A   1      44.408  26.651  29.299  1.00  0.00    -0.248 NA
ATOM     54  C   UNL A   1      45.220  24.573  28.604  1.00  0.00     0.031 C 
ATOM     55  C   UNL A   1      46.908  29.822  31.143  1.00  0.00     0.029 A 
ATOM     56  C   UNL A   1      46.155  28.820  30.552  1.00  0.00     0.049 A 
ATOM     57  H   UNL A   1      44.111  28.827  30.027  1.00  0.00     0.167 HD
ATOM     58  C   UNL A   1      45.770  26.575  29.576  1.00  0.00     0.074 A 
ATOM     59  C   UNL A   1      46.211  25.261  29.157  1.00  0.00     0.031 C 
ATOM     60  C   UNL A   1      46.582  27.510  30.130  1.00  0.00     0.031 A 
BRANCH  47  61
ATOM     61  C   UNL A   1      43.736  32.815  31.520  1.00  0.00    -0.014 A 
ATOM     62  C   UNL A   1      43.992  33.929  30.701  1.00  0.00     0.010 A 
ATOM     63  C   UNL A   1      43.506  33.013  32.894  1.00  0.00     0.010 A 
ATOM     64  C   UNL A   1      44.039  35.213  31.249  1.00  0.00     0.020 A 
ATOM     65  C   UNL A   1      43.524  34.299  33.441  1.00  0.00     0.020 A 
ATOM     66  C   UNL A   1      43.799  35.391  32.615  1.00  0.00     0.054 A 
BRANCH  66  67
ATOM     67  S   UNL A   1      43.819  37.076  33.286  1.00  0.00     0.124 S 
ATOM     68  O   UNL A   1      45.017  37.054  34.121  1.00  0.00    -0.237 OA
ATOM     69  O   UNL A   1      43.909  37.896  32.081  1.00  0.00    -0.237 OA
ATOM     70  O   UNL A   1      42.556  37.176  34.014  1.00  0.00    -0.744 OA
ENDBRANCH  66  67
ENDBRANCH  47  61
BRANCH  48  71
ATOM     71  C   UNL A   1      42.575  23.635  27.749  1.00  0.00    -0.014 A 
ATOM     72  C   UNL A   1      42.856  23.355  26.400  1.00  0.00     0.010 A 
ATOM     73  C   UNL A   1      42.131  22.592  28.583  1.00  0.00     0.010 A 
ATOM     74  C   UNL A   1      42.687  22.064  25.894  1.00  0.00     0.020 A 
ATOM     75  C   UNL A   1      41.988  21.293  28.088  1.00  0.00     0.020 A 
ATOM     76  C   UNL A   1      42.260  21.038  26.743  1.00  0.00     0.054 A 
BRANCH  76  77
ATOM     77  S   UNL A   1      42.100  19.360  26.073  1.00  0.00     0.124 S 
ATOM     78  O   UNL A   1      42.949  19.422  24.887  1.00  0.00    -0.237 OA
ATOM     79  O   UNL A   1      42.602  18.537  27.170  1.00  0.00    -0.237 OA
ATOM     80  O   UNL A   1      40.668  19.231  25.812  1.00  0.00    -0.744 OA
ENDBRANCH  76  77
ENDBRANCH  48  71
BRANCH  60  81
ATOM     81  C   UNL A   1      48.029  27.151  30.339  1.00  0.00    -0.014 A 
ATOM     82  C   UNL A   1      49.021  27.573  29.436  1.00  0.00     0.010 A 
ATOM     83  C   UNL A   1      48.413  26.452  31.499  1.00  0.00     0.010 A 
ATOM     84  C   UNL A   1      50.367  27.286  29.680  1.00  0.00     0.020 A 
ATOM     85  C   UNL A   1      49.761  26.190  31.762  1.00  0.00     0.020 A 
ATOM     86  C   UNL A   1      50.729  26.600  30.844  1.00  0.00     0.054 A 
BRANCH  86  87
ATOM     87  S   UNL A   1      52.489  26.293  31.160  1.00  0.00     0.124 S 
ATOM     88  O   UNL A   1      52.881  27.493  31.894  1.00  0.00    -0.237 OA
ATOM     89  O   UNL A   1      52.461  25.059  31.941  1.00  0.00    -0.237 OA
ATOM     90  O   UNL A   1      53.065  26.165  29.824  1.00  0.00    -0.744 OA
ENDBRANCH  86  87
ENDBRANCH  60  81
ENDBRANCH  34  35
ENDBRANCH  27  29
ENDBRANCH  26  27
ENDBRANCH  25  26
ENDBRANCH   1  25
TORSDOF 18
ENDMDL
MODEL 2
REMARK VINA RESULT:     -10.0      5.656     12.767
REMARK SMILES Cc1c(Cl)cc2c(c1C)O[C@@H](C(F)(F)F)C(C(=O)OCCOCCOC(=O)c1ccc(-c3c4nc(c(-c5ccc(S(=O)(=O)[O-])cc5)c5ccc([nH]5)c(-c5ccc(S(=O)(=O)[O-])cc5)c5nc(c(-c6ccc(S(=O)(=O)[O-])cc6)c6ccc3[nH]6)C=C5)C=C4)cc1)=C2
REMARK SMILES IDX 23 1 22 2 21 3 20 4 19 5 17 6 18 7 16 8 1 9 2 10 3 11 8 12
REMARK SMILES IDX 4 13 5 14 7 15 9 16 6 17 10 18 88 19 11 20 12 21 13 22 14 23
REMARK SMILES IDX 15 24 24 25 25 26 26 27 27 28 28 29 29 30 87 31 30 32 86 33
REMARK SMILES IDX 31 34 32 35 33 36 80 37 34 38 85 39 79 40 81 41 35 42 84 43
REMARK SMILES IDX 78 44 77 45 36 47 66 48 47 49 65 50 48 51 51 52 64 53 82 54
REMARK SMILES IDX 49 55 50 56 63 58 83 59 52 60 37 61 38 62 46 63 39 64 45 65
REMARK SMILES IDX 40 66 41 67 42 68 43 69 44 70 67 71 68 72 76 73 69 74 75 75
REMARK SMILES IDX 70 76 71 77 72 78 73 79 74 80 53 81 54 82 62 83 55 84 61 85
REMARK SMILES IDX 56 86 57 87 58 88 59 89 60 90
REMARK H PARENT 81 46 51 57
REMARK Flexibility Score: inf
ROOT
ATOM      1  C   UNL A   1      40.554  22.330  26.479  1.00  0.00     0.202 C 
ENDROOT
BRANCH   1   2
ATOM      2  O   UNL A   1      39.137  22.144  26.448  1.00  0.00    -0.374 OA
BRANCH   2   3
ATOM      3  C   UNL A   1      38.643  21.064  25.654  1.00  0.00     0.202 C 
BRANCH   3   4
ATOM      4  C   UNL A   1      37.408  21.365  24.800  1.00  0.00     0.261 C 
BRANCH   4   5
ATOM      5  O   UNL A   1      36.265  21.605  25.638  1.00  0.00    -0.460 OA
BRANCH   5   6
ATOM      6  C   UNL A   1      35.085  21.243  25.098  1.00  0.00     0.338 C 
ATOM      7  O   UNL A   1      34.765  20.116  24.750  1.00  0.00    -0.246 OA
BRANCH   6   8
ATOM      8  C   UNL A   1      34.148  22.382  25.098  1.00  0.00     0.087 C 
ATOM      9  C   UNL A   1      31.346  28.051  26.693  1.00  0.00     0.046 C 
ATOM     10  C   UNL A   1      32.189  26.890  26.232  1.00  0.00    -0.026 A 
ATOM     11  C   UNL A   1      33.589  27.041  26.125  1.00  0.00     0.045 A 
ATOM     12  C   UNL A   1      31.622  25.606  25.999  1.00  0.00    -0.004 A 
ATOM     13  Cl  UNL A   1      34.391  28.535  26.476  1.00  0.00    -0.084 Cl
ATOM     14  C   UNL A   1      34.404  25.966  25.776  1.00  0.00     0.032 A 
ATOM     15  C   UNL A   1      32.465  24.529  25.646  1.00  0.00     0.131 A 
ATOM     16  C   UNL A   1      30.139  25.342  26.097  1.00  0.00     0.049 C 
ATOM     17  C   UNL A   1      33.846  24.710  25.554  1.00  0.00     0.019 A 
ATOM     18  O   UNL A   1      31.884  23.292  25.495  1.00  0.00    -0.475 OA
ATOM     19  C   UNL A   1      34.714  23.565  25.370  1.00  0.00     0.027 C 
ATOM     20  C   UNL A   1      32.667  22.225  24.875  1.00  0.00     0.316 C 
BRANCH  20  21
ATOM     21  C   UNL A   1      32.246  22.102  23.395  1.00  0.00     0.430 C 
ATOM     22  F   UNL A   1      31.109  22.776  23.119  1.00  0.00    -0.167 F 
ATOM     23  F   UNL A   1      33.199  22.606  22.572  1.00  0.00    -0.167 F 
ATOM     24  F   UNL A   1      32.046  20.812  23.029  1.00  0.00    -0.167 F 
ENDBRANCH  20  21
ENDBRANCH   6   8
ENDBRANCH   5   6
ENDBRANCH   4   5
ENDBRANCH   3   4
ENDBRANCH   2   3
ENDBRANCH   1   2
BRANCH   1  25
ATOM     25  C   UNL A   1      41.071  23.704  26.923  1.00  0.00     0.261 C 
BRANCH  25  26
ATOM     26  O   UNL A   1      40.019  24.684  26.959  1.00  0.00    -0.460 OA
BRANCH  26  27
ATOM     27  C   UNL A   1      40.407  25.950  26.676  1.00  0.00     0.338 C 
ATOM     28  O   UNL A   1      40.781  26.379  25.594  1.00  0.00    -0.246 OA
BRANCH  27  29
ATOM     29  C   UNL A   1      40.109  26.832  27.821  1.00  0.00     0.060 A 
ATOM     30  C   UNL A   1      40.710  28.097  27.832  1.00  0.00     0.016 A 
ATOM     31  C   UNL A   1      39.300  26.423  28.884  1.00  0.00     0.016 A 
ATOM     32  C   UNL A   1      40.550  28.939  28.930  1.00  0.00     0.010 A 
ATOM     33  C   UNL A   1      39.151  27.265  29.991  1.00  0.00     0.010 A 
ATOM     34  C   UNL A   1      39.806  28.510  30.035  1.00  0.00    -0.014 A 
BRANCH  34  35
ATOM     35  C   UNL A   1      39.853  29.296  31.292  1.00  0.00     0.031 A 
ATOM     36  C   UNL A   1      40.987  29.058  32.253  1.00  0.00     0.074 A 
ATOM     37  C   UNL A   1      38.941  30.254  31.546  1.00  0.00     0.049 A 
ATOM     38  N   UNL A   1      41.228  29.628  33.405  1.00  0.00    -0.248 NA
ATOM     39  C   UNL A   1      41.984  28.047  31.861  1.00  0.00     0.031 C 
ATOM     40  C   UNL A   1      37.835  30.624  30.664  1.00  0.00     0.029 A 
ATOM     41  N   UNL A   1      38.809  31.095  32.622  1.00  0.00    -0.354 N 
ATOM     42  C   UNL A   1      42.402  29.050  33.874  1.00  0.00     0.074 A 
ATOM     43  C   UNL A   1      42.805  28.057  32.902  1.00  0.00     0.031 C 
ATOM     44  C   UNL A   1      37.142  31.626  31.232  1.00  0.00     0.029 A 
ATOM     45  C   UNL A   1      37.731  31.943  32.532  1.00  0.00     0.049 A 
ATOM     46  H   UNL A   1      39.429  31.092  33.387  1.00  0.00     0.167 HD
ATOM     47  C   UNL A   1      43.092  29.329  35.005  1.00  0.00     0.031 A 
ATOM     48  C   UNL A   1      37.264  32.859  33.405  1.00  0.00     0.031 A 
ATOM     49  C   UNL A   1      42.684  30.308  35.977  1.00  0.00     0.049 A 
ATOM     50  C   UNL A   1      37.989  33.075  34.708  1.00  0.00     0.074 A 
ATOM     51  C   UNL A   1      43.315  30.658  37.159  1.00  0.00     0.029 A 
ATOM     52  N   UNL A   1      41.545  31.091  35.884  1.00  0.00    -0.354 N 
ATOM     53  N   UNL A   1      39.099  32.520  35.136  1.00  0.00    -0.248 NA
ATOM     54  C   UNL A   1      37.401  34.042  35.646  1.00  0.00     0.031 C 
ATOM     55  C   UNL A   1      42.525  31.610  37.809  1.00  0.00     0.029 A 
ATOM     56  C   UNL A   1      41.438  31.903  37.001  1.00  0.00     0.049 A 
ATOM     57  H   UNL A   1      40.906  31.074  35.135  1.00  0.00     0.167 HD
ATOM     58  C   UNL A   1      39.354  33.091  36.380  1.00  0.00     0.074 A 
ATOM     59  C   UNL A   1      38.293  34.045  36.628  1.00  0.00     0.031 C 
ATOM     60  C   UNL A   1      40.376  32.848  37.238  1.00  0.00     0.031 A 
BRANCH  47  61
ATOM     61  C   UNL A   1      44.356  28.553  35.266  1.00  0.00    -0.014 A 
ATOM     62  C   UNL A   1      45.608  29.055  34.870  1.00  0.00     0.010 A 
ATOM     63  C   UNL A   1      44.297  27.342  35.980  1.00  0.00     0.010 A 
ATOM     64  C   UNL A   1      46.777  28.350  35.164  1.00  0.00     0.020 A 
ATOM     65  C   UNL A   1      45.467  26.647  36.300  1.00  0.00     0.020 A 
ATOM     66  C   UNL A   1      46.700  27.152  35.882  1.00  0.00     0.054 A 
BRANCH  66  67
ATOM     67  S   UNL A   1      48.240  26.285  36.289  1.00  0.00     0.124 S 
ATOM     68  O   UNL A   1      48.101  26.083  37.729  1.00  0.00    -0.237 OA
ATOM     69  O   UNL A   1      48.150  25.077  35.474  1.00  0.00    -0.237 OA
ATOM     70  O   UNL A   1      49.285  27.226  35.893  1.00  0.00    -0.744 OA
ENDBRANCH  66  67
ENDBRANCH  47  61
BRANCH  48  71
ATOM     71  C   UNL A   1      36.037  33.639  33.080  1.00  0.00    -0.014 A 
ATOM     72  C   UNL A   1      34.762  33.079  33.264  1.00  0.00     0.010 A 
ATOM     73  C   UNL A   1      36.139  34.950  32.579  1.00  0.00     0.010 A 
ATOM     74  C   UNL A   1      33.613  33.808  32.946  1.00  0.00     0.020 A 
ATOM     75  C   UNL A   1      34.993  35.694  32.286  1.00  0.00     0.020 A 
ATOM     76  C   UNL A   1      33.735  35.115  32.465  1.00  0.00     0.054 A 
BRANCH  76  77
ATOM     77  S   UNL A   1      32.228  36.059  32.110  1.00  0.00     0.124 S 
ATOM     78  O   UNL A   1      31.180  35.122  32.503  1.00  0.00    -0.237 OA
ATOM     79  O   UNL A   1      32.384  37.231  32.967  1.00  0.00    -0.237 OA
ATOM     80  O   UNL A   1      32.322  36.328  30.676  1.00  0.00    -0.744 OA
ENDBRANCH  76  77
ENDBRANCH  48  71
BRANCH  60  81
ATOM     81  C   UNL A   1      40.419  33.635  38.522  1.00  0.00    -0.014 A 
ATOM     82  C   UNL A   1      39.716  33.206  39.661  1.00  0.00     0.010 A 
ATOM     83  C   UNL A   1      41.243  34.773  38.614  1.00  0.00     0.010 A 
ATOM     84  C   UNL A   1      39.819  33.912  40.863  1.00  0.00     0.020 A 
ATOM     85  C   UNL A   1      41.373  35.463  39.822  1.00  0.00     0.020 A 
ATOM     86  C   UNL A   1      40.652  35.034  40.937  1.00  0.00     0.054 A 
BRANCH  86  87
ATOM     87  S   UNL A   1      40.809  35.896  42.525  1.00  0.00     0.124 S 
ATOM     88  O   UNL A   1      40.567  34.820  43.482  1.00  0.00    -0.237 OA
ATOM     89  O   UNL A   1      42.179  36.400  42.479  1.00  0.00    -0.237 OA
ATOM     90  O   UNL A   1      39.771  36.923  42.469  1.00  0.00    -0.744 OA
ENDBRANCH  86  87
ENDBRANCH  60  81
ENDBRANCH  34  35
ENDBRANCH  27  29
ENDBRANCH  26  27
ENDBRANCH  25  26
ENDBRANCH   1  25
TORSDOF 18
ENDMDL
MODEL 3
REMARK VINA RESULT:     -10.0      4.531      7.703
REMARK SMILES Cc1c(Cl)cc2c(c1C)O[C@@H](C(F)(F)F)C(C(=O)OCCOCCOC(=O)c1ccc(-c3c4nc(c(-c5ccc(S(=O)(=O)[O-])cc5)c5ccc([nH]5)c(-c5ccc(S(=O)(=O)[O-])cc5)c5nc(c(-c6ccc(S(=O)(=O)[O-])cc6)c6ccc3[nH]6)C=C5)C=C4)cc1)=C2
REMARK SMILES IDX 23 1 22 2 21 3 20 4 19 5 17 6 18 7 16 8 1 9 2 10 3 11 8 12
REMARK SMILES IDX 4 13 5 14 7 15 9 16 6 17 10 18 88 19 11 20 12 21 13 22 14 23
REMARK SMILES IDX 15 24 24 25 25 26 26 27 27 28 28 29 29 30 87 31 30 32 86 33
REMARK SMILES IDX 31 34 32 35 33 36 80 37 34 38 85 39 79 40 81 41 35 42 84 43
REMARK SMILES IDX 78 44 77 45 36 47 66 48 47 49 65 50 48 51 51 52 64 53 82 54
REMARK SMILES IDX 49 55 50 56 63 58 83 59 52 60 37 61 38 62 46 63 39 64 45 65
REMARK SMILES IDX 40 66 41 67 42 68 43 69 44 70 67 71 68 72 76 73 69 74 75 75
REMARK SMILES IDX 70 76 71 77 72 78 73 79 74 80 53 81 54 82 62 83 55 84 61 85
REMARK SMILES IDX 56 86 57 87 58 88 59 89 60 90
REMARK H PARENT 81 46 51 57
REMARK Flexibility Score: inf
ROOT
ATOM      1  C   UNL A   1      32.060  29.836  26.097  1.00  0.00     0.202 C 
ENDROOT
BRANCH   1   2
ATOM      2  O   UNL A   1      32.762  28.734  25.516  1.00  0.00    -0.374 OA
BRANCH   2   3
ATOM      3  C   UNL A   1      33.325  28.939  24.218  1.00  0.00     0.202 C 
BRANCH   3   4
ATOM      4  C   UNL A   1      32.354  28.834  23.039  1.00  0.00     0.261 C 
BRANCH   4   5
ATOM      5  O   UNL A   1      31.941  27.470  22.848  1.00  0.00    -0.460 OA
BRANCH   5   6
ATOM      6  C   UNL A   1      32.868  26.675  22.280  1.00  0.00     0.338 C 
ATOM      7  O   UNL A   1      33.624  26.984  21.370  1.00  0.00    -0.246 OA
BRANCH   6   8
ATOM      8  C   UNL A   1      32.952  25.388  22.995  1.00  0.00     0.087 C 
ATOM      9  C   UNL A   1      35.102  19.536  24.910  1.00  0.00     0.046 C 
ATOM     10  C   UNL A   1      34.818  20.982  24.591  1.00  0.00    -0.026 A 
ATOM     11  C   UNL A   1      35.881  21.909  24.538  1.00  0.00     0.045 A 
ATOM     12  C   UNL A   1      33.513  21.422  24.236  1.00  0.00    -0.004 A 
ATOM     13  Cl  UNL A   1      37.523  21.458  24.861  1.00  0.00    -0.084 Cl
ATOM     14  C   UNL A   1      35.664  23.235  24.170  1.00  0.00     0.032 A 
ATOM     15  C   UNL A   1      33.311  22.770  23.866  1.00  0.00     0.131 A 
ATOM     16  C   UNL A   1      32.313  20.506  24.251  1.00  0.00     0.049 C 
ATOM     17  C   UNL A   1      34.386  23.660  23.819  1.00  0.00     0.019 A 
ATOM     18  O   UNL A   1      32.048  23.137  23.466  1.00  0.00    -0.475 OA
ATOM     19  C   UNL A   1      34.201  24.987  23.267  1.00  0.00     0.027 C 
ATOM     20  C   UNL A   1      31.742  24.561  23.339  1.00  0.00     0.316 C 
BRANCH  20  21
ATOM     21  C   UNL A   1      30.984  25.017  24.603  1.00  0.00     0.430 C 
ATOM     22  F   UNL A   1      29.894  25.762  24.318  1.00  0.00    -0.167 F 
ATOM     23  F   UNL A   1      30.542  23.951  25.318  1.00  0.00    -0.167 F 
ATOM     24  F   UNL A   1      31.769  25.752  25.429  1.00  0.00    -0.167 F 
ENDBRANCH  20  21
ENDBRANCH   6   8
ENDBRANCH   5   6
ENDBRANCH   4   5
ENDBRANCH   3   4
ENDBRANCH   2   3
ENDBRANCH   1   2
BRANCH   1  25
ATOM     25  C   UNL A   1      32.871  30.797  26.976  1.00  0.00     0.261 C 
BRANCH  25  26
ATOM     26  O   UNL A   1      33.843  30.100  27.774  1.00  0.00    -0.460 OA
BRANCH  26  27
ATOM     27  C   UNL A   1      34.746  30.894  28.398  1.00  0.00     0.338 C 
ATOM     28  O   UNL A   1      34.520  31.943  28.983  1.00  0.00    -0.246 OA
BRANCH  27  29
ATOM     29  C   UNL A   1      36.049  30.206  28.473  1.00  0.00     0.060 A 
ATOM     30  C   UNL A   1      36.396  29.618  29.697  1.00  0.00     0.016 A 
ATOM     31  C   UNL A   1      36.935  30.171  27.394  1.00  0.00     0.016 A 
ATOM     32  C   UNL A   1      37.652  29.041  29.865  1.00  0.00     0.010 A 
ATOM     33  C   UNL A   1      38.201  29.601  27.569  1.00  0.00     0.010 A 
ATOM     34  C   UNL A   1      38.578  29.068  28.815  1.00  0.00    -0.014 A 
BRANCH  34  35
ATOM     35  C   UNL A   1      39.987  28.687  29.081  1.00  0.00     0.031 A 
ATOM     36  C   UNL A   1      40.880  29.665  29.797  1.00  0.00     0.074 A 
ATOM     37  C   UNL A   1      40.450  27.467  28.750  1.00  0.00     0.049 A 
ATOM     38  N   UNL A   1      42.138  29.544  30.132  1.00  0.00    -0.248 NA
ATOM     39  C   UNL A   1      40.272  30.948  30.192  1.00  0.00     0.031 C 
ATOM     40  C   UNL A   1      39.666  26.409  28.113  1.00  0.00     0.029 A 
ATOM     41  N   UNL A   1      41.694  26.911  28.914  1.00  0.00    -0.354 N 
ATOM     42  C   UNL A   1      42.472  30.729  30.779  1.00  0.00     0.074 A 
ATOM     43  C   UNL A   1      41.296  31.572  30.755  1.00  0.00     0.031 C 
ATOM     44  C   UNL A   1      40.448  25.328  27.949  1.00  0.00     0.029 A 
ATOM     45  C   UNL A   1      41.794  25.627  28.433  1.00  0.00     0.049 A 
ATOM     46  H   UNL A   1      42.445  27.388  29.337  1.00  0.00     0.167 HD
ATOM     47  C   UNL A   1      43.646  31.080  31.354  1.00  0.00     0.031 A 
ATOM     48  C   UNL A   1      42.853  24.794  28.377  1.00  0.00     0.031 A 
ATOM     49  C   UNL A   1      44.818  30.245  31.367  1.00  0.00     0.049 A 
ATOM     50  C   UNL A   1      44.181  25.250  28.926  1.00  0.00     0.074 A 
ATOM     51  C   UNL A   1      46.058  30.516  31.919  1.00  0.00     0.029 A 
ATOM     52  N   UNL A   1      44.899  28.982  30.801  1.00  0.00    -0.354 N 
ATOM     53  N   UNL A   1      44.480  26.373  29.536  1.00  0.00    -0.248 NA
ATOM     54  C   UNL A   1      45.314  24.325  28.784  1.00  0.00     0.031 C 
ATOM     55  C   UNL A   1      46.906  29.441  31.636  1.00  0.00     0.029 A 
ATOM     56  C   UNL A   1      46.176  28.473  30.966  1.00  0.00     0.049 A 
ATOM     57  H   UNL A   1      44.159  28.516  30.350  1.00  0.00     0.167 HD
ATOM     58  C   UNL A   1      45.827  26.277  29.871  1.00  0.00     0.074 A 
ATOM     59  C   UNL A   1      46.281  24.981  29.413  1.00  0.00     0.031 C 
ATOM     60  C   UNL A   1      46.617  27.180  30.504  1.00  0.00     0.031 A 
BRANCH  47  61
ATOM     61  C   UNL A   1      43.732  32.434  32.006  1.00  0.00    -0.014 A 
ATOM     62  C   UNL A   1      43.926  33.596  31.237  1.00  0.00     0.010 A 
ATOM     63  C   UNL A   1      43.545  32.554  33.395  1.00  0.00     0.010 A 
ATOM     64  C   UNL A   1      43.953  34.851  31.849  1.00  0.00     0.020 A 
ATOM     65  C   UNL A   1      43.543  33.811  34.007  1.00  0.00     0.020 A 
ATOM     66  C   UNL A   1      43.757  34.952  33.230  1.00  0.00     0.054 A 
BRANCH  66  67
ATOM     67  S   UNL A   1      43.749  36.600  33.987  1.00  0.00     0.124 S 
ATOM     68  O   UNL A   1      44.429  36.353  35.255  1.00  0.00    -0.237 OA
ATOM     69  O   UNL A   1      44.498  37.397  33.019  1.00  0.00    -0.237 OA
ATOM     70  O   UNL A   1      42.330  36.927  34.096  1.00  0.00    -0.744 OA
ENDBRANCH  66  67
ENDBRANCH  47  61
BRANCH  48  71
ATOM     71  C   UNL A   1      42.707  23.443  27.768  1.00  0.00    -0.014 A 
ATOM     72  C   UNL A   1      42.323  22.341  28.551  1.00  0.00     0.010 A 
ATOM     73  C   UNL A   1      42.956  23.250  26.396  1.00  0.00     0.010 A 
ATOM     74  C   UNL A   1      42.200  21.072  27.980  1.00  0.00     0.020 A 
ATOM     75  C   UNL A   1      42.806  21.988  25.814  1.00  0.00     0.020 A 
ATOM     76  C   UNL A   1      42.435  20.905  26.612  1.00  0.00     0.054 A 
BRANCH  76  77
ATOM     77  S   UNL A   1      42.217  19.258  25.884  1.00  0.00     0.124 S 
ATOM     78  O   UNL A   1      40.774  19.208  25.668  1.00  0.00    -0.237 OA
ATOM     79  O   UNL A   1      43.035  19.339  24.677  1.00  0.00    -0.237 OA
ATOM     80  O   UNL A   1      42.727  18.357  26.915  1.00  0.00    -0.744 OA
ENDBRANCH  76  77
ENDBRANCH  48  71
BRANCH  60  81
ATOM     81  C   UNL A   1      48.052  26.803  30.762  1.00  0.00    -0.014 A 
ATOM     82  C   UNL A   1      49.076  27.197  29.883  1.00  0.00     0.010 A 
ATOM     83  C   UNL A   1      48.389  26.116  31.944  1.00  0.00     0.010 A 
ATOM     84  C   UNL A   1      50.410  26.893  30.172  1.00  0.00     0.020 A 
ATOM     85  C   UNL A   1      49.724  25.839  32.251  1.00  0.00     0.020 A 
ATOM     86  C   UNL A   1      50.726  26.220  31.357  1.00  0.00     0.054 A 
BRANCH  86  87
ATOM     87  S   UNL A   1      52.470  25.891  31.730  1.00  0.00     0.124 S 
ATOM     88  O   UNL A   1      52.765  26.910  32.734  1.00  0.00    -0.237 OA
ATOM     89  O   UNL A   1      52.437  24.516  32.221  1.00  0.00    -0.237 OA
ATOM     90  O   UNL A   1      53.142  26.073  30.445  1.00  0.00    -0.744 OA
ENDBRANCH  86  87
ENDBRANCH  60  81
ENDBRANCH  34  35
ENDBRANCH  27  29
ENDBRANCH  26  27
ENDBRANCH  25  26
ENDBRANCH   1  25
TORSDOF 18
ENDMDL
