MODEL 1
REMARK VINA RESULT:     -10.8      0.000      0.000
REMARK SMILES CC[NH+]1CCN(c2ccc(NC(=O)C3CCCC3)c(C(=O)OCCOCCOC(=O)c3ccc(-c4c5nc(c(-c6ccc(S(=O)(=O)[O-])cc6)c6ccc([nH]6)c(-c6ccc(S(=O)(=O)[O-])cc6)c6nc(c(-c7ccc(S(=O)(=O)[O-])cc7)c7ccc4[nH]7)C=C6)C=C5)cc3)c2)CC1
REMARK SMILES IDX 26 1 25 2 24 3 23 4 22 5 20 6 21 7 19 8 7 9 8 10 91 11 9 12
REMARK SMILES IDX 10 13 6 14 3 15 4 16 93 17 5 19 92 20 2 21 1 22 11 23 12 24
REMARK SMILES IDX 13 26 14 27 15 28 18 29 16 30 17 31 27 32 28 33 29 34 30 35
REMARK SMILES IDX 31 36 32 37 90 38 33 39 89 40 34 41 35 42 36 43 83 44 37 45
REMARK SMILES IDX 88 46 82 47 84 48 38 49 87 50 81 51 80 52 39 54 69 55 50 56
REMARK SMILES IDX 68 57 51 58 54 59 67 60 85 61 52 62 53 63 66 65 86 66 55 67
REMARK SMILES IDX 40 68 41 69 49 70 42 71 48 72 43 73 44 74 45 75 46 76 47 77
REMARK SMILES IDX 70 78 71 79 79 80 72 81 78 82 73 83 74 84 75 85 76 86 77 87
REMARK SMILES IDX 56 88 57 89 65 90 58 91 64 92 59 93 60 94 61 95 62 96 63 97
REMARK H PARENT 3 18 11 25 84 53 54 64
REMARK Flexibility Score: inf
ROOT
ATOM      1  C   UNL A   1      40.226  21.577  26.170  1.00  0.00     0.202 C 
ENDROOT
BRANCH   1   2
ATOM      2  O   UNL A   1      39.213  22.508  26.556  1.00  0.00    -0.374 OA
BRANCH   2   3
ATOM      3  C   UNL A   1      38.030  22.524  25.752  1.00  0.00     0.202 C 
BRANCH   3   4
ATOM      4  C   UNL A   1      37.099  23.718  26.003  1.00  0.00     0.261 C 
BRANCH   4   5
ATOM      5  O   UNL A   1      36.272  23.945  24.847  1.00  0.00    -0.460 OA
BRANCH   5   6
ATOM      6  C   UNL A   1      35.033  24.448  25.079  1.00  0.00     0.340 C 
ATOM      7  O   UNL A   1      34.761  25.485  25.653  1.00  0.00    -0.246 OA
BRANCH   6   8
ATOM      8  C   UNL A   1      34.059  23.682  24.255  1.00  0.00     0.085 A 
ATOM      9  C   UNL A   1      33.081  21.502  23.675  1.00  0.00     0.038 A 
ATOM     10  C   UNL A   1      32.614  22.110  22.506  1.00  0.00     0.028 A 
ATOM     11  C   UNL A   1      33.837  22.315  24.531  1.00  0.00     0.043 A 
ATOM     12  C   UNL A   1      32.832  23.462  22.227  1.00  0.00     0.029 A 
ATOM     13  C   UNL A   1      33.481  24.292  23.125  1.00  0.00     0.055 A 
BRANCH   9  14
ATOM     14  N   UNL A   1      32.881  20.151  23.930  1.00  0.00    -0.360 N 
ATOM     15  N   UNL A   1      32.506  17.263  24.464  1.00  0.00    -0.332 N 
ATOM     16  C   UNL A   1      32.784  18.231  25.527  1.00  0.00     0.283 C 
ATOM     17  C   UNL A   1      31.924  17.925  23.288  1.00  0.00     0.283 C 
ATOM     18  H   UNL A   1      31.778  16.642  24.821  1.00  0.00     0.348 HD
ATOM     19  C   UNL A   1      33.509  19.523  25.107  1.00  0.00     0.178 C 
ATOM     20  C   UNL A   1      32.609  19.230  22.809  1.00  0.00     0.178 C 
BRANCH  15  21
ATOM     21  C   UNL A   1      33.551  16.280  24.207  1.00  0.00     0.258 C 
ATOM     22  C   UNL A   1      34.475  15.883  25.350  1.00  0.00     0.071 C 
ENDBRANCH  15  21
ENDBRANCH   9  14
BRANCH  13  23
ATOM     23  N   UNL A   1      33.653  25.669  22.879  1.00  0.00    -0.325 N 
ATOM     24  C   UNL A   1      32.842  26.701  22.536  1.00  0.00     0.227 C 
ATOM     25  H   UNL A   1      34.591  25.950  22.981  1.00  0.00     0.169 HD
ATOM     26  O   UNL A   1      33.410  27.748  22.186  1.00  0.00    -0.274 OA
BRANCH  24  27
ATOM     27  C   UNL A   1      31.315  26.710  22.560  1.00  0.00     0.079 C 
ATOM     28  C   UNL A   1      30.710  26.030  23.787  1.00  0.00     0.013 C 
ATOM     29  C   UNL A   1      30.532  28.008  22.331  1.00  0.00     0.013 C 
ATOM     30  C   UNL A   1      29.296  26.588  23.857  1.00  0.00     0.001 C 
ATOM     31  C   UNL A   1      29.426  28.029  23.389  1.00  0.00     0.001 C 
ENDBRANCH  24  27
ENDBRANCH  13  23
ENDBRANCH   6   8
ENDBRANCH   5   6
ENDBRANCH   4   5
ENDBRANCH   3   4
ENDBRANCH   2   3
ENDBRANCH   1   2
BRANCH   1  32
ATOM     32  C   UNL A   1      41.652  22.131  26.112  1.00  0.00     0.261 C 
BRANCH  32  33
ATOM     33  O   UNL A   1      41.845  23.175  27.083  1.00  0.00    -0.460 OA
BRANCH  33  34
ATOM     34  C   UNL A   1      42.201  24.373  26.563  1.00  0.00     0.338 C 
ATOM     35  O   UNL A   1      42.681  24.586  25.461  1.00  0.00    -0.246 OA
BRANCH  34  36
ATOM     36  C   UNL A   1      41.766  25.458  27.464  1.00  0.00     0.060 A 
ATOM     37  C   UNL A   1      42.609  26.569  27.583  1.00  0.00     0.016 A 
ATOM     38  C   UNL A   1      40.596  25.371  28.222  1.00  0.00     0.016 A 
ATOM     39  C   UNL A   1      42.311  27.577  28.498  1.00  0.00     0.010 A 
ATOM     40  C   UNL A   1      40.303  26.380  29.147  1.00  0.00     0.010 A 
ATOM     41  C   UNL A   1      41.176  27.470  29.311  1.00  0.00    -0.014 A 
BRANCH  41  42
ATOM     42  C   UNL A   1      40.975  28.436  30.420  1.00  0.00     0.031 A 
ATOM     43  C   UNL A   1      41.839  28.331  31.648  1.00  0.00     0.074 A 
ATOM     44  C   UNL A   1      40.049  29.406  30.324  1.00  0.00     0.049 A 
ATOM     45  N   UNL A   1      41.812  29.048  32.740  1.00  0.00    -0.248 NA
ATOM     46  C   UNL A   1      42.870  27.280  31.643  1.00  0.00     0.031 C 
ATOM     47  C   UNL A   1      39.175  29.633  29.172  1.00  0.00     0.029 A 
ATOM     48  N   UNL A   1      39.683  30.381  31.219  1.00  0.00    -0.354 N 
ATOM     49  C   UNL A   1      42.809  28.530  33.558  1.00  0.00     0.074 A 
ATOM     50  C   UNL A   1      43.411  27.424  32.845  1.00  0.00     0.031 C 
ATOM     51  C   UNL A   1      38.365  30.672  29.437  1.00  0.00     0.029 A 
ATOM     52  C   UNL A   1      38.640  31.163  30.786  1.00  0.00     0.049 A 
ATOM     53  H   UNL A   1      40.127  30.508  32.088  1.00  0.00     0.167 HD
ATOM     54  C   UNL A   1      43.191  28.940  34.791  1.00  0.00     0.031 A 
ATOM     55  C   UNL A   1      37.965  32.147  31.415  1.00  0.00     0.031 A 
ATOM     56  C   UNL A   1      42.589  30.037  35.500  1.00  0.00     0.049 A 
ATOM     57  C   UNL A   1      38.371  32.545  32.810  1.00  0.00     0.074 A 
ATOM     58  C   UNL A   1      42.928  30.546  36.742  1.00  0.00     0.029 A 
ATOM     59  N   UNL A   1      41.522  30.790  35.037  1.00  0.00    -0.354 N 
ATOM     60  N   UNL A   1      39.341  32.069  33.554  1.00  0.00    -0.248 NA
ATOM     61  C   UNL A   1      37.596  33.620  33.447  1.00  0.00     0.031 C 
ATOM     62  C   UNL A   1      42.028  31.571  37.054  1.00  0.00     0.029 A 
ATOM     63  C   UNL A   1      41.168  31.740  35.980  1.00  0.00     0.049 A 
ATOM     64  H   UNL A   1      41.080  30.668  34.165  1.00  0.00     0.167 HD
ATOM     65  C   UNL A   1      39.308  32.803  34.735  1.00  0.00     0.074 A 
ATOM     66  C   UNL A   1      38.233  33.764  34.602  1.00  0.00     0.031 C 
ATOM     67  C   UNL A   1      40.098  32.692  35.832  1.00  0.00     0.031 A 
BRANCH  54  68
ATOM     68  C   UNL A   1      44.295  28.177  35.473  1.00  0.00    -0.014 A 
ATOM     69  C   UNL A   1      45.644  28.530  35.294  1.00  0.00     0.010 A 
ATOM     70  C   UNL A   1      43.971  27.132  36.357  1.00  0.00     0.010 A 
ATOM     71  C   UNL A   1      46.652  27.835  35.968  1.00  0.00     0.020 A 
ATOM     72  C   UNL A   1      44.974  26.451  37.052  1.00  0.00     0.020 A 
ATOM     73  C   UNL A   1      46.310  26.799  36.843  1.00  0.00     0.054 A 
BRANCH  73  74
ATOM     74  S   UNL A   1      47.635  25.941  37.739  1.00  0.00     0.124 S 
ATOM     75  O   UNL A   1      47.126  25.951  39.109  1.00  0.00    -0.237 OA
ATOM     76  O   UNL A   1      47.665  24.633  37.091  1.00  0.00    -0.237 OA
ATOM     77  O   UNL A   1      48.809  26.777  37.506  1.00  0.00    -0.744 OA
ENDBRANCH  73  74
ENDBRANCH  54  68
BRANCH  55  78
ATOM     78  C   UNL A   1      36.809  32.803  30.744  1.00  0.00    -0.014 A 
ATOM     79  C   UNL A   1      37.004  33.843  29.820  1.00  0.00     0.010 A 
ATOM     80  C   UNL A   1      35.496  32.394  31.047  1.00  0.00     0.010 A 
ATOM     81  C   UNL A   1      35.907  34.478  29.227  1.00  0.00     0.020 A 
ATOM     82  C   UNL A   1      34.400  33.006  30.435  1.00  0.00     0.020 A 
ATOM     83  C   UNL A   1      34.612  34.055  29.539  1.00  0.00     0.054 A 
BRANCH  83  84
ATOM     84  S   UNL A   1      33.204  34.864  28.730  1.00  0.00     0.124 S 
ATOM     85  O   UNL A   1      33.840  36.012  28.092  1.00  0.00    -0.237 OA
ATOM     86  O   UNL A   1      32.719  33.825  27.826  1.00  0.00    -0.237 OA
ATOM     87  O   UNL A   1      32.308  35.179  29.841  1.00  0.00    -0.744 OA
ENDBRANCH  83  84
ENDBRANCH  55  78
BRANCH  67  88
ATOM     88  C   UNL A   1      39.856  33.654  36.965  1.00  0.00    -0.014 A 
ATOM     89  C   UNL A   1      39.010  33.322  38.038  1.00  0.00     0.010 A 
ATOM     90  C   UNL A   1      40.539  34.885  36.986  1.00  0.00     0.010 A 
ATOM     91  C   UNL A   1      38.829  34.215  39.096  1.00  0.00     0.020 A 
ATOM     92  C   UNL A   1      40.381  35.768  38.057  1.00  0.00     0.020 A 
ATOM     93  C   UNL A   1      39.516  35.433  39.100  1.00  0.00     0.054 A 
BRANCH  93  94
ATOM     94  S   UNL A   1      39.301  36.555  40.509  1.00  0.00     0.124 S 
ATOM     95  O   UNL A   1      40.626  36.531  41.123  1.00  0.00    -0.237 OA
ATOM     96  O   UNL A   1      38.929  37.812  39.865  1.00  0.00    -0.237 OA
ATOM     97  O   UNL A   1      38.239  35.926  41.292  1.00  0.00    -0.744 OA
ENDBRANCH  93  94
ENDBRANCH  67  88
ENDBRANCH  41  42
ENDBRANCH  34  36
ENDBRANCH  33  34
ENDBRANCH  32  33
ENDBRANCH   1  32
TORSDOF 21
ENDMDL
MODEL 2
REMARK VINA RESULT:     -10.5      3.062      9.807
REMARK SMILES CC[NH+]1CCN(c2ccc(NC(=O)C3CCCC3)c(C(=O)OCCOCCOC(=O)c3ccc(-c4c5nc(c(-c6ccc(S(=O)(=O)[O-])cc6)c6ccc([nH]6)c(-c6ccc(S(=O)(=O)[O-])cc6)c6nc(c(-c7ccc(S(=O)(=O)[O-])cc7)c7ccc4[nH]7)C=C6)C=C5)cc3)c2)CC1
REMARK SMILES IDX 26 1 25 2 24 3 23 4 22 5 20 6 21 7 19 8 7 9 8 10 91 11 9 12
REMARK SMILES IDX 10 13 6 14 3 15 4 16 93 17 5 19 92 20 2 21 1 22 11 23 12 24
REMARK SMILES IDX 13 26 14 27 15 28 18 29 16 30 17 31 27 32 28 33 29 34 30 35
REMARK SMILES IDX 31 36 32 37 90 38 33 39 89 40 34 41 35 42 36 43 83 44 37 45
REMARK SMILES IDX 88 46 82 47 84 48 38 49 87 50 81 51 80 52 39 54 69 55 50 56
REMARK SMILES IDX 68 57 51 58 54 59 67 60 85 61 52 62 53 63 66 65 86 66 55 67
REMARK SMILES IDX 40 68 41 69 49 70 42 71 48 72 43 73 44 74 45 75 46 76 47 77
REMARK SMILES IDX 70 78 71 79 79 80 72 81 78 82 73 83 74 84 75 85 76 86 77 87
REMARK SMILES IDX 56 88 57 89 65 90 58 91 64 92 59 93 60 94 61 95 62 96 63 97
REMARK H PARENT 3 18 11 25 84 53 54 64
REMARK Flexibility Score: inf
ROOT
ATOM      1  C   UNL A   1      33.401  27.826  26.633  1.00  0.00     0.202 C 
ENDROOT
BRANCH   1   2
ATOM      2  O   UNL A   1      34.121  27.747  25.401  1.00  0.00    -0.374 OA
BRANCH   2   3
ATOM      3  C   UNL A   1      33.845  26.608  24.580  1.00  0.00     0.202 C 
BRANCH   3   4
ATOM      4  C   UNL A   1      33.985  26.855  23.072  1.00  0.00     0.261 C 
BRANCH   4   5
ATOM      5  O   UNL A   1      34.016  25.597  22.372  1.00  0.00    -0.460 OA
BRANCH   5   6
ATOM      6  C   UNL A   1      33.049  25.400  21.440  1.00  0.00     0.340 C 
ATOM      7  O   UNL A   1      33.187  24.905  20.338  1.00  0.00    -0.246 OA
BRANCH   6   8
ATOM      8  C   UNL A   1      31.727  25.609  22.091  1.00  0.00     0.085 A 
ATOM      9  C   UNL A   1      29.940  27.175  22.722  1.00  0.00     0.038 A 
ATOM     10  C   UNL A   1      29.510  26.198  23.624  1.00  0.00     0.028 A 
ATOM     11  C   UNL A   1      31.086  26.862  21.978  1.00  0.00     0.043 A 
ATOM     12  C   UNL A   1      30.142  24.957  23.742  1.00  0.00     0.029 A 
ATOM     13  C   UNL A   1      31.204  24.603  22.927  1.00  0.00     0.055 A 
BRANCH   9  14
ATOM     14  N   UNL A   1      29.321  28.415  22.632  1.00  0.00    -0.360 N 
ATOM     15  N   UNL A   1      28.029  31.075  22.481  1.00  0.00    -0.332 N 
ATOM     16  C   UNL A   1      29.200  30.720  21.676  1.00  0.00     0.283 C 
ATOM     17  C   UNL A   1      27.300  29.873  22.908  1.00  0.00     0.283 C 
ATOM     18  H   UNL A   1      27.394  31.579  21.862  1.00  0.00     0.348 HD
ATOM     19  C   UNL A   1      30.100  29.599  22.227  1.00  0.00     0.178 C 
ATOM     20  C   UNL A   1      28.146  28.706  23.478  1.00  0.00     0.178 C 
BRANCH  15  21
ATOM     21  C   UNL A   1      28.239  32.103  23.493  1.00  0.00     0.258 C 
ATOM     22  C   UNL A   1      28.972  33.377  23.098  1.00  0.00     0.071 C 
ENDBRANCH  15  21
ENDBRANCH   9  14
BRANCH  13  23
ATOM     23  N   UNL A   1      31.808  23.333  22.997  1.00  0.00    -0.325 N 
ATOM     24  C   UNL A   1      32.613  22.689  23.879  1.00  0.00     0.227 C 
ATOM     25  H   UNL A   1      31.594  22.776  22.213  1.00  0.00     0.169 HD
ATOM     26  O   UNL A   1      33.130  21.634  23.478  1.00  0.00    -0.274 OA
BRANCH  24  27
ATOM     27  C   UNL A   1      32.925  23.117  25.311  1.00  0.00     0.079 C 
ATOM     28  C   UNL A   1      31.937  22.585  26.348  1.00  0.00     0.013 C 
ATOM     29  C   UNL A   1      34.331  22.942  25.896  1.00  0.00     0.013 C 
ATOM     30  C   UNL A   1      32.693  22.688  27.664  1.00  0.00     0.001 C 
ATOM     31  C   UNL A   1      34.137  22.375  27.305  1.00  0.00     0.001 C 
ENDBRANCH  24  27
ENDBRANCH  13  23
ENDBRANCH   6   8
ENDBRANCH   5   6
ENDBRANCH   4   5
ENDBRANCH   3   4
ENDBRANCH   2   3
ENDBRANCH   1   2
BRANCH   1  32
ATOM     32  C   UNL A   1      32.974  29.232  27.065  1.00  0.00     0.261 C 
BRANCH  32  33
ATOM     33  O   UNL A   1      33.951  30.215  26.683  1.00  0.00    -0.460 OA
BRANCH  33  34
ATOM     34  C   UNL A   1      34.458  30.938  27.709  1.00  0.00     0.338 C 
ATOM     35  O   UNL A   1      33.919  31.861  28.297  1.00  0.00    -0.246 OA
BRANCH  34  36
ATOM     36  C   UNL A   1      35.732  30.344  28.159  1.00  0.00     0.060 A 
ATOM     37  C   UNL A   1      35.742  29.723  29.413  1.00  0.00     0.016 A 
ATOM     38  C   UNL A   1      36.905  30.441  27.406  1.00  0.00     0.016 A 
ATOM     39  C   UNL A   1      36.937  29.238  29.942  1.00  0.00     0.010 A 
ATOM     40  C   UNL A   1      38.105  29.961  27.943  1.00  0.00     0.010 A 
ATOM     41  C   UNL A   1      38.131  29.387  29.226  1.00  0.00    -0.014 A 
BRANCH  41  42
ATOM     42  C   UNL A   1      39.422  29.058  29.879  1.00  0.00     0.031 A 
ATOM     43  C   UNL A   1      39.874  29.873  31.061  1.00  0.00     0.074 A 
ATOM     44  C   UNL A   1      40.173  28.034  29.435  1.00  0.00     0.049 A 
ATOM     45  N   UNL A   1      40.976  29.777  31.757  1.00  0.00    -0.248 NA
ATOM     46  C   UNL A   1      38.963  30.935  31.519  1.00  0.00     0.031 C 
ATOM     47  C   UNL A   1      39.826  27.150  28.322  1.00  0.00     0.029 A 
ATOM     48  N   UNL A   1      41.390  27.568  29.867  1.00  0.00    -0.354 N 
ATOM     49  C   UNL A   1      40.900  30.770  32.726  1.00  0.00     0.074 A 
ATOM     50  C   UNL A   1      39.652  31.472  32.516  1.00  0.00     0.031 C 
ATOM     51  C   UNL A   1      40.816  26.257  28.150  1.00  0.00     0.029 A 
ATOM     52  C   UNL A   1      41.878  26.526  29.117  1.00  0.00     0.049 A 
ATOM     53  H   UNL A   1      41.867  27.946  30.640  1.00  0.00     0.167 HD
ATOM     54  C   UNL A   1      41.787  31.070  33.704  1.00  0.00     0.031 A 
ATOM     55  C   UNL A   1      43.058  25.877  29.185  1.00  0.00     0.031 A 
ATOM     56  C   UNL A   1      43.029  30.373  33.909  1.00  0.00     0.049 A 
ATOM     57  C   UNL A   1      44.055  26.269  30.246  1.00  0.00     0.074 A 
ATOM     58  C   UNL A   1      43.980  30.584  34.891  1.00  0.00     0.029 A 
ATOM     59  N   UNL A   1      43.497  29.337  33.115  1.00  0.00    -0.354 N 
ATOM     60  N   UNL A   1      43.950  27.186  31.177  1.00  0.00    -0.248 NA
ATOM     61  C   UNL A   1      45.327  25.531  30.268  1.00  0.00     0.031 C 
ATOM     62  C   UNL A   1      45.050  29.713  34.658  1.00  0.00     0.029 A 
ATOM     63  C   UNL A   1      44.737  28.919  33.567  1.00  0.00     0.049 A 
ATOM     64  H   UNL A   1      43.018  28.955  32.345  1.00  0.00     0.167 HD
ATOM     65  C   UNL A   1      45.130  27.118  31.912  1.00  0.00     0.074 A 
ATOM     66  C   UNL A   1      45.927  26.060  31.326  1.00  0.00     0.031 C 
ATOM     67  C   UNL A   1      45.518  27.863  32.976  1.00  0.00     0.031 A 
BRANCH  54  68
ATOM     68  C   UNL A   1      41.466  32.225  34.613  1.00  0.00    -0.014 A 
ATOM     69  C   UNL A   1      41.801  33.544  34.263  1.00  0.00     0.010 A 
ATOM     70  C   UNL A   1      40.759  31.991  35.807  1.00  0.00     0.010 A 
ATOM     71  C   UNL A   1      41.456  34.608  35.102  1.00  0.00     0.020 A 
ATOM     72  C   UNL A   1      40.391  33.054  36.637  1.00  0.00     0.020 A 
ATOM     73  C   UNL A   1      40.754  34.355  36.285  1.00  0.00     0.054 A 
BRANCH  73  74
ATOM     74  S   UNL A   1      40.282  35.757  37.335  1.00  0.00     0.124 S 
ATOM     75  O   UNL A   1      39.213  35.179  38.146  1.00  0.00    -0.237 OA
ATOM     76  O   UNL A   1      41.520  36.054  38.050  1.00  0.00    -0.237 OA
ATOM     77  O   UNL A   1      39.856  36.778  36.382  1.00  0.00    -0.744 OA
ENDBRANCH  73  74
ENDBRANCH  54  68
BRANCH  55  78
ATOM     78  C   UNL A   1      43.381  24.812  28.197  1.00  0.00    -0.014 A 
ATOM     79  C   UNL A   1      44.229  25.070  27.106  1.00  0.00     0.010 A 
ATOM     80  C   UNL A   1      42.821  23.528  28.339  1.00  0.00     0.010 A 
ATOM     81  C   UNL A   1      44.493  24.072  26.162  1.00  0.00     0.020 A 
ATOM     82  C   UNL A   1      43.106  22.520  27.414  1.00  0.00     0.020 A 
ATOM     83  C   UNL A   1      43.928  22.803  26.323  1.00  0.00     0.054 A 
BRANCH  83  84
ATOM     84  S   UNL A   1      44.314  21.510  25.110  1.00  0.00     0.124 S 
ATOM     85  O   UNL A   1      44.072  22.197  23.846  1.00  0.00    -0.237 OA
ATOM     86  O   UNL A   1      45.711  21.204  25.408  1.00  0.00    -0.237 OA
ATOM     87  O   UNL A   1      43.369  20.444  25.438  1.00  0.00    -0.744 OA
ENDBRANCH  83  84
ENDBRANCH  55  78
BRANCH  67  88
ATOM     88  C   UNL A   1      46.849  27.542  33.603  1.00  0.00    -0.014 A 
ATOM     89  C   UNL A   1      48.023  28.204  33.204  1.00  0.00     0.010 A 
ATOM     90  C   UNL A   1      46.912  26.608  34.654  1.00  0.00     0.010 A 
ATOM     91  C   UNL A   1      49.241  27.918  33.824  1.00  0.00     0.020 A 
ATOM     92  C   UNL A   1      48.124  26.339  35.295  1.00  0.00     0.020 A 
ATOM     93  C   UNL A   1      49.284  26.987  34.868  1.00  0.00     0.054 A 
BRANCH  93  94
ATOM     94  S   UNL A   1      50.869  26.666  35.689  1.00  0.00     0.124 S 
ATOM     95  O   UNL A   1      51.732  27.684  35.095  1.00  0.00    -0.237 OA
ATOM     96  O   UNL A   1      50.545  26.861  37.099  1.00  0.00    -0.237 OA
ATOM     97  O   UNL A   1      51.181  25.289  35.313  1.00  0.00    -0.744 OA
ENDBRANCH  93  94
ENDBRANCH  67  88
ENDBRANCH  41  42
ENDBRANCH  34  36
ENDBRANCH  33  34
ENDBRANCH  32  33
ENDBRANCH   1  32
TORSDOF 21
ENDMDL
MODEL 3
REMARK VINA RESULT:     -10.2      2.813      5.221
REMARK SMILES CC[NH+]1CCN(c2ccc(NC(=O)C3CCCC3)c(C(=O)OCCOCCOC(=O)c3ccc(-c4c5nc(c(-c6ccc(S(=O)(=O)[O-])cc6)c6ccc([nH]6)c(-c6ccc(S(=O)(=O)[O-])cc6)c6nc(c(-c7ccc(S(=O)(=O)[O-])cc7)c7ccc4[nH]7)C=C6)C=C5)cc3)c2)CC1
REMARK SMILES IDX 26 1 25 2 24 3 23 4 22 5 20 6 21 7 19 8 7 9 8 10 91 11 9 12
REMARK SMILES IDX 10 13 6 14 3 15 4 16 93 17 5 19 92 20 2 21 1 22 11 23 12 24
REMARK SMILES IDX 13 26 14 27 15 28 18 29 16 30 17 31 27 32 28 33 29 34 30 35
REMARK SMILES IDX 31 36 32 37 90 38 33 39 89 40 34 41 35 42 36 43 83 44 37 45
REMARK SMILES IDX 88 46 82 47 84 48 38 49 87 50 81 51 80 52 39 54 69 55 50 56
REMARK SMILES IDX 68 57 51 58 54 59 67 60 85 61 52 62 53 63 66 65 86 66 55 67
REMARK SMILES IDX 40 68 41 69 49 70 42 71 48 72 43 73 44 74 45 75 46 76 47 77
REMARK SMILES IDX 70 78 71 79 79 80 72 81 78 82 73 83 74 84 75 85 76 86 77 87
REMARK SMILES IDX 56 88 57 89 65 90 58 91 64 92 59 93 60 94 61 95 62 96 63 97
REMARK H PARENT 3 18 11 25 84 53 54 64
REMARK Flexibility Score: inf
ROOT
ATOM      1  C   UNL A   1      37.747  23.689  25.824  1.00  0.00     0.202 C 
ENDROOT
BRANCH   1   2
ATOM      2  O   UNL A   1      36.569  24.457  26.072  1.00  0.00    -0.374 OA
BRANCH   2   3
ATOM      3  C   UNL A   1      35.478  24.252  25.169  1.00  0.00     0.202 C 
BRANCH   3   4
ATOM      4  C   UNL A   1      34.145  24.861  25.623  1.00  0.00     0.261 C 
BRANCH   4   5
ATOM      5  O   UNL A   1      33.386  25.288  24.477  1.00  0.00    -0.460 OA
BRANCH   5   6
ATOM      6  C   UNL A   1      33.586  26.564  24.061  1.00  0.00     0.340 C 
ATOM      7  O   UNL A   1      33.988  26.923  22.970  1.00  0.00    -0.246 OA
BRANCH   6   8
ATOM      8  C   UNL A   1      32.951  27.479  25.047  1.00  0.00     0.085 A 
ATOM      9  C   UNL A   1      33.241  29.157  26.821  1.00  0.00     0.038 A 
ATOM     10  C   UNL A   1      31.919  28.886  27.185  1.00  0.00     0.028 A 
ATOM     11  C   UNL A   1      33.749  28.407  25.751  1.00  0.00     0.043 A 
ATOM     12  C   UNL A   1      31.125  27.967  26.493  1.00  0.00     0.029 A 
ATOM     13  C   UNL A   1      31.590  27.310  25.367  1.00  0.00     0.055 A 
BRANCH   9  14
ATOM     14  N   UNL A   1      34.030  30.053  27.531  1.00  0.00    -0.360 N 
ATOM     15  N   UNL A   1      35.730  31.980  29.002  1.00  0.00    -0.332 N 
ATOM     16  C   UNL A   1      34.326  32.249  28.685  1.00  0.00     0.283 C 
ATOM     17  C   UNL A   1      36.002  30.535  29.001  1.00  0.00     0.283 C 
ATOM     18  H   UNL A   1      35.875  32.289  29.964  1.00  0.00     0.348 HD
ATOM     19  C   UNL A   1      33.736  31.496  27.478  1.00  0.00     0.178 C 
ATOM     20  C   UNL A   1      35.441  29.717  27.812  1.00  0.00     0.178 C 
BRANCH  15  21
ATOM     21  C   UNL A   1      36.709  32.827  28.331  1.00  0.00     0.258 C 
ATOM     22  C   UNL A   1      37.385  33.933  29.129  1.00  0.00     0.071 C 
ENDBRANCH  15  21
ENDBRANCH   9  14
BRANCH  13  23
ATOM     23  N   UNL A   1      30.777  26.428  24.628  1.00  0.00    -0.325 N 
ATOM     24  C   UNL A   1      29.776  26.560  23.722  1.00  0.00     0.227 C 
ATOM     25  H   UNL A   1      30.987  25.484  24.815  1.00  0.00     0.169 HD
ATOM     26  O   UNL A   1      29.142  25.527  23.454  1.00  0.00    -0.274 OA
BRANCH  24  27
ATOM     27  C   UNL A   1      29.370  27.837  22.990  1.00  0.00     0.079 C 
ATOM     28  C   UNL A   1      27.944  28.297  23.287  1.00  0.00     0.013 C 
ATOM     29  C   UNL A   1      30.263  29.083  23.026  1.00  0.00     0.013 C 
ATOM     30  C   UNL A   1      27.942  29.768  22.895  1.00  0.00     0.001 C 
ATOM     31  C   UNL A   1      29.327  30.269  23.273  1.00  0.00     0.001 C 
ENDBRANCH  24  27
ENDBRANCH  13  23
ENDBRANCH   6   8
ENDBRANCH   5   6
ENDBRANCH   4   5
ENDBRANCH   3   4
ENDBRANCH   2   3
ENDBRANCH   1   2
BRANCH   1  32
ATOM     32  C   UNL A   1      38.939  23.984  26.738  1.00  0.00     0.261 C 
BRANCH  32  33
ATOM     33  O   UNL A   1      38.851  25.304  27.300  1.00  0.00    -0.460 OA
BRANCH  33  34
ATOM     34  C   UNL A   1      39.975  26.049  27.176  1.00  0.00     0.338 C 
ATOM     35  O   UNL A   1      40.617  26.250  26.158  1.00  0.00    -0.246 OA
BRANCH  34  36
ATOM     36  C   UNL A   1      40.250  26.754  28.443  1.00  0.00     0.060 A 
ATOM     37  C   UNL A   1      39.337  26.573  29.489  1.00  0.00     0.016 A 
ATOM     38  C   UNL A   1      41.338  27.618  28.592  1.00  0.00     0.016 A 
ATOM     39  C   UNL A   1      39.480  27.294  30.673  1.00  0.00     0.010 A 
ATOM     40  C   UNL A   1      41.475  28.348  29.779  1.00  0.00     0.010 A 
ATOM     41  C   UNL A   1      40.529  28.212  30.811  1.00  0.00    -0.014 A 
BRANCH  41  42
ATOM     42  C   UNL A   1      40.557  29.121  31.983  1.00  0.00     0.031 A 
ATOM     43  C   UNL A   1      41.641  28.953  33.014  1.00  0.00     0.074 A 
ATOM     44  C   UNL A   1      39.639  30.096  32.117  1.00  0.00     0.049 A 
ATOM     45  N   UNL A   1      41.833  29.616  34.125  1.00  0.00    -0.248 NA
ATOM     46  C   UNL A   1      42.639  27.903  32.758  1.00  0.00     0.031 C 
ATOM     47  C   UNL A   1      38.562  30.380  31.169  1.00  0.00     0.029 A 
ATOM     48  N   UNL A   1      39.464  31.025  33.112  1.00  0.00    -0.354 N 
ATOM     49  C   UNL A   1      42.964  29.056  34.708  1.00  0.00     0.074 A 
ATOM     50  C   UNL A   1      43.404  27.986  33.838  1.00  0.00     0.031 C 
ATOM     51  C   UNL A   1      37.830  31.406  31.636  1.00  0.00     0.029 A 
ATOM     52  C   UNL A   1      38.365  31.829  32.928  1.00  0.00     0.049 A 
ATOM     53  H   UNL A   1      40.070  31.107  33.884  1.00  0.00     0.167 HD
ATOM     54  C   UNL A   1      43.582  29.403  35.861  1.00  0.00     0.031 A 
ATOM     55  C   UNL A   1      37.836  32.780  33.723  1.00  0.00     0.031 A 
ATOM     56  C   UNL A   1      43.140  30.464  36.727  1.00  0.00     0.049 A 
ATOM     57  C   UNL A   1      38.509  33.107  35.031  1.00  0.00     0.074 A 
ATOM     58  C   UNL A   1      43.718  30.910  37.903  1.00  0.00     0.029 A 
ATOM     59  N   UNL A   1      42.011  31.240  36.516  1.00  0.00    -0.354 N 
ATOM     60  N   UNL A   1      39.599  32.594  35.549  1.00  0.00    -0.248 NA
ATOM     61  C   UNL A   1      37.883  34.150  35.859  1.00  0.00     0.031 C 
ATOM     62  C   UNL A   1      42.907  31.918  38.433  1.00  0.00     0.029 A 
ATOM     63  C   UNL A   1      41.857  32.142  37.556  1.00  0.00     0.049 A 
ATOM     64  H   UNL A   1      41.408  31.162  35.742  1.00  0.00     0.167 HD
ATOM     65  C   UNL A   1      39.803  33.268  36.749  1.00  0.00     0.074 A 
ATOM     66  C   UNL A   1      38.733  34.235  36.873  1.00  0.00     0.031 C 
ATOM     67  C   UNL A   1      40.789  33.101  37.665  1.00  0.00     0.031 A 
BRANCH  54  68
ATOM     68  C   UNL A   1      44.789  28.606  36.278  1.00  0.00    -0.014 A 
ATOM     69  C   UNL A   1      46.087  29.006  35.917  1.00  0.00     0.010 A 
ATOM     70  C   UNL A   1      44.623  27.476  37.099  1.00  0.00     0.010 A 
ATOM     71  C   UNL A   1      47.197  28.275  36.348  1.00  0.00     0.020 A 
ATOM     72  C   UNL A   1      45.732  26.756  37.552  1.00  0.00     0.020 A 
ATOM     73  C   UNL A   1      47.012  27.153  37.164  1.00  0.00     0.054 A 
BRANCH  73  74
ATOM     74  S   UNL A   1      48.473  26.247  37.746  1.00  0.00     0.124 S 
ATOM     75  O   UNL A   1      48.011  25.727  39.031  1.00  0.00    -0.237 OA
ATOM     76  O   UNL A   1      48.668  25.248  36.698  1.00  0.00    -0.237 OA
ATOM     77  O   UNL A   1      49.509  27.273  37.826  1.00  0.00    -0.744 OA
ENDBRANCH  73  74
ENDBRANCH  54  68
BRANCH  55  78
ATOM     78  C   UNL A   1      36.579  33.470  33.323  1.00  0.00    -0.014 A 
ATOM     79  C   UNL A   1      35.324  32.897  33.588  1.00  0.00     0.010 A 
ATOM     80  C   UNL A   1      36.638  34.708  32.655  1.00  0.00     0.010 A 
ATOM     81  C   UNL A   1      34.151  33.536  33.171  1.00  0.00     0.020 A 
ATOM     82  C   UNL A   1      35.468  35.363  32.263  1.00  0.00     0.020 A 
ATOM     83  C   UNL A   1      34.231  34.765  32.511  1.00  0.00     0.054 A 
BRANCH  83  84
ATOM     84  S   UNL A   1      32.698  35.598  32.014  1.00  0.00     0.124 S 
ATOM     85  O   UNL A   1      31.709  34.945  32.865  1.00  0.00    -0.237 OA
ATOM     86  O   UNL A   1      32.981  36.996  32.328  1.00  0.00    -0.237 OA
ATOM     87  O   UNL A   1      32.595  35.298  30.587  1.00  0.00    -0.744 OA
ENDBRANCH  83  84
ENDBRANCH  55  78
BRANCH  67  88
ATOM     88  C   UNL A   1      40.781  34.005  38.869  1.00  0.00    -0.014 A 
ATOM     89  C   UNL A   1      40.061  33.671  40.029  1.00  0.00     0.010 A 
ATOM     90  C   UNL A   1      41.562  35.177  38.860  1.00  0.00     0.010 A 
ATOM     91  C   UNL A   1      40.097  34.507  41.148  1.00  0.00     0.020 A 
ATOM     92  C   UNL A   1      41.622  36.001  39.987  1.00  0.00     0.020 A 
ATOM     93  C   UNL A   1      40.879  35.667  41.120  1.00  0.00     0.054 A 
BRANCH  93  94
ATOM     94  S   UNL A   1      40.947  36.711  42.602  1.00  0.00     0.124 S 
ATOM     95  O   UNL A   1      39.536  37.015  42.826  1.00  0.00    -0.237 OA
ATOM     96  O   UNL A   1      41.565  35.829  43.588  1.00  0.00    -0.237 OA
ATOM     97  O   UNL A   1      41.771  37.845  42.188  1.00  0.00    -0.744 OA
ENDBRANCH  93  94
ENDBRANCH  67  88
ENDBRANCH  41  42
ENDBRANCH  34  36
ENDBRANCH  33  34
ENDBRANCH  32  33
ENDBRANCH   1  32
TORSDOF 21
ENDMDL
