MODEL 1
REMARK VINA RESULT:      -9.5      0.000      0.000
REMARK SMILES C[C@H]1CCC[C@H](C)N1C(=O)C[N@@H+](CC(=O)OCCOCCOC(=O)c1ccc(-c2c3nc(c(-c4ccc(S(=O)(=O)[O-])cc4)c4ccc([nH]4)c(-c4ccc(S(=O)(=O)[O-])cc4)c4nc(c(-c5ccc(S(=O)(=O)[O-])cc5)c5ccc2[nH]5)C=C4)C=C3)cc1)C(C)(C)C
REMARK SMILES IDX 19 1 18 2 17 3 16 4 14 5 15 6 13 7 12 8 11 10 9 11 1 12 2 13
REMARK SMILES IDX 3 14 8 15 4 16 6 17 5 18 7 19 10 20 85 21 86 22 87 23 88 24
REMARK SMILES IDX 20 25 21 26 22 27 23 28 24 29 25 30 26 31 84 32 27 33 83 34
REMARK SMILES IDX 28 35 29 36 30 37 77 38 31 39 82 40 76 41 78 42 32 43 81 44
REMARK SMILES IDX 75 45 74 46 33 48 63 49 44 50 62 51 45 52 48 53 61 54 79 55
REMARK SMILES IDX 46 56 47 57 60 59 80 60 49 61 34 62 35 63 43 64 36 65 42 66
REMARK SMILES IDX 37 67 38 68 39 69 40 70 41 71 64 72 65 73 73 74 66 75 72 76
REMARK SMILES IDX 67 77 68 78 69 79 70 80 71 81 50 82 51 83 59 84 52 85 58 86
REMARK SMILES IDX 53 87 54 88 55 89 56 90 57 91
REMARK H PARENT 12 9 78 47 48 58
REMARK Flexibility Score: inf
ROOT
ATOM      1  O   UNL A   1      35.281  31.658  27.377  1.00  0.00    -0.374 OA
ENDROOT
BRANCH   1   2
ATOM      2  C   UNL A   1      35.056  30.252  27.239  1.00  0.00     0.202 C 
BRANCH   2   3
ATOM      3  C   UNL A   1      33.587  29.848  27.091  1.00  0.00     0.261 C 
BRANCH   3   4
ATOM      4  O   UNL A   1      33.325  28.500  27.549  1.00  0.00    -0.459 OA
BRANCH   4   5
ATOM      5  C   UNL A   1      32.118  27.970  27.219  1.00  0.00     0.361 C 
ATOM      6  O   UNL A   1      31.172  27.875  27.995  1.00  0.00    -0.245 OA
BRANCH   5   7
ATOM      7  C   UNL A   1      32.078  27.359  25.818  1.00  0.00     0.387 C 
BRANCH   7   8
ATOM      8  N   UNL A   1      30.887  27.582  24.946  1.00  0.00    -0.314 N 
ATOM      9  H   UNL A   1      30.199  28.099  25.494  1.00  0.00     0.349 HD
BRANCH   8  10
ATOM     10  C   UNL A   1      30.257  26.282  24.618  1.00  0.00     0.364 C 
BRANCH  10  11
ATOM     11  C   UNL A   1      30.773  25.090  25.422  1.00  0.00     0.278 C 
ATOM     12  C   UNL A   1      32.174  25.051  22.547  1.00  0.00     0.031 C 
ATOM     13  C   UNL A   1      32.646  24.278  23.771  1.00  0.00     0.082 C 
ATOM     14  C   UNL A   1      34.143  24.558  24.004  1.00  0.00     0.025 C 
ATOM     15  N   UNL A   1      31.894  24.343  25.052  1.00  0.00    -0.332 N 
ATOM     16  C   UNL A   1      34.742  23.682  25.102  1.00  0.00     0.004 C 
ATOM     17  C   UNL A   1      32.404  23.420  26.094  1.00  0.00     0.082 C 
ATOM     18  C   UNL A   1      33.893  23.681  26.366  1.00  0.00     0.025 C 
ATOM     19  C   UNL A   1      32.112  21.955  25.763  1.00  0.00     0.031 C 
ATOM     20  O   UNL A   1      30.143  24.814  26.457  1.00  0.00    -0.268 OA
ENDBRANCH  10  11
ENDBRANCH   8  10
BRANCH   8  21
ATOM     21  C   UNL A   1      31.003  28.608  23.872  1.00  0.00     0.090 C 
ATOM     22  C   UNL A   1      30.632  30.013  24.352  1.00  0.00     0.078 C 
ATOM     23  C   UNL A   1      32.444  28.735  23.329  1.00  0.00     0.078 C 
ATOM     24  C   UNL A   1      30.162  28.230  22.626  1.00  0.00     0.078 C 
ENDBRANCH   8  21
ENDBRANCH   7   8
ENDBRANCH   5   7
ENDBRANCH   4   5
ENDBRANCH   3   4
ENDBRANCH   2   3
ENDBRANCH   1   2
BRANCH   1  25
ATOM     25  C   UNL A   1      34.511  32.332  28.372  1.00  0.00     0.202 C 
BRANCH  25  26
ATOM     26  C   UNL A   1      35.321  32.776  29.602  1.00  0.00     0.261 C 
BRANCH  26  27
ATOM     27  O   UNL A   1      35.833  31.638  30.324  1.00  0.00    -0.460 OA
BRANCH  27  28
ATOM     28  C   UNL A   1      36.958  31.859  31.035  1.00  0.00     0.338 C 
ATOM     29  O   UNL A   1      37.046  32.492  32.080  1.00  0.00    -0.246 OA
BRANCH  28  30
ATOM     30  C   UNL A   1      38.071  31.046  30.501  1.00  0.00     0.060 A 
ATOM     31  C   UNL A   1      38.987  30.553  31.436  1.00  0.00     0.016 A 
ATOM     32  C   UNL A   1      38.281  30.832  29.134  1.00  0.00     0.016 A 
ATOM     33  C   UNL A   1      40.157  29.929  31.010  1.00  0.00     0.010 A 
ATOM     34  C   UNL A   1      39.464  30.200  28.708  1.00  0.00     0.010 A 
ATOM     35  C   UNL A   1      40.436  29.795  29.643  1.00  0.00    -0.014 A 
BRANCH  35  36
ATOM     36  C   UNL A   1      41.818  29.404  29.246  1.00  0.00     0.031 A 
ATOM     37  C   UNL A   1      42.076  27.992  28.775  1.00  0.00     0.074 A 
ATOM     38  C   UNL A   1      42.805  30.317  29.155  1.00  0.00     0.049 A 
ATOM     39  N   UNL A   1      43.154  27.484  28.231  1.00  0.00    -0.248 NA
ATOM     40  C   UNL A   1      40.968  27.033  28.919  1.00  0.00     0.031 C 
ATOM     41  C   UNL A   1      42.693  31.725  29.530  1.00  0.00     0.029 A 
ATOM     42  N   UNL A   1      44.093  30.197  28.689  1.00  0.00    -0.354 N 
ATOM     43  C   UNL A   1      42.848  26.157  27.947  1.00  0.00     0.074 A 
ATOM     44  C   UNL A   1      41.501  25.925  28.423  1.00  0.00     0.031 C 
ATOM     45  C   UNL A   1      43.859  32.343  29.265  1.00  0.00     0.029 A 
ATOM     46  C   UNL A   1      44.806  31.372  28.717  1.00  0.00     0.049 A 
ATOM     47  H   UNL A   1      44.470  29.346  28.365  1.00  0.00     0.167 HD
ATOM     48  C   UNL A   1      43.602  25.218  27.326  1.00  0.00     0.031 A 
ATOM     49  C   UNL A   1      46.075  31.641  28.345  1.00  0.00     0.031 A 
ATOM     50  C   UNL A   1      44.949  25.424  26.866  1.00  0.00     0.049 A 
ATOM     51  C   UNL A   1      46.928  30.553  27.740  1.00  0.00     0.074 A 
ATOM     52  C   UNL A   1      45.791  24.519  26.241  1.00  0.00     0.029 A 
ATOM     53  N   UNL A   1      45.654  26.609  26.983  1.00  0.00    -0.354 N 
ATOM     54  N   UNL A   1      46.607  29.314  27.455  1.00  0.00    -0.248 NA
ATOM     55  C   UNL A   1      48.314  30.908  27.395  1.00  0.00     0.031 C 
ATOM     56  C   UNL A   1      47.023  25.145  26.022  1.00  0.00     0.029 A 
ATOM     57  C   UNL A   1      46.928  26.455  26.461  1.00  0.00     0.049 A 
ATOM     58  H   UNL A   1      45.302  27.440  27.378  1.00  0.00     0.167 HD
ATOM     59  C   UNL A   1      47.741  28.753  26.873  1.00  0.00     0.074 A 
ATOM     60  C   UNL A   1      48.749  29.791  26.830  1.00  0.00     0.031 C 
ATOM     61  C   UNL A   1      47.927  27.491  26.414  1.00  0.00     0.031 A 
BRANCH  48  62
ATOM     62  C   UNL A   1      42.983  23.862  27.114  1.00  0.00    -0.014 A 
ATOM     63  C   UNL A   1      42.897  22.937  28.172  1.00  0.00     0.010 A 
ATOM     64  C   UNL A   1      42.431  23.530  25.865  1.00  0.00     0.010 A 
ATOM     65  C   UNL A   1      42.296  21.692  27.973  1.00  0.00     0.020 A 
ATOM     66  C   UNL A   1      41.809  22.293  25.670  1.00  0.00     0.020 A 
ATOM     67  C   UNL A   1      41.757  21.377  26.722  1.00  0.00     0.054 A 
BRANCH  67  68
ATOM     68  S   UNL A   1      40.955  19.764  26.502  1.00  0.00     0.124 S 
ATOM     69  O   UNL A   1      40.903  19.264  27.874  1.00  0.00    -0.237 OA
ATOM     70  O   UNL A   1      39.668  20.124  25.915  1.00  0.00    -0.237 OA
ATOM     71  O   UNL A   1      41.863  19.044  25.612  1.00  0.00    -0.744 OA
ENDBRANCH  67  68
ENDBRANCH  48  62
BRANCH  49  72
ATOM     72  C   UNL A   1      46.643  33.003  28.553  1.00  0.00    -0.014 A 
ATOM     73  C   UNL A   1      47.259  33.358  29.766  1.00  0.00     0.010 A 
ATOM     74  C   UNL A   1      46.522  33.972  27.540  1.00  0.00     0.010 A 
ATOM     75  C   UNL A   1      47.712  34.665  29.975  1.00  0.00     0.020 A 
ATOM     76  C   UNL A   1      46.999  35.270  27.733  1.00  0.00     0.020 A 
ATOM     77  C   UNL A   1      47.575  35.614  28.957  1.00  0.00     0.054 A 
BRANCH  77  78
ATOM     78  S   UNL A   1      48.185  37.300  29.236  1.00  0.00     0.124 S 
ATOM     79  O   UNL A   1      48.788  37.622  27.947  1.00  0.00    -0.237 OA
ATOM     80  O   UNL A   1      46.963  38.029  29.564  1.00  0.00    -0.237 OA
ATOM     81  O   UNL A   1      49.123  37.143  30.346  1.00  0.00    -0.744 OA
ENDBRANCH  77  78
ENDBRANCH  49  72
BRANCH  61  82
ATOM     82  C   UNL A   1      49.259  27.160  25.790  1.00  0.00    -0.014 A 
ATOM     83  C   UNL A   1      49.492  27.360  24.418  1.00  0.00     0.010 A 
ATOM     84  C   UNL A   1      50.311  26.695  26.601  1.00  0.00     0.010 A 
ATOM     85  C   UNL A   1      50.743  27.072  23.863  1.00  0.00     0.020 A 
ATOM     86  C   UNL A   1      51.570  26.430  26.054  1.00  0.00     0.020 A 
ATOM     87  C   UNL A   1      51.775  26.607  24.684  1.00  0.00     0.054 A 
BRANCH  87  88
ATOM     88  S   UNL A   1      53.401  26.280  23.947  1.00  0.00     0.124 S 
ATOM     89  O   UNL A   1      53.121  26.416  22.521  1.00  0.00    -0.237 OA
ATOM     90  O   UNL A   1      54.234  27.331  24.528  1.00  0.00    -0.237 OA
ATOM     91  O   UNL A   1      53.717  24.925  24.394  1.00  0.00    -0.744 OA
ENDBRANCH  87  88
ENDBRANCH  61  82
ENDBRANCH  35  36
ENDBRANCH  28  30
ENDBRANCH  27  28
ENDBRANCH  26  27
ENDBRANCH  25  26
ENDBRANCH   1  25
TORSDOF 21
ENDMDL
MODEL 2
REMARK VINA RESULT:      -9.2      5.851     11.595
REMARK SMILES C[C@H]1CCC[C@H](C)N1C(=O)C[N@@H+](CC(=O)OCCOCCOC(=O)c1ccc(-c2c3nc(c(-c4ccc(S(=O)(=O)[O-])cc4)c4ccc([nH]4)c(-c4ccc(S(=O)(=O)[O-])cc4)c4nc(c(-c5ccc(S(=O)(=O)[O-])cc5)c5ccc2[nH]5)C=C4)C=C3)cc1)C(C)(C)C
REMARK SMILES IDX 19 1 18 2 17 3 16 4 14 5 15 6 13 7 12 8 11 10 9 11 1 12 2 13
REMARK SMILES IDX 3 14 8 15 4 16 6 17 5 18 7 19 10 20 85 21 86 22 87 23 88 24
REMARK SMILES IDX 20 25 21 26 22 27 23 28 24 29 25 30 26 31 84 32 27 33 83 34
REMARK SMILES IDX 28 35 29 36 30 37 77 38 31 39 82 40 76 41 78 42 32 43 81 44
REMARK SMILES IDX 75 45 74 46 33 48 63 49 44 50 62 51 45 52 48 53 61 54 79 55
REMARK SMILES IDX 46 56 47 57 60 59 80 60 49 61 34 62 35 63 43 64 36 65 42 66
REMARK SMILES IDX 37 67 38 68 39 69 40 70 41 71 64 72 65 73 73 74 66 75 72 76
REMARK SMILES IDX 67 77 68 78 69 79 70 80 71 81 50 82 51 83 59 84 52 85 58 86
REMARK SMILES IDX 53 87 54 88 55 89 56 90 57 91
REMARK H PARENT 12 9 78 47 48 58
REMARK Flexibility Score: inf
ROOT
ATOM      1  O   UNL A   1      39.722  22.430  27.004  1.00  0.00    -0.374 OA
ENDROOT
BRANCH   1   2
ATOM      2  C   UNL A   1      38.949  21.650  26.088  1.00  0.00     0.202 C 
BRANCH   2   3
ATOM      3  C   UNL A   1      37.787  22.398  25.429  1.00  0.00     0.261 C 
BRANCH   3   4
ATOM      4  O   UNL A   1      36.491  21.934  25.878  1.00  0.00    -0.459 OA
BRANCH   4   5
ATOM      5  C   UNL A   1      35.627  21.519  24.916  1.00  0.00     0.361 C 
ATOM      6  O   UNL A   1      35.500  22.063  23.822  1.00  0.00    -0.245 OA
BRANCH   5   7
ATOM      7  C   UNL A   1      34.704  20.387  25.365  1.00  0.00     0.387 C 
BRANCH   7   8
ATOM      8  N   UNL A   1      33.554  19.982  24.504  1.00  0.00    -0.314 N 
ATOM      9  H   UNL A   1      33.801  20.204  23.538  1.00  0.00     0.349 HD
BRANCH   8  10
ATOM     10  C   UNL A   1      32.371  20.814  24.825  1.00  0.00     0.364 C 
BRANCH  10  11
ATOM     11  C   UNL A   1      32.168  22.029  23.922  1.00  0.00     0.278 C 
ATOM     12  C   UNL A   1      32.468  23.051  26.938  1.00  0.00     0.031 C 
ATOM     13  C   UNL A   1      32.605  23.918  25.694  1.00  0.00     0.082 C 
ATOM     14  C   UNL A   1      33.926  24.706  25.766  1.00  0.00     0.025 C 
ATOM     15  N   UNL A   1      32.410  23.341  24.337  1.00  0.00    -0.332 N 
ATOM     16  C   UNL A   1      34.059  25.736  24.647  1.00  0.00     0.004 C 
ATOM     17  C   UNL A   1      32.433  24.349  23.249  1.00  0.00     0.082 C 
ATOM     18  C   UNL A   1      33.747  25.145  23.278  1.00  0.00     0.025 C 
ATOM     19  C   UNL A   1      31.196  25.249  23.266  1.00  0.00     0.031 C 
ATOM     20  O   UNL A   1      31.782  21.794  22.765  1.00  0.00    -0.268 OA
ENDBRANCH  10  11
ENDBRANCH   8  10
BRANCH   8  21
ATOM     21  C   UNL A   1      33.355  18.526  24.262  1.00  0.00     0.090 C 
ATOM     22  C   UNL A   1      34.671  17.746  24.222  1.00  0.00     0.078 C 
ATOM     23  C   UNL A   1      32.519  17.850  25.371  1.00  0.00     0.078 C 
ATOM     24  C   UNL A   1      32.542  18.266  22.967  1.00  0.00     0.078 C 
ENDBRANCH   8  21
ENDBRANCH   7   8
ENDBRANCH   5   7
ENDBRANCH   4   5
ENDBRANCH   3   4
ENDBRANCH   2   3
ENDBRANCH   1   2
BRANCH   1  25
ATOM     25  C   UNL A   1      41.140  22.358  26.863  1.00  0.00     0.202 C 
BRANCH  25  26
ATOM     26  C   UNL A   1      41.746  23.476  25.998  1.00  0.00     0.261 C 
BRANCH  26  27
ATOM     27  O   UNL A   1      42.440  24.443  26.813  1.00  0.00    -0.460 OA
BRANCH  27  28
ATOM     28  C   UNL A   1      42.314  25.729  26.425  1.00  0.00     0.338 C 
ATOM     29  O   UNL A   1      41.872  26.126  25.355  1.00  0.00    -0.246 OA
BRANCH  28  30
ATOM     30  C   UNL A   1      42.586  26.636  27.560  1.00  0.00     0.060 A 
ATOM     31  C   UNL A   1      41.974  26.314  28.776  1.00  0.00     0.016 A 
ATOM     32  C   UNL A   1      43.338  27.811  27.443  1.00  0.00     0.016 A 
ATOM     33  C   UNL A   1      42.032  27.202  29.847  1.00  0.00     0.010 A 
ATOM     34  C   UNL A   1      43.394  28.705  28.529  1.00  0.00     0.010 A 
ATOM     35  C   UNL A   1      42.694  28.431  29.719  1.00  0.00    -0.014 A 
BRANCH  35  36
ATOM     36  C   UNL A   1      42.469  29.460  30.773  1.00  0.00     0.031 A 
ATOM     37  C   UNL A   1      41.229  30.320  30.707  1.00  0.00     0.074 A 
ATOM     38  C   UNL A   1      43.265  29.538  31.858  1.00  0.00     0.049 A 
ATOM     39  N   UNL A   1      40.753  31.157  31.596  1.00  0.00    -0.248 NA
ATOM     40  C   UNL A   1      40.411  30.211  29.488  1.00  0.00     0.031 C 
ATOM     41  C   UNL A   1      44.470  28.741  32.082  1.00  0.00     0.029 A 
ATOM     42  N   UNL A   1      43.157  30.308  32.991  1.00  0.00    -0.354 N 
ATOM     43  C   UNL A   1      39.570  31.652  31.056  1.00  0.00     0.074 A 
ATOM     44  C   UNL A   1      39.427  31.062  29.742  1.00  0.00     0.031 C 
ATOM     45  C   UNL A   1      44.982  29.054  33.287  1.00  0.00     0.029 A 
ATOM     46  C   UNL A   1      44.153  30.083  33.913  1.00  0.00     0.049 A 
ATOM     47  H   UNL A   1      42.434  30.962  33.130  1.00  0.00     0.167 HD
ATOM     48  C   UNL A   1      38.668  32.502  31.604  1.00  0.00     0.031 A 
ATOM     49  C   UNL A   1      44.374  30.638  35.122  1.00  0.00     0.031 A 
ATOM     50  C   UNL A   1      38.804  33.115  32.898  1.00  0.00     0.049 A 
ATOM     51  C   UNL A   1      43.404  31.653  35.674  1.00  0.00     0.074 A 
ATOM     52  C   UNL A   1      37.943  34.001  33.524  1.00  0.00     0.029 A 
ATOM     53  N   UNL A   1      39.866  32.913  33.764  1.00  0.00    -0.354 N 
ATOM     54  N   UNL A   1      42.278  32.085  35.158  1.00  0.00    -0.248 NA
ATOM     55  C   UNL A   1      43.730  32.246  36.981  1.00  0.00     0.031 C 
ATOM     56  C   UNL A   1      38.508  34.372  34.749  1.00  0.00     0.029 A 
ATOM     57  C   UNL A   1      39.693  33.673  34.910  1.00  0.00     0.049 A 
ATOM     58  H   UNL A   1      40.630  32.316  33.592  1.00  0.00     0.167 HD
ATOM     59  C   UNL A   1      41.751  32.976  36.089  1.00  0.00     0.074 A 
ATOM     60  C   UNL A   1      42.670  33.009  37.206  1.00  0.00     0.031 C 
ATOM     61  C   UNL A   1      40.607  33.700  36.022  1.00  0.00     0.031 A 
BRANCH  48  62
ATOM     62  C   UNL A   1      37.444  32.830  30.793  1.00  0.00    -0.014 A 
ATOM     63  C   UNL A   1      37.510  33.751  29.730  1.00  0.00     0.010 A 
ATOM     64  C   UNL A   1      36.229  32.172  31.056  1.00  0.00     0.010 A 
ATOM     65  C   UNL A   1      36.375  34.029  28.965  1.00  0.00     0.020 A 
ATOM     66  C   UNL A   1      35.098  32.431  30.277  1.00  0.00     0.020 A 
ATOM     67  C   UNL A   1      35.175  33.368  29.244  1.00  0.00     0.054 A 
BRANCH  67  68
ATOM     68  S   UNL A   1      33.725  33.726  28.214  1.00  0.00     0.124 S 
ATOM     69  O   UNL A   1      32.814  34.338  29.179  1.00  0.00    -0.237 OA
ATOM     70  O   UNL A   1      34.266  34.629  27.202  1.00  0.00    -0.237 OA
ATOM     71  O   UNL A   1      33.317  32.413  27.721  1.00  0.00    -0.744 OA
ENDBRANCH  67  68
ENDBRANCH  48  62
BRANCH  49  72
ATOM     72  C   UNL A   1      45.590  30.270  35.904  1.00  0.00    -0.014 A 
ATOM     73  C   UNL A   1      46.809  30.944  35.716  1.00  0.00     0.010 A 
ATOM     74  C   UNL A   1      45.536  29.197  36.813  1.00  0.00     0.010 A 
ATOM     75  C   UNL A   1      47.959  30.531  36.396  1.00  0.00     0.020 A 
ATOM     76  C   UNL A   1      46.675  28.799  37.515  1.00  0.00     0.020 A 
ATOM     77  C   UNL A   1      47.885  29.458  37.289  1.00  0.00     0.054 A 
BRANCH  77  78
ATOM     78  S   UNL A   1      49.381  28.946  38.179  1.00  0.00     0.124 S 
ATOM     79  O   UNL A   1      48.898  27.809  38.957  1.00  0.00    -0.237 OA
ATOM     80  O   UNL A   1      50.302  28.625  37.092  1.00  0.00    -0.237 OA
ATOM     81  O   UNL A   1      49.737  30.132  38.956  1.00  0.00    -0.744 OA
ENDBRANCH  77  78
ENDBRANCH  49  72
BRANCH  61  82
ATOM     82  C   UNL A   1      40.255  34.569  37.203  1.00  0.00    -0.014 A 
ATOM     83  C   UNL A   1      39.535  34.057  38.298  1.00  0.00     0.010 A 
ATOM     84  C   UNL A   1      40.702  35.903  37.243  1.00  0.00     0.010 A 
ATOM     85  C   UNL A   1      39.242  34.872  39.396  1.00  0.00     0.020 A 
ATOM     86  C   UNL A   1      40.433  36.712  38.351  1.00  0.00     0.020 A 
ATOM     87  C   UNL A   1      39.692  36.196  39.415  1.00  0.00     0.054 A 
BRANCH  87  88
ATOM     88  S   UNL A   1      39.335  37.220  40.870  1.00  0.00     0.124 S 
ATOM     89  O   UNL A   1      40.670  37.649  41.275  1.00  0.00    -0.237 OA
ATOM     90  O   UNL A   1      38.476  38.268  40.323  1.00  0.00    -0.237 OA
ATOM     91  O   UNL A   1      38.672  36.297  41.789  1.00  0.00    -0.744 OA
ENDBRANCH  87  88
ENDBRANCH  61  82
ENDBRANCH  35  36
ENDBRANCH  28  30
ENDBRANCH  27  28
ENDBRANCH  26  27
ENDBRANCH  25  26
ENDBRANCH   1  25
TORSDOF 21
ENDMDL
MODEL 3
REMARK VINA RESULT:      -8.5     10.096     16.123
REMARK SMILES C[C@H]1CCC[C@H](C)N1C(=O)C[N@@H+](CC(=O)OCCOCCOC(=O)c1ccc(-c2c3nc(c(-c4ccc(S(=O)(=O)[O-])cc4)c4ccc([nH]4)c(-c4ccc(S(=O)(=O)[O-])cc4)c4nc(c(-c5ccc(S(=O)(=O)[O-])cc5)c5ccc2[nH]5)C=C4)C=C3)cc1)C(C)(C)C
REMARK SMILES IDX 19 1 18 2 17 3 16 4 14 5 15 6 13 7 12 8 11 10 9 11 1 12 2 13
REMARK SMILES IDX 3 14 8 15 4 16 6 17 5 18 7 19 10 20 85 21 86 22 87 23 88 24
REMARK SMILES IDX 20 25 21 26 22 27 23 28 24 29 25 30 26 31 84 32 27 33 83 34
REMARK SMILES IDX 28 35 29 36 30 37 77 38 31 39 82 40 76 41 78 42 32 43 81 44
REMARK SMILES IDX 75 45 74 46 33 48 63 49 44 50 62 51 45 52 48 53 61 54 79 55
REMARK SMILES IDX 46 56 47 57 60 59 80 60 49 61 34 62 35 63 43 64 36 65 42 66
REMARK SMILES IDX 37 67 38 68 39 69 40 70 41 71 64 72 65 73 73 74 66 75 72 76
REMARK SMILES IDX 67 77 68 78 69 79 70 80 71 81 50 82 51 83 59 84 52 85 58 86
REMARK SMILES IDX 53 87 54 88 55 89 56 90 57 91
REMARK H PARENT 12 9 78 47 48 58
REMARK Flexibility Score: inf
ROOT
ATOM      1  O   UNL A   1      47.579  21.181  36.612  1.00  0.00    -0.374 OA
ENDROOT
BRANCH   1   2
ATOM      2  C   UNL A   1      46.551  20.662  37.459  1.00  0.00     0.202 C 
BRANCH   2   3
ATOM      3  C   UNL A   1      46.970  19.468  38.322  1.00  0.00     0.261 C 
BRANCH   3   4
ATOM      4  O   UNL A   1      45.883  18.939  39.118  1.00  0.00    -0.459 OA
BRANCH   4   5
ATOM      5  C   UNL A   1      46.203  17.975  40.020  1.00  0.00     0.361 C 
ATOM      6  O   UNL A   1      47.337  17.532  40.182  1.00  0.00    -0.245 OA
BRANCH   5   7
ATOM      7  C   UNL A   1      44.993  17.373  40.733  1.00  0.00     0.387 C 
BRANCH   7   8
ATOM      8  N   UNL A   1      45.006  17.220  42.218  1.00  0.00    -0.314 N 
ATOM      9  H   UNL A   1      45.958  16.969  42.491  1.00  0.00     0.349 HD
BRANCH   8  10
ATOM     10  C   UNL A   1      44.152  16.076  42.611  1.00  0.00     0.364 C 
BRANCH  10  11
ATOM     11  C   UNL A   1      44.776  15.118  43.624  1.00  0.00     0.278 C 
ATOM     12  C   UNL A   1      41.638  14.518  43.466  1.00  0.00     0.031 C 
ATOM     13  C   UNL A   1      42.687  13.589  44.064  1.00  0.00     0.082 C 
ATOM     14  C   UNL A   1      42.534  12.186  43.448  1.00  0.00     0.025 C 
ATOM     15  N   UNL A   1      44.119  13.988  44.116  1.00  0.00    -0.332 N 
ATOM     16  C   UNL A   1      43.427  11.147  44.123  1.00  0.00     0.004 C 
ATOM     17  C   UNL A   1      44.979  13.036  44.860  1.00  0.00     0.082 C 
ATOM     18  C   UNL A   1      44.866  11.626  44.262  1.00  0.00     0.025 C 
ATOM     19  C   UNL A   1      44.706  13.064  46.365  1.00  0.00     0.031 C 
ATOM     20  O   UNL A   1      45.932  15.386  43.992  1.00  0.00    -0.268 OA
ENDBRANCH  10  11
ENDBRANCH   8  10
BRANCH   8  21
ATOM     21  C   UNL A   1      44.953  18.462  43.038  1.00  0.00     0.090 C 
ATOM     22  C   UNL A   1      44.282  19.627  42.306  1.00  0.00     0.078 C 
ATOM     23  C   UNL A   1      44.139  18.279  44.338  1.00  0.00     0.078 C 
ATOM     24  C   UNL A   1      46.361  18.884  43.532  1.00  0.00     0.078 C 
ENDBRANCH   8  21
ENDBRANCH   7   8
ENDBRANCH   5   7
ENDBRANCH   4   5
ENDBRANCH   3   4
ENDBRANCH   2   3
ENDBRANCH   1   2
BRANCH   1  25
ATOM     25  C   UNL A   1      47.202  22.230  35.722  1.00  0.00     0.202 C 
BRANCH  25  26
ATOM     26  C   UNL A   1      47.555  23.640  36.224  1.00  0.00     0.261 C 
BRANCH  26  27
ATOM     27  O   UNL A   1      46.374  24.458  36.348  1.00  0.00    -0.460 OA
BRANCH  27  28
ATOM     28  C   UNL A   1      46.405  25.381  37.331  1.00  0.00     0.338 C 
ATOM     29  O   UNL A   1      47.105  25.351  38.335  1.00  0.00    -0.246 OA
BRANCH  28  30
ATOM     30  C   UNL A   1      45.624  26.573  36.940  1.00  0.00     0.060 A 
ATOM     31  C   UNL A   1      44.249  26.527  37.192  1.00  0.00     0.016 A 
ATOM     32  C   UNL A   1      46.178  27.672  36.274  1.00  0.00     0.016 A 
ATOM     33  C   UNL A   1      43.412  27.527  36.702  1.00  0.00     0.010 A 
ATOM     34  C   UNL A   1      45.328  28.681  35.781  1.00  0.00     0.010 A 
ATOM     35  C   UNL A   1      43.934  28.585  35.944  1.00  0.00    -0.014 A 
BRANCH  35  36
ATOM     36  C   UNL A   1      42.976  29.447  35.195  1.00  0.00     0.031 A 
ATOM     37  C   UNL A   1      42.554  29.039  33.804  1.00  0.00     0.074 A 
ATOM     38  C   UNL A   1      42.368  30.495  35.785  1.00  0.00     0.049 A 
ATOM     39  N   UNL A   1      41.617  29.545  33.041  1.00  0.00    -0.248 NA
ATOM     40  C   UNL A   1      43.269  27.902  33.201  1.00  0.00     0.031 C 
ATOM     41  C   UNL A   1      42.639  30.979  37.138  1.00  0.00     0.029 A 
ATOM     42  N   UNL A   1      41.372  31.324  35.327  1.00  0.00    -0.354 N 
ATOM     43  C   UNL A   1      41.613  28.775  31.882  1.00  0.00     0.074 A 
ATOM     44  C   UNL A   1      42.674  27.800  32.021  1.00  0.00     0.031 C 
ATOM     45  C   UNL A   1      41.817  32.011  37.405  1.00  0.00     0.029 A 
ATOM     46  C   UNL A   1      40.973  32.272  36.240  1.00  0.00     0.049 A 
ATOM     47  H   UNL A   1      40.979  31.245  34.427  1.00  0.00     0.167 HD
ATOM     48  C   UNL A   1      40.791  28.849  30.807  1.00  0.00     0.031 A 
ATOM     49  C   UNL A   1      40.038  33.240  36.151  1.00  0.00     0.031 A 
ATOM     50  C   UNL A   1      39.747  29.824  30.642  1.00  0.00     0.049 A 
ATOM     51  C   UNL A   1      39.197  33.362  34.905  1.00  0.00     0.074 A 
ATOM     52  C   UNL A   1      38.878  29.980  29.575  1.00  0.00     0.029 A 
ATOM     53  N   UNL A   1      39.430  30.810  31.561  1.00  0.00    -0.354 N 
ATOM     54  N   UNL A   1      39.191  32.605  33.834  1.00  0.00    -0.248 NA
ATOM     55  C   UNL A   1      38.223  34.466  34.864  1.00  0.00     0.031 C 
ATOM     56  C   UNL A   1      38.066  31.091  29.828  1.00  0.00     0.029 A 
ATOM     57  C   UNL A   1      38.393  31.592  31.077  1.00  0.00     0.049 A 
ATOM     58  H   UNL A   1      39.875  30.937  32.430  1.00  0.00     0.167 HD
ATOM     59  C   UNL A   1      38.198  33.124  33.008  1.00  0.00     0.074 A 
ATOM     60  C   UNL A   1      37.613  34.247  33.707  1.00  0.00     0.031 C 
ATOM     61  C   UNL A   1      37.808  32.705  31.778  1.00  0.00     0.031 A 
BRANCH  48  62
ATOM     62  C   UNL A   1      40.998  27.843  29.707  1.00  0.00    -0.014 A 
ATOM     63  C   UNL A   1      40.052  26.826  29.475  1.00  0.00     0.010 A 
ATOM     64  C   UNL A   1      42.116  27.946  28.862  1.00  0.00     0.010 A 
ATOM     65  C   UNL A   1      40.238  25.913  28.435  1.00  0.00     0.020 A 
ATOM     66  C   UNL A   1      42.293  27.048  27.805  1.00  0.00     0.020 A 
ATOM     67  C   UNL A   1      41.359  26.028  27.606  1.00  0.00     0.054 A 
BRANCH  67  68
ATOM     68  S   UNL A   1      41.559  24.847  26.244  1.00  0.00     0.124 S 
ATOM     69  O   UNL A   1      41.652  25.735  25.087  1.00  0.00    -0.237 OA
ATOM     70  O   UNL A   1      42.792  24.151  26.602  1.00  0.00    -0.237 OA
ATOM     71  O   UNL A   1      40.347  24.035  26.308  1.00  0.00    -0.744 OA
ENDBRANCH  67  68
ENDBRANCH  48  62
BRANCH  49  72
ATOM     72  C   UNL A   1      39.851  34.204  37.273  1.00  0.00    -0.014 A 
ATOM     73  C   UNL A   1      40.506  35.448  37.281  1.00  0.00     0.010 A 
ATOM     74  C   UNL A   1      39.043  33.851  38.370  1.00  0.00     0.010 A 
ATOM     75  C   UNL A   1      40.386  36.305  38.380  1.00  0.00     0.020 A 
ATOM     76  C   UNL A   1      38.897  34.716  39.456  1.00  0.00     0.020 A 
ATOM     77  C   UNL A   1      39.584  35.931  39.463  1.00  0.00     0.054 A 
BRANCH  77  78
ATOM     78  S   UNL A   1      39.422  37.061  40.873  1.00  0.00     0.124 S 
ATOM     79  O   UNL A   1      38.705  36.238  41.841  1.00  0.00    -0.237 OA
ATOM     80  O   UNL A   1      40.813  37.361  41.201  1.00  0.00    -0.237 OA
ATOM     81  O   UNL A   1      38.665  38.185  40.322  1.00  0.00    -0.744 OA
ENDBRANCH  77  78
ENDBRANCH  49  72
BRANCH  61  82
ATOM     82  C   UNL A   1      36.669  33.437  31.116  1.00  0.00    -0.014 A 
ATOM     83  C   UNL A   1      36.769  33.896  29.790  1.00  0.00     0.010 A 
ATOM     84  C   UNL A   1      35.459  33.617  31.811  1.00  0.00     0.010 A 
ATOM     85  C   UNL A   1      35.691  34.550  29.184  1.00  0.00     0.020 A 
ATOM     86  C   UNL A   1      34.371  34.246  31.200  1.00  0.00     0.020 A 
ATOM     87  C   UNL A   1      34.498  34.722  29.893  1.00  0.00     0.054 A 
BRANCH  87  88
ATOM     88  S   UNL A   1      33.100  35.535  29.070  1.00  0.00     0.124 S 
ATOM     89  O   UNL A   1      33.764  36.597  28.321  1.00  0.00    -0.237 OA
ATOM     90  O   UNL A   1      32.530  34.458  28.264  1.00  0.00    -0.237 OA
ATOM     91  O   UNL A   1      32.260  35.986  30.179  1.00  0.00    -0.744 OA
ENDBRANCH  87  88
ENDBRANCH  61  82
ENDBRANCH  35  36
ENDBRANCH  28  30
ENDBRANCH  27  28
ENDBRANCH  26  27
ENDBRANCH  25  26
ENDBRANCH   1  25
TORSDOF 21
ENDMDL
