MODEL 1
REMARK VINA RESULT:      -8.5      0.000      0.000
REMARK SMILES CC(C)(C)c1cc2c(cc1Cl)C=C(C(=O)OCCOCCOC(=O)c1ccc(-c3c4nc(c(-c5ccc(S(=O)(=O)[O-])cc5)c5ccc([nH]5)c(-c5ccc(S(=O)(=O)[O-])cc5)c5nc(c(-c6ccc(S(=O)(=O)[O-])cc6)c6ccc3[nH]6)C=C5)C=C4)cc1)[C@@H](C(F)(F)F)O2
REMARK SMILES IDX 20 1 19 2 18 3 17 4 16 5 14 6 15 7 13 8 5 9 6 10 10 11 7 12
REMARK SMILES IDX 9 13 11 14 8 15 90 16 12 17 85 18 2 19 1 20 3 21 4 22 86 23
REMARK SMILES IDX 87 24 88 25 89 26 21 27 22 28 23 29 24 30 25 31 26 32 84 33
REMARK SMILES IDX 27 34 83 35 28 36 29 37 30 38 77 39 31 40 82 41 76 42 78 43
REMARK SMILES IDX 32 44 81 45 75 46 74 47 33 49 63 50 44 51 62 52 45 53 48 54
REMARK SMILES IDX 61 55 79 56 46 57 47 58 60 60 80 61 49 62 34 63 35 64 43 65
REMARK SMILES IDX 36 66 42 67 37 68 38 69 39 70 40 71 41 72 64 73 65 74 73 75
REMARK SMILES IDX 66 76 72 77 67 78 68 79 69 80 70 81 71 82 50 83 51 84 59 85
REMARK SMILES IDX 52 86 58 87 53 88 54 89 55 90 56 91 57 92
REMARK H PARENT 78 48 48 59
REMARK Flexibility Score: inf
ROOT
ATOM      1  C   UNL A   1      42.173  21.383  26.107  1.00  0.00     0.202 C 
ENDROOT
BRANCH   1   2
ATOM      2  O   UNL A   1      42.570  22.481  25.288  1.00  0.00    -0.374 OA
BRANCH   2   3
ATOM      3  C   UNL A   1      43.600  23.347  25.760  1.00  0.00     0.202 C 
BRANCH   3   4
ATOM      4  C   UNL A   1      43.790  24.694  25.057  1.00  0.00     0.261 C 
BRANCH   4   5
ATOM      5  O   UNL A   1      43.860  25.788  25.984  1.00  0.00    -0.460 OA
BRANCH   5   6
ATOM      6  C   UNL A   1      43.664  27.002  25.420  1.00  0.00     0.338 C 
ATOM      7  O   UNL A   1      42.834  27.292  24.572  1.00  0.00    -0.246 OA
BRANCH   6   8
ATOM      8  C   UNL A   1      44.506  28.009  26.089  1.00  0.00     0.087 C 
ATOM      9  C   UNL A   1      46.155  32.465  27.817  1.00  0.00    -0.020 A 
ATOM     10  C   UNL A   1      46.750  31.214  27.487  1.00  0.00     0.053 A 
ATOM     11  C   UNL A   1      44.743  32.499  27.793  1.00  0.00     0.045 A 
ATOM     12  C   UNL A   1      46.003  30.089  27.124  1.00  0.00     0.128 A 
ATOM     13  C   UNL A   1      43.996  31.359  27.449  1.00  0.00     0.032 A 
ATOM     14  Cl  UNL A   1      43.763  33.892  28.085  1.00  0.00    -0.084 Cl
ATOM     15  C   UNL A   1      44.622  30.171  27.085  1.00  0.00     0.019 A 
ATOM     16  O   UNL A   1      46.702  28.961  26.803  1.00  0.00    -0.475 OA
ATOM     17  C   UNL A   1      43.841  29.068  26.568  1.00  0.00     0.027 C 
ATOM     18  C   UNL A   1      45.999  27.848  26.168  1.00  0.00     0.316 C 
BRANCH   9  19
ATOM     19  C   UNL A   1      47.099  33.673  28.054  1.00  0.00    -0.012 C 
ATOM     20  C   UNL A   1      48.495  33.275  27.523  1.00  0.00     0.016 C 
ATOM     21  C   UNL A   1      47.227  34.015  29.563  1.00  0.00     0.016 C 
ATOM     22  C   UNL A   1      46.706  35.007  27.382  1.00  0.00     0.016 C 
ENDBRANCH   9  19
BRANCH  18  23
ATOM     23  C   UNL A   1      46.638  27.591  24.795  1.00  0.00     0.430 C 
ATOM     24  F   UNL A   1      47.920  28.025  24.764  1.00  0.00    -0.167 F 
ATOM     25  F   UNL A   1      46.662  26.272  24.492  1.00  0.00    -0.167 F 
ATOM     26  F   UNL A   1      45.968  28.224  23.805  1.00  0.00    -0.167 F 
ENDBRANCH  18  23
ENDBRANCH   6   8
ENDBRANCH   5   6
ENDBRANCH   4   5
ENDBRANCH   3   4
ENDBRANCH   2   3
ENDBRANCH   1   2
BRANCH   1  27
ATOM     27  C   UNL A   1      40.701  20.948  26.101  1.00  0.00     0.261 C 
BRANCH  27  28
ATOM     28  O   UNL A   1      39.874  21.740  26.968  1.00  0.00    -0.460 OA
BRANCH  28  29
ATOM     29  C   UNL A   1      39.136  22.690  26.339  1.00  0.00     0.338 C 
ATOM     30  O   UNL A   1      38.262  22.512  25.505  1.00  0.00    -0.246 OA
BRANCH  29  31
ATOM     31  C   UNL A   1      39.395  23.998  26.968  1.00  0.00     0.060 A 
ATOM     32  C   UNL A   1      38.955  24.276  28.262  1.00  0.00     0.016 A 
ATOM     33  C   UNL A   1      40.132  24.947  26.246  1.00  0.00     0.016 A 
ATOM     34  C   UNL A   1      39.274  25.506  28.842  1.00  0.00     0.010 A 
ATOM     35  C   UNL A   1      40.448  26.175  26.827  1.00  0.00     0.010 A 
ATOM     36  C   UNL A   1      40.037  26.457  28.137  1.00  0.00    -0.014 A 
BRANCH  36  37
ATOM     37  C   UNL A   1      40.513  27.686  28.819  1.00  0.00     0.031 A 
ATOM     38  C   UNL A   1      41.908  27.793  29.360  1.00  0.00     0.074 A 
ATOM     39  C   UNL A   1      39.654  28.715  28.954  1.00  0.00     0.049 A 
ATOM     40  N   UNL A   1      42.492  28.827  29.909  1.00  0.00    -0.248 NA
ATOM     41  C   UNL A   1      42.757  26.594  29.279  1.00  0.00     0.031 C 
ATOM     42  C   UNL A   1      38.264  28.708  28.492  1.00  0.00     0.029 A 
ATOM     43  N   UNL A   1      39.817  29.965  29.498  1.00  0.00    -0.354 N 
ATOM     44  C   UNL A   1      43.781  28.415  30.221  1.00  0.00     0.074 A 
ATOM     45  C   UNL A   1      43.880  27.020  29.848  1.00  0.00     0.031 C 
ATOM     46  C   UNL A   1      37.716  29.907  28.733  1.00  0.00     0.029 A 
ATOM     47  C   UNL A   1      38.696  30.758  29.403  1.00  0.00     0.049 A 
ATOM     48  H   UNL A   1      40.656  30.265  29.917  1.00  0.00     0.167 HD
ATOM     49  C   UNL A   1      44.792  29.147  30.746  1.00  0.00     0.031 A 
ATOM     50  C   UNL A   1      38.477  32.028  29.802  1.00  0.00     0.031 A 
ATOM     51  C   UNL A   1      44.673  30.534  31.124  1.00  0.00     0.049 A 
ATOM     52  C   UNL A   1      39.605  32.803  30.424  1.00  0.00     0.074 A 
ATOM     53  C   UNL A   1      45.658  31.367  31.627  1.00  0.00     0.029 A 
ATOM     54  N   UNL A   1      43.513  31.291  31.048  1.00  0.00    -0.354 N 
ATOM     55  N   UNL A   1      40.844  32.424  30.632  1.00  0.00    -0.248 NA
ATOM     56  C   UNL A   1      39.318  34.179  30.852  1.00  0.00     0.031 C 
ATOM     57  C   UNL A   1      45.075  32.596  31.936  1.00  0.00     0.029 A 
ATOM     58  C   UNL A   1      43.749  32.567  31.535  1.00  0.00     0.049 A 
ATOM     59  H   UNL A   1      42.650  30.969  30.701  1.00  0.00     0.167 HD
ATOM     60  C   UNL A   1      41.488  33.521  31.192  1.00  0.00     0.074 A 
ATOM     61  C   UNL A   1      40.510  34.586  31.270  1.00  0.00     0.031 C 
ATOM     62  C   UNL A   1      42.775  33.630  31.607  1.00  0.00     0.031 A 
BRANCH  49  63
ATOM     63  C   UNL A   1      46.141  28.495  30.930  1.00  0.00    -0.014 A 
ATOM     64  C   UNL A   1      46.519  28.004  32.195  1.00  0.00     0.010 A 
ATOM     65  C   UNL A   1      47.097  28.526  29.898  1.00  0.00     0.010 A 
ATOM     66  C   UNL A   1      47.838  27.610  32.439  1.00  0.00     0.020 A 
ATOM     67  C   UNL A   1      48.408  28.103  30.130  1.00  0.00     0.020 A 
ATOM     68  C   UNL A   1      48.779  27.678  31.408  1.00  0.00     0.054 A 
BRANCH  68  69
ATOM     69  S   UNL A   1      50.501  27.234  31.766  1.00  0.00     0.124 S 
ATOM     70  O   UNL A   1      50.907  28.291  32.687  1.00  0.00    -0.237 OA
ATOM     71  O   UNL A   1      50.370  25.901  32.350  1.00  0.00    -0.237 OA
ATOM     72  O   UNL A   1      51.143  27.269  30.453  1.00  0.00    -0.744 OA
ENDBRANCH  68  69
ENDBRANCH  49  63
BRANCH  50  73
ATOM     73  C   UNL A   1      37.139  32.644  29.566  1.00  0.00    -0.014 A 
ATOM     74  C   UNL A   1      36.861  33.299  28.351  1.00  0.00     0.010 A 
ATOM     75  C   UNL A   1      36.168  32.653  30.581  1.00  0.00     0.010 A 
ATOM     76  C   UNL A   1      35.667  34.004  28.180  1.00  0.00     0.020 A 
ATOM     77  C   UNL A   1      34.953  33.325  30.400  1.00  0.00     0.020 A 
ATOM     78  C   UNL A   1      34.726  34.024  29.211  1.00  0.00     0.054 A 
BRANCH  78  79
ATOM     79  S   UNL A   1      33.212  34.996  28.987  1.00  0.00     0.124 S 
ATOM     80  O   UNL A   1      32.642  34.977  30.333  1.00  0.00    -0.237 OA
ATOM     81  O   UNL A   1      33.727  36.287  28.541  1.00  0.00    -0.237 OA
ATOM     82  O   UNL A   1      32.466  34.243  27.982  1.00  0.00    -0.744 OA
ENDBRANCH  78  79
ENDBRANCH  50  73
BRANCH  62  83
ATOM     83  C   UNL A   1      43.235  34.943  32.193  1.00  0.00    -0.014 A 
ATOM     84  C   UNL A   1      42.989  35.227  33.550  1.00  0.00     0.010 A 
ATOM     85  C   UNL A   1      43.768  35.953  31.373  1.00  0.00     0.010 A 
ATOM     86  C   UNL A   1      43.213  36.507  34.063  1.00  0.00     0.020 A 
ATOM     87  C   UNL A   1      44.030  37.225  31.891  1.00  0.00     0.020 A 
ATOM     88  C   UNL A   1      43.720  37.502  33.224  1.00  0.00     0.054 A 
BRANCH  88  89
ATOM     89  S   UNL A   1      43.944  39.174  33.891  1.00  0.00     0.124 S 
ATOM     90  O   UNL A   1      44.196  38.910  35.305  1.00  0.00    -0.237 OA
ATOM     91  O   UNL A   1      45.088  39.672  33.130  1.00  0.00    -0.237 OA
ATOM     92  O   UNL A   1      42.675  39.835  33.597  1.00  0.00    -0.744 OA
ENDBRANCH  88  89
ENDBRANCH  62  83
ENDBRANCH  36  37
ENDBRANCH  29  31
ENDBRANCH  28  29
ENDBRANCH  27  28
ENDBRANCH   1  27
TORSDOF 19
ENDMDL
MODEL 2
REMARK VINA RESULT:      -8.4      2.620      8.528
REMARK SMILES CC(C)(C)c1cc2c(cc1Cl)C=C(C(=O)OCCOCCOC(=O)c1ccc(-c3c4nc(c(-c5ccc(S(=O)(=O)[O-])cc5)c5ccc([nH]5)c(-c5ccc(S(=O)(=O)[O-])cc5)c5nc(c(-c6ccc(S(=O)(=O)[O-])cc6)c6ccc3[nH]6)C=C5)C=C4)cc1)[C@@H](C(F)(F)F)O2
REMARK SMILES IDX 20 1 19 2 18 3 17 4 16 5 14 6 15 7 13 8 5 9 6 10 10 11 7 12
REMARK SMILES IDX 9 13 11 14 8 15 90 16 12 17 85 18 2 19 1 20 3 21 4 22 86 23
REMARK SMILES IDX 87 24 88 25 89 26 21 27 22 28 23 29 24 30 25 31 26 32 84 33
REMARK SMILES IDX 27 34 83 35 28 36 29 37 30 38 77 39 31 40 82 41 76 42 78 43
REMARK SMILES IDX 32 44 81 45 75 46 74 47 33 49 63 50 44 51 62 52 45 53 48 54
REMARK SMILES IDX 61 55 79 56 46 57 47 58 60 60 80 61 49 62 34 63 35 64 43 65
REMARK SMILES IDX 36 66 42 67 37 68 38 69 39 70 40 71 41 72 64 73 65 74 73 75
REMARK SMILES IDX 66 76 72 77 67 78 68 79 69 80 70 81 71 82 50 83 51 84 59 85
REMARK SMILES IDX 52 86 58 87 53 88 54 89 55 90 56 91 57 92
REMARK H PARENT 78 48 48 59
REMARK Flexibility Score: inf
ROOT
ATOM      1  C   UNL A   1      41.510  18.972  26.608  1.00  0.00     0.202 C 
ENDROOT
BRANCH   1   2
ATOM      2  O   UNL A   1      42.866  19.414  26.576  1.00  0.00    -0.374 OA
BRANCH   2   3
ATOM      3  C   UNL A   1      43.614  19.232  25.375  1.00  0.00     0.202 C 
BRANCH   3   4
ATOM      4  C   UNL A   1      44.864  20.092  25.167  1.00  0.00     0.261 C 
BRANCH   4   5
ATOM      5  O   UNL A   1      44.586  21.285  24.417  1.00  0.00    -0.460 OA
BRANCH   5   6
ATOM      6  C   UNL A   1      43.905  22.226  25.111  1.00  0.00     0.338 C 
ATOM      7  O   UNL A   1      42.716  22.492  25.014  1.00  0.00    -0.246 OA
BRANCH   6   8
ATOM      8  C   UNL A   1      44.772  22.813  26.147  1.00  0.00     0.087 C 
ATOM      9  C   UNL A   1      46.256  25.458  30.192  1.00  0.00    -0.020 A 
ATOM     10  C   UNL A   1      46.873  24.985  28.999  1.00  0.00     0.053 A 
ATOM     11  C   UNL A   1      44.936  25.011  30.420  1.00  0.00     0.045 A 
ATOM     12  C   UNL A   1      46.217  24.157  28.081  1.00  0.00     0.128 A 
ATOM     13  C   UNL A   1      44.290  24.162  29.506  1.00  0.00     0.032 A 
ATOM     14  Cl  UNL A   1      43.928  25.476  31.745  1.00  0.00    -0.084 Cl
ATOM     15  C   UNL A   1      44.914  23.763  28.328  1.00  0.00     0.019 A 
ATOM     16  O   UNL A   1      46.916  23.800  26.963  1.00  0.00    -0.475 OA
ATOM     17  C   UNL A   1      44.170  23.036  27.322  1.00  0.00     0.027 C 
ATOM     18  C   UNL A   1      46.205  23.165  25.856  1.00  0.00     0.316 C 
BRANCH   9  19
ATOM     19  C   UNL A   1      47.037  26.490  31.047  1.00  0.00    -0.012 C 
ATOM     20  C   UNL A   1      46.376  27.869  30.823  1.00  0.00     0.016 C 
ATOM     21  C   UNL A   1      48.526  26.583  30.616  1.00  0.00     0.016 C 
ATOM     22  C   UNL A   1      47.086  26.238  32.570  1.00  0.00     0.016 C 
ENDBRANCH   9  19
BRANCH  18  23
ATOM     23  C   UNL A   1      46.353  24.053  24.611  1.00  0.00     0.430 C 
ATOM     24  F   UNL A   1      47.412  24.888  24.731  1.00  0.00    -0.167 F 
ATOM     25  F   UNL A   1      46.556  23.319  23.493  1.00  0.00    -0.167 F 
ATOM     26  F   UNL A   1      45.254  24.814  24.406  1.00  0.00    -0.167 F 
ENDBRANCH  18  23
ENDBRANCH   6   8
ENDBRANCH   5   6
ENDBRANCH   4   5
ENDBRANCH   3   4
ENDBRANCH   2   3
ENDBRANCH   1   2
BRANCH   1  27
ATOM     27  C   UNL A   1      40.408  19.922  26.123  1.00  0.00     0.261 C 
BRANCH  27  28
ATOM     28  O   UNL A   1      40.269  21.092  26.943  1.00  0.00    -0.460 OA
BRANCH  28  29
ATOM     29  C   UNL A   1      39.349  21.990  26.505  1.00  0.00     0.338 C 
ATOM     30  O   UNL A   1      38.270  21.745  25.987  1.00  0.00    -0.246 OA
BRANCH  29  31
ATOM     31  C   UNL A   1      39.747  23.341  26.940  1.00  0.00     0.060 A 
ATOM     32  C   UNL A   1      40.587  23.527  28.038  1.00  0.00     0.016 A 
ATOM     33  C   UNL A   1      39.291  24.438  26.196  1.00  0.00     0.016 A 
ATOM     34  C   UNL A   1      40.987  24.822  28.378  1.00  0.00     0.010 A 
ATOM     35  C   UNL A   1      39.691  25.729  26.539  1.00  0.00     0.010 A 
ATOM     36  C   UNL A   1      40.557  25.929  27.622  1.00  0.00    -0.014 A 
BRANCH  36  37
ATOM     37  C   UNL A   1      41.120  27.277  27.886  1.00  0.00     0.031 A 
ATOM     38  C   UNL A   1      40.294  28.365  28.506  1.00  0.00     0.074 A 
ATOM     39  C   UNL A   1      42.403  27.511  27.546  1.00  0.00     0.049 A 
ATOM     40  N   UNL A   1      40.667  29.565  28.868  1.00  0.00    -0.248 NA
ATOM     41  C   UNL A   1      38.871  28.077  28.747  1.00  0.00     0.031 C 
ATOM     42  C   UNL A   1      43.290  26.534  26.910  1.00  0.00     0.029 A 
ATOM     43  N   UNL A   1      43.191  28.626  27.697  1.00  0.00    -0.354 N 
ATOM     44  C   UNL A   1      39.537  30.171  29.401  1.00  0.00     0.074 A 
ATOM     45  C   UNL A   1      38.449  29.225  29.266  1.00  0.00     0.031 C 
ATOM     46  C   UNL A   1      44.507  27.076  26.766  1.00  0.00     0.029 A 
ATOM     47  C   UNL A   1      44.483  28.451  27.257  1.00  0.00     0.049 A 
ATOM     48  H   UNL A   1      42.862  29.470  28.083  1.00  0.00     0.167 HD
ATOM     49  C   UNL A   1      39.429  31.394  29.971  1.00  0.00     0.031 A 
ATOM     50  C   UNL A   1      45.535  29.296  27.253  1.00  0.00     0.031 A 
ATOM     51  C   UNL A   1      40.521  32.330  30.086  1.00  0.00     0.049 A 
ATOM     52  C   UNL A   1      45.376  30.665  27.852  1.00  0.00     0.074 A 
ATOM     53  C   UNL A   1      40.514  33.578  30.685  1.00  0.00     0.029 A 
ATOM     54  N   UNL A   1      41.804  32.133  29.595  1.00  0.00    -0.354 N 
ATOM     55  N   UNL A   1      44.321  31.190  28.430  1.00  0.00    -0.248 NA
ATOM     56  C   UNL A   1      46.546  31.553  27.817  1.00  0.00     0.031 C 
ATOM     57  C   UNL A   1      41.761  34.168  30.482  1.00  0.00     0.029 A 
ATOM     58  C   UNL A   1      42.581  33.254  29.841  1.00  0.00     0.049 A 
ATOM     59  H   UNL A   1      42.115  31.318  29.138  1.00  0.00     0.167 HD
ATOM     60  C   UNL A   1      44.707  32.458  28.847  1.00  0.00     0.074 A 
ATOM     61  C   UNL A   1      46.098  32.615  28.476  1.00  0.00     0.031 C 
ATOM     62  C   UNL A   1      43.970  33.406  29.477  1.00  0.00     0.031 A 
BRANCH  49  63
ATOM     63  C   UNL A   1      38.099  31.811  30.552  1.00  0.00    -0.014 A 
ATOM     64  C   UNL A   1      37.155  32.472  29.743  1.00  0.00     0.010 A 
ATOM     65  C   UNL A   1      37.859  31.704  31.934  1.00  0.00     0.010 A 
ATOM     66  C   UNL A   1      36.024  33.066  30.312  1.00  0.00     0.020 A 
ATOM     67  C   UNL A   1      36.714  32.269  32.501  1.00  0.00     0.020 A 
ATOM     68  C   UNL A   1      35.820  32.974  31.692  1.00  0.00     0.054 A 
BRANCH  68  69
ATOM     69  S   UNL A   1      34.387  33.816  32.420  1.00  0.00     0.124 S 
ATOM     70  O   UNL A   1      33.770  34.440  31.254  1.00  0.00    -0.237 OA
ATOM     71  O   UNL A   1      33.640  32.711  33.016  1.00  0.00    -0.237 OA
ATOM     72  O   UNL A   1      34.985  34.741  33.380  1.00  0.00    -0.744 OA
ENDBRANCH  68  69
ENDBRANCH  49  63
BRANCH  50  73
ATOM     73  C   UNL A   1      46.840  28.828  26.703  1.00  0.00    -0.014 A 
ATOM     74  C   UNL A   1      46.999  28.628  25.317  1.00  0.00     0.010 A 
ATOM     75  C   UNL A   1      47.902  28.498  27.563  1.00  0.00     0.010 A 
ATOM     76  C   UNL A   1      48.166  28.051  24.811  1.00  0.00     0.020 A 
ATOM     77  C   UNL A   1      49.088  27.955  27.056  1.00  0.00     0.020 A 
ATOM     78  C   UNL A   1      49.198  27.705  25.686  1.00  0.00     0.054 A 
BRANCH  78  79
ATOM     79  S   UNL A   1      50.676  26.902  25.010  1.00  0.00     0.124 S 
ATOM     80  O   UNL A   1      50.262  26.619  23.637  1.00  0.00    -0.237 OA
ATOM     81  O   UNL A   1      51.696  27.937  25.159  1.00  0.00    -0.237 OA
ATOM     82  O   UNL A   1      50.852  25.730  25.864  1.00  0.00    -0.744 OA
ENDBRANCH  78  79
ENDBRANCH  50  73
BRANCH  62  83
ATOM     83  C   UNL A   1      44.628  34.721  29.821  1.00  0.00    -0.014 A 
ATOM     84  C   UNL A   1      45.091  34.948  31.131  1.00  0.00     0.010 A 
ATOM     85  C   UNL A   1      44.647  35.782  28.899  1.00  0.00     0.010 A 
ATOM     86  C   UNL A   1      45.509  36.221  31.529  1.00  0.00     0.020 A 
ATOM     87  C   UNL A   1      45.100  37.049  29.282  1.00  0.00     0.020 A 
ATOM     88  C   UNL A   1      45.497  37.267  30.603  1.00  0.00     0.054 A 
BRANCH  88  89
ATOM     89  S   UNL A   1      45.982  38.925  31.155  1.00  0.00     0.124 S 
ATOM     90  O   UNL A   1      45.122  39.783  30.345  1.00  0.00    -0.237 OA
ATOM     91  O   UNL A   1      45.671  38.890  32.583  1.00  0.00    -0.237 OA
ATOM     92  O   UNL A   1      47.406  38.992  30.837  1.00  0.00    -0.744 OA
ENDBRANCH  88  89
ENDBRANCH  62  83
ENDBRANCH  36  37
ENDBRANCH  29  31
ENDBRANCH  28  29
ENDBRANCH  27  28
ENDBRANCH   1  27
TORSDOF 19
ENDMDL
MODEL 3
REMARK VINA RESULT:      -8.2      5.054     11.755
REMARK SMILES CC(C)(C)c1cc2c(cc1Cl)C=C(C(=O)OCCOCCOC(=O)c1ccc(-c3c4nc(c(-c5ccc(S(=O)(=O)[O-])cc5)c5ccc([nH]5)c(-c5ccc(S(=O)(=O)[O-])cc5)c5nc(c(-c6ccc(S(=O)(=O)[O-])cc6)c6ccc3[nH]6)C=C5)C=C4)cc1)[C@@H](C(F)(F)F)O2
REMARK SMILES IDX 20 1 19 2 18 3 17 4 16 5 14 6 15 7 13 8 5 9 6 10 10 11 7 12
REMARK SMILES IDX 9 13 11 14 8 15 90 16 12 17 85 18 2 19 1 20 3 21 4 22 86 23
REMARK SMILES IDX 87 24 88 25 89 26 21 27 22 28 23 29 24 30 25 31 26 32 84 33
REMARK SMILES IDX 27 34 83 35 28 36 29 37 30 38 77 39 31 40 82 41 76 42 78 43
REMARK SMILES IDX 32 44 81 45 75 46 74 47 33 49 63 50 44 51 62 52 45 53 48 54
REMARK SMILES IDX 61 55 79 56 46 57 47 58 60 60 80 61 49 62 34 63 35 64 43 65
REMARK SMILES IDX 36 66 42 67 37 68 38 69 39 70 40 71 41 72 64 73 65 74 73 75
REMARK SMILES IDX 66 76 72 77 67 78 68 79 69 80 70 81 71 82 50 83 51 84 59 85
REMARK SMILES IDX 52 86 58 87 53 88 54 89 55 90 56 91 57 92
REMARK H PARENT 78 48 48 59
REMARK Flexibility Score: inf
ROOT
ATOM      1  C   UNL A   1      34.060  32.337  28.346  1.00  0.00     0.202 C 
ENDROOT
BRANCH   1   2
ATOM      2  O   UNL A   1      33.455  31.754  27.194  1.00  0.00    -0.374 OA
BRANCH   2   3
ATOM      3  C   UNL A   1      32.728  30.537  27.347  1.00  0.00     0.202 C 
BRANCH   3   4
ATOM      4  C   UNL A   1      31.624  30.223  26.334  1.00  0.00     0.261 C 
BRANCH   4   5
ATOM      5  O   UNL A   1      32.150  29.779  25.074  1.00  0.00    -0.460 OA
BRANCH   5   6
ATOM      6  C   UNL A   1      31.346  28.914  24.413  1.00  0.00     0.338 C 
ATOM      7  O   UNL A   1      30.228  29.140  23.974  1.00  0.00    -0.246 OA
BRANCH   6   8
ATOM      8  C   UNL A   1      32.070  27.660  24.143  1.00  0.00     0.087 C 
ATOM      9  C   UNL A   1      34.855  23.505  24.876  1.00  0.00    -0.020 A 
ATOM     10  C   UNL A   1      34.549  24.347  23.769  1.00  0.00     0.053 A 
ATOM     11  C   UNL A   1      34.141  23.771  26.065  1.00  0.00     0.045 A 
ATOM     12  C   UNL A   1      33.629  25.399  23.845  1.00  0.00     0.128 A 
ATOM     13  C   UNL A   1      33.202  24.814  26.130  1.00  0.00     0.032 A 
ATOM     14  Cl  UNL A   1      34.356  22.953  27.573  1.00  0.00    -0.084 Cl
ATOM     15  C   UNL A   1      32.971  25.644  25.037  1.00  0.00     0.019 A 
ATOM     16  O   UNL A   1      33.452  26.147  22.716  1.00  0.00    -0.475 OA
ATOM     17  C   UNL A   1      32.134  26.815  25.180  1.00  0.00     0.027 C 
ATOM     18  C   UNL A   1      32.715  27.404  22.808  1.00  0.00     0.316 C 
BRANCH   9  19
ATOM     19  C   UNL A   1      36.002  22.475  24.702  1.00  0.00    -0.012 C 
ATOM     20  C   UNL A   1      37.083  22.809  25.755  1.00  0.00     0.016 C 
ATOM     21  C   UNL A   1      36.645  22.563  23.292  1.00  0.00     0.016 C 
ATOM     22  C   UNL A   1      35.631  20.985  24.870  1.00  0.00     0.016 C 
ENDBRANCH   9  19
BRANCH  18  23
ATOM     23  C   UNL A   1      33.647  28.547  22.376  1.00  0.00     0.430 C 
ATOM     24  F   UNL A   1      34.506  28.878  23.368  1.00  0.00    -0.167 F 
ATOM     25  F   UNL A   1      34.398  28.202  21.304  1.00  0.00    -0.167 F 
ATOM     26  F   UNL A   1      32.953  29.661  22.047  1.00  0.00    -0.167 F 
ENDBRANCH  18  23
ENDBRANCH   6   8
ENDBRANCH   5   6
ENDBRANCH   4   5
ENDBRANCH   3   4
ENDBRANCH   2   3
ENDBRANCH   1   2
BRANCH   1  27
ATOM     27  C   UNL A   1      35.589  32.312  28.473  1.00  0.00     0.261 C 
BRANCH  27  28
ATOM     28  O   UNL A   1      36.056  31.436  29.511  1.00  0.00    -0.460 OA
BRANCH  28  29
ATOM     29  C   UNL A   1      36.258  30.150  29.123  1.00  0.00     0.338 C 
ATOM     30  O   UNL A   1      35.406  29.330  28.818  1.00  0.00    -0.246 OA
BRANCH  29  31
ATOM     31  C   UNL A   1      37.701  29.930  28.915  1.00  0.00     0.060 A 
ATOM     32  C   UNL A   1      38.590  29.910  29.990  1.00  0.00     0.016 A 
ATOM     33  C   UNL A   1      38.156  29.702  27.609  1.00  0.00     0.016 A 
ATOM     34  C   UNL A   1      39.940  29.639  29.753  1.00  0.00     0.010 A 
ATOM     35  C   UNL A   1      39.504  29.433  27.375  1.00  0.00     0.010 A 
ATOM     36  C   UNL A   1      40.403  29.381  28.449  1.00  0.00    -0.014 A 
BRANCH  36  37
ATOM     37  C   UNL A   1      41.800  28.929  28.229  1.00  0.00     0.031 A 
ATOM     38  C   UNL A   1      42.121  27.500  27.903  1.00  0.00     0.074 A 
ATOM     39  C   UNL A   1      42.790  29.837  28.338  1.00  0.00     0.049 A 
ATOM     40  N   UNL A   1      43.280  26.972  27.609  1.00  0.00    -0.248 NA
ATOM     41  C   UNL A   1      41.005  26.540  27.912  1.00  0.00     0.031 C 
ATOM     42  C   UNL A   1      42.594  31.248  28.680  1.00  0.00     0.029 A 
ATOM     43  N   UNL A   1      44.147  29.723  28.160  1.00  0.00    -0.354 N 
ATOM     44  C   UNL A   1      43.037  25.625  27.374  1.00  0.00     0.074 A 
ATOM     45  C   UNL A   1      41.626  25.404  27.613  1.00  0.00     0.031 C 
ATOM     46  C   UNL A   1      43.778  31.875  28.644  1.00  0.00     0.029 A 
ATOM     47  C   UNL A   1      44.825  30.910  28.320  1.00  0.00     0.049 A 
ATOM     48  H   UNL A   1      44.592  28.873  27.939  1.00  0.00     0.167 HD
ATOM     49  C   UNL A   1      43.910  24.672  26.973  1.00  0.00     0.031 A 
ATOM     50  C   UNL A   1      46.139  31.196  28.212  1.00  0.00     0.031 A 
ATOM     51  C   UNL A   1      45.316  24.907  26.751  1.00  0.00     0.049 A 
ATOM     52  C   UNL A   1      47.093  30.108  27.809  1.00  0.00     0.074 A 
ATOM     53  C   UNL A   1      46.270  24.008  26.304  1.00  0.00     0.029 A 
ATOM     54  N   UNL A   1      45.973  26.111  26.961  1.00  0.00    -0.354 N 
ATOM     55  N   UNL A   1      46.832  28.858  27.507  1.00  0.00    -0.248 NA
ATOM     56  C   UNL A   1      48.516  30.464  27.714  1.00  0.00     0.031 C 
ATOM     57  C   UNL A   1      47.513  24.641  26.326  1.00  0.00     0.029 A 
ATOM     58  C   UNL A   1      47.325  25.965  26.692  1.00  0.00     0.049 A 
ATOM     59  H   UNL A   1      45.542  26.945  27.257  1.00  0.00     0.167 HD
ATOM     60  C   UNL A   1      48.052  28.286  27.164  1.00  0.00     0.074 A 
ATOM     61  C   UNL A   1      49.049  29.331  27.273  1.00  0.00     0.031 C 
ATOM     62  C   UNL A   1      48.317  27.008  26.796  1.00  0.00     0.031 A 
BRANCH  49  63
ATOM     63  C   UNL A   1      43.394  23.278  26.709  1.00  0.00    -0.014 A 
ATOM     64  C   UNL A   1      42.922  22.489  27.776  1.00  0.00     0.010 A 
ATOM     65  C   UNL A   1      43.539  22.691  25.439  1.00  0.00     0.010 A 
ATOM     66  C   UNL A   1      42.658  21.129  27.591  1.00  0.00     0.020 A 
ATOM     67  C   UNL A   1      43.245  21.338  25.243  1.00  0.00     0.020 A 
ATOM     68  C   UNL A   1      42.837  20.559  26.328  1.00  0.00     0.054 A 
BRANCH  68  69
ATOM     69  S   UNL A   1      42.562  18.777  26.127  1.00  0.00     0.124 S 
ATOM     70  O   UNL A   1      42.889  18.262  27.452  1.00  0.00    -0.237 OA
ATOM     71  O   UNL A   1      41.151  18.714  25.754  1.00  0.00    -0.237 OA
ATOM     72  O   UNL A   1      43.495  18.404  25.065  1.00  0.00    -0.744 OA
ENDBRANCH  68  69
ENDBRANCH  49  63
BRANCH  50  73
ATOM     73  C   UNL A   1      46.599  32.596  28.445  1.00  0.00    -0.014 A 
ATOM     74  C   UNL A   1      46.917  33.035  29.746  1.00  0.00     0.010 A 
ATOM     75  C   UNL A   1      46.640  33.520  27.387  1.00  0.00     0.010 A 
ATOM     76  C   UNL A   1      47.204  34.379  29.993  1.00  0.00     0.020 A 
ATOM     77  C   UNL A   1      46.965  34.861  27.625  1.00  0.00     0.020 A 
ATOM     78  C   UNL A   1      47.213  35.286  28.932  1.00  0.00     0.054 A 
BRANCH  78  79
ATOM     79  S   UNL A   1      47.530  37.036  29.288  1.00  0.00     0.124 S 
ATOM     80  O   UNL A   1      47.961  37.534  27.984  1.00  0.00    -0.237 OA
ATOM     81  O   UNL A   1      46.224  37.508  29.741  1.00  0.00    -0.237 OA
ATOM     82  O   UNL A   1      48.566  36.995  30.317  1.00  0.00    -0.744 OA
ENDBRANCH  78  79
ENDBRANCH  50  73
BRANCH  62  83
ATOM     83  C   UNL A   1      49.744  26.631  26.476  1.00  0.00    -0.014 A 
ATOM     84  C   UNL A   1      50.248  26.840  25.178  1.00  0.00     0.010 A 
ATOM     85  C   UNL A   1      50.532  25.931  27.408  1.00  0.00     0.010 A 
ATOM     86  C   UNL A   1      51.485  26.312  24.800  1.00  0.00     0.020 A 
ATOM     87  C   UNL A   1      51.787  25.433  27.044  1.00  0.00     0.020 A 
ATOM     88  C   UNL A   1      52.240  25.599  25.734  1.00  0.00     0.054 A 
BRANCH  88  89
ATOM     89  S   UNL A   1      53.813  24.866  25.206  1.00  0.00     0.124 S 
ATOM     90  O   UNL A   1      53.461  23.458  25.055  1.00  0.00    -0.237 OA
ATOM     91  O   UNL A   1      54.098  25.581  23.963  1.00  0.00    -0.237 OA
ATOM     92  O   UNL A   1      54.722  25.167  26.310  1.00  0.00    -0.744 OA
ENDBRANCH  88  89
ENDBRANCH  62  83
ENDBRANCH  36  37
ENDBRANCH  29  31
ENDBRANCH  28  29
ENDBRANCH  27  28
ENDBRANCH   1  27
TORSDOF 19
ENDMDL
