MODEL 1
REMARK VINA RESULT:     -10.4      0.000      0.000
REMARK SMILES NS(=O)(=O)c1ccc(/N=N/c2ccc(O)c(C(=O)OCCOCCOC(=O)c3ccc(-c4c5nc(c(-c6ccc(S(=O)(=O)[O-])cc6)c6ccc([nH]6)c(-c6ccc(S(=O)(=O)[O-])cc6)c6nc(c(-c7ccc(S(=O)(=O)[O-])cc7)c7ccc4[nH]7)C=C6)C=C5)cc3)c2)cc1
REMARK SMILES IDX 21 1 20 2 19 3 17 4 18 5 16 6 11 7 12 8 88 9 13 10 14 11
REMARK SMILES IDX 10 12 9 13 8 14 5 15 6 16 90 17 7 18 89 19 2 20 3 21 4 22
REMARK SMILES IDX 1 23 15 26 22 28 23 29 24 30 25 31 26 32 27 33 28 34 29 35
REMARK SMILES IDX 87 36 30 37 86 38 31 39 32 40 33 41 80 42 34 43 85 44 79 45
REMARK SMILES IDX 81 46 35 47 84 48 78 49 77 50 36 52 66 53 47 54 65 55 48 56
REMARK SMILES IDX 51 57 64 58 82 59 49 60 50 61 63 63 83 64 52 65 37 66 38 67
REMARK SMILES IDX 46 68 39 69 45 70 40 71 41 72 42 73 43 74 44 75 67 76 68 77
REMARK SMILES IDX 76 78 69 79 75 80 70 81 71 82 72 83 73 84 74 85 53 86 54 87
REMARK SMILES IDX 62 88 55 89 61 90 56 91 57 92 58 93 59 94 60 95
REMARK H PARENT 1 24 1 25 15 27 81 51 51 62
REMARK Flexibility Score: inf
ROOT
ATOM      1  C   UNL A   1      44.942  20.231  24.589  1.00  0.00     0.202 C 
ENDROOT
BRANCH   1   2
ATOM      2  C   UNL A   1      44.167  18.984  25.027  1.00  0.00     0.261 C 
BRANCH   2   3
ATOM      3  O   UNL A   1      42.768  19.276  25.184  1.00  0.00    -0.460 OA
BRANCH   3   4
ATOM      4  C   UNL A   1      42.307  19.214  26.454  1.00  0.00     0.342 C 
ATOM      5  O   UNL A   1      42.688  18.461  27.341  1.00  0.00    -0.246 OA
BRANCH   4   6
ATOM      6  C   UNL A   1      41.405  20.351  26.746  1.00  0.00     0.104 A 
ATOM      7  C   UNL A   1      39.381  21.642  26.347  1.00  0.00     0.087 A 
ATOM      8  C   UNL A   1      39.843  22.607  27.254  1.00  0.00     0.034 A 
ATOM      9  C   UNL A   1      40.176  20.513  26.092  1.00  0.00     0.049 A 
ATOM     10  C   UNL A   1      41.069  22.455  27.903  1.00  0.00     0.049 A 
ATOM     11  C   UNL A   1      41.846  21.331  27.648  1.00  0.00     0.130 A 
BRANCH   7  12
ATOM     12  N   UNL A   1      38.179  21.901  25.663  1.00  0.00    -0.151 NA
ATOM     13  N   UNL A   1      37.907  23.119  25.632  1.00  0.00    -0.151 NA
BRANCH  13  14
ATOM     14  C   UNL A   1      36.717  23.395  24.918  1.00  0.00     0.086 A 
ATOM     15  C   UNL A   1      34.346  24.105  23.573  1.00  0.00     0.082 A 
ATOM     16  C   UNL A   1      34.598  24.610  24.850  1.00  0.00     0.024 A 
ATOM     17  C   UNL A   1      35.258  23.240  22.964  1.00  0.00     0.024 A 
ATOM     18  C   UNL A   1      35.779  24.254  25.511  1.00  0.00     0.031 A 
ATOM     19  C   UNL A   1      36.438  22.898  23.632  1.00  0.00     0.031 A 
BRANCH  15  20
ATOM     20  S   UNL A   1      32.863  24.525  22.705  1.00  0.00     0.238 S 
ATOM     21  O   UNL A   1      31.941  23.418  22.813  1.00  0.00    -0.207 OA
ATOM     22  O   UNL A   1      33.233  25.102  21.434  1.00  0.00    -0.207 OA
BRANCH  20  23
ATOM     23  N   UNL A   1      32.190  25.760  23.615  1.00  0.00    -0.225 NA
ATOM     24  H   UNL A   1      31.388  26.149  23.119  1.00  0.00     0.137 HD
ATOM     25  H   UNL A   1      32.886  26.490  23.763  1.00  0.00     0.137 HD
ENDBRANCH  20  23
ENDBRANCH  15  20
ENDBRANCH  13  14
ENDBRANCH   7  12
BRANCH  11  26
ATOM     26  O   UNL A   1      43.054  21.277  28.292  1.00  0.00    -0.507 OA
ATOM     27  H   UNL A   1      43.395  20.452  28.579  1.00  0.00     0.293 HD
ENDBRANCH  11  26
ENDBRANCH   4   6
ENDBRANCH   3   4
ENDBRANCH   2   3
ENDBRANCH   1   2
BRANCH   1  28
ATOM     28  O   UNL A   1      44.152  21.404  24.385  1.00  0.00    -0.374 OA
BRANCH  28  29
ATOM     29  C   UNL A   1      44.406  22.504  25.263  1.00  0.00     0.202 C 
BRANCH  29  30
ATOM     30  C   UNL A   1      43.405  23.664  25.189  1.00  0.00     0.261 C 
BRANCH  30  31
ATOM     31  O   UNL A   1      43.462  24.482  26.372  1.00  0.00    -0.460 OA
BRANCH  31  32
ATOM     32  C   UNL A   1      43.621  25.811  26.151  1.00  0.00     0.338 C 
ATOM     33  O   UNL A   1      44.003  26.347  25.126  1.00  0.00    -0.246 OA
BRANCH  32  34
ATOM     34  C   UNL A   1      43.061  26.563  27.291  1.00  0.00     0.060 A 
ATOM     35  C   UNL A   1      43.558  27.851  27.526  1.00  0.00     0.016 A 
ATOM     36  C   UNL A   1      42.089  26.013  28.130  1.00  0.00     0.016 A 
ATOM     37  C   UNL A   1      43.098  28.590  28.616  1.00  0.00     0.010 A 
ATOM     38  C   UNL A   1      41.639  26.750  29.230  1.00  0.00     0.010 A 
ATOM     39  C   UNL A   1      42.153  28.034  29.489  1.00  0.00    -0.014 A 
BRANCH  39  40
ATOM     40  C   UNL A   1      41.763  28.755  30.724  1.00  0.00     0.031 A 
ATOM     41  C   UNL A   1      40.560  29.656  30.702  1.00  0.00     0.074 A 
ATOM     42  C   UNL A   1      42.484  28.616  31.851  1.00  0.00     0.049 A 
ATOM     43  N   UNL A   1      40.100  30.440  31.642  1.00  0.00    -0.248 NA
ATOM     44  C   UNL A   1      39.775  29.676  29.458  1.00  0.00     0.031 C 
ATOM     45  C   UNL A   1      43.644  27.738  32.009  1.00  0.00     0.029 A 
ATOM     46  N   UNL A   1      42.354  29.226  33.073  1.00  0.00    -0.354 N 
ATOM     47  C   UNL A   1      38.977  31.056  31.101  1.00  0.00     0.074 A 
ATOM     48  C   UNL A   1      38.837  30.568  29.746  1.00  0.00     0.031 C 
ATOM     49  C   UNL A   1      44.133  27.883  33.253  1.00  0.00     0.029 A 
ATOM     50  C   UNL A   1      43.345  28.889  33.964  1.00  0.00     0.049 A 
ATOM     51  H   UNL A   1      41.621  29.845  33.291  1.00  0.00     0.167 HD
ATOM     52  C   UNL A   1      38.141  31.950  31.682  1.00  0.00     0.031 A 
ATOM     53  C   UNL A   1      43.611  29.364  35.197  1.00  0.00     0.031 A 
ATOM     54  C   UNL A   1      38.294  32.448  33.024  1.00  0.00     0.049 A 
ATOM     55  C   UNL A   1      42.717  30.422  35.789  1.00  0.00     0.074 A 
ATOM     56  C   UNL A   1      37.486  33.338  33.707  1.00  0.00     0.029 A 
ATOM     57  N   UNL A   1      39.331  32.111  33.879  1.00  0.00    -0.354 N 
ATOM     58  N   UNL A   1      41.645  30.976  35.276  1.00  0.00    -0.248 NA
ATOM     59  C   UNL A   1      43.072  30.921  37.126  1.00  0.00     0.031 C 
ATOM     60  C   UNL A   1      38.067  33.586  34.956  1.00  0.00     0.029 A 
ATOM     61  C   UNL A   1      39.205  32.803  35.072  1.00  0.00     0.049 A 
ATOM     62  H   UNL A   1      40.051  31.473  33.671  1.00  0.00     0.167 HD
ATOM     63  C   UNL A   1      41.188  31.875  36.235  1.00  0.00     0.074 A 
ATOM     64  C   UNL A   1      42.089  31.779  37.363  1.00  0.00     0.031 C 
ATOM     65  C   UNL A   1      40.116  32.705  36.183  1.00  0.00     0.031 A 
BRANCH  52  66
ATOM     66  C   UNL A   1      37.004  32.482  30.851  1.00  0.00    -0.014 A 
ATOM     67  C   UNL A   1      35.816  31.746  30.685  1.00  0.00     0.010 A 
ATOM     68  C   UNL A   1      37.109  33.756  30.266  1.00  0.00     0.010 A 
ATOM     69  C   UNL A   1      34.767  32.265  29.920  1.00  0.00     0.020 A 
ATOM     70  C   UNL A   1      36.053  34.287  29.521  1.00  0.00     0.020 A 
ATOM     71  C   UNL A   1      34.893  33.531  29.341  1.00  0.00     0.054 A 
BRANCH  71  72
ATOM     72  S   UNL A   1      33.505  34.190  28.375  1.00  0.00     0.124 S 
ATOM     73  O   UNL A   1      34.184  35.109  27.464  1.00  0.00    -0.237 OA
ATOM     74  O   UNL A   1      32.948  32.990  27.758  1.00  0.00    -0.237 OA
ATOM     75  O   UNL A   1      32.654  34.824  29.379  1.00  0.00    -0.744 OA
ENDBRANCH  71  72
ENDBRANCH  52  66
BRANCH  53  76
ATOM     76  C   UNL A   1      44.804  28.875  35.939  1.00  0.00    -0.014 A 
ATOM     77  C   UNL A   1      44.726  27.741  36.764  1.00  0.00     0.010 A 
ATOM     78  C   UNL A   1      46.032  29.552  35.820  1.00  0.00     0.010 A 
ATOM     79  C   UNL A   1      45.850  27.299  37.468  1.00  0.00     0.020 A 
ATOM     80  C   UNL A   1      47.165  29.099  36.500  1.00  0.00     0.020 A 
ATOM     81  C   UNL A   1      47.063  27.980  37.329  1.00  0.00     0.054 A 
BRANCH  81  82
ATOM     82  S   UNL A   1      48.525  27.359  38.207  1.00  0.00     0.124 S 
ATOM     83  O   UNL A   1      48.762  26.085  37.535  1.00  0.00    -0.237 OA
ATOM     84  O   UNL A   1      49.512  28.404  37.952  1.00  0.00    -0.237 OA
ATOM     85  O   UNL A   1      48.074  27.265  39.593  1.00  0.00    -0.744 OA
ENDBRANCH  81  82
ENDBRANCH  53  76
BRANCH  65  86
ATOM     86  C   UNL A   1      39.848  33.568  37.388  1.00  0.00    -0.014 A 
ATOM     87  C   UNL A   1      40.425  34.845  37.509  1.00  0.00     0.010 A 
ATOM     88  C   UNL A   1      38.960  33.120  38.382  1.00  0.00     0.010 A 
ATOM     89  C   UNL A   1      40.137  35.648  38.616  1.00  0.00     0.020 A 
ATOM     90  C   UNL A   1      38.650  33.931  39.477  1.00  0.00     0.020 A 
ATOM     91  C   UNL A   1      39.250  35.186  39.593  1.00  0.00     0.054 A 
BRANCH  91  92
ATOM     92  S   UNL A   1      38.855  36.267  40.995  1.00  0.00     0.124 S 
ATOM     93  O   UNL A   1      40.115  36.281  41.732  1.00  0.00    -0.237 OA
ATOM     94  O   UNL A   1      38.495  37.523  40.340  1.00  0.00    -0.237 OA
ATOM     95  O   UNL A   1      37.750  35.581  41.661  1.00  0.00    -0.744 OA
ENDBRANCH  91  92
ENDBRANCH  65  86
ENDBRANCH  39  40
ENDBRANCH  32  34
ENDBRANCH  31  32
ENDBRANCH  30  31
ENDBRANCH  29  30
ENDBRANCH  28  29
ENDBRANCH   1  28
TORSDOF 22
ENDMDL
MODEL 2
REMARK VINA RESULT:     -10.1      2.834      9.160
REMARK SMILES NS(=O)(=O)c1ccc(/N=N/c2ccc(O)c(C(=O)OCCOCCOC(=O)c3ccc(-c4c5nc(c(-c6ccc(S(=O)(=O)[O-])cc6)c6ccc([nH]6)c(-c6ccc(S(=O)(=O)[O-])cc6)c6nc(c(-c7ccc(S(=O)(=O)[O-])cc7)c7ccc4[nH]7)C=C6)C=C5)cc3)c2)cc1
REMARK SMILES IDX 21 1 20 2 19 3 17 4 18 5 16 6 11 7 12 8 88 9 13 10 14 11
REMARK SMILES IDX 10 12 9 13 8 14 5 15 6 16 90 17 7 18 89 19 2 20 3 21 4 22
REMARK SMILES IDX 1 23 15 26 22 28 23 29 24 30 25 31 26 32 27 33 28 34 29 35
REMARK SMILES IDX 87 36 30 37 86 38 31 39 32 40 33 41 80 42 34 43 85 44 79 45
REMARK SMILES IDX 81 46 35 47 84 48 78 49 77 50 36 52 66 53 47 54 65 55 48 56
REMARK SMILES IDX 51 57 64 58 82 59 49 60 50 61 63 63 83 64 52 65 37 66 38 67
REMARK SMILES IDX 46 68 39 69 45 70 40 71 41 72 42 73 43 74 44 75 67 76 68 77
REMARK SMILES IDX 76 78 69 79 75 80 70 81 71 82 72 83 73 84 74 85 53 86 54 87
REMARK SMILES IDX 62 88 55 89 61 90 56 91 57 92 58 93 59 94 60 95
REMARK H PARENT 1 24 1 25 15 27 81 51 51 62
REMARK Flexibility Score: inf
ROOT
ATOM      1  C   UNL A   1      37.833  22.561  25.726  1.00  0.00     0.202 C 
ENDROOT
BRANCH   1   2
ATOM      2  C   UNL A   1      36.616  21.698  25.380  1.00  0.00     0.261 C 
BRANCH   2   3
ATOM      3  O   UNL A   1      35.398  22.329  25.811  1.00  0.00    -0.460 OA
BRANCH   3   4
ATOM      4  C   UNL A   1      34.499  22.572  24.831  1.00  0.00     0.342 C 
ATOM      5  O   UNL A   1      34.570  22.219  23.661  1.00  0.00    -0.246 OA
BRANCH   4   6
ATOM      6  C   UNL A   1      33.253  23.147  25.386  1.00  0.00     0.104 A 
ATOM      7  C   UNL A   1      31.559  24.891  25.503  1.00  0.00     0.087 A 
ATOM      8  C   UNL A   1      30.984  24.229  26.598  1.00  0.00     0.034 A 
ATOM      9  C   UNL A   1      32.704  24.343  24.903  1.00  0.00     0.049 A 
ATOM     10  C   UNL A   1      31.529  23.042  27.088  1.00  0.00     0.049 A 
ATOM     11  C   UNL A   1      32.660  22.505  26.484  1.00  0.00     0.130 A 
BRANCH   7  12
ATOM     12  N   UNL A   1      31.010  26.128  25.116  1.00  0.00    -0.151 NA
ATOM     13  N   UNL A   1      30.400  26.054  24.030  1.00  0.00    -0.151 NA
BRANCH  13  14
ATOM     14  C   UNL A   1      29.815  27.284  23.647  1.00  0.00     0.086 A 
ATOM     15  C   UNL A   1      28.800  29.768  22.792  1.00  0.00     0.082 A 
ATOM     16  C   UNL A   1      30.173  29.610  22.991  1.00  0.00     0.024 A 
ATOM     17  C   UNL A   1      27.926  28.705  23.027  1.00  0.00     0.024 A 
ATOM     18  C   UNL A   1      30.670  28.372  23.414  1.00  0.00     0.031 A 
ATOM     19  C   UNL A   1      28.436  27.471  23.442  1.00  0.00     0.031 A 
BRANCH  15  20
ATOM     20  S   UNL A   1      28.129  31.318  22.264  1.00  0.00     0.238 S 
ATOM     21  O   UNL A   1      27.219  31.793  23.281  1.00  0.00    -0.207 OA
ATOM     22  O   UNL A   1      27.744  31.192  20.878  1.00  0.00    -0.207 OA
BRANCH  20  23
ATOM     23  N   UNL A   1      29.435  32.367  22.307  1.00  0.00    -0.225 NA
ATOM     24  H   UNL A   1      30.190  31.993  21.733  1.00  0.00     0.137 HD
ATOM     25  H   UNL A   1      29.757  32.468  23.269  1.00  0.00     0.137 HD
ENDBRANCH  20  23
ENDBRANCH  15  20
ENDBRANCH  13  14
ENDBRANCH   7  12
BRANCH  11  26
ATOM     26  O   UNL A   1      33.158  21.361  27.049  1.00  0.00    -0.507 OA
ATOM     27  H   UNL A   1      34.003  21.367  27.455  1.00  0.00     0.293 HD
ENDBRANCH  11  26
ENDBRANCH   4   6
ENDBRANCH   3   4
ENDBRANCH   2   3
ENDBRANCH   1   2
BRANCH   1  28
ATOM     28  O   UNL A   1      39.072  21.858  25.840  1.00  0.00    -0.374 OA
BRANCH  28  29
ATOM     29  C   UNL A   1      39.973  22.314  26.854  1.00  0.00     0.202 C 
BRANCH  29  30
ATOM     30  C   UNL A   1      41.454  22.364  26.460  1.00  0.00     0.261 C 
BRANCH  30  31
ATOM     31  O   UNL A   1      42.151  23.401  27.174  1.00  0.00    -0.460 OA
BRANCH  31  32
ATOM     32  C   UNL A   1      42.181  24.610  26.559  1.00  0.00     0.338 C 
ATOM     33  O   UNL A   1      42.291  24.827  25.366  1.00  0.00    -0.246 OA
BRANCH  32  34
ATOM     34  C   UNL A   1      41.852  25.662  27.541  1.00  0.00     0.060 A 
ATOM     35  C   UNL A   1      42.752  26.726  27.678  1.00  0.00     0.016 A 
ATOM     36  C   UNL A   1      40.701  25.600  28.330  1.00  0.00     0.016 A 
ATOM     37  C   UNL A   1      42.515  27.725  28.622  1.00  0.00     0.010 A 
ATOM     38  C   UNL A   1      40.473  26.595  29.285  1.00  0.00     0.010 A 
ATOM     39  C   UNL A   1      41.386  27.653  29.448  1.00  0.00    -0.014 A 
BRANCH  39  40
ATOM     40  C   UNL A   1      41.200  28.632  30.545  1.00  0.00     0.031 A 
ATOM     41  C   UNL A   1      42.054  28.530  31.778  1.00  0.00     0.074 A 
ATOM     42  C   UNL A   1      40.266  29.597  30.447  1.00  0.00     0.049 A 
ATOM     43  N   UNL A   1      41.995  29.226  32.882  1.00  0.00    -0.248 NA
ATOM     44  C   UNL A   1      43.113  27.507  31.761  1.00  0.00     0.031 C 
ATOM     45  C   UNL A   1      39.407  29.826  29.285  1.00  0.00     0.029 A 
ATOM     46  N   UNL A   1      39.875  30.554  31.349  1.00  0.00    -0.354 N 
ATOM     47  C   UNL A   1      43.000  28.721  33.700  1.00  0.00     0.074 A 
ATOM     48  C   UNL A   1      43.641  27.648  32.969  1.00  0.00     0.031 C 
ATOM     49  C   UNL A   1      38.574  30.846  29.555  1.00  0.00     0.029 A 
ATOM     50  C   UNL A   1      38.816  31.316  30.918  1.00  0.00     0.049 A 
ATOM     51  H   UNL A   1      40.313  30.683  32.221  1.00  0.00     0.167 HD
ATOM     52  C   UNL A   1      43.353  29.115  34.946  1.00  0.00     0.031 A 
ATOM     53  C   UNL A   1      38.098  32.257  31.561  1.00  0.00     0.031 A 
ATOM     54  C   UNL A   1      42.702  30.170  35.677  1.00  0.00     0.049 A 
ATOM     55  C   UNL A   1      38.454  32.618  32.980  1.00  0.00     0.074 A 
ATOM     56  C   UNL A   1      43.003  30.656  36.937  1.00  0.00     0.029 A 
ATOM     57  N   UNL A   1      41.610  30.891  35.221  1.00  0.00    -0.354 N 
ATOM     58  N   UNL A   1      39.423  32.150  33.729  1.00  0.00    -0.248 NA
ATOM     59  C   UNL A   1      37.618  33.632  33.638  1.00  0.00     0.031 C 
ATOM     60  C   UNL A   1      42.055  31.631  37.267  1.00  0.00     0.029 A 
ATOM     61  C   UNL A   1      41.201  31.793  36.188  1.00  0.00     0.049 A 
ATOM     62  H   UNL A   1      41.188  30.780  34.339  1.00  0.00     0.167 HD
ATOM     63  C   UNL A   1      39.323  32.826  34.941  1.00  0.00     0.074 A 
ATOM     64  C   UNL A   1      38.212  33.745  34.818  1.00  0.00     0.031 C 
ATOM     65  C   UNL A   1      40.085  32.696  36.056  1.00  0.00     0.031 A 
BRANCH  52  66
ATOM     66  C   UNL A   1      44.476  28.371  35.620  1.00  0.00    -0.014 A 
ATOM     67  C   UNL A   1      44.220  27.297  36.491  1.00  0.00     0.010 A 
ATOM     68  C   UNL A   1      45.808  28.725  35.340  1.00  0.00     0.010 A 
ATOM     69  C   UNL A   1      45.277  26.611  37.095  1.00  0.00     0.020 A 
ATOM     70  C   UNL A   1      46.868  28.025  35.924  1.00  0.00     0.020 A 
ATOM     71  C   UNL A   1      46.595  26.982  36.809  1.00  0.00     0.054 A 
BRANCH  71  72
ATOM     72  S   UNL A   1      47.949  26.057  37.588  1.00  0.00     0.124 S 
ATOM     73  O   UNL A   1      48.991  26.136  36.567  1.00  0.00    -0.237 OA
ATOM     74  O   UNL A   1      48.201  26.824  38.804  1.00  0.00    -0.237 OA
ATOM     75  O   UNL A   1      47.384  24.727  37.798  1.00  0.00    -0.744 OA
ENDBRANCH  71  72
ENDBRANCH  52  66
BRANCH  53  76
ATOM     76  C   UNL A   1      36.936  32.895  30.884  1.00  0.00    -0.014 A 
ATOM     77  C   UNL A   1      35.620  32.536  31.220  1.00  0.00     0.010 A 
ATOM     78  C   UNL A   1      37.148  33.869  29.891  1.00  0.00     0.010 A 
ATOM     79  C   UNL A   1      34.536  33.131  30.568  1.00  0.00     0.020 A 
ATOM     80  C   UNL A   1      36.068  34.486  29.256  1.00  0.00     0.020 A 
ATOM     81  C   UNL A   1      34.767  34.104  29.592  1.00  0.00     0.054 A 
BRANCH  81  82
ATOM     82  S   UNL A   1      33.347  34.905  28.795  1.00  0.00     0.124 S 
ATOM     83  O   UNL A   1      32.388  34.980  29.893  1.00  0.00    -0.237 OA
ATOM     84  O   UNL A   1      33.910  36.178  28.355  1.00  0.00    -0.237 OA
ATOM     85  O   UNL A   1      32.998  33.982  27.717  1.00  0.00    -0.744 OA
ENDBRANCH  81  82
ENDBRANCH  53  76
BRANCH  65  86
ATOM     86  C   UNL A   1      39.754  33.578  37.231  1.00  0.00    -0.014 A 
ATOM     87  C   UNL A   1      38.853  33.156  38.225  1.00  0.00     0.010 A 
ATOM     88  C   UNL A   1      40.400  34.820  37.373  1.00  0.00     0.010 A 
ATOM     89  C   UNL A   1      38.585  33.972  39.326  1.00  0.00     0.020 A 
ATOM     90  C   UNL A   1      40.154  35.627  38.486  1.00  0.00     0.020 A 
ATOM     91  C   UNL A   1      39.238  35.202  39.451  1.00  0.00     0.054 A 
BRANCH  91  92
ATOM     92  S   UNL A   1      38.908  36.221  40.916  1.00  0.00     0.124 S 
ATOM     93  O   UNL A   1      40.206  36.222  41.583  1.00  0.00    -0.237 OA
ATOM     94  O   UNL A   1      38.499  37.497  40.333  1.00  0.00    -0.237 OA
ATOM     95  O   UNL A   1      37.849  35.493  41.611  1.00  0.00    -0.744 OA
ENDBRANCH  91  92
ENDBRANCH  65  86
ENDBRANCH  39  40
ENDBRANCH  32  34
ENDBRANCH  31  32
ENDBRANCH  30  31
ENDBRANCH  29  30
ENDBRANCH  28  29
ENDBRANCH   1  28
TORSDOF 22
ENDMDL
MODEL 3
REMARK VINA RESULT:     -10.0      6.033     12.362
REMARK SMILES NS(=O)(=O)c1ccc(/N=N/c2ccc(O)c(C(=O)OCCOCCOC(=O)c3ccc(-c4c5nc(c(-c6ccc(S(=O)(=O)[O-])cc6)c6ccc([nH]6)c(-c6ccc(S(=O)(=O)[O-])cc6)c6nc(c(-c7ccc(S(=O)(=O)[O-])cc7)c7ccc4[nH]7)C=C6)C=C5)cc3)c2)cc1
REMARK SMILES IDX 21 1 20 2 19 3 17 4 18 5 16 6 11 7 12 8 88 9 13 10 14 11
REMARK SMILES IDX 10 12 9 13 8 14 5 15 6 16 90 17 7 18 89 19 2 20 3 21 4 22
REMARK SMILES IDX 1 23 15 26 22 28 23 29 24 30 25 31 26 32 27 33 28 34 29 35
REMARK SMILES IDX 87 36 30 37 86 38 31 39 32 40 33 41 80 42 34 43 85 44 79 45
REMARK SMILES IDX 81 46 35 47 84 48 78 49 77 50 36 52 66 53 47 54 65 55 48 56
REMARK SMILES IDX 51 57 64 58 82 59 49 60 50 61 63 63 83 64 52 65 37 66 38 67
REMARK SMILES IDX 46 68 39 69 45 70 40 71 41 72 42 73 43 74 44 75 67 76 68 77
REMARK SMILES IDX 76 78 69 79 75 80 70 81 71 82 72 83 73 84 74 85 53 86 54 87
REMARK SMILES IDX 62 88 55 89 61 90 56 91 57 92 58 93 59 94 60 95
REMARK H PARENT 1 24 1 25 15 27 81 51 51 62
REMARK Flexibility Score: inf
ROOT
ATOM      1  C   UNL A   1      34.460  31.022  28.001  1.00  0.00     0.202 C 
ENDROOT
BRANCH   1   2
ATOM      2  C   UNL A   1      34.948  29.645  27.540  1.00  0.00     0.261 C 
BRANCH   2   3
ATOM      3  O   UNL A   1      34.396  29.307  26.256  1.00  0.00    -0.460 OA
BRANCH   3   4
ATOM      4  C   UNL A   1      33.423  28.368  26.278  1.00  0.00     0.342 C 
ATOM      5  O   UNL A   1      32.555  28.226  27.128  1.00  0.00    -0.246 OA
BRANCH   4   6
ATOM      6  C   UNL A   1      33.375  27.626  24.998  1.00  0.00     0.104 A 
ATOM      7  C   UNL A   1      33.303  25.558  23.716  1.00  0.00     0.087 A 
ATOM      8  C   UNL A   1      33.442  26.308  22.539  1.00  0.00     0.034 A 
ATOM      9  C   UNL A   1      33.277  26.228  24.950  1.00  0.00     0.049 A 
ATOM     10  C   UNL A   1      33.547  27.699  22.581  1.00  0.00     0.049 A 
ATOM     11  C   UNL A   1      33.514  28.353  23.806  1.00  0.00     0.130 A 
BRANCH   7  12
ATOM     12  N   UNL A   1      33.291  24.155  23.608  1.00  0.00    -0.151 NA
ATOM     13  N   UNL A   1      33.600  23.597  24.682  1.00  0.00    -0.151 NA
BRANCH  13  14
ATOM     14  C   UNL A   1      33.559  22.186  24.595  1.00  0.00     0.086 A 
ATOM     15  C   UNL A   1      33.390  19.393  24.268  1.00  0.00     0.082 A 
ATOM     16  C   UNL A   1      32.375  20.213  23.773  1.00  0.00     0.024 A 
ATOM     17  C   UNL A   1      34.484  19.949  24.936  1.00  0.00     0.024 A 
ATOM     18  C   UNL A   1      32.467  21.600  23.938  1.00  0.00     0.031 A 
ATOM     19  C   UNL A   1      34.567  21.337  25.087  1.00  0.00     0.031 A 
BRANCH  15  20
ATOM     20  S   UNL A   1      33.311  17.635  24.087  1.00  0.00     0.238 S 
ATOM     21  O   UNL A   1      32.467  17.105  25.134  1.00  0.00    -0.207 OA
ATOM     22  O   UNL A   1      34.649  17.146  23.849  1.00  0.00    -0.207 OA
BRANCH  20  23
ATOM     23  N   UNL A   1      32.456  17.407  22.664  1.00  0.00    -0.225 NA
ATOM     24  H   UNL A   1      32.719  18.126  21.991  1.00  0.00     0.137 HD
ATOM     25  H   UNL A   1      31.456  17.469  22.856  1.00  0.00     0.137 HD
ENDBRANCH  20  23
ENDBRANCH  15  20
ENDBRANCH  13  14
ENDBRANCH   7  12
BRANCH  11  26
ATOM     26  O   UNL A   1      33.665  29.714  23.765  1.00  0.00    -0.507 OA
ATOM     27  H   UNL A   1      32.931  30.273  23.930  1.00  0.00     0.293 HD
ENDBRANCH  11  26
ENDBRANCH   4   6
ENDBRANCH   3   4
ENDBRANCH   2   3
ENDBRANCH   1   2
BRANCH   1  28
ATOM     28  O   UNL A   1      35.483  31.996  28.218  1.00  0.00    -0.374 OA
BRANCH  28  29
ATOM     29  C   UNL A   1      35.286  32.894  29.314  1.00  0.00     0.202 C 
BRANCH  29  30
ATOM     30  C   UNL A   1      35.400  32.277  30.713  1.00  0.00     0.261 C 
BRANCH  30  31
ATOM     31  O   UNL A   1      36.768  31.971  31.041  1.00  0.00    -0.460 OA
BRANCH  31  32
ATOM     32  C   UNL A   1      37.013  30.673  31.350  1.00  0.00     0.338 C 
ATOM     33  O   UNL A   1      36.286  29.911  31.962  1.00  0.00    -0.246 OA
BRANCH  32  34
ATOM     34  C   UNL A   1      38.237  30.231  30.652  1.00  0.00     0.060 A 
ATOM     35  C   UNL A   1      39.318  29.813  31.437  1.00  0.00     0.016 A 
ATOM     36  C   UNL A   1      38.336  30.247  29.259  1.00  0.00     0.016 A 
ATOM     37  C   UNL A   1      40.513  29.427  30.833  1.00  0.00     0.010 A 
ATOM     38  C   UNL A   1      39.541  29.874  28.655  1.00  0.00     0.010 A 
ATOM     39  C   UNL A   1      40.641  29.478  29.439  1.00  0.00    -0.014 A 
BRANCH  39  40
ATOM     40  C   UNL A   1      41.949  29.205  28.797  1.00  0.00     0.031 A 
ATOM     41  C   UNL A   1      42.248  27.820  28.296  1.00  0.00     0.074 A 
ATOM     42  C   UNL A   1      42.866  30.182  28.676  1.00  0.00     0.049 A 
ATOM     43  N   UNL A   1      43.355  27.348  27.785  1.00  0.00    -0.248 NA
ATOM     44  C   UNL A   1      41.154  26.838  28.382  1.00  0.00     0.031 C 
ATOM     45  C   UNL A   1      42.678  31.574  29.083  1.00  0.00     0.029 A 
ATOM     46  N   UNL A   1      44.148  30.144  28.188  1.00  0.00    -0.354 N 
ATOM     47  C   UNL A   1      43.099  26.012  27.499  1.00  0.00     0.074 A 
ATOM     48  C   UNL A   1      41.737  25.745  27.909  1.00  0.00     0.031 C 
ATOM     49  C   UNL A   1      43.813  32.254  28.847  1.00  0.00     0.029 A 
ATOM     50  C   UNL A   1      44.817  31.339  28.308  1.00  0.00     0.049 A 
ATOM     51  H   UNL A   1      44.550  29.339  27.788  1.00  0.00     0.167 HD
ATOM     52  C   UNL A   1      43.926  25.093  26.947  1.00  0.00     0.031 A 
ATOM     53  C   UNL A   1      46.102  31.651  28.050  1.00  0.00     0.031 A 
ATOM     54  C   UNL A   1      45.286  25.357  26.557  1.00  0.00     0.049 A 
ATOM     55  C   UNL A   1      47.028  30.588  27.518  1.00  0.00     0.074 A 
ATOM     56  C   UNL A   1      46.195  24.496  25.969  1.00  0.00     0.029 A 
ATOM     57  N   UNL A   1      45.937  26.568  26.730  1.00  0.00    -0.354 N 
ATOM     58  N   UNL A   1      46.764  29.336  27.227  1.00  0.00    -0.248 NA
ATOM     59  C   UNL A   1      48.425  30.980  27.281  1.00  0.00     0.031 C 
ATOM     60  C   UNL A   1      47.415  25.168  25.841  1.00  0.00     0.029 A 
ATOM     61  C   UNL A   1      47.248  26.467  26.294  1.00  0.00     0.049 A 
ATOM     62  H   UNL A   1      45.529  27.381  27.106  1.00  0.00     0.167 HD
ATOM     63  C   UNL A   1      47.958  28.797  26.757  1.00  0.00     0.074 A 
ATOM     64  C   UNL A   1      48.938  29.861  26.786  1.00  0.00     0.031 C 
ATOM     65  C   UNL A   1      48.217  27.533  26.339  1.00  0.00     0.031 A 
BRANCH  52  66
ATOM     66  C   UNL A   1      43.393  23.696  26.767  1.00  0.00    -0.014 A 
ATOM     67  C   UNL A   1      43.142  23.170  25.487  1.00  0.00     0.010 A 
ATOM     68  C   UNL A   1      43.184  22.883  27.896  1.00  0.00     0.010 A 
ATOM     69  C   UNL A   1      42.661  21.866  25.343  1.00  0.00     0.020 A 
ATOM     70  C   UNL A   1      42.725  21.571  27.753  1.00  0.00     0.020 A 
ATOM     71  C   UNL A   1      42.453  21.075  26.478  1.00  0.00     0.054 A 
BRANCH  71  72
ATOM     72  S   UNL A   1      41.852  19.377  26.259  1.00  0.00     0.124 S 
ATOM     73  O   UNL A   1      42.252  18.753  27.518  1.00  0.00    -0.237 OA
ATOM     74  O   UNL A   1      40.415  19.567  26.081  1.00  0.00    -0.237 OA
ATOM     75  O   UNL A   1      42.567  18.906  25.075  1.00  0.00    -0.744 OA
ENDBRANCH  71  72
ENDBRANCH  52  66
BRANCH  53  76
ATOM     76  C   UNL A   1      46.605  33.021  28.336  1.00  0.00    -0.014 A 
ATOM     77  C   UNL A   1      46.533  34.033  27.364  1.00  0.00     0.010 A 
ATOM     78  C   UNL A   1      47.163  33.318  29.593  1.00  0.00     0.010 A 
ATOM     79  C   UNL A   1      47.021  35.314  27.638  1.00  0.00     0.020 A 
ATOM     80  C   UNL A   1      47.628  34.603  29.881  1.00  0.00     0.020 A 
ATOM     81  C   UNL A   1      47.563  35.591  28.896  1.00  0.00     0.054 A 
BRANCH  81  82
ATOM     82  S   UNL A   1      48.141  37.274  29.253  1.00  0.00     0.124 S 
ATOM     83  O   UNL A   1      46.922  37.917  29.732  1.00  0.00    -0.237 OA
ATOM     84  O   UNL A   1      49.176  37.045  30.257  1.00  0.00    -0.237 OA
ATOM     85  O   UNL A   1      48.633  37.745  27.960  1.00  0.00    -0.744 OA
ENDBRANCH  81  82
ENDBRANCH  53  76
BRANCH  65  86
ATOM     86  C   UNL A   1      49.613  27.231  25.864  1.00  0.00    -0.014 A 
ATOM     87  C   UNL A   1      50.570  26.670  26.729  1.00  0.00     0.010 A 
ATOM     88  C   UNL A   1      49.955  27.455  24.518  1.00  0.00     0.010 A 
ATOM     89  C   UNL A   1      51.850  26.363  26.262  1.00  0.00     0.020 A 
ATOM     90  C   UNL A   1      51.226  27.125  24.041  1.00  0.00     0.020 A 
ATOM     91  C   UNL A   1      52.170  26.591  24.920  1.00  0.00     0.054 A 
BRANCH  91  92
ATOM     92  S   UNL A   1      53.824  26.138  24.328  1.00  0.00     0.124 S 
ATOM     93  O   UNL A   1      53.602  25.986  22.893  1.00  0.00    -0.237 OA
ATOM     94  O   UNL A   1      54.632  27.290  24.721  1.00  0.00    -0.237 OA
ATOM     95  O   UNL A   1      54.122  24.902  25.048  1.00  0.00    -0.744 OA
ENDBRANCH  91  92
ENDBRANCH  65  86
ENDBRANCH  39  40
ENDBRANCH  32  34
ENDBRANCH  31  32
ENDBRANCH  30  31
ENDBRANCH  29  30
ENDBRANCH  28  29
ENDBRANCH   1  28
TORSDOF 22
ENDMDL
