MODEL 1
REMARK VINA RESULT:     -10.1      0.000      0.000
REMARK SMILES Cc1cscc1-c1nc(C)c(C(=O)OCCOCCOC(=O)c2ccc(-c3c4nc(c(-c5ccc(S(=O)(=O)[O-])cc5)c5ccc([nH]5)c(-c5ccc(S(=O)(=O)[O-])cc5)c5nc(c(-c6ccc(S(=O)(=O)[O-])cc6)c6ccc3[nH]6)C=C5)C=C4)cc2)c(C)n1
REMARK SMILES IDX 18 1 17 2 16 3 15 4 14 5 12 6 13 7 11 8 7 9 8 10 85 11 9 12
REMARK SMILES IDX 83 13 10 14 84 15 6 16 1 17 2 18 3 19 4 20 5 21 19 22 20 23
REMARK SMILES IDX 21 24 22 25 23 26 24 27 82 28 25 29 81 30 26 31 27 32 28 33
REMARK SMILES IDX 75 34 29 35 80 36 74 37 76 38 30 39 79 40 73 41 72 42 31 44
REMARK SMILES IDX 61 45 42 46 60 47 43 48 46 49 59 50 77 51 44 52 45 53 58 55
REMARK SMILES IDX 78 56 47 57 32 58 33 59 41 60 34 61 40 62 35 63 36 64 37 65
REMARK SMILES IDX 38 66 39 67 62 68 63 69 71 70 64 71 70 72 65 73 66 74 67 75
REMARK SMILES IDX 68 76 69 77 48 78 49 79 57 80 50 81 56 82 51 83 52 84 53 85
REMARK SMILES IDX 54 86 55 87
REMARK H PARENT 76 43 46 54
REMARK Flexibility Score: inf
ROOT
ATOM      1  C   UNL A   1      36.384  21.219  25.620  1.00  0.00     0.202 C 
ENDROOT
BRANCH   1   2
ATOM      2  O   UNL A   1      35.651  20.165  24.998  1.00  0.00    -0.374 OA
BRANCH   2   3
ATOM      3  C   UNL A   1      34.235  20.316  24.875  1.00  0.00     0.202 C 
BRANCH   3   4
ATOM      4  C   UNL A   1      33.550  21.168  25.945  1.00  0.00     0.261 C 
BRANCH   4   5
ATOM      5  O   UNL A   1      32.203  21.473  25.547  1.00  0.00    -0.460 OA
BRANCH   5   6
ATOM      6  C   UNL A   1      32.079  22.441  24.616  1.00  0.00     0.341 C 
ATOM      7  O   UNL A   1      31.702  22.296  23.462  1.00  0.00    -0.246 OA
BRANCH   6   8
ATOM      8  C   UNL A   1      32.347  23.765  25.198  1.00  0.00     0.102 A 
ATOM      9  C   UNL A   1      32.577  26.319  26.040  1.00  0.00     0.160 A 
ATOM     10  N   UNL A   1      33.548  25.838  25.246  1.00  0.00    -0.232 NA
ATOM     11  N   UNL A   1      31.555  25.606  26.534  1.00  0.00    -0.232 NA
ATOM     12  C   UNL A   1      33.441  24.548  24.847  1.00  0.00     0.056 A 
ATOM     13  C   UNL A   1      31.444  24.328  26.100  1.00  0.00     0.056 A 
ATOM     14  C   UNL A   1      34.591  24.040  24.030  1.00  0.00     0.068 C 
ATOM     15  C   UNL A   1      30.320  23.549  26.726  1.00  0.00     0.068 C 
BRANCH   9  16
ATOM     16  C   UNL A   1      32.501  27.761  26.192  1.00  0.00     0.033 A 
ATOM     17  C   UNL A   1      30.834  28.241  24.255  1.00  0.00     0.046 C 
ATOM     18  C   UNL A   1      31.705  28.665  25.394  1.00  0.00    -0.029 A 
ATOM     19  C   UNL A   1      31.833  29.966  25.845  1.00  0.00     0.069 A 
ATOM     20  S   UNL A   1      32.865  30.099  27.200  1.00  0.00    -0.151 S 
ATOM     21  C   UNL A   1      33.154  28.415  27.217  1.00  0.00     0.077 A 
ENDBRANCH   9  16
ENDBRANCH   6   8
ENDBRANCH   5   6
ENDBRANCH   4   5
ENDBRANCH   3   4
ENDBRANCH   2   3
ENDBRANCH   1   2
BRANCH   1  22
ATOM     22  C   UNL A   1      37.849  21.409  25.213  1.00  0.00     0.261 C 
BRANCH  22  23
ATOM     23  O   UNL A   1      38.320  22.752  25.412  1.00  0.00    -0.460 OA
BRANCH  23  24
ATOM     24  C   UNL A   1      39.467  22.838  26.131  1.00  0.00     0.338 C 
ATOM     25  O   UNL A   1      40.395  22.045  26.134  1.00  0.00    -0.246 OA
BRANCH  24  26
ATOM     26  C   UNL A   1      39.543  24.148  26.803  1.00  0.00     0.060 A 
ATOM     27  C   UNL A   1      40.248  25.169  26.151  1.00  0.00     0.016 A 
ATOM     28  C   UNL A   1      39.006  24.353  28.075  1.00  0.00     0.016 A 
ATOM     29  C   UNL A   1      40.459  26.388  26.791  1.00  0.00     0.010 A 
ATOM     30  C   UNL A   1      39.229  25.575  28.720  1.00  0.00     0.010 A 
ATOM     31  C   UNL A   1      39.984  26.583  28.094  1.00  0.00    -0.014 A 
BRANCH  31  32
ATOM     32  C   UNL A   1      40.404  27.786  28.852  1.00  0.00     0.031 A 
ATOM     33  C   UNL A   1      41.777  27.816  29.469  1.00  0.00     0.074 A 
ATOM     34  C   UNL A   1      39.590  28.853  28.954  1.00  0.00     0.049 A 
ATOM     35  N   UNL A   1      42.338  28.749  30.193  1.00  0.00    -0.248 NA
ATOM     36  C   UNL A   1      42.631  26.639  29.234  1.00  0.00     0.031 C 
ATOM     37  C   UNL A   1      38.262  28.965  28.352  1.00  0.00     0.029 A 
ATOM     38  N   UNL A   1      39.767  30.048  29.604  1.00  0.00    -0.354 N 
ATOM     39  C   UNL A   1      43.609  28.275  30.501  1.00  0.00     0.074 A 
ATOM     40  C   UNL A   1      43.723  26.957  29.914  1.00  0.00     0.031 C 
ATOM     41  C   UNL A   1      37.743  30.166  28.663  1.00  0.00     0.029 A 
ATOM     42  C   UNL A   1      38.685  30.890  29.514  1.00  0.00     0.049 A 
ATOM     43  H   UNL A   1      40.591  30.281  30.090  1.00  0.00     0.167 HD
ATOM     44  C   UNL A   1      44.595  28.886  31.199  1.00  0.00     0.031 A 
ATOM     45  C   UNL A   1      38.471  32.099  30.071  1.00  0.00     0.031 A 
ATOM     46  C   UNL A   1      44.472  30.188  31.797  1.00  0.00     0.049 A 
ATOM     47  C   UNL A   1      39.549  32.714  30.928  1.00  0.00     0.074 A 
ATOM     48  C   UNL A   1      45.410  30.890  32.535  1.00  0.00     0.029 A 
ATOM     49  N   UNL A   1      43.341  30.988  31.726  1.00  0.00    -0.354 N 
ATOM     50  N   UNL A   1      40.745  32.254  31.206  1.00  0.00    -0.248 NA
ATOM     51  C   UNL A   1      39.246  34.016  31.539  1.00  0.00     0.031 C 
ATOM     52  C   UNL A   1      44.828  32.091  32.952  1.00  0.00     0.029 A 
ATOM     53  C   UNL A   1      43.549  32.164  32.424  1.00  0.00     0.049 A 
ATOM     54  H   UNL A   1      42.512  30.751  31.251  1.00  0.00     0.167 HD
ATOM     55  C   UNL A   1      41.350  33.226  31.997  1.00  0.00     0.074 A 
ATOM     56  C   UNL A   1      40.392  34.303  32.142  1.00  0.00     0.031 C 
ATOM     57  C   UNL A   1      42.588  33.230  32.551  1.00  0.00     0.031 A 
BRANCH  44  58
ATOM     58  C   UNL A   1      45.890  28.137  31.374  1.00  0.00    -0.014 A 
ATOM     59  C   UNL A   1      46.091  27.285  32.475  1.00  0.00     0.010 A 
ATOM     60  C   UNL A   1      46.902  28.252  30.404  1.00  0.00     0.010 A 
ATOM     61  C   UNL A   1      47.291  26.586  32.619  1.00  0.00     0.020 A 
ATOM     62  C   UNL A   1      48.094  27.534  30.530  1.00  0.00     0.020 A 
ATOM     63  C   UNL A   1      48.287  26.716  31.645  1.00  0.00     0.054 A 
BRANCH  63  64
ATOM     64  S   UNL A   1      49.825  25.774  31.843  1.00  0.00     0.124 S 
ATOM     65  O   UNL A   1      50.056  25.287  30.485  1.00  0.00    -0.237 OA
ATOM     66  O   UNL A   1      50.764  26.788  32.315  1.00  0.00    -0.237 OA
ATOM     67  O   UNL A   1      49.478  24.746  32.822  1.00  0.00    -0.744 OA
ENDBRANCH  63  64
ENDBRANCH  44  58
BRANCH  45  68
ATOM     68  C   UNL A   1      37.179  32.806  29.858  1.00  0.00    -0.014 A 
ATOM     69  C   UNL A   1      36.989  33.630  28.735  1.00  0.00     0.010 A 
ATOM     70  C   UNL A   1      36.139  32.680  30.797  1.00  0.00     0.010 A 
ATOM     71  C   UNL A   1      35.794  34.338  28.570  1.00  0.00     0.020 A 
ATOM     72  C   UNL A   1      34.932  33.362  30.620  1.00  0.00     0.020 A 
ATOM     73  C   UNL A   1      34.773  34.200  29.515  1.00  0.00     0.054 A 
BRANCH  73  74
ATOM     74  S   UNL A   1      33.221  35.106  29.268  1.00  0.00     0.124 S 
ATOM     75  O   UNL A   1      33.696  36.393  28.774  1.00  0.00    -0.237 OA
ATOM     76  O   UNL A   1      32.521  34.272  28.295  1.00  0.00    -0.237 OA
ATOM     77  O   UNL A   1      32.624  35.128  30.602  1.00  0.00    -0.744 OA
ENDBRANCH  73  74
ENDBRANCH  45  68
BRANCH  57  78
ATOM     78  C   UNL A   1      42.999  34.454  33.327  1.00  0.00    -0.014 A 
ATOM     79  C   UNL A   1      42.893  34.502  34.728  1.00  0.00     0.010 A 
ATOM     80  C   UNL A   1      43.550  35.552  32.643  1.00  0.00     0.010 A 
ATOM     81  C   UNL A   1      43.301  35.641  35.428  1.00  0.00     0.020 A 
ATOM     82  C   UNL A   1      43.987  36.681  33.342  1.00  0.00     0.020 A 
ATOM     83  C   UNL A   1      43.845  36.724  34.729  1.00  0.00     0.054 A 
BRANCH  83  84
ATOM     84  S   UNL A   1      44.409  38.173  35.664  1.00  0.00     0.124 S 
ATOM     85  O   UNL A   1      43.765  37.968  36.958  1.00  0.00    -0.237 OA
ATOM     86  O   UNL A   1      45.862  38.016  35.653  1.00  0.00    -0.237 OA
ATOM     87  O   UNL A   1      43.905  39.304  34.888  1.00  0.00    -0.744 OA
ENDBRANCH  83  84
ENDBRANCH  57  78
ENDBRANCH  31  32
ENDBRANCH  24  26
ENDBRANCH  23  24
ENDBRANCH  22  23
ENDBRANCH   1  22
TORSDOF 18
ENDMDL
MODEL 2
REMARK VINA RESULT:      -9.8      2.934      8.627
REMARK SMILES Cc1cscc1-c1nc(C)c(C(=O)OCCOCCOC(=O)c2ccc(-c3c4nc(c(-c5ccc(S(=O)(=O)[O-])cc5)c5ccc([nH]5)c(-c5ccc(S(=O)(=O)[O-])cc5)c5nc(c(-c6ccc(S(=O)(=O)[O-])cc6)c6ccc3[nH]6)C=C5)C=C4)cc2)c(C)n1
REMARK SMILES IDX 18 1 17 2 16 3 15 4 14 5 12 6 13 7 11 8 7 9 8 10 85 11 9 12
REMARK SMILES IDX 83 13 10 14 84 15 6 16 1 17 2 18 3 19 4 20 5 21 19 22 20 23
REMARK SMILES IDX 21 24 22 25 23 26 24 27 82 28 25 29 81 30 26 31 27 32 28 33
REMARK SMILES IDX 75 34 29 35 80 36 74 37 76 38 30 39 79 40 73 41 72 42 31 44
REMARK SMILES IDX 61 45 42 46 60 47 43 48 46 49 59 50 77 51 44 52 45 53 58 55
REMARK SMILES IDX 78 56 47 57 32 58 33 59 41 60 34 61 40 62 35 63 36 64 37 65
REMARK SMILES IDX 38 66 39 67 62 68 63 69 71 70 64 71 70 72 65 73 66 74 67 75
REMARK SMILES IDX 68 76 69 77 48 78 49 79 57 80 50 81 56 82 51 83 52 84 53 85
REMARK SMILES IDX 54 86 55 87
REMARK H PARENT 76 43 46 54
REMARK Flexibility Score: inf
ROOT
ATOM      1  C   UNL A   1      35.918  21.557  25.905  1.00  0.00     0.202 C 
ENDROOT
BRANCH   1   2
ATOM      2  O   UNL A   1      34.802  21.319  25.050  1.00  0.00    -0.374 OA
BRANCH   2   3
ATOM      3  C   UNL A   1      33.725  22.258  25.077  1.00  0.00     0.202 C 
BRANCH   3   4
ATOM      4  C   UNL A   1      33.446  22.928  26.423  1.00  0.00     0.261 C 
BRANCH   4   5
ATOM      5  O   UNL A   1      33.131  24.317  26.229  1.00  0.00    -0.460 OA
BRANCH   5   6
ATOM      6  C   UNL A   1      31.822  24.633  26.320  1.00  0.00     0.341 C 
ATOM      7  O   UNL A   1      31.035  24.236  27.167  1.00  0.00    -0.246 OA
BRANCH   6   8
ATOM      8  C   UNL A   1      31.457  25.642  25.313  1.00  0.00     0.102 A 
ATOM      9  C   UNL A   1      30.484  27.546  23.668  1.00  0.00     0.160 A 
ATOM     10  N   UNL A   1      30.417  26.272  23.248  1.00  0.00    -0.232 NA
ATOM     11  N   UNL A   1      31.087  27.963  24.791  1.00  0.00    -0.232 NA
ATOM     12  C   UNL A   1      30.930  25.323  24.067  1.00  0.00     0.056 A 
ATOM     13  C   UNL A   1      31.565  27.000  25.613  1.00  0.00     0.056 A 
ATOM     14  C   UNL A   1      30.902  23.928  23.515  1.00  0.00     0.068 C 
ATOM     15  C   UNL A   1      32.286  27.514  26.828  1.00  0.00     0.068 C 
BRANCH   9  16
ATOM     16  C   UNL A   1      29.652  28.515  22.975  1.00  0.00     0.033 A 
ATOM     17  C   UNL A   1      27.336  27.611  23.735  1.00  0.00     0.046 C 
ATOM     18  C   UNL A   1      28.209  28.574  22.995  1.00  0.00    -0.029 A 
ATOM     19  C   UNL A   1      27.747  29.653  22.265  1.00  0.00     0.069 A 
ATOM     20  S   UNL A   1      29.010  30.584  21.589  1.00  0.00    -0.151 S 
ATOM     21  C   UNL A   1      30.202  29.565  22.268  1.00  0.00     0.077 A 
ENDBRANCH   9  16
ENDBRANCH   6   8
ENDBRANCH   5   6
ENDBRANCH   4   5
ENDBRANCH   3   4
ENDBRANCH   2   3
ENDBRANCH   1   2
BRANCH   1  22
ATOM     22  C   UNL A   1      37.321  21.313  25.336  1.00  0.00     0.261 C 
BRANCH  22  23
ATOM     23  O   UNL A   1      38.199  22.438  25.501  1.00  0.00    -0.460 OA
BRANCH  23  24
ATOM     24  C   UNL A   1      39.274  22.194  26.291  1.00  0.00     0.338 C 
ATOM     25  O   UNL A   1      39.881  21.140  26.403  1.00  0.00    -0.246 OA
BRANCH  24  26
ATOM     26  C   UNL A   1      39.754  23.451  26.891  1.00  0.00     0.060 A 
ATOM     27  C   UNL A   1      39.476  24.643  26.207  1.00  0.00     0.016 A 
ATOM     28  C   UNL A   1      40.527  23.462  28.053  1.00  0.00     0.016 A 
ATOM     29  C   UNL A   1      40.010  25.846  26.660  1.00  0.00     0.010 A 
ATOM     30  C   UNL A   1      41.072  24.671  28.499  1.00  0.00     0.010 A 
ATOM     31  C   UNL A   1      40.843  25.861  27.785  1.00  0.00    -0.014 A 
BRANCH  31  32
ATOM     32  C   UNL A   1      41.588  27.097  28.127  1.00  0.00     0.031 A 
ATOM     33  C   UNL A   1      40.829  28.278  28.672  1.00  0.00     0.074 A 
ATOM     34  C   UNL A   1      42.925  27.152  27.992  1.00  0.00     0.049 A 
ATOM     35  N   UNL A   1      41.272  29.460  29.010  1.00  0.00    -0.248 NA
ATOM     36  C   UNL A   1      39.380  28.098  28.865  1.00  0.00     0.031 C 
ATOM     37  C   UNL A   1      43.776  26.055  27.530  1.00  0.00     0.029 A 
ATOM     38  N   UNL A   1      43.803  28.178  28.235  1.00  0.00    -0.354 N 
ATOM     39  C   UNL A   1      40.161  30.167  29.455  1.00  0.00     0.074 A 
ATOM     40  C   UNL A   1      39.017  29.292  29.312  1.00  0.00     0.031 C 
ATOM     41  C   UNL A   1      45.055  26.470  27.521  1.00  0.00     0.029 A 
ATOM     42  C   UNL A   1      45.109  27.868  27.943  1.00  0.00     0.049 A 
ATOM     43  H   UNL A   1      43.523  29.054  28.586  1.00  0.00     0.167 HD
ATOM     44  C   UNL A   1      40.099  31.426  29.949  1.00  0.00     0.031 A 
ATOM     45  C   UNL A   1      46.218  28.632  27.990  1.00  0.00     0.031 A 
ATOM     46  C   UNL A   1      41.235  32.300  30.073  1.00  0.00     0.049 A 
ATOM     47  C   UNL A   1      46.106  30.063  28.449  1.00  0.00     0.074 A 
ATOM     48  C   UNL A   1      41.274  33.600  30.550  1.00  0.00     0.029 A 
ATOM     49  N   UNL A   1      42.533  31.967  29.716  1.00  0.00    -0.354 N 
ATOM     50  N   UNL A   1      45.049  30.715  28.870  1.00  0.00    -0.248 NA
ATOM     51  C   UNL A   1      47.342  30.860  28.446  1.00  0.00     0.031 C 
ATOM     52  C   UNL A   1      42.587  34.067  30.436  1.00  0.00     0.029 A 
ATOM     53  C   UNL A   1      43.376  33.040  29.943  1.00  0.00     0.049 A 
ATOM     54  H   UNL A   1      42.812  31.095  29.355  1.00  0.00     0.167 HD
ATOM     55  C   UNL A   1      45.498  31.986  29.213  1.00  0.00     0.074 A 
ATOM     56  C   UNL A   1      46.924  32.007  28.961  1.00  0.00     0.031 C 
ATOM     57  C   UNL A   1      44.795  33.041  29.695  1.00  0.00     0.031 A 
BRANCH  44  58
ATOM     58  C   UNL A   1      38.749  31.942  30.372  1.00  0.00    -0.014 A 
ATOM     59  C   UNL A   1      38.299  31.797  31.696  1.00  0.00     0.010 A 
ATOM     60  C   UNL A   1      37.938  32.622  29.444  1.00  0.00     0.010 A 
ATOM     61  C   UNL A   1      37.051  32.292  32.078  1.00  0.00     0.020 A 
ATOM     62  C   UNL A   1      36.699  33.142  29.829  1.00  0.00     0.020 A 
ATOM     63  C   UNL A   1      36.257  32.962  31.141  1.00  0.00     0.054 A 
BRANCH  63  64
ATOM     64  S   UNL A   1      34.652  33.621  31.673  1.00  0.00     0.124 S 
ATOM     65  O   UNL A   1      34.107  32.501  32.436  1.00  0.00    -0.237 OA
ATOM     66  O   UNL A   1      35.032  34.791  32.460  1.00  0.00    -0.237 OA
ATOM     67  O   UNL A   1      33.964  33.913  30.418  1.00  0.00    -0.744 OA
ENDBRANCH  63  64
ENDBRANCH  44  58
BRANCH  45  68
ATOM     68  C   UNL A   1      47.534  28.072  27.573  1.00  0.00    -0.014 A 
ATOM     69  C   UNL A   1      47.933  28.106  26.225  1.00  0.00     0.010 A 
ATOM     70  C   UNL A   1      48.383  27.475  28.523  1.00  0.00     0.010 A 
ATOM     71  C   UNL A   1      49.143  27.527  25.831  1.00  0.00     0.020 A 
ATOM     72  C   UNL A   1      49.607  26.923  28.138  1.00  0.00     0.020 A 
ATOM     73  C   UNL A   1      49.972  26.938  26.790  1.00  0.00     0.054 A 
BRANCH  73  74
ATOM     74  S   UNL A   1      51.551  26.217  26.261  1.00  0.00     0.124 S 
ATOM     75  O   UNL A   1      51.497  26.397  24.815  1.00  0.00    -0.237 OA
ATOM     76  O   UNL A   1      52.527  27.042  26.968  1.00  0.00    -0.237 OA
ATOM     77  O   UNL A   1      51.465  24.833  26.724  1.00  0.00    -0.744 OA
ENDBRANCH  73  74
ENDBRANCH  45  68
BRANCH  57  78
ATOM     78  C   UNL A   1      45.563  34.294  30.029  1.00  0.00    -0.014 A 
ATOM     79  C   UNL A   1      45.718  35.329  29.091  1.00  0.00     0.010 A 
ATOM     80  C   UNL A   1      46.090  34.456  31.323  1.00  0.00     0.010 A 
ATOM     81  C   UNL A   1      46.416  36.492  29.431  1.00  0.00     0.020 A 
ATOM     82  C   UNL A   1      46.763  35.630  31.677  1.00  0.00     0.020 A 
ATOM     83  C   UNL A   1      46.934  36.634  30.722  1.00  0.00     0.054 A 
BRANCH  83  84
ATOM     84  S   UNL A   1      47.797  38.170  31.153  1.00  0.00     0.124 S 
ATOM     85  O   UNL A   1      46.752  39.170  30.957  1.00  0.00    -0.237 OA
ATOM     86  O   UNL A   1      48.192  37.937  32.541  1.00  0.00    -0.237 OA
ATOM     87  O   UNL A   1      48.902  38.227  30.199  1.00  0.00    -0.744 OA
ENDBRANCH  83  84
ENDBRANCH  57  78
ENDBRANCH  31  32
ENDBRANCH  24  26
ENDBRANCH  23  24
ENDBRANCH  22  23
ENDBRANCH   1  22
TORSDOF 18
ENDMDL
MODEL 3
REMARK VINA RESULT:      -9.6      2.544      3.218
REMARK SMILES Cc1cscc1-c1nc(C)c(C(=O)OCCOCCOC(=O)c2ccc(-c3c4nc(c(-c5ccc(S(=O)(=O)[O-])cc5)c5ccc([nH]5)c(-c5ccc(S(=O)(=O)[O-])cc5)c5nc(c(-c6ccc(S(=O)(=O)[O-])cc6)c6ccc3[nH]6)C=C5)C=C4)cc2)c(C)n1
REMARK SMILES IDX 18 1 17 2 16 3 15 4 14 5 12 6 13 7 11 8 7 9 8 10 85 11 9 12
REMARK SMILES IDX 83 13 10 14 84 15 6 16 1 17 2 18 3 19 4 20 5 21 19 22 20 23
REMARK SMILES IDX 21 24 22 25 23 26 24 27 82 28 25 29 81 30 26 31 27 32 28 33
REMARK SMILES IDX 75 34 29 35 80 36 74 37 76 38 30 39 79 40 73 41 72 42 31 44
REMARK SMILES IDX 61 45 42 46 60 47 43 48 46 49 59 50 77 51 44 52 45 53 58 55
REMARK SMILES IDX 78 56 47 57 32 58 33 59 41 60 34 61 40 62 35 63 36 64 37 65
REMARK SMILES IDX 38 66 39 67 62 68 63 69 71 70 64 71 70 72 65 73 66 74 67 75
REMARK SMILES IDX 68 76 69 77 48 78 49 79 57 80 50 81 56 82 51 83 52 84 53 85
REMARK SMILES IDX 54 86 55 87
REMARK H PARENT 76 43 46 54
REMARK Flexibility Score: inf
ROOT
ATOM      1  C   UNL A   1      36.004  21.229  25.688  1.00  0.00     0.202 C 
ENDROOT
BRANCH   1   2
ATOM      2  O   UNL A   1      35.114  20.805  24.657  1.00  0.00    -0.374 OA
BRANCH   2   3
ATOM      3  C   UNL A   1      33.764  21.270  24.705  1.00  0.00     0.202 C 
BRANCH   3   4
ATOM      4  C   UNL A   1      33.572  22.766  24.958  1.00  0.00     0.261 C 
BRANCH   4   5
ATOM      5  O   UNL A   1      33.033  23.401  23.787  1.00  0.00    -0.460 OA
BRANCH   5   6
ATOM      6  C   UNL A   1      33.766  24.419  23.290  1.00  0.00     0.341 C 
ATOM      7  O   UNL A   1      34.952  24.386  22.997  1.00  0.00    -0.246 OA
BRANCH   6   8
ATOM      8  C   UNL A   1      32.917  25.589  23.017  1.00  0.00     0.102 A 
ATOM      9  C   UNL A   1      31.095  27.554  22.697  1.00  0.00     0.160 A 
ATOM     10  N   UNL A   1      31.382  26.794  21.626  1.00  0.00    -0.232 NA
ATOM     11  N   UNL A   1      31.714  27.486  23.885  1.00  0.00    -0.232 NA
ATOM     12  C   UNL A   1      32.315  25.826  21.786  1.00  0.00     0.056 A 
ATOM     13  C   UNL A   1      32.620  26.492  24.037  1.00  0.00     0.056 A 
ATOM     14  C   UNL A   1      32.653  25.061  20.541  1.00  0.00     0.068 C 
ATOM     15  C   UNL A   1      33.332  26.491  25.362  1.00  0.00     0.068 C 
BRANCH   9  16
ATOM     16  C   UNL A   1      29.882  28.351  22.636  1.00  0.00     0.033 A 
ATOM     17  C   UNL A   1      28.299  26.690  23.859  1.00  0.00     0.046 C 
ATOM     18  C   UNL A   1      28.590  27.984  23.168  1.00  0.00    -0.029 A 
ATOM     19  C   UNL A   1      27.671  28.999  22.979  1.00  0.00     0.069 A 
ATOM     20  S   UNL A   1      28.343  30.365  22.202  1.00  0.00    -0.151 S 
ATOM     21  C   UNL A   1      29.882  29.627  22.112  1.00  0.00     0.077 A 
ENDBRANCH   9  16
ENDBRANCH   6   8
ENDBRANCH   5   6
ENDBRANCH   4   5
ENDBRANCH   3   4
ENDBRANCH   2   3
ENDBRANCH   1   2
BRANCH   1  22
ATOM     22  C   UNL A   1      37.496  21.328  25.350  1.00  0.00     0.261 C 
BRANCH  22  23
ATOM     23  O   UNL A   1      38.045  22.632  25.595  1.00  0.00    -0.460 OA
BRANCH  23  24
ATOM     24  C   UNL A   1      39.132  22.636  26.405  1.00  0.00     0.338 C 
ATOM     25  O   UNL A   1      39.888  21.703  26.627  1.00  0.00    -0.246 OA
BRANCH  24  26
ATOM     26  C   UNL A   1      39.410  24.007  26.869  1.00  0.00     0.060 A 
ATOM     27  C   UNL A   1      40.018  24.886  25.962  1.00  0.00     0.016 A 
ATOM     28  C   UNL A   1      39.157  24.402  28.183  1.00  0.00     0.016 A 
ATOM     29  C   UNL A   1      40.417  26.152  26.381  1.00  0.00     0.010 A 
ATOM     30  C   UNL A   1      39.569  25.671  28.605  1.00  0.00     0.010 A 
ATOM     31  C   UNL A   1      40.230  26.537  27.715  1.00  0.00    -0.014 A 
BRANCH  31  32
ATOM     32  C   UNL A   1      40.857  27.787  28.210  1.00  0.00     0.031 A 
ATOM     33  C   UNL A   1      42.352  27.936  28.120  1.00  0.00     0.074 A 
ATOM     34  C   UNL A   1      40.101  28.789  28.694  1.00  0.00     0.049 A 
ATOM     35  N   UNL A   1      43.109  28.927  28.515  1.00  0.00    -0.248 NA
ATOM     36  C   UNL A   1      43.090  26.824  27.498  1.00  0.00     0.031 C 
ATOM     37  C   UNL A   1      38.641  28.785  28.778  1.00  0.00     0.029 A 
ATOM     38  N   UNL A   1      40.464  30.010  29.206  1.00  0.00    -0.354 N 
ATOM     39  C   UNL A   1      44.410  28.560  28.191  1.00  0.00     0.074 A 
ATOM     40  C   UNL A   1      44.344  27.241  27.599  1.00  0.00     0.031 C 
ATOM     41  C   UNL A   1      38.232  29.949  29.313  1.00  0.00     0.029 A 
ATOM     42  C   UNL A   1      39.400  30.764  29.640  1.00  0.00     0.049 A 
ATOM     43  H   UNL A   1      41.398  30.316  29.257  1.00  0.00     0.167 HD
ATOM     44  C   UNL A   1      45.556  29.261  28.361  1.00  0.00     0.031 A 
ATOM     45  C   UNL A   1      39.375  31.965  30.251  1.00  0.00     0.031 A 
ATOM     46  C   UNL A   1      45.621  30.564  28.967  1.00  0.00     0.049 A 
ATOM     47  C   UNL A   1      40.674  32.681  30.519  1.00  0.00     0.074 A 
ATOM     48  C   UNL A   1      46.736  31.352  29.197  1.00  0.00     0.029 A 
ATOM     49  N   UNL A   1      44.527  31.271  29.442  1.00  0.00    -0.354 N 
ATOM     50  N   UNL A   1      41.895  32.322  30.205  1.00  0.00    -0.248 NA
ATOM     51  C   UNL A   1      40.587  33.970  31.221  1.00  0.00     0.031 C 
ATOM     52  C   UNL A   1      46.321  32.515  29.854  1.00  0.00     0.029 A 
ATOM     53  C   UNL A   1      44.941  32.477  29.981  1.00  0.00     0.049 A 
ATOM     54  H   UNL A   1      43.594  30.961  29.402  1.00  0.00     0.167 HD
ATOM     55  C   UNL A   1      42.718  33.356  30.638  1.00  0.00     0.074 A 
ATOM     56  C   UNL A   1      41.855  34.358  31.228  1.00  0.00     0.031 C 
ATOM     57  C   UNL A   1      44.068  33.467  30.556  1.00  0.00     0.031 A 
BRANCH  44  58
ATOM     58  C   UNL A   1      46.839  28.619  27.905  1.00  0.00    -0.014 A 
ATOM     59  C   UNL A   1      47.329  28.823  26.602  1.00  0.00     0.010 A 
ATOM     60  C   UNL A   1      47.589  27.838  28.803  1.00  0.00     0.010 A 
ATOM     61  C   UNL A   1      48.527  28.232  26.196  1.00  0.00     0.020 A 
ATOM     62  C   UNL A   1      48.802  27.267  28.408  1.00  0.00     0.020 A 
ATOM     63  C   UNL A   1      49.257  27.456  27.102  1.00  0.00     0.054 A 
BRANCH  63  64
ATOM     64  S   UNL A   1      50.825  26.725  26.555  1.00  0.00     0.124 S 
ATOM     65  O   UNL A   1      51.619  27.913  26.250  1.00  0.00    -0.237 OA
ATOM     66  O   UNL A   1      51.252  25.969  27.729  1.00  0.00    -0.237 OA
ATOM     67  O   UNL A   1      50.446  25.915  25.400  1.00  0.00    -0.744 OA
ENDBRANCH  63  64
ENDBRANCH  44  58
BRANCH  45  68
ATOM     68  C   UNL A   1      38.079  32.565  30.673  1.00  0.00    -0.014 A 
ATOM     69  C   UNL A   1      37.353  33.393  29.798  1.00  0.00     0.010 A 
ATOM     70  C   UNL A   1      37.578  32.334  31.967  1.00  0.00     0.010 A 
ATOM     71  C   UNL A   1      36.167  34.000  30.219  1.00  0.00     0.020 A 
ATOM     72  C   UNL A   1      36.377  32.915  32.382  1.00  0.00     0.020 A 
ATOM     73  C   UNL A   1      35.687  33.758  31.509  1.00  0.00     0.054 A 
BRANCH  73  74
ATOM     74  S   UNL A   1      34.131  34.535  32.026  1.00  0.00     0.124 S 
ATOM     75  O   UNL A   1      34.600  35.772  32.642  1.00  0.00    -0.237 OA
ATOM     76  O   UNL A   1      33.419  34.687  30.761  1.00  0.00    -0.237 OA
ATOM     77  O   UNL A   1      33.552  33.558  32.946  1.00  0.00    -0.744 OA
ENDBRANCH  73  74
ENDBRANCH  45  68
BRANCH  57  78
ATOM     78  C   UNL A   1      44.693  34.738  31.071  1.00  0.00    -0.014 A 
ATOM     79  C   UNL A   1      45.310  34.790  32.333  1.00  0.00     0.010 A 
ATOM     80  C   UNL A   1      44.709  35.881  30.251  1.00  0.00     0.010 A 
ATOM     81  C   UNL A   1      45.902  35.975  32.780  1.00  0.00     0.020 A 
ATOM     82  C   UNL A   1      45.327  37.058  30.683  1.00  0.00     0.020 A 
ATOM     83  C   UNL A   1      45.906  37.101  31.952  1.00  0.00     0.054 A 
BRANCH  83  84
ATOM     84  S   UNL A   1      46.721  38.613  32.536  1.00  0.00     0.124 S 
ATOM     85  O   UNL A   1      47.582  38.950  31.407  1.00  0.00    -0.237 OA
ATOM     86  O   UNL A   1      45.595  39.518  32.760  1.00  0.00    -0.237 OA
ATOM     87  O   UNL A   1      47.418  38.185  33.747  1.00  0.00    -0.744 OA
ENDBRANCH  83  84
ENDBRANCH  57  78
ENDBRANCH  31  32
ENDBRANCH  24  26
ENDBRANCH  23  24
ENDBRANCH  22  23
ENDBRANCH   1  22
TORSDOF 18
ENDMDL
