MODEL 1
REMARK VINA RESULT:     -11.2      0.000      0.000
REMARK SMILES Cc1cc(NC(=O)c2ccc(Br)cc2N)ccc1C(=O)OCCOCCOC(=O)c1ccc(-c2c3nc(c(-c4ccc(S(=O)(=O)[O-])cc4)c4ccc([nH]4)c(-c4ccc(S(=O)(=O)[O-])cc4)c4nc(c(-c5ccc(S(=O)(=O)[O-])cc5)c5ccc2[nH]5)C=C4)C=C3)cc1
REMARK SMILES IDX 24 1 23 2 22 3 21 4 19 5 20 6 18 7 1 8 2 9 3 10 4 11 17 12
REMARK SMILES IDX 16 13 5 14 6 15 7 17 8 18 9 19 14 20 10 21 13 22 11 23 12 24
REMARK SMILES IDX 15 25 25 28 26 29 27 30 28 31 29 32 30 33 31 34 89 35 32 36
REMARK SMILES IDX 88 37 33 38 34 39 35 40 82 41 36 42 87 43 81 44 83 45 37 46
REMARK SMILES IDX 86 47 80 48 79 49 38 51 68 52 49 53 67 54 50 55 53 56 66 57
REMARK SMILES IDX 84 58 51 59 52 60 65 62 85 63 54 64 39 65 40 66 48 67 41 68
REMARK SMILES IDX 47 69 42 70 43 71 44 72 45 73 46 74 69 75 70 76 78 77 71 78
REMARK SMILES IDX 77 79 72 80 73 81 74 82 75 83 76 84 55 85 56 86 64 87 57 88
REMARK SMILES IDX 63 89 58 90 59 91 60 92 61 93 62 94
REMARK H PARENT 5 16 15 26 15 27 83 50 53 61
REMARK Flexibility Score: inf
ROOT
ATOM      1  O   UNL A   1      38.257  21.203  25.433  1.00  0.00    -0.374 OA
ENDROOT
BRANCH   1   2
ATOM      2  C   UNL A   1      37.037  20.696  24.906  1.00  0.00     0.202 C 
BRANCH   2   3
ATOM      3  C   UNL A   1      36.375  21.855  24.233  1.00  0.00     0.261 C 
BRANCH   3   4
ATOM      4  O   UNL A   1      34.936  21.835  24.292  1.00  0.00    -0.460 OA
BRANCH   4   5
ATOM      5  C   UNL A   1      34.293  22.603  25.190  1.00  0.00     0.338 C 
ATOM      6  O   UNL A   1      34.540  22.721  26.371  1.00  0.00    -0.246 OA
BRANCH   5   7
ATOM      7  C   UNL A   1      33.173  23.281  24.489  1.00  0.00     0.063 A 
ATOM      8  C   UNL A   1      31.267  22.607  26.154  1.00  0.00     0.045 C 
ATOM      9  C   UNL A   1      31.821  23.240  24.901  1.00  0.00    -0.035 A 
ATOM     10  C   UNL A   1      30.903  23.997  24.180  1.00  0.00     0.030 A 
ATOM     11  C   UNL A   1      31.314  24.857  23.167  1.00  0.00     0.041 A 
ATOM     12  C   UNL A   1      33.540  24.005  23.336  1.00  0.00     0.018 A 
ATOM     13  C   UNL A   1      32.606  24.785  22.658  1.00  0.00     0.027 A 
BRANCH  11  14
ATOM     14  N   UNL A   1      30.484  25.910  22.775  1.00  0.00    -0.322 N 
ATOM     15  C   UNL A   1      30.411  27.173  23.345  1.00  0.00     0.257 C 
ATOM     16  H   UNL A   1      29.886  25.737  22.012  1.00  0.00     0.170 HD
ATOM     17  O   UNL A   1      29.427  27.878  23.112  1.00  0.00    -0.269 OA
BRANCH  15  18
ATOM     18  C   UNL A   1      31.511  27.731  24.209  1.00  0.00     0.063 A 
ATOM     19  C   UNL A   1      31.326  27.574  25.597  1.00  0.00     0.017 A 
ATOM     20  C   UNL A   1      32.665  28.402  23.735  1.00  0.00     0.045 A 
ATOM     21  C   UNL A   1      32.252  28.085  26.510  1.00  0.00     0.016 A 
ATOM     22  C   UNL A   1      33.580  28.916  24.673  1.00  0.00     0.042 A 
ATOM     23  C   UNL A   1      33.373  28.758  26.042  1.00  0.00     0.020 A 
ATOM     24  Br  UNL A   1      34.603  29.506  27.269  1.00  0.00    -0.051 Br
BRANCH  20  25
ATOM     25  N   UNL A   1      32.886  28.741  22.399  1.00  0.00    -0.398 N 
ATOM     26  H   UNL A   1      32.829  29.682  22.114  1.00  0.00     0.156 HD
ATOM     27  H   UNL A   1      33.099  28.040  21.742  1.00  0.00     0.156 HD
ENDBRANCH  20  25
ENDBRANCH  15  18
ENDBRANCH  11  14
ENDBRANCH   5   7
ENDBRANCH   4   5
ENDBRANCH   3   4
ENDBRANCH   2   3
ENDBRANCH   1   2
BRANCH   1  28
ATOM     28  C   UNL A   1      38.158  22.427  26.124  1.00  0.00     0.202 C 
BRANCH  28  29
ATOM     29  C   UNL A   1      39.489  22.879  26.732  1.00  0.00     0.261 C 
BRANCH  29  30
ATOM     30  O   UNL A   1      39.366  24.200  27.308  1.00  0.00    -0.460 OA
BRANCH  30  31
ATOM     31  C   UNL A   1      40.296  25.126  26.921  1.00  0.00     0.338 C 
ATOM     32  O   UNL A   1      41.167  24.907  26.100  1.00  0.00    -0.246 OA
BRANCH  31  33
ATOM     33  C   UNL A   1      40.031  26.443  27.575  1.00  0.00     0.060 A 
ATOM     34  C   UNL A   1      40.579  27.645  27.085  1.00  0.00     0.016 A 
ATOM     35  C   UNL A   1      39.363  26.444  28.795  1.00  0.00     0.016 A 
ATOM     36  C   UNL A   1      40.569  28.811  27.879  1.00  0.00     0.010 A 
ATOM     37  C   UNL A   1      39.443  27.553  29.606  1.00  0.00     0.010 A 
ATOM     38  C   UNL A   1      40.056  28.742  29.173  1.00  0.00    -0.014 A 
BRANCH  38  39
ATOM     39  C   UNL A   1      40.153  29.754  30.236  1.00  0.00     0.031 A 
ATOM     40  C   UNL A   1      39.306  30.960  30.104  1.00  0.00     0.074 A 
ATOM     41  C   UNL A   1      40.665  29.430  31.450  1.00  0.00     0.049 A 
ATOM     42  N   UNL A   1      39.285  31.913  30.964  1.00  0.00    -0.248 NA
ATOM     43  C   UNL A   1      38.416  31.220  28.969  1.00  0.00     0.031 C 
ATOM     44  C   UNL A   1      40.289  29.936  32.773  1.00  0.00     0.029 A 
ATOM     45  N   UNL A   1      41.669  28.516  31.753  1.00  0.00    -0.354 N 
ATOM     46  C   UNL A   1      38.182  32.687  30.709  1.00  0.00     0.074 A 
ATOM     47  C   UNL A   1      37.747  32.298  29.393  1.00  0.00     0.031 C 
ATOM     48  C   UNL A   1      41.181  29.524  33.694  1.00  0.00     0.029 A 
ATOM     49  C   UNL A   1      42.244  28.823  32.990  1.00  0.00     0.049 A 
ATOM     50  H   UNL A   1      41.936  27.762  31.179  1.00  0.00     0.167 HD
ATOM     51  C   UNL A   1      37.709  33.471  31.715  1.00  0.00     0.031 A 
ATOM     52  C   UNL A   1      43.586  29.033  33.069  1.00  0.00     0.031 A 
ATOM     53  C   UNL A   1      38.635  33.458  32.858  1.00  0.00     0.049 A 
ATOM     54  C   UNL A   1      43.761  30.505  33.313  1.00  0.00     0.074 A 
ATOM     55  C   UNL A   1      38.588  32.892  34.120  1.00  0.00     0.029 A 
ATOM     56  N   UNL A   1      39.969  33.808  32.639  1.00  0.00    -0.354 N 
ATOM     57  N   UNL A   1      42.837  31.374  32.991  1.00  0.00    -0.248 NA
ATOM     58  C   UNL A   1      44.854  31.102  34.072  1.00  0.00     0.031 C 
ATOM     59  C   UNL A   1      39.933  32.792  34.598  1.00  0.00     0.029 A 
ATOM     60  C   UNL A   1      40.789  33.334  33.648  1.00  0.00     0.049 A 
ATOM     61  H   UNL A   1      40.287  34.326  31.864  1.00  0.00     0.167 HD
ATOM     62  C   UNL A   1      43.100  32.554  33.602  1.00  0.00     0.074 A 
ATOM     63  C   UNL A   1      44.410  32.366  34.206  1.00  0.00     0.031 C 
ATOM     64  C   UNL A   1      42.227  33.598  33.617  1.00  0.00     0.031 A 
BRANCH  51  65
ATOM     65  C   UNL A   1      36.338  34.114  31.744  1.00  0.00    -0.014 A 
ATOM     66  C   UNL A   1      35.990  34.943  32.829  1.00  0.00     0.010 A 
ATOM     67  C   UNL A   1      35.327  33.901  30.783  1.00  0.00     0.010 A 
ATOM     68  C   UNL A   1      34.718  35.530  32.943  1.00  0.00     0.020 A 
ATOM     69  C   UNL A   1      34.059  34.500  30.869  1.00  0.00     0.020 A 
ATOM     70  C   UNL A   1      33.761  35.311  31.954  1.00  0.00     0.054 A 
BRANCH  70  71
ATOM     71  S   UNL A   1      32.130  36.088  32.106  1.00  0.00     0.124 S 
ATOM     72  O   UNL A   1      32.397  37.203  33.010  1.00  0.00    -0.237 OA
ATOM     73  O   UNL A   1      31.824  36.452  30.726  1.00  0.00    -0.237 OA
ATOM     74  O   UNL A   1      31.290  35.029  32.666  1.00  0.00    -0.744 OA
ENDBRANCH  70  71
ENDBRANCH  51  65
BRANCH  52  75
ATOM     75  C   UNL A   1      44.357  28.073  32.202  1.00  0.00    -0.014 A 
ATOM     76  C   UNL A   1      44.105  26.695  32.426  1.00  0.00     0.010 A 
ATOM     77  C   UNL A   1      44.822  28.451  30.926  1.00  0.00     0.010 A 
ATOM     78  C   UNL A   1      44.143  25.762  31.375  1.00  0.00     0.020 A 
ATOM     79  C   UNL A   1      44.841  27.519  29.865  1.00  0.00     0.020 A 
ATOM     80  C   UNL A   1      44.452  26.193  30.085  1.00  0.00     0.054 A 
BRANCH  80  81
ATOM     81  S   UNL A   1      44.017  25.103  28.675  1.00  0.00     0.124 S 
ATOM     82  O   UNL A   1      42.786  24.470  29.132  1.00  0.00    -0.237 OA
ATOM     83  O   UNL A   1      43.862  26.047  27.567  1.00  0.00    -0.237 OA
ATOM     84  O   UNL A   1      45.181  24.230  28.559  1.00  0.00    -0.744 OA
ENDBRANCH  80  81
ENDBRANCH  52  75
BRANCH  64  85
ATOM     85  C   UNL A   1      42.726  35.008  33.636  1.00  0.00    -0.014 A 
ATOM     86  C   UNL A   1      43.484  35.540  32.579  1.00  0.00     0.010 A 
ATOM     87  C   UNL A   1      42.277  35.894  34.636  1.00  0.00     0.010 A 
ATOM     88  C   UNL A   1      43.880  36.873  32.579  1.00  0.00     0.020 A 
ATOM     89  C   UNL A   1      42.609  37.245  34.608  1.00  0.00     0.020 A 
ATOM     90  C   UNL A   1      43.448  37.713  33.602  1.00  0.00     0.054 A 
BRANCH  90  91
ATOM     91  S   UNL A   1      43.988  39.432  33.591  1.00  0.00     0.124 S 
ATOM     92  O   UNL A   1      44.727  39.497  32.331  1.00  0.00    -0.237 OA
ATOM     93  O   UNL A   1      42.727  40.169  33.616  1.00  0.00    -0.237 OA
ATOM     94  O   UNL A   1      44.797  39.547  34.801  1.00  0.00    -0.744 OA
ENDBRANCH  90  91
ENDBRANCH  64  85
ENDBRANCH  38  39
ENDBRANCH  31  33
ENDBRANCH  30  31
ENDBRANCH  29  30
ENDBRANCH  28  29
ENDBRANCH   1  28
TORSDOF 20
ENDMDL
MODEL 2
REMARK VINA RESULT:     -10.6      5.326     10.317
REMARK SMILES Cc1cc(NC(=O)c2ccc(Br)cc2N)ccc1C(=O)OCCOCCOC(=O)c1ccc(-c2c3nc(c(-c4ccc(S(=O)(=O)[O-])cc4)c4ccc([nH]4)c(-c4ccc(S(=O)(=O)[O-])cc4)c4nc(c(-c5ccc(S(=O)(=O)[O-])cc5)c5ccc2[nH]5)C=C4)C=C3)cc1
REMARK SMILES IDX 24 1 23 2 22 3 21 4 19 5 20 6 18 7 1 8 2 9 3 10 4 11 17 12
REMARK SMILES IDX 16 13 5 14 6 15 7 17 8 18 9 19 14 20 10 21 13 22 11 23 12 24
REMARK SMILES IDX 15 25 25 28 26 29 27 30 28 31 29 32 30 33 31 34 89 35 32 36
REMARK SMILES IDX 88 37 33 38 34 39 35 40 82 41 36 42 87 43 81 44 83 45 37 46
REMARK SMILES IDX 86 47 80 48 79 49 38 51 68 52 49 53 67 54 50 55 53 56 66 57
REMARK SMILES IDX 84 58 51 59 52 60 65 62 85 63 54 64 39 65 40 66 48 67 41 68
REMARK SMILES IDX 47 69 42 70 43 71 44 72 45 73 46 74 69 75 70 76 78 77 71 78
REMARK SMILES IDX 77 79 72 80 73 81 74 82 75 83 76 84 55 85 56 86 64 87 57 88
REMARK SMILES IDX 63 89 58 90 59 91 60 92 61 93 62 94
REMARK H PARENT 5 16 15 26 15 27 83 50 53 61
REMARK Flexibility Score: inf
ROOT
ATOM      1  O   UNL A   1      33.926  31.388  28.377  1.00  0.00    -0.374 OA
ENDROOT
BRANCH   1   2
ATOM      2  C   UNL A   1      33.105  31.973  27.373  1.00  0.00     0.202 C 
BRANCH   2   3
ATOM      3  C   UNL A   1      32.234  30.868  26.868  1.00  0.00     0.261 C 
BRANCH   3   4
ATOM      4  O   UNL A   1      32.500  29.583  27.461  1.00  0.00    -0.460 OA
BRANCH   4   5
ATOM      5  C   UNL A   1      31.778  28.512  27.084  1.00  0.00     0.338 C 
ATOM      6  O   UNL A   1      31.055  27.828  27.777  1.00  0.00    -0.246 OA
BRANCH   5   7
ATOM      7  C   UNL A   1      32.041  28.271  25.642  1.00  0.00     0.063 A 
ATOM      8  C   UNL A   1      34.656  28.176  25.783  1.00  0.00     0.045 C 
ATOM      9  C   UNL A   1      33.328  28.167  25.065  1.00  0.00    -0.035 A 
ATOM     10  C   UNL A   1      33.404  27.858  23.710  1.00  0.00     0.030 A 
ATOM     11  C   UNL A   1      32.265  27.542  22.977  1.00  0.00     0.041 A 
ATOM     12  C   UNL A   1      30.891  28.142  24.837  1.00  0.00     0.018 A 
ATOM     13  C   UNL A   1      30.999  27.793  23.493  1.00  0.00     0.027 A 
BRANCH  11  14
ATOM     14  N   UNL A   1      32.387  26.816  21.790  1.00  0.00    -0.322 N 
ATOM     15  C   UNL A   1      32.891  25.531  21.644  1.00  0.00     0.257 C 
ATOM     16  H   UNL A   1      32.081  27.264  20.967  1.00  0.00     0.170 HD
ATOM     17  O   UNL A   1      33.233  25.147  20.524  1.00  0.00    -0.269 OA
BRANCH  15  18
ATOM     18  C   UNL A   1      33.001  24.573  22.801  1.00  0.00     0.063 A 
ATOM     19  C   UNL A   1      34.312  24.297  23.234  1.00  0.00     0.017 A 
ATOM     20  C   UNL A   1      31.910  23.935  23.443  1.00  0.00     0.045 A 
ATOM     21  C   UNL A   1      34.554  23.393  24.271  1.00  0.00     0.016 A 
ATOM     22  C   UNL A   1      32.179  23.021  24.479  1.00  0.00     0.042 A 
ATOM     23  C   UNL A   1      33.484  22.755  24.885  1.00  0.00     0.020 A 
ATOM     24  Br  UNL A   1      33.802  21.484  26.249  1.00  0.00    -0.051 Br
BRANCH  20  25
ATOM     25  N   UNL A   1      30.585  24.019  23.013  1.00  0.00    -0.398 N 
ATOM     26  H   UNL A   1      30.222  24.881  22.702  1.00  0.00     0.156 HD
ATOM     27  H   UNL A   1      30.013  23.218  23.020  1.00  0.00     0.156 HD
ENDBRANCH  20  25
ENDBRANCH  15  18
ENDBRANCH  11  14
ENDBRANCH   5   7
ENDBRANCH   4   5
ENDBRANCH   3   4
ENDBRANCH   2   3
ENDBRANCH   1   2
BRANCH   1  28
ATOM     28  C   UNL A   1      35.259  31.135  27.998  1.00  0.00     0.202 C 
BRANCH  28  29
ATOM     29  C   UNL A   1      35.931  30.061  28.859  1.00  0.00     0.261 C 
BRANCH  29  30
ATOM     30  O   UNL A   1      37.082  29.507  28.181  1.00  0.00    -0.460 OA
BRANCH  30  31
ATOM     31  C   UNL A   1      38.078  29.006  28.975  1.00  0.00     0.338 C 
ATOM     32  O   UNL A   1      37.876  28.372  29.994  1.00  0.00    -0.246 OA
BRANCH  31  33
ATOM     33  C   UNL A   1      39.418  29.271  28.369  1.00  0.00     0.060 A 
ATOM     34  C   UNL A   1      39.716  28.928  27.035  1.00  0.00     0.016 A 
ATOM     35  C   UNL A   1      40.438  29.713  29.205  1.00  0.00     0.016 A 
ATOM     36  C   UNL A   1      41.053  28.905  26.585  1.00  0.00     0.010 A 
ATOM     37  C   UNL A   1      41.746  29.594  28.793  1.00  0.00     0.010 A 
ATOM     38  C   UNL A   1      42.076  29.176  27.492  1.00  0.00    -0.014 A 
BRANCH  38  39
ATOM     39  C   UNL A   1      43.521  28.987  27.303  1.00  0.00     0.031 A 
ATOM     40  C   UNL A   1      44.311  30.166  26.882  1.00  0.00     0.074 A 
ATOM     41  C   UNL A   1      44.157  27.927  27.863  1.00  0.00     0.049 A 
ATOM     42  N   UNL A   1      45.580  30.142  26.692  1.00  0.00    -0.248 NA
ATOM     43  C   UNL A   1      43.735  31.485  26.607  1.00  0.00     0.031 C 
ATOM     44  C   UNL A   1      45.518  27.847  28.401  1.00  0.00     0.029 A 
ATOM     45  N   UNL A   1      43.669  26.644  28.091  1.00  0.00    -0.354 N 
ATOM     46  C   UNL A   1      46.023  31.439  26.636  1.00  0.00     0.074 A 
ATOM     47  C   UNL A   1      44.834  32.233  26.460  1.00  0.00     0.031 C 
ATOM     48  C   UNL A   1      45.833  26.565  28.667  1.00  0.00     0.029 A 
ATOM     49  C   UNL A   1      44.729  25.738  28.206  1.00  0.00     0.049 A 
ATOM     50  H   UNL A   1      42.716  26.408  28.160  1.00  0.00     0.167 HD
ATOM     51  C   UNL A   1      47.341  31.672  26.877  1.00  0.00     0.031 A 
ATOM     52  C   UNL A   1      44.774  24.656  27.383  1.00  0.00     0.031 A 
ATOM     53  C   UNL A   1      48.080  30.403  26.971  1.00  0.00     0.049 A 
ATOM     54  C   UNL A   1      45.902  24.911  26.425  1.00  0.00     0.074 A 
ATOM     55  C   UNL A   1      48.655  29.706  28.019  1.00  0.00     0.029 A 
ATOM     56  N   UNL A   1      47.996  29.503  25.906  1.00  0.00    -0.354 N 
ATOM     57  N   UNL A   1      46.337  26.120  26.175  1.00  0.00    -0.248 NA
ATOM     58  C   UNL A   1      46.737  23.878  25.824  1.00  0.00     0.031 C 
ATOM     59  C   UNL A   1      48.794  28.344  27.606  1.00  0.00     0.029 A 
ATOM     60  C   UNL A   1      48.345  28.223  26.297  1.00  0.00     0.049 A 
ATOM     61  H   UNL A   1      47.723  29.749  24.992  1.00  0.00     0.167 HD
ATOM     62  C   UNL A   1      47.538  26.044  25.553  1.00  0.00     0.074 A 
ATOM     63  C   UNL A   1      47.718  24.625  25.282  1.00  0.00     0.031 C 
ATOM     64  C   UNL A   1      48.333  27.126  25.330  1.00  0.00     0.031 A 
BRANCH  51  65
ATOM     65  C   UNL A   1      47.939  33.025  27.198  1.00  0.00    -0.014 A 
ATOM     66  C   UNL A   1      48.001  33.450  28.539  1.00  0.00     0.010 A 
ATOM     67  C   UNL A   1      48.396  33.953  26.237  1.00  0.00     0.010 A 
ATOM     68  C   UNL A   1      48.498  34.715  28.902  1.00  0.00     0.020 A 
ATOM     69  C   UNL A   1      48.918  35.210  26.584  1.00  0.00     0.020 A 
ATOM     70  C   UNL A   1      48.963  35.585  27.919  1.00  0.00     0.054 A 
BRANCH  70  71
ATOM     71  S   UNL A   1      49.615  37.206  28.401  1.00  0.00     0.124 S 
ATOM     72  O   UNL A   1      50.297  37.644  27.187  1.00  0.00    -0.237 OA
ATOM     73  O   UNL A   1      48.404  37.944  28.748  1.00  0.00    -0.237 OA
ATOM     74  O   UNL A   1      50.497  36.905  29.529  1.00  0.00    -0.744 OA
ENDBRANCH  70  71
ENDBRANCH  51  65
BRANCH  52  75
ATOM     75  C   UNL A   1      43.410  24.053  27.170  1.00  0.00    -0.014 A 
ATOM     76  C   UNL A   1      43.136  23.585  25.860  1.00  0.00     0.010 A 
ATOM     77  C   UNL A   1      42.697  23.465  28.234  1.00  0.00     0.010 A 
ATOM     78  C   UNL A   1      42.322  22.461  25.637  1.00  0.00     0.020 A 
ATOM     79  C   UNL A   1      41.894  22.324  28.015  1.00  0.00     0.020 A 
ATOM     80  C   UNL A   1      41.754  21.799  26.725  1.00  0.00     0.054 A 
BRANCH  80  81
ATOM     81  S   UNL A   1      41.129  20.092  26.477  1.00  0.00     0.124 S 
ATOM     82  O   UNL A   1      41.363  19.477  27.777  1.00  0.00    -0.237 OA
ATOM     83  O   UNL A   1      39.722  20.305  26.129  1.00  0.00    -0.237 OA
ATOM     84  O   UNL A   1      41.948  19.595  25.376  1.00  0.00    -0.744 OA
ENDBRANCH  80  81
ENDBRANCH  52  75
BRANCH  64  85
ATOM     85  C   UNL A   1      49.217  27.186  24.125  1.00  0.00    -0.014 A 
ATOM     86  C   UNL A   1      50.618  27.145  24.230  1.00  0.00     0.010 A 
ATOM     87  C   UNL A   1      48.651  27.090  22.838  1.00  0.00     0.010 A 
ATOM     88  C   UNL A   1      51.424  27.130  23.097  1.00  0.00     0.020 A 
ATOM     89  C   UNL A   1      49.449  27.004  21.700  1.00  0.00     0.020 A 
ATOM     90  C   UNL A   1      50.831  27.072  21.839  1.00  0.00     0.054 A 
BRANCH  90  91
ATOM     91  S   UNL A   1      51.894  27.072  20.385  1.00  0.00     0.124 S 
ATOM     92  O   UNL A   1      51.161  27.962  19.487  1.00  0.00    -0.237 OA
ATOM     93  O   UNL A   1      53.153  27.603  20.903  1.00  0.00    -0.237 OA
ATOM     94  O   UNL A   1      51.933  25.668  19.986  1.00  0.00    -0.744 OA
ENDBRANCH  90  91
ENDBRANCH  64  85
ENDBRANCH  38  39
ENDBRANCH  31  33
ENDBRANCH  30  31
ENDBRANCH  29  30
ENDBRANCH  28  29
ENDBRANCH   1  28
TORSDOF 20
ENDMDL
MODEL 3
REMARK VINA RESULT:     -10.6      1.571      2.049
REMARK SMILES Cc1cc(NC(=O)c2ccc(Br)cc2N)ccc1C(=O)OCCOCCOC(=O)c1ccc(-c2c3nc(c(-c4ccc(S(=O)(=O)[O-])cc4)c4ccc([nH]4)c(-c4ccc(S(=O)(=O)[O-])cc4)c4nc(c(-c5ccc(S(=O)(=O)[O-])cc5)c5ccc2[nH]5)C=C4)C=C3)cc1
REMARK SMILES IDX 24 1 23 2 22 3 21 4 19 5 20 6 18 7 1 8 2 9 3 10 4 11 17 12
REMARK SMILES IDX 16 13 5 14 6 15 7 17 8 18 9 19 14 20 10 21 13 22 11 23 12 24
REMARK SMILES IDX 15 25 25 28 26 29 27 30 28 31 29 32 30 33 31 34 89 35 32 36
REMARK SMILES IDX 88 37 33 38 34 39 35 40 82 41 36 42 87 43 81 44 83 45 37 46
REMARK SMILES IDX 86 47 80 48 79 49 38 51 68 52 49 53 67 54 50 55 53 56 66 57
REMARK SMILES IDX 84 58 51 59 52 60 65 62 85 63 54 64 39 65 40 66 48 67 41 68
REMARK SMILES IDX 47 69 42 70 43 71 44 72 45 73 46 74 69 75 70 76 78 77 71 78
REMARK SMILES IDX 77 79 72 80 73 81 74 82 75 83 76 84 55 85 56 86 64 87 57 88
REMARK SMILES IDX 63 89 58 90 59 91 60 92 61 93 62 94
REMARK H PARENT 5 16 15 26 15 27 83 50 53 61
REMARK Flexibility Score: inf
ROOT
ATOM      1  O   UNL A   1      36.138  23.299  25.729  1.00  0.00    -0.374 OA
ENDROOT
BRANCH   1   2
ATOM      2  C   UNL A   1      35.397  22.192  25.230  1.00  0.00     0.202 C 
BRANCH   2   3
ATOM      3  C   UNL A   1      34.056  22.275  25.883  1.00  0.00     0.261 C 
BRANCH   3   4
ATOM      4  O   UNL A   1      33.230  23.357  25.412  1.00  0.00    -0.460 OA
BRANCH   4   5
ATOM      5  C   UNL A   1      31.896  23.200  25.350  1.00  0.00     0.338 C 
ATOM      6  O   UNL A   1      31.228  22.337  25.879  1.00  0.00    -0.246 OA
BRANCH   5   7
ATOM      7  C   UNL A   1      31.354  24.268  24.471  1.00  0.00     0.063 A 
ATOM      8  C   UNL A   1      29.684  25.318  26.195  1.00  0.00     0.045 C 
ATOM      9  C   UNL A   1      30.337  25.178  24.841  1.00  0.00    -0.035 A 
ATOM     10  C   UNL A   1      29.998  26.173  23.929  1.00  0.00     0.030 A 
ATOM     11  C   UNL A   1      30.713  26.344  22.748  1.00  0.00     0.041 A 
ATOM     12  C   UNL A   1      31.932  24.335  23.186  1.00  0.00     0.018 A 
ATOM     13  C   UNL A   1      31.600  25.367  22.310  1.00  0.00     0.027 A 
BRANCH  11  14
ATOM     14  N   UNL A   1      30.669  27.572  22.085  1.00  0.00    -0.322 N 
ATOM     15  C   UNL A   1      31.071  28.805  22.581  1.00  0.00     0.257 C 
ATOM     16  H   UNL A   1      30.315  27.563  21.166  1.00  0.00     0.170 HD
ATOM     17  O   UNL A   1      30.683  29.831  22.019  1.00  0.00    -0.269 OA
BRANCH  15  18
ATOM     18  C   UNL A   1      31.998  28.933  23.761  1.00  0.00     0.063 A 
ATOM     19  C   UNL A   1      31.404  29.409  24.945  1.00  0.00     0.017 A 
ATOM     20  C   UNL A   1      33.385  28.642  23.749  1.00  0.00     0.045 A 
ATOM     21  C   UNL A   1      32.163  29.614  26.101  1.00  0.00     0.016 A 
ATOM     22  C   UNL A   1      34.131  28.865  24.922  1.00  0.00     0.042 A 
ATOM     23  C   UNL A   1      33.525  29.346  26.081  1.00  0.00     0.020 A 
ATOM     24  Br  UNL A   1      34.574  29.677  27.620  1.00  0.00    -0.051 Br
BRANCH  20  25
ATOM     25  N   UNL A   1      34.109  28.303  22.605  1.00  0.00    -0.398 N 
ATOM     26  H   UNL A   1      35.078  28.138  22.666  1.00  0.00     0.156 HD
ATOM     27  H   UNL A   1      33.652  28.228  21.736  1.00  0.00     0.156 HD
ENDBRANCH  20  25
ENDBRANCH  15  18
ENDBRANCH  11  14
ENDBRANCH   5   7
ENDBRANCH   4   5
ENDBRANCH   3   4
ENDBRANCH   2   3
ENDBRANCH   1   2
BRANCH   1  28
ATOM     28  C   UNL A   1      37.539  23.153  25.701  1.00  0.00     0.202 C 
BRANCH  28  29
ATOM     29  C   UNL A   1      38.278  24.382  26.241  1.00  0.00     0.261 C 
BRANCH  29  30
ATOM     30  O   UNL A   1      38.840  24.110  27.545  1.00  0.00    -0.460 OA
BRANCH  30  31
ATOM     31  C   UNL A   1      40.074  24.642  27.804  1.00  0.00     0.338 C 
ATOM     32  O   UNL A   1      41.119  24.056  27.593  1.00  0.00    -0.246 OA
BRANCH  31  33
ATOM     33  C   UNL A   1      39.951  26.050  28.287  1.00  0.00     0.060 A 
ATOM     34  C   UNL A   1      40.786  27.080  27.812  1.00  0.00     0.016 A 
ATOM     35  C   UNL A   1      39.097  26.301  29.356  1.00  0.00     0.016 A 
ATOM     36  C   UNL A   1      40.858  28.314  28.492  1.00  0.00     0.010 A 
ATOM     37  C   UNL A   1      39.242  27.466  30.075  1.00  0.00     0.010 A 
ATOM     38  C   UNL A   1      40.129  28.479  29.669  1.00  0.00    -0.014 A 
BRANCH  38  39
ATOM     39  C   UNL A   1      40.230  29.574  30.644  1.00  0.00     0.031 A 
ATOM     40  C   UNL A   1      39.389  30.769  30.413  1.00  0.00     0.074 A 
ATOM     41  C   UNL A   1      40.740  29.349  31.882  1.00  0.00     0.049 A 
ATOM     42  N   UNL A   1      39.372  31.790  31.192  1.00  0.00    -0.248 NA
ATOM     43  C   UNL A   1      38.501  30.939  29.259  1.00  0.00     0.031 C 
ATOM     44  C   UNL A   1      40.366  29.964  33.158  1.00  0.00     0.029 A 
ATOM     45  N   UNL A   1      41.739  28.459  32.260  1.00  0.00    -0.354 N 
ATOM     46  C   UNL A   1      38.273  32.546  30.872  1.00  0.00     0.074 A 
ATOM     47  C   UNL A   1      37.837  32.051  29.592  1.00  0.00     0.031 C 
ATOM     48  C   UNL A   1      41.255  29.624  34.111  1.00  0.00     0.029 A 
ATOM     49  C   UNL A   1      42.315  28.864  33.468  1.00  0.00     0.049 A 
ATOM     50  H   UNL A   1      42.003  27.659  31.750  1.00  0.00     0.167 HD
ATOM     51  C   UNL A   1      37.803  33.412  31.810  1.00  0.00     0.031 A 
ATOM     52  C   UNL A   1      43.658  29.073  33.531  1.00  0.00     0.031 A 
ATOM     53  C   UNL A   1      38.728  33.488  32.952  1.00  0.00     0.049 A 
ATOM     54  C   UNL A   1      43.840  30.559  33.653  1.00  0.00     0.074 A 
ATOM     55  C   UNL A   1      38.678  33.029  34.256  1.00  0.00     0.029 A 
ATOM     56  N   UNL A   1      40.064  33.813  32.706  1.00  0.00    -0.354 N 
ATOM     57  N   UNL A   1      42.920  31.403  33.259  1.00  0.00    -0.248 NA
ATOM     58  C   UNL A   1      44.935  31.211  34.362  1.00  0.00     0.031 C 
ATOM     59  C   UNL A   1      40.022  32.962  34.742  1.00  0.00     0.029 A 
ATOM     60  C   UNL A   1      40.881  33.420  33.751  1.00  0.00     0.049 A 
ATOM     61  H   UNL A   1      40.385  34.264  31.891  1.00  0.00     0.167 HD
ATOM     62  C   UNL A   1      43.188  32.628  33.772  1.00  0.00     0.074 A 
ATOM     63  C   UNL A   1      44.497  32.484  34.391  1.00  0.00     0.031 C 
ATOM     64  C   UNL A   1      42.320  33.674  33.700  1.00  0.00     0.031 A 
BRANCH  51  65
ATOM     65  C   UNL A   1      36.435  34.062  31.784  1.00  0.00    -0.014 A 
ATOM     66  C   UNL A   1      36.091  34.981  32.795  1.00  0.00     0.010 A 
ATOM     67  C   UNL A   1      35.422  33.771  30.846  1.00  0.00     0.010 A 
ATOM     68  C   UNL A   1      34.822  35.582  32.859  1.00  0.00     0.020 A 
ATOM     69  C   UNL A   1      34.157  34.382  30.881  1.00  0.00     0.020 A 
ATOM     70  C   UNL A   1      33.863  35.284  31.893  1.00  0.00     0.054 A 
BRANCH  70  71
ATOM     71  S   UNL A   1      32.237  36.079  31.978  1.00  0.00     0.124 S 
ATOM     72  O   UNL A   1      31.402  35.024  32.546  1.00  0.00    -0.237 OA
ATOM     73  O   UNL A   1      32.489  37.223  32.849  1.00  0.00    -0.237 OA
ATOM     74  O   UNL A   1      31.940  36.417  30.586  1.00  0.00    -0.744 OA
ENDBRANCH  70  71
ENDBRANCH  51  65
BRANCH  52  75
ATOM     75  C   UNL A   1      44.425  28.041  32.747  1.00  0.00    -0.014 A 
ATOM     76  C   UNL A   1      45.255  28.541  31.711  1.00  0.00     0.010 A 
ATOM     77  C   UNL A   1      44.770  26.798  33.316  1.00  0.00     0.010 A 
ATOM     78  C   UNL A   1      46.472  27.917  31.380  1.00  0.00     0.020 A 
ATOM     79  C   UNL A   1      46.001  26.181  32.999  1.00  0.00     0.020 A 
ATOM     80  C   UNL A   1      46.866  26.772  32.071  1.00  0.00     0.054 A 
BRANCH  80  81
ATOM     81  S   UNL A   1      48.629  26.271  31.991  1.00  0.00     0.124 S 
ATOM     82  O   UNL A   1      49.313  27.425  32.559  1.00  0.00    -0.237 OA
ATOM     83  O   UNL A   1      48.662  25.058  32.811  1.00  0.00    -0.237 OA
ATOM     84  O   UNL A   1      48.843  26.036  30.566  1.00  0.00    -0.744 OA
ENDBRANCH  80  81
ENDBRANCH  52  75
BRANCH  64  85
ATOM     85  C   UNL A   1      42.825  35.078  33.603  1.00  0.00    -0.014 A 
ATOM     86  C   UNL A   1      43.491  35.550  32.459  1.00  0.00     0.010 A 
ATOM     87  C   UNL A   1      42.470  36.018  34.592  1.00  0.00     0.010 A 
ATOM     88  C   UNL A   1      43.892  36.877  32.356  1.00  0.00     0.020 A 
ATOM     89  C   UNL A   1      42.805  37.363  34.466  1.00  0.00     0.020 A 
ATOM     90  C   UNL A   1      43.555  37.772  33.369  1.00  0.00     0.054 A 
BRANCH  90  91
ATOM     91  S   UNL A   1      44.101  39.482  33.222  1.00  0.00     0.124 S 
ATOM     92  O   UNL A   1      44.806  39.673  34.488  1.00  0.00    -0.237 OA
ATOM     93  O   UNL A   1      44.947  39.453  32.032  1.00  0.00    -0.237 OA
ATOM     94  O   UNL A   1      42.855  40.230  33.077  1.00  0.00    -0.744 OA
ENDBRANCH  90  91
ENDBRANCH  64  85
ENDBRANCH  38  39
ENDBRANCH  31  33
ENDBRANCH  30  31
ENDBRANCH  29  30
ENDBRANCH  28  29
ENDBRANCH   1  28
TORSDOF 20
ENDMDL
