MODEL 1
REMARK VINA RESULT:      -9.9      0.000      0.000
REMARK SMILES COc1ccc(CCNC(=O)c2cccnc2C(=O)OCCOCCOC(=O)c2ccc(-c3c4nc(c(-c5ccc(S(=O)(=O)[O-])cc5)c5ccc([nH]5)c(-c5ccc(S(=O)(=O)[O-])cc5)c5nc(c(-c6ccc(S(=O)(=O)[O-])cc6)c6ccc3[nH]6)C=C5)C=C4)cc2)cc1OC
REMARK SMILES IDX 22 1 21 2 20 3 18 4 19 5 17 6 12 7 13 8 14 9 16 10 15 11
REMARK SMILES IDX 10 12 9 13 11 15 8 16 7 17 6 18 3 19 4 20 90 21 5 22 89 23
REMARK SMILES IDX 2 24 1 25 91 26 92 27 23 28 24 29 25 30 26 31 27 32 28 33
REMARK SMILES IDX 29 34 30 35 88 36 31 37 87 38 32 39 33 40 34 41 81 42 35 43
REMARK SMILES IDX 86 44 80 45 82 46 36 47 85 48 79 49 78 50 37 52 67 53 48 54
REMARK SMILES IDX 66 55 49 56 52 57 65 58 83 59 50 60 51 61 64 63 84 64 53 65
REMARK SMILES IDX 38 66 39 67 47 68 40 69 46 70 41 71 42 72 43 73 44 74 45 75
REMARK SMILES IDX 68 76 69 77 77 78 70 79 76 80 71 81 72 82 73 83 74 84 75 85
REMARK SMILES IDX 54 86 55 87 63 88 56 89 62 90 57 91 58 92 59 93 60 94 61 95
REMARK H PARENT 9 14 82 51 52 62
REMARK Flexibility Score: inf
ROOT
ATOM      1  C   UNL A   1      37.812  21.612  25.109  1.00  0.00     0.202 C 
ENDROOT
BRANCH   1   2
ATOM      2  C   UNL A   1      36.441  21.190  25.637  1.00  0.00     0.261 C 
BRANCH   2   3
ATOM      3  O   UNL A   1      35.404  21.983  25.037  1.00  0.00    -0.458 OA
BRANCH   3   4
ATOM      4  C   UNL A   1      34.209  21.351  24.921  1.00  0.00     0.357 C 
ATOM      5  O   UNL A   1      34.036  20.142  24.851  1.00  0.00    -0.244 OA
BRANCH   4   6
ATOM      6  C   UNL A   1      33.087  22.311  25.113  1.00  0.00     0.161 A 
ATOM      7  C   UNL A   1      32.198  22.689  24.112  1.00  0.00     0.073 A 
ATOM      8  C   UNL A   1      31.062  23.409  24.505  1.00  0.00     0.018 A 
ATOM      9  C   UNL A   1      30.916  23.835  25.823  1.00  0.00     0.021 A 
ATOM     10  N   UNL A   1      32.969  22.741  26.412  1.00  0.00    -0.248 NA
ATOM     11  C   UNL A   1      31.903  23.498  26.730  1.00  0.00     0.112 A 
BRANCH   7  12
ATOM     12  C   UNL A   1      32.351  22.258  22.712  1.00  0.00     0.253 C 
ATOM     13  N   UNL A   1      32.894  23.096  21.764  1.00  0.00    -0.352 N 
ATOM     14  H   UNL A   1      32.878  22.733  20.850  1.00  0.00     0.163 HD
ATOM     15  O   UNL A   1      31.958  21.145  22.385  1.00  0.00    -0.269 OA
BRANCH  13  16
ATOM     16  C   UNL A   1      33.491  24.427  21.867  1.00  0.00     0.121 C 
BRANCH  16  17
ATOM     17  C   UNL A   1      32.672  25.536  21.200  1.00  0.00     0.057 C 
BRANCH  17  18
ATOM     18  C   UNL A   1      32.310  26.696  22.095  1.00  0.00    -0.042 A 
ATOM     19  C   UNL A   1      31.646  28.709  23.948  1.00  0.00     0.160 A 
ATOM     20  C   UNL A   1      32.953  28.589  23.462  1.00  0.00     0.051 A 
ATOM     21  C   UNL A   1      30.637  27.879  23.450  1.00  0.00     0.160 A 
ATOM     22  C   UNL A   1      33.286  27.579  22.556  1.00  0.00     0.008 A 
ATOM     23  C   UNL A   1      30.985  26.879  22.526  1.00  0.00     0.054 A 
BRANCH  19  24
ATOM     24  O   UNL A   1      31.386  29.683  24.874  1.00  0.00    -0.493 OA
ATOM     25  C   UNL A   1      31.884  29.324  26.169  1.00  0.00     0.278 C 
ENDBRANCH  19  24
BRANCH  21  26
ATOM     26  O   UNL A   1      29.300  27.881  23.752  1.00  0.00    -0.493 OA
ATOM     27  C   UNL A   1      28.618  26.635  23.794  1.00  0.00     0.278 C 
ENDBRANCH  21  26
ENDBRANCH  17  18
ENDBRANCH  16  17
ENDBRANCH  13  16
ENDBRANCH   7  12
ENDBRANCH   4   6
ENDBRANCH   3   4
ENDBRANCH   2   3
ENDBRANCH   1   2
BRANCH   1  28
ATOM     28  O   UNL A   1      38.511  22.582  25.893  1.00  0.00    -0.374 OA
BRANCH  28  29
ATOM     29  C   UNL A   1      39.649  22.130  26.627  1.00  0.00     0.202 C 
BRANCH  29  30
ATOM     30  C   UNL A   1      41.007  22.703  26.198  1.00  0.00     0.261 C 
BRANCH  30  31
ATOM     31  O   UNL A   1      41.036  24.140  26.161  1.00  0.00    -0.460 OA
BRANCH  31  32
ATOM     32  C   UNL A   1      42.178  24.697  26.644  1.00  0.00     0.338 C 
ATOM     33  O   UNL A   1      43.316  24.500  26.261  1.00  0.00    -0.246 OA
BRANCH  32  34
ATOM     34  C   UNL A   1      41.843  25.722  27.651  1.00  0.00     0.060 A 
ATOM     35  C   UNL A   1      42.748  26.768  27.871  1.00  0.00     0.016 A 
ATOM     36  C   UNL A   1      40.697  25.605  28.433  1.00  0.00     0.016 A 
ATOM     37  C   UNL A   1      42.511  27.701  28.884  1.00  0.00     0.010 A 
ATOM     38  C   UNL A   1      40.475  26.532  29.456  1.00  0.00     0.010 A 
ATOM     39  C   UNL A   1      41.379  27.582  29.699  1.00  0.00    -0.014 A 
BRANCH  39  40
ATOM     40  C   UNL A   1      41.189  28.462  30.883  1.00  0.00     0.031 A 
ATOM     41  C   UNL A   1      40.088  29.492  30.862  1.00  0.00     0.074 A 
ATOM     42  C   UNL A   1      41.986  28.364  31.965  1.00  0.00     0.049 A 
ATOM     43  N   UNL A   1      39.794  30.409  31.747  1.00  0.00    -0.248 NA
ATOM     44  C   UNL A   1      39.219  29.501  29.675  1.00  0.00     0.031 C 
ATOM     45  C   UNL A   1      43.084  27.410  32.128  1.00  0.00     0.029 A 
ATOM     46  N   UNL A   1      41.994  29.083  33.136  1.00  0.00    -0.354 N 
ATOM     47  C   UNL A   1      38.715  31.110  31.220  1.00  0.00     0.074 A 
ATOM     48  C   UNL A   1      38.442  30.546  29.916  1.00  0.00     0.031 C 
ATOM     49  C   UNL A   1      43.648  27.594  33.336  1.00  0.00     0.029 A 
ATOM     50  C   UNL A   1      42.977  28.697  34.019  1.00  0.00     0.049 A 
ATOM     51  H   UNL A   1      41.356  29.808  33.327  1.00  0.00     0.167 HD
ATOM     52  C   UNL A   1      38.000  32.118  31.774  1.00  0.00     0.031 A 
ATOM     53  C   UNL A   1      43.304  29.182  35.235  1.00  0.00     0.031 A 
ATOM     54  C   UNL A   1      38.247  32.666  33.079  1.00  0.00     0.049 A 
ATOM     55  C   UNL A   1      42.516  30.327  35.817  1.00  0.00     0.074 A 
ATOM     56  C   UNL A   1      37.557  33.672  33.734  1.00  0.00     0.029 A 
ATOM     57  N   UNL A   1      39.254  32.251  33.935  1.00  0.00    -0.354 N 
ATOM     58  N   UNL A   1      41.489  30.966  35.307  1.00  0.00    -0.248 NA
ATOM     59  C   UNL A   1      42.927  30.812  37.144  1.00  0.00     0.031 C 
ATOM     60  C   UNL A   1      38.173  33.893  34.970  1.00  0.00     0.029 A 
ATOM     61  C   UNL A   1      39.217  32.992  35.104  1.00  0.00     0.049 A 
ATOM     62  H   UNL A   1      39.902  31.536  33.740  1.00  0.00     0.167 HD
ATOM     63  C   UNL A   1      41.117  31.907  36.264  1.00  0.00     0.074 A 
ATOM     64  C   UNL A   1      42.020  31.748  37.384  1.00  0.00     0.031 C 
ATOM     65  C   UNL A   1      40.116  32.820  36.217  1.00  0.00     0.031 A 
BRANCH  52  66
ATOM     66  C   UNL A   1      36.883  32.701  30.952  1.00  0.00    -0.014 A 
ATOM     67  C   UNL A   1      37.140  33.639  29.937  1.00  0.00     0.010 A 
ATOM     68  C   UNL A   1      35.559  32.288  31.185  1.00  0.00     0.010 A 
ATOM     69  C   UNL A   1      36.088  34.194  29.203  1.00  0.00     0.020 A 
ATOM     70  C   UNL A   1      34.507  32.818  30.435  1.00  0.00     0.020 A 
ATOM     71  C   UNL A   1      34.776  33.783  29.462  1.00  0.00     0.054 A 
BRANCH  71  72
ATOM     72  S   UNL A   1      33.428  34.513  28.493  1.00  0.00     0.124 S 
ATOM     73  O   UNL A   1      32.538  35.004  29.542  1.00  0.00    -0.237 OA
ATOM     74  O   UNL A   1      34.111  35.543  27.715  1.00  0.00    -0.237 OA
ATOM     75  O   UNL A   1      32.914  33.387  27.715  1.00  0.00    -0.744 OA
ENDBRANCH  71  72
ENDBRANCH  52  66
BRANCH  53  76
ATOM     76  C   UNL A   1      44.435  28.585  35.998  1.00  0.00    -0.014 A 
ATOM     77  C   UNL A   1      45.744  29.071  35.833  1.00  0.00     0.010 A 
ATOM     78  C   UNL A   1      44.211  27.515  36.884  1.00  0.00     0.010 A 
ATOM     79  C   UNL A   1      46.811  28.487  36.523  1.00  0.00     0.020 A 
ATOM     80  C   UNL A   1      45.271  26.945  37.595  1.00  0.00     0.020 A 
ATOM     81  C   UNL A   1      46.567  27.426  37.400  1.00  0.00     0.054 A 
BRANCH  81  82
ATOM     82  S   UNL A   1      47.959  26.710  38.317  1.00  0.00     0.124 S 
ATOM     83  O   UNL A   1      48.014  25.355  37.778  1.00  0.00    -0.237 OA
ATOM     84  O   UNL A   1      49.069  27.585  37.944  1.00  0.00    -0.237 OA
ATOM     85  O   UNL A   1      47.539  26.812  39.713  1.00  0.00    -0.744 OA
ENDBRANCH  81  82
ENDBRANCH  53  76
BRANCH  65  86
ATOM     86  C   UNL A   1      39.909  33.696  37.423  1.00  0.00    -0.014 A 
ATOM     87  C   UNL A   1      40.444  34.996  37.481  1.00  0.00     0.010 A 
ATOM     88  C   UNL A   1      39.113  33.234  38.488  1.00  0.00     0.010 A 
ATOM     89  C   UNL A   1      40.205  35.809  38.593  1.00  0.00     0.020 A 
ATOM     90  C   UNL A   1      38.852  34.053  39.591  1.00  0.00     0.020 A 
ATOM     91  C   UNL A   1      39.411  35.333  39.641  1.00  0.00     0.054 A 
BRANCH  91  92
ATOM     92  S   UNL A   1      39.072  36.425  41.049  1.00  0.00     0.124 S 
ATOM     93  O   UNL A   1      40.368  36.466  41.721  1.00  0.00    -0.237 OA
ATOM     94  O   UNL A   1      38.659  37.668  40.401  1.00  0.00    -0.237 OA
ATOM     95  O   UNL A   1      38.014  35.730  41.779  1.00  0.00    -0.744 OA
ENDBRANCH  91  92
ENDBRANCH  65  86
ENDBRANCH  39  40
ENDBRANCH  32  34
ENDBRANCH  31  32
ENDBRANCH  30  31
ENDBRANCH  29  30
ENDBRANCH  28  29
ENDBRANCH   1  28
TORSDOF 23
ENDMDL
MODEL 2
REMARK VINA RESULT:      -9.9      0.991      2.129
REMARK SMILES COc1ccc(CCNC(=O)c2cccnc2C(=O)OCCOCCOC(=O)c2ccc(-c3c4nc(c(-c5ccc(S(=O)(=O)[O-])cc5)c5ccc([nH]5)c(-c5ccc(S(=O)(=O)[O-])cc5)c5nc(c(-c6ccc(S(=O)(=O)[O-])cc6)c6ccc3[nH]6)C=C5)C=C4)cc2)cc1OC
REMARK SMILES IDX 22 1 21 2 20 3 18 4 19 5 17 6 12 7 13 8 14 9 16 10 15 11
REMARK SMILES IDX 10 12 9 13 11 15 8 16 7 17 6 18 3 19 4 20 90 21 5 22 89 23
REMARK SMILES IDX 2 24 1 25 91 26 92 27 23 28 24 29 25 30 26 31 27 32 28 33
REMARK SMILES IDX 29 34 30 35 88 36 31 37 87 38 32 39 33 40 34 41 81 42 35 43
REMARK SMILES IDX 86 44 80 45 82 46 36 47 85 48 79 49 78 50 37 52 67 53 48 54
REMARK SMILES IDX 66 55 49 56 52 57 65 58 83 59 50 60 51 61 64 63 84 64 53 65
REMARK SMILES IDX 38 66 39 67 47 68 40 69 46 70 41 71 42 72 43 73 44 74 45 75
REMARK SMILES IDX 68 76 69 77 77 78 70 79 76 80 71 81 72 82 73 83 74 84 75 85
REMARK SMILES IDX 54 86 55 87 63 88 56 89 62 90 57 91 58 92 59 93 60 94 61 95
REMARK H PARENT 9 14 82 51 52 62
REMARK Flexibility Score: inf
ROOT
ATOM      1  C   UNL A   1      38.415  21.611  25.424  1.00  0.00     0.202 C 
ENDROOT
BRANCH   1   2
ATOM      2  C   UNL A   1      36.974  21.769  25.909  1.00  0.00     0.261 C 
BRANCH   2   3
ATOM      3  O   UNL A   1      36.155  22.341  24.876  1.00  0.00    -0.458 OA
BRANCH   3   4
ATOM      4  C   UNL A   1      35.174  23.162  25.328  1.00  0.00     0.357 C 
ATOM      5  O   UNL A   1      35.139  23.711  26.420  1.00  0.00    -0.244 OA
BRANCH   4   6
ATOM      6  C   UNL A   1      34.227  23.502  24.229  1.00  0.00     0.161 A 
ATOM      7  C   UNL A   1      33.093  22.761  23.915  1.00  0.00     0.073 A 
ATOM      8  C   UNL A   1      32.182  23.337  23.019  1.00  0.00     0.018 A 
ATOM      9  C   UNL A   1      32.483  24.536  22.378  1.00  0.00     0.021 A 
ATOM     10  N   UNL A   1      34.549  24.674  23.591  1.00  0.00    -0.248 NA
ATOM     11  C   UNL A   1      33.683  25.152  22.678  1.00  0.00     0.112 A 
BRANCH   7  12
ATOM     12  C   UNL A   1      32.773  21.483  24.574  1.00  0.00     0.253 C 
ATOM     13  N   UNL A   1      31.804  21.408  25.549  1.00  0.00    -0.352 N 
ATOM     14  H   UNL A   1      31.728  20.522  25.972  1.00  0.00     0.163 HD
ATOM     15  O   UNL A   1      33.405  20.479  24.266  1.00  0.00    -0.269 OA
BRANCH  13  16
ATOM     16  C   UNL A   1      30.868  22.402  26.072  1.00  0.00     0.121 C 
BRANCH  16  17
ATOM     17  C   UNL A   1      31.531  23.535  26.860  1.00  0.00     0.057 C 
BRANCH  17  18
ATOM     18  C   UNL A   1      31.367  24.913  26.266  1.00  0.00    -0.042 A 
ATOM     19  C   UNL A   1      31.172  27.402  24.965  1.00  0.00     0.160 A 
ATOM     20  C   UNL A   1      30.079  26.528  25.000  1.00  0.00     0.051 A 
ATOM     21  C   UNL A   1      32.346  27.081  25.652  1.00  0.00     0.160 A 
ATOM     22  C   UNL A   1      30.182  25.285  25.631  1.00  0.00     0.008 A 
ATOM     23  C   UNL A   1      32.428  25.835  26.296  1.00  0.00     0.054 A 
BRANCH  19  24
ATOM     24  O   UNL A   1      31.033  28.584  24.289  1.00  0.00    -0.493 OA
ATOM     25  C   UNL A   1      31.011  28.379  22.871  1.00  0.00     0.278 C 
ENDBRANCH  19  24
BRANCH  21  26
ATOM     26  O   UNL A   1      33.490  27.823  25.785  1.00  0.00    -0.493 OA
ATOM     27  C   UNL A   1      33.580  28.733  26.874  1.00  0.00     0.278 C 
ENDBRANCH  21  26
ENDBRANCH  17  18
ENDBRANCH  16  17
ENDBRANCH  13  16
ENDBRANCH   7  12
ENDBRANCH   4   6
ENDBRANCH   3   4
ENDBRANCH   2   3
ENDBRANCH   1   2
BRANCH   1  28
ATOM     28  O   UNL A   1      39.387  21.323  26.432  1.00  0.00    -0.374 OA
BRANCH  28  29
ATOM     29  C   UNL A   1      39.955  22.432  27.128  1.00  0.00     0.202 C 
BRANCH  29  30
ATOM     30  C   UNL A   1      40.897  23.334  26.318  1.00  0.00     0.261 C 
BRANCH  30  31
ATOM     31  O   UNL A   1      40.383  24.661  26.114  1.00  0.00    -0.460 OA
BRANCH  31  32
ATOM     32  C   UNL A   1      41.332  25.633  26.049  1.00  0.00     0.338 C 
ATOM     33  O   UNL A   1      41.983  25.966  25.076  1.00  0.00    -0.246 OA
BRANCH  32  34
ATOM     34  C   UNL A   1      41.387  26.361  27.331  1.00  0.00     0.060 A 
ATOM     35  C   UNL A   1      40.627  25.884  28.406  1.00  0.00     0.016 A 
ATOM     36  C   UNL A   1      42.105  27.548  27.446  1.00  0.00     0.016 A 
ATOM     37  C   UNL A   1      40.578  26.602  29.605  1.00  0.00     0.010 A 
ATOM     38  C   UNL A   1      42.037  28.270  28.641  1.00  0.00     0.010 A 
ATOM     39  C   UNL A   1      41.270  27.813  29.728  1.00  0.00    -0.014 A 
BRANCH  39  40
ATOM     40  C   UNL A   1      41.103  28.674  30.930  1.00  0.00     0.031 A 
ATOM     41  C   UNL A   1      40.013  29.714  30.940  1.00  0.00     0.074 A 
ATOM     42  C   UNL A   1      41.912  28.547  32.001  1.00  0.00     0.049 A 
ATOM     43  N   UNL A   1      39.739  30.619  31.845  1.00  0.00    -0.248 NA
ATOM     44  C   UNL A   1      39.131  29.755  29.763  1.00  0.00     0.031 C 
ATOM     45  C   UNL A   1      43.001  27.579  32.134  1.00  0.00     0.029 A 
ATOM     46  N   UNL A   1      41.940  29.245  33.185  1.00  0.00    -0.354 N 
ATOM     47  C   UNL A   1      38.661  31.340  31.344  1.00  0.00     0.074 A 
ATOM     48  C   UNL A   1      38.367  30.803  30.032  1.00  0.00     0.031 C 
ATOM     49  C   UNL A   1      43.580  27.735  33.338  1.00  0.00     0.029 A 
ATOM     50  C   UNL A   1      42.929  28.832  34.049  1.00  0.00     0.049 A 
ATOM     51  H   UNL A   1      41.312  29.973  33.396  1.00  0.00     0.167 HD
ATOM     52  C   UNL A   1      37.963  32.345  31.924  1.00  0.00     0.031 A 
ATOM     53  C   UNL A   1      43.274  29.291  35.269  1.00  0.00     0.031 A 
ATOM     54  C   UNL A   1      38.231  32.867  33.236  1.00  0.00     0.049 A 
ATOM     55  C   UNL A   1      42.505  30.433  35.882  1.00  0.00     0.074 A 
ATOM     56  C   UNL A   1      37.558  33.868  33.917  1.00  0.00     0.029 A 
ATOM     57  N   UNL A   1      39.243  32.425  34.072  1.00  0.00    -0.354 N 
ATOM     58  N   UNL A   1      41.480  31.092  35.396  1.00  0.00    -0.248 NA
ATOM     59  C   UNL A   1      42.937  30.890  37.212  1.00  0.00     0.031 C 
ATOM     60  C   UNL A   1      38.191  34.060  35.149  1.00  0.00     0.029 A 
ATOM     61  C   UNL A   1      39.227  33.145  35.255  1.00  0.00     0.049 A 
ATOM     62  H   UNL A   1      39.882  31.707  33.857  1.00  0.00     0.167 HD
ATOM     63  C   UNL A   1      41.128  32.020  36.373  1.00  0.00     0.074 A 
ATOM     64  C   UNL A   1      42.042  31.831  37.480  1.00  0.00     0.031 C 
ATOM     65  C   UNL A   1      40.136  32.943  36.354  1.00  0.00     0.031 A 
BRANCH  52  66
ATOM     66  C   UNL A   1      36.844  32.954  31.126  1.00  0.00    -0.014 A 
ATOM     67  C   UNL A   1      37.104  33.858  30.080  1.00  0.00     0.010 A 
ATOM     68  C   UNL A   1      35.512  32.603  31.413  1.00  0.00     0.010 A 
ATOM     69  C   UNL A   1      36.050  34.438  29.368  1.00  0.00     0.020 A 
ATOM     70  C   UNL A   1      34.457  33.159  30.686  1.00  0.00     0.020 A 
ATOM     71  C   UNL A   1      34.732  34.089  29.681  1.00  0.00     0.054 A 
BRANCH  71  72
ATOM     72  S   UNL A   1      33.383  34.851  28.739  1.00  0.00     0.124 S 
ATOM     73  O   UNL A   1      32.996  33.765  27.840  1.00  0.00    -0.237 OA
ATOM     74  O   UNL A   1      32.412  35.182  29.778  1.00  0.00    -0.237 OA
ATOM     75  O   UNL A   1      34.017  35.998  28.093  1.00  0.00    -0.744 OA
ENDBRANCH  71  72
ENDBRANCH  52  66
BRANCH  53  76
ATOM     76  C   UNL A   1      44.408  28.668  36.009  1.00  0.00    -0.014 A 
ATOM     77  C   UNL A   1      45.722  29.134  35.826  1.00  0.00     0.010 A 
ATOM     78  C   UNL A   1      44.180  27.595  36.889  1.00  0.00     0.010 A 
ATOM     79  C   UNL A   1      46.791  28.526  36.493  1.00  0.00     0.020 A 
ATOM     80  C   UNL A   1      45.243  27.001  37.578  1.00  0.00     0.020 A 
ATOM     81  C   UNL A   1      46.543  27.462  37.365  1.00  0.00     0.054 A 
BRANCH  81  82
ATOM     82  S   UNL A   1      47.938  26.714  38.253  1.00  0.00     0.124 S 
ATOM     83  O   UNL A   1      47.938  25.353  37.727  1.00  0.00    -0.237 OA
ATOM     84  O   UNL A   1      49.062  27.552  37.840  1.00  0.00    -0.237 OA
ATOM     85  O   UNL A   1      47.558  26.844  39.658  1.00  0.00    -0.744 OA
ENDBRANCH  81  82
ENDBRANCH  53  76
BRANCH  65  86
ATOM     86  C   UNL A   1      39.953  33.800  37.578  1.00  0.00    -0.014 A 
ATOM     87  C   UNL A   1      40.547  35.070  37.676  1.00  0.00     0.010 A 
ATOM     88  C   UNL A   1      39.119  33.351  38.620  1.00  0.00     0.010 A 
ATOM     89  C   UNL A   1      40.331  35.867  38.804  1.00  0.00     0.020 A 
ATOM     90  C   UNL A   1      38.880  34.155  39.739  1.00  0.00     0.020 A 
ATOM     91  C   UNL A   1      39.498  35.404  39.829  1.00  0.00     0.054 A 
BRANCH  91  92
ATOM     92  S   UNL A   1      39.189  36.477  41.258  1.00  0.00     0.124 S 
ATOM     93  O   UNL A   1      38.841  37.744  40.619  1.00  0.00    -0.237 OA
ATOM     94  O   UNL A   1      38.091  35.796  41.942  1.00  0.00    -0.237 OA
ATOM     95  O   UNL A   1      40.461  36.470  41.977  1.00  0.00    -0.744 OA
ENDBRANCH  91  92
ENDBRANCH  65  86
ENDBRANCH  39  40
ENDBRANCH  32  34
ENDBRANCH  31  32
ENDBRANCH  30  31
ENDBRANCH  29  30
ENDBRANCH  28  29
ENDBRANCH   1  28
TORSDOF 23
ENDMDL
MODEL 3
REMARK VINA RESULT:      -9.4      5.816     10.001
REMARK SMILES COc1ccc(CCNC(=O)c2cccnc2C(=O)OCCOCCOC(=O)c2ccc(-c3c4nc(c(-c5ccc(S(=O)(=O)[O-])cc5)c5ccc([nH]5)c(-c5ccc(S(=O)(=O)[O-])cc5)c5nc(c(-c6ccc(S(=O)(=O)[O-])cc6)c6ccc3[nH]6)C=C5)C=C4)cc2)cc1OC
REMARK SMILES IDX 22 1 21 2 20 3 18 4 19 5 17 6 12 7 13 8 14 9 16 10 15 11
REMARK SMILES IDX 10 12 9 13 11 15 8 16 7 17 6 18 3 19 4 20 90 21 5 22 89 23
REMARK SMILES IDX 2 24 1 25 91 26 92 27 23 28 24 29 25 30 26 31 27 32 28 33
REMARK SMILES IDX 29 34 30 35 88 36 31 37 87 38 32 39 33 40 34 41 81 42 35 43
REMARK SMILES IDX 86 44 80 45 82 46 36 47 85 48 79 49 78 50 37 52 67 53 48 54
REMARK SMILES IDX 66 55 49 56 52 57 65 58 83 59 50 60 51 61 64 63 84 64 53 65
REMARK SMILES IDX 38 66 39 67 47 68 40 69 46 70 41 71 42 72 43 73 44 74 45 75
REMARK SMILES IDX 68 76 69 77 77 78 70 79 76 80 71 81 72 82 73 83 74 84 75 85
REMARK SMILES IDX 54 86 55 87 63 88 56 89 62 90 57 91 58 92 59 93 60 94 61 95
REMARK H PARENT 9 14 82 51 52 62
REMARK Flexibility Score: inf
ROOT
ATOM      1  C   UNL A   1      37.718  21.446  25.334  1.00  0.00     0.202 C 
ENDROOT
BRANCH   1   2
ATOM      2  C   UNL A   1      36.512  21.823  24.474  1.00  0.00     0.261 C 
BRANCH   2   3
ATOM      3  O   UNL A   1      35.395  22.182  25.304  1.00  0.00    -0.458 OA
BRANCH   3   4
ATOM      4  C   UNL A   1      34.256  21.493  25.041  1.00  0.00     0.357 C 
ATOM      5  O   UNL A   1      34.171  20.291  24.836  1.00  0.00    -0.244 OA
BRANCH   4   6
ATOM      6  C   UNL A   1      33.060  22.356  25.255  1.00  0.00     0.161 A 
ATOM      7  C   UNL A   1      32.137  22.675  24.264  1.00  0.00     0.073 A 
ATOM      8  C   UNL A   1      30.949  23.295  24.675  1.00  0.00     0.018 A 
ATOM      9  C   UNL A   1      30.778  23.689  26.000  1.00  0.00     0.021 A 
ATOM     10  N   UNL A   1      32.917  22.756  26.560  1.00  0.00    -0.248 NA
ATOM     11  C   UNL A   1      31.795  23.420  26.896  1.00  0.00     0.112 A 
BRANCH   7  12
ATOM     12  C   UNL A   1      32.315  22.279  22.857  1.00  0.00     0.253 C 
ATOM     13  N   UNL A   1      32.854  23.148  21.935  1.00  0.00    -0.352 N 
ATOM     14  H   UNL A   1      32.855  22.805  21.013  1.00  0.00     0.163 HD
ATOM     15  O   UNL A   1      31.946  21.166  22.501  1.00  0.00    -0.269 OA
BRANCH  13  16
ATOM     16  C   UNL A   1      33.424  24.487  22.076  1.00  0.00     0.121 C 
BRANCH  16  17
ATOM     17  C   UNL A   1      32.414  25.623  21.884  1.00  0.00     0.057 C 
BRANCH  17  18
ATOM     18  C   UNL A   1      32.270  26.560  23.059  1.00  0.00    -0.042 A 
ATOM     19  C   UNL A   1      31.807  28.186  25.310  1.00  0.00     0.160 A 
ATOM     20  C   UNL A   1      32.753  27.156  25.356  1.00  0.00     0.051 A 
ATOM     21  C   UNL A   1      31.142  28.470  24.113  1.00  0.00     0.160 A 
ATOM     22  C   UNL A   1      32.971  26.338  24.245  1.00  0.00     0.008 A 
ATOM     23  C   UNL A   1      31.384  27.649  22.999  1.00  0.00     0.054 A 
BRANCH  19  24
ATOM     24  O   UNL A   1      31.597  28.923  26.444  1.00  0.00    -0.493 OA
ATOM     25  C   UNL A   1      32.824  29.183  27.136  1.00  0.00     0.278 C 
ENDBRANCH  19  24
BRANCH  21  26
ATOM     26  O   UNL A   1      30.235  29.464  23.853  1.00  0.00    -0.493 OA
ATOM     27  C   UNL A   1      29.535  29.430  22.617  1.00  0.00     0.278 C 
ENDBRANCH  21  26
ENDBRANCH  17  18
ENDBRANCH  16  17
ENDBRANCH  13  16
ENDBRANCH   7  12
ENDBRANCH   4   6
ENDBRANCH   3   4
ENDBRANCH   2   3
ENDBRANCH   1   2
BRANCH   1  28
ATOM     28  O   UNL A   1      38.503  22.537  25.821  1.00  0.00    -0.374 OA
BRANCH  28  29
ATOM     29  C   UNL A   1      39.722  22.217  26.491  1.00  0.00     0.202 C 
BRANCH  29  30
ATOM     30  C   UNL A   1      40.110  20.732  26.525  1.00  0.00     0.261 C 
BRANCH  30  31
ATOM     31  O   UNL A   1      41.065  20.367  25.514  1.00  0.00    -0.460 OA
BRANCH  31  32
ATOM     32  C   UNL A   1      42.333  20.187  25.969  1.00  0.00     0.338 C 
ATOM     33  O   UNL A   1      42.939  19.137  26.073  1.00  0.00    -0.246 OA
BRANCH  32  34
ATOM     34  C   UNL A   1      42.966  21.498  26.210  1.00  0.00     0.060 A 
ATOM     35  C   UNL A   1      43.373  21.817  27.511  1.00  0.00     0.016 A 
ATOM     36  C   UNL A   1      43.074  22.436  25.186  1.00  0.00     0.016 A 
ATOM     37  C   UNL A   1      43.887  23.086  27.795  1.00  0.00     0.010 A 
ATOM     38  C   UNL A   1      43.571  23.708  25.481  1.00  0.00     0.010 A 
ATOM     39  C   UNL A   1      43.975  24.051  26.784  1.00  0.00    -0.014 A 
BRANCH  39  40
ATOM     40  C   UNL A   1      44.363  25.454  27.094  1.00  0.00     0.031 A 
ATOM     41  C   UNL A   1      45.751  25.924  26.744  1.00  0.00     0.074 A 
ATOM     42  C   UNL A   1      43.502  26.304  27.687  1.00  0.00     0.049 A 
ATOM     43  N   UNL A   1      46.324  27.074  26.991  1.00  0.00    -0.248 NA
ATOM     44  C   UNL A   1      46.615  24.961  26.042  1.00  0.00     0.031 C 
ATOM     45  C   UNL A   1      42.126  25.990  28.074  1.00  0.00     0.029 A 
ATOM     46  N   UNL A   1      43.666  27.614  28.073  1.00  0.00    -0.354 N 
ATOM     47  C   UNL A   1      47.615  26.969  26.485  1.00  0.00     0.074 A 
ATOM     48  C   UNL A   1      47.758  25.626  25.967  1.00  0.00     0.031 C 
ATOM     49  C   UNL A   1      41.568  27.082  28.627  1.00  0.00     0.029 A 
ATOM     50  C   UNL A   1      42.551  28.161  28.666  1.00  0.00     0.049 A 
ATOM     51  H   UNL A   1      44.503  28.114  27.938  1.00  0.00     0.167 HD
ATOM     52  C   UNL A   1      48.591  27.908  26.437  1.00  0.00     0.031 A 
ATOM     53  C   UNL A   1      42.348  29.389  29.187  1.00  0.00     0.031 A 
ATOM     54  C   UNL A   1      48.449  29.252  26.925  1.00  0.00     0.049 A 
ATOM     55  C   UNL A   1      43.460  30.406  29.153  1.00  0.00     0.074 A 
ATOM     56  C   UNL A   1      49.377  30.280  26.895  1.00  0.00     0.029 A 
ATOM     57  N   UNL A   1      47.308  29.761  27.523  1.00  0.00    -0.354 N 
ATOM     58  N   UNL A   1      44.669  30.290  28.657  1.00  0.00    -0.248 NA
ATOM     59  C   UNL A   1      43.175  31.723  29.743  1.00  0.00     0.031 C 
ATOM     60  C   UNL A   1      48.809  31.399  27.512  1.00  0.00     0.029 A 
ATOM     61  C   UNL A   1      47.512  31.083  27.883  1.00  0.00     0.049 A 
ATOM     62  H   UNL A   1      46.475  29.257  27.672  1.00  0.00     0.167 HD
ATOM     63  C   UNL A   1      45.277  31.528  28.851  1.00  0.00     0.074 A 
ATOM     64  C   UNL A   1      44.301  32.379  29.499  1.00  0.00     0.031 C 
ATOM     65  C   UNL A   1      46.531  31.923  28.520  1.00  0.00     0.031 A 
BRANCH  52  66
ATOM     66  C   UNL A   1      49.909  27.497  25.840  1.00  0.00    -0.014 A 
ATOM     67  C   UNL A   1      50.873  26.816  26.604  1.00  0.00     0.010 A 
ATOM     68  C   UNL A   1      50.179  27.780  24.489  1.00  0.00     0.010 A 
ATOM     69  C   UNL A   1      52.105  26.470  26.041  1.00  0.00     0.020 A 
ATOM     70  C   UNL A   1      51.398  27.411  23.915  1.00  0.00     0.020 A 
ATOM     71  C   UNL A   1      52.361  26.775  24.701  1.00  0.00     0.054 A 
BRANCH  71  72
ATOM     72  S   UNL A   1      53.965  26.310  23.993  1.00  0.00     0.124 S 
ATOM     73  O   UNL A   1      53.616  26.074  22.594  1.00  0.00    -0.237 OA
ATOM     74  O   UNL A   1      54.783  27.492  24.246  1.00  0.00    -0.237 OA
ATOM     75  O   UNL A   1      54.344  25.119  24.750  1.00  0.00    -0.744 OA
ENDBRANCH  71  72
ENDBRANCH  52  66
BRANCH  53  76
ATOM     76  C   UNL A   1      41.031  29.737  29.789  1.00  0.00    -0.014 A 
ATOM     77  C   UNL A   1      40.821  29.606  31.174  1.00  0.00     0.010 A 
ATOM     78  C   UNL A   1      39.974  30.188  28.978  1.00  0.00     0.010 A 
ATOM     79  C   UNL A   1      39.573  29.898  31.734  1.00  0.00     0.020 A 
ATOM     80  C   UNL A   1      38.732  30.506  29.538  1.00  0.00     0.020 A 
ATOM     81  C   UNL A   1      38.537  30.347  30.911  1.00  0.00     0.054 A 
BRANCH  81  82
ATOM     82  S   UNL A   1      36.938  30.762  31.664  1.00  0.00     0.124 S 
ATOM     83  O   UNL A   1      36.288  29.457  31.735  1.00  0.00    -0.237 OA
ATOM     84  O   UNL A   1      37.332  31.343  32.945  1.00  0.00    -0.237 OA
ATOM     85  O   UNL A   1      36.348  31.705  30.716  1.00  0.00    -0.744 OA
ENDBRANCH  81  82
ENDBRANCH  53  76
BRANCH  65  86
ATOM     86  C   UNL A   1      46.917  33.348  28.813  1.00  0.00    -0.014 A 
ATOM     87  C   UNL A   1      46.641  34.381  27.900  1.00  0.00     0.010 A 
ATOM     88  C   UNL A   1      47.507  33.666  30.051  1.00  0.00     0.010 A 
ATOM     89  C   UNL A   1      46.970  35.705  28.210  1.00  0.00     0.020 A 
ATOM     90  C   UNL A   1      47.815  34.991  30.375  1.00  0.00     0.020 A 
ATOM     91  C   UNL A   1      47.555  36.001  29.445  1.00  0.00     0.054 A 
BRANCH  91  92
ATOM     92  S   UNL A   1      47.925  37.731  29.846  1.00  0.00     0.124 S 
ATOM     93  O   UNL A   1      48.630  37.605  31.119  1.00  0.00    -0.237 OA
ATOM     94  O   UNL A   1      48.745  38.157  28.714  1.00  0.00    -0.237 OA
ATOM     95  O   UNL A   1      46.608  38.358  29.922  1.00  0.00    -0.744 OA
ENDBRANCH  91  92
ENDBRANCH  65  86
ENDBRANCH  39  40
ENDBRANCH  32  34
ENDBRANCH  31  32
ENDBRANCH  30  31
ENDBRANCH  29  30
ENDBRANCH  28  29
ENDBRANCH   1  28
TORSDOF 23
ENDMDL
