MODEL 1
REMARK VINA RESULT:     -11.2      0.000      0.000
REMARK SMILES COc1ccc2c(c1)c(CC(=O)OCCOCCOC(=O)c1ccc(-c3c4nc(c(-c5ccc(S(=O)(=O)[O-])cc5)c5ccc([nH]5)c(-c5ccc(S(=O)(=O)[O-])cc5)c5nc(c(-c6ccc(S(=O)(=O)[O-])cc6)c6ccc3[nH]6)C=C5)C=C4)cc1)c(C)n2Cc1ccn(C(F)F)c(=O)c1
REMARK SMILES IDX 15 1 14 2 13 3 11 4 12 5 10 6 9 7 3 8 4 9 8 10 5 11 7 12
REMARK SMILES IDX 6 13 84 14 82 15 83 16 2 17 1 18 85 19 86 20 87 21 95 22
REMARK SMILES IDX 88 23 93 24 89 25 94 26 90 27 91 28 92 29 16 30 17 31 18 32
REMARK SMILES IDX 19 33 20 34 21 35 22 36 23 37 81 38 24 39 80 40 25 41 26 42
REMARK SMILES IDX 27 43 74 44 28 45 79 46 73 47 75 48 29 49 78 50 72 51 71 52
REMARK SMILES IDX 30 54 60 55 41 56 59 57 42 58 45 59 58 60 76 61 43 62 44 63
REMARK SMILES IDX 57 65 77 66 46 67 31 68 32 69 40 70 33 71 39 72 34 73 35 74
REMARK SMILES IDX 36 75 37 76 38 77 61 78 62 79 70 80 63 81 69 82 64 83 65 84
REMARK SMILES IDX 66 85 67 86 68 87 47 88 48 89 56 90 49 91 55 92 50 93 51 94
REMARK SMILES IDX 52 95 53 96 54 97
REMARK H PARENT 75 53 45 64
REMARK Flexibility Score: inf
ROOT
ATOM      1  C   UNL A   1      35.006  32.132  27.650  1.00  0.00     0.202 C 
ENDROOT
BRANCH   1   2
ATOM      2  C   UNL A   1      33.771  31.226  27.828  1.00  0.00     0.261 C 
BRANCH   2   3
ATOM      3  O   UNL A   1      33.288  30.574  26.640  1.00  0.00    -0.463 OA
BRANCH   3   4
ATOM      4  C   UNL A   1      33.858  29.362  26.404  1.00  0.00     0.310 C 
ATOM      5  O   UNL A   1      34.561  28.765  27.219  1.00  0.00    -0.252 OA
BRANCH   4   6
ATOM      6  C   UNL A   1      33.581  28.750  25.049  1.00  0.00     0.160 C 
BRANCH   6   7
ATOM      7  C   UNL A   1      32.319  27.952  24.833  1.00  0.00    -0.008 A 
ATOM      8  C   UNL A   1      29.537  29.728  22.878  1.00  0.00     0.119 A 
ATOM      9  C   UNL A   1      28.665  28.647  22.844  1.00  0.00     0.048 A 
ATOM     10  C   UNL A   1      30.746  29.610  23.572  1.00  0.00     0.057 A 
ATOM     11  C   UNL A   1      28.984  27.440  23.494  1.00  0.00     0.031 A 
ATOM     12  C   UNL A   1      31.129  28.389  24.171  1.00  0.00     0.007 A 
ATOM     13  C   UNL A   1      30.220  27.328  24.164  1.00  0.00     0.049 A 
ATOM     14  N   UNL A   1      30.787  26.303  24.914  1.00  0.00    -0.340 N 
ATOM     15  C   UNL A   1      32.012  26.727  25.411  1.00  0.00     0.020 A 
ATOM     16  C   UNL A   1      32.824  25.985  26.418  1.00  0.00     0.065 C 
BRANCH   8  17
ATOM     17  O   UNL A   1      29.400  30.919  22.221  1.00  0.00    -0.497 OA
ATOM     18  C   UNL A   1      28.420  31.844  22.664  1.00  0.00     0.278 C 
ENDBRANCH   8  17
BRANCH  14  19
ATOM     19  C   UNL A   1      30.094  25.051  25.267  1.00  0.00     0.158 C 
BRANCH  19  20
ATOM     20  C   UNL A   1      30.851  23.795  24.904  1.00  0.00    -0.021 A 
ATOM     21  C   UNL A   1      31.029  22.768  25.913  1.00  0.00     0.024 A 
ATOM     22  C   UNL A   1      31.336  23.559  23.671  1.00  0.00     0.077 A 
ATOM     23  C   UNL A   1      31.867  21.748  25.712  1.00  0.00     0.095 A 
ATOM     24  C   UNL A   1      32.167  22.348  23.390  1.00  0.00     0.255 A 
ATOM     25  N   UNL A   1      32.483  21.571  24.490  1.00  0.00    -0.258 N 
ATOM     26  O   UNL A   1      32.521  22.141  22.233  1.00  0.00    -0.269 OA
BRANCH  25  27
ATOM     27  C   UNL A   1      33.420  20.491  24.307  1.00  0.00     0.451 C 
ATOM     28  F   UNL A   1      34.695  20.943  24.405  1.00  0.00    -0.185 F 
ATOM     29  F   UNL A   1      33.243  19.529  25.244  1.00  0.00    -0.185 F 
ENDBRANCH  25  27
ENDBRANCH  19  20
ENDBRANCH  14  19
ENDBRANCH   6   7
ENDBRANCH   4   6
ENDBRANCH   3   4
ENDBRANCH   2   3
ENDBRANCH   1   2
BRANCH   1  30
ATOM     30  O   UNL A   1      34.884  33.548  27.582  1.00  0.00    -0.374 OA
BRANCH  30  31
ATOM     31  C   UNL A   1      33.807  34.156  28.290  1.00  0.00     0.202 C 
BRANCH  31  32
ATOM     32  C   UNL A   1      34.091  34.984  29.555  1.00  0.00     0.261 C 
BRANCH  32  33
ATOM     33  O   UNL A   1      33.635  34.352  30.747  1.00  0.00    -0.460 OA
BRANCH  33  34
ATOM     34  C   UNL A   1      34.305  34.710  31.873  1.00  0.00     0.338 C 
ATOM     35  O   UNL A   1      33.917  35.426  32.780  1.00  0.00    -0.246 OA
BRANCH  34  36
ATOM     36  C   UNL A   1      35.394  33.727  31.967  1.00  0.00     0.060 A 
ATOM     37  C   UNL A   1      36.722  34.163  31.959  1.00  0.00     0.016 A 
ATOM     38  C   UNL A   1      35.055  32.397  31.673  1.00  0.00     0.016 A 
ATOM     39  C   UNL A   1      37.702  33.276  31.543  1.00  0.00     0.010 A 
ATOM     40  C   UNL A   1      36.041  31.517  31.246  1.00  0.00     0.010 A 
ATOM     41  C   UNL A   1      37.355  31.971  31.138  1.00  0.00    -0.014 A 
BRANCH  41  42
ATOM     42  C   UNL A   1      38.454  31.052  30.849  1.00  0.00     0.031 A 
ATOM     43  C   UNL A   1      39.202  30.698  32.085  1.00  0.00     0.074 A 
ATOM     44  C   UNL A   1      38.775  30.467  29.679  1.00  0.00     0.049 A 
ATOM     45  N   UNL A   1      40.401  31.056  32.400  1.00  0.00    -0.248 NA
ATOM     46  C   UNL A   1      38.457  30.033  33.164  1.00  0.00     0.031 C 
ATOM     47  C   UNL A   1      38.048  30.452  28.410  1.00  0.00     0.029 A 
ATOM     48  N   UNL A   1      39.850  29.664  29.421  1.00  0.00    -0.354 N 
ATOM     49  C   UNL A   1      40.633  30.523  33.662  1.00  0.00     0.074 A 
ATOM     50  C   UNL A   1      39.361  30.042  34.142  1.00  0.00     0.031 C 
ATOM     51  C   UNL A   1      38.583  29.503  27.599  1.00  0.00     0.029 A 
ATOM     52  C   UNL A   1      39.776  28.957  28.227  1.00  0.00     0.049 A 
ATOM     53  H   UNL A   1      40.617  29.591  30.033  1.00  0.00     0.167 HD
ATOM     54  C   UNL A   1      41.891  30.358  34.154  1.00  0.00     0.031 A 
ATOM     55  C   UNL A   1      40.623  27.975  27.814  1.00  0.00     0.031 A 
ATOM     56  C   UNL A   1      42.861  31.120  33.414  1.00  0.00     0.049 A 
ATOM     57  C   UNL A   1      41.899  28.166  28.545  1.00  0.00     0.074 A 
ATOM     58  C   UNL A   1      43.062  32.468  33.191  1.00  0.00     0.029 A 
ATOM     59  N   UNL A   1      43.579  30.463  32.445  1.00  0.00    -0.354 N 
ATOM     60  N   UNL A   1      42.687  29.187  28.365  1.00  0.00    -0.248 NA
ATOM     61  C   UNL A   1      42.094  27.431  29.784  1.00  0.00     0.031 C 
ATOM     62  C   UNL A   1      43.480  32.556  31.833  1.00  0.00     0.029 A 
ATOM     63  C   UNL A   1      43.577  31.257  31.325  1.00  0.00     0.049 A 
ATOM     64  H   UNL A   1      44.015  29.585  32.536  1.00  0.00     0.167 HD
ATOM     65  C   UNL A   1      43.165  29.488  29.631  1.00  0.00     0.074 A 
ATOM     66  C   UNL A   1      42.836  28.320  30.448  1.00  0.00     0.031 C 
ATOM     67  C   UNL A   1      43.544  30.756  29.966  1.00  0.00     0.031 A 
BRANCH  54  68
ATOM     68  C   UNL A   1      42.269  29.256  35.104  1.00  0.00    -0.014 A 
ATOM     69  C   UNL A   1      42.240  27.891  34.748  1.00  0.00     0.010 A 
ATOM     70  C   UNL A   1      42.900  29.584  36.321  1.00  0.00     0.010 A 
ATOM     71  C   UNL A   1      42.784  26.899  35.563  1.00  0.00     0.020 A 
ATOM     72  C   UNL A   1      43.490  28.601  37.127  1.00  0.00     0.020 A 
ATOM     73  C   UNL A   1      43.420  27.263  36.743  1.00  0.00     0.054 A 
BRANCH  73  74
ATOM     74  S   UNL A   1      44.202  25.959  37.720  1.00  0.00     0.124 S 
ATOM     75  O   UNL A   1      44.169  26.531  39.064  1.00  0.00    -0.237 OA
ATOM     76  O   UNL A   1      43.311  24.823  37.496  1.00  0.00    -0.237 OA
ATOM     77  O   UNL A   1      45.529  25.835  37.126  1.00  0.00    -0.744 OA
ENDBRANCH  73  74
ENDBRANCH  54  68
BRANCH  55  78
ATOM     78  C   UNL A   1      40.275  26.654  27.222  1.00  0.00    -0.014 A 
ATOM     79  C   UNL A   1      39.322  25.833  27.854  1.00  0.00     0.010 A 
ATOM     80  C   UNL A   1      41.124  26.056  26.263  1.00  0.00     0.010 A 
ATOM     81  C   UNL A   1      39.282  24.453  27.616  1.00  0.00     0.020 A 
ATOM     82  C   UNL A   1      41.087  24.672  26.020  1.00  0.00     0.020 A 
ATOM     83  C   UNL A   1      40.192  23.873  26.732  1.00  0.00     0.054 A 
BRANCH  83  84
ATOM     84  S   UNL A   1      40.247  22.060  26.617  1.00  0.00     0.124 S 
ATOM     85  O   UNL A   1      41.409  21.846  25.759  1.00  0.00    -0.237 OA
ATOM     86  O   UNL A   1      40.417  21.659  28.012  1.00  0.00    -0.237 OA
ATOM     87  O   UNL A   1      38.959  21.709  26.024  1.00  0.00    -0.744 OA
ENDBRANCH  83  84
ENDBRANCH  55  78
BRANCH  67  88
ATOM     88  C   UNL A   1      43.694  31.796  28.873  1.00  0.00    -0.014 A 
ATOM     89  C   UNL A   1      44.690  31.569  27.906  1.00  0.00     0.010 A 
ATOM     90  C   UNL A   1      43.048  33.050  28.885  1.00  0.00     0.010 A 
ATOM     91  C   UNL A   1      45.073  32.573  27.014  1.00  0.00     0.020 A 
ATOM     92  C   UNL A   1      43.410  34.056  27.972  1.00  0.00     0.020 A 
ATOM     93  C   UNL A   1      44.444  33.817  27.063  1.00  0.00     0.054 A 
BRANCH  93  94
ATOM     94  S   UNL A   1      45.039  35.113  25.943  1.00  0.00     0.124 S 
ATOM     95  O   UNL A   1      46.491  34.978  26.058  1.00  0.00    -0.237 OA
ATOM     96  O   UNL A   1      44.478  34.711  24.654  1.00  0.00    -0.237 OA
ATOM     97  O   UNL A   1      44.487  36.346  26.499  1.00  0.00    -0.744 OA
ENDBRANCH  93  94
ENDBRANCH  67  88
ENDBRANCH  41  42
ENDBRANCH  34  36
ENDBRANCH  33  34
ENDBRANCH  32  33
ENDBRANCH  31  32
ENDBRANCH  30  31
ENDBRANCH   1  30
TORSDOF 22
ENDMDL
MODEL 2
REMARK VINA RESULT:     -11.1      2.821      9.759
REMARK SMILES COc1ccc2c(c1)c(CC(=O)OCCOCCOC(=O)c1ccc(-c3c4nc(c(-c5ccc(S(=O)(=O)[O-])cc5)c5ccc([nH]5)c(-c5ccc(S(=O)(=O)[O-])cc5)c5nc(c(-c6ccc(S(=O)(=O)[O-])cc6)c6ccc3[nH]6)C=C5)C=C4)cc1)c(C)n2Cc1ccn(C(F)F)c(=O)c1
REMARK SMILES IDX 15 1 14 2 13 3 11 4 12 5 10 6 9 7 3 8 4 9 8 10 5 11 7 12
REMARK SMILES IDX 6 13 84 14 82 15 83 16 2 17 1 18 85 19 86 20 87 21 95 22
REMARK SMILES IDX 88 23 93 24 89 25 94 26 90 27 91 28 92 29 16 30 17 31 18 32
REMARK SMILES IDX 19 33 20 34 21 35 22 36 23 37 81 38 24 39 80 40 25 41 26 42
REMARK SMILES IDX 27 43 74 44 28 45 79 46 73 47 75 48 29 49 78 50 72 51 71 52
REMARK SMILES IDX 30 54 60 55 41 56 59 57 42 58 45 59 58 60 76 61 43 62 44 63
REMARK SMILES IDX 57 65 77 66 46 67 31 68 32 69 40 70 33 71 39 72 34 73 35 74
REMARK SMILES IDX 36 75 37 76 38 77 61 78 62 79 70 80 63 81 69 82 64 83 65 84
REMARK SMILES IDX 66 85 67 86 68 87 47 88 48 89 56 90 49 91 55 92 50 93 51 94
REMARK SMILES IDX 52 95 53 96 54 97
REMARK H PARENT 75 53 45 64
REMARK Flexibility Score: inf
ROOT
ATOM      1  C   UNL A   1      37.858  19.739  25.137  1.00  0.00     0.202 C 
ENDROOT
BRANCH   1   2
ATOM      2  C   UNL A   1      37.214  21.138  25.208  1.00  0.00     0.261 C 
BRANCH   2   3
ATOM      3  O   UNL A   1      36.764  21.691  23.960  1.00  0.00    -0.463 OA
BRANCH   3   4
ATOM      4  C   UNL A   1      36.503  23.026  24.008  1.00  0.00     0.310 C 
ATOM      5  O   UNL A   1      37.038  23.800  24.800  1.00  0.00    -0.252 OA
BRANCH   4   6
ATOM      6  C   UNL A   1      35.491  23.542  23.009  1.00  0.00     0.160 C 
BRANCH   6   7
ATOM      7  C   UNL A   1      34.087  23.856  23.461  1.00  0.00    -0.008 A 
ATOM      8  C   UNL A   1      32.255  21.029  25.298  1.00  0.00     0.119 A 
ATOM      9  C   UNL A   1      31.110  21.759  25.590  1.00  0.00     0.048 A 
ATOM     10  C   UNL A   1      33.269  21.623  24.539  1.00  0.00     0.057 A 
ATOM     11  C   UNL A   1      30.960  23.083  25.135  1.00  0.00     0.031 A 
ATOM     12  C   UNL A   1      33.183  22.973  24.131  1.00  0.00     0.007 A 
ATOM     13  C   UNL A   1      32.005  23.676  24.397  1.00  0.00     0.049 A 
ATOM     14  N   UNL A   1      32.130  24.922  23.792  1.00  0.00    -0.340 N 
ATOM     15  C   UNL A   1      33.350  24.986  23.131  1.00  0.00     0.020 A 
ATOM     16  C   UNL A   1      33.759  26.081  22.206  1.00  0.00     0.065 C 
BRANCH   8  17
ATOM     17  O   UNL A   1      32.574  19.778  25.747  1.00  0.00    -0.497 OA
ATOM     18  C   UNL A   1      33.159  18.849  24.848  1.00  0.00     0.278 C 
ENDBRANCH   8  17
BRANCH  14  19
ATOM     19  C   UNL A   1      31.051  25.922  23.719  1.00  0.00     0.158 C 
BRANCH  19  20
ATOM     20  C   UNL A   1      31.208  27.081  24.677  1.00  0.00    -0.021 A 
ATOM     21  C   UNL A   1      31.248  28.430  24.144  1.00  0.00     0.024 A 
ATOM     22  C   UNL A   1      31.269  26.928  26.012  1.00  0.00     0.077 A 
ATOM     23  C   UNL A   1      31.600  29.461  24.916  1.00  0.00     0.095 A 
ATOM     24  C   UNL A   1      31.528  28.095  26.910  1.00  0.00     0.255 A 
ATOM     25  N   UNL A   1      31.804  29.292  26.270  1.00  0.00    -0.258 N 
ATOM     26  O   UNL A   1      31.499  27.915  28.123  1.00  0.00    -0.269 OA
BRANCH  25  27
ATOM     27  C   UNL A   1      32.228  30.407  27.079  1.00  0.00     0.451 C 
ATOM     28  F   UNL A   1      33.530  30.700  26.842  1.00  0.00    -0.185 F 
ATOM     29  F   UNL A   1      31.493  31.512  26.807  1.00  0.00    -0.185 F 
ENDBRANCH  25  27
ENDBRANCH  19  20
ENDBRANCH  14  19
ENDBRANCH   6   7
ENDBRANCH   4   6
ENDBRANCH   3   4
ENDBRANCH   2   3
ENDBRANCH   1   2
BRANCH   1  30
ATOM     30  O   UNL A   1      39.264  19.576  24.989  1.00  0.00    -0.374 OA
BRANCH  30  31
ATOM     31  C   UNL A   1      40.064  19.614  26.168  1.00  0.00     0.202 C 
BRANCH  31  32
ATOM     32  C   UNL A   1      40.552  20.965  26.720  1.00  0.00     0.261 C 
BRANCH  32  33
ATOM     33  O   UNL A   1      40.658  21.969  25.716  1.00  0.00    -0.460 OA
BRANCH  33  34
ATOM     34  C   UNL A   1      41.781  22.730  25.789  1.00  0.00     0.338 C 
ATOM     35  O   UNL A   1      42.694  22.798  24.983  1.00  0.00    -0.246 OA
BRANCH  34  36
ATOM     36  C   UNL A   1      41.459  23.745  26.802  1.00  0.00     0.060 A 
ATOM     37  C   UNL A   1      40.360  24.588  26.613  1.00  0.00     0.016 A 
ATOM     38  C   UNL A   1      42.487  24.067  27.704  1.00  0.00     0.016 A 
ATOM     39  C   UNL A   1      40.356  25.815  27.257  1.00  0.00     0.010 A 
ATOM     40  C   UNL A   1      42.481  25.303  28.336  1.00  0.00     0.010 A 
ATOM     41  C   UNL A   1      41.439  26.193  28.077  1.00  0.00    -0.014 A 
BRANCH  41  42
ATOM     42  C   UNL A   1      41.298  27.436  28.832  1.00  0.00     0.031 A 
ATOM     43  C   UNL A   1      42.299  28.447  28.401  1.00  0.00     0.074 A 
ATOM     44  C   UNL A   1      40.363  27.764  29.746  1.00  0.00     0.049 A 
ATOM     45  N   UNL A   1      43.314  28.877  29.073  1.00  0.00    -0.248 NA
ATOM     46  C   UNL A   1      42.268  28.879  26.996  1.00  0.00     0.031 C 
ATOM     47  C   UNL A   1      39.147  27.052  30.136  1.00  0.00     0.029 A 
ATOM     48  N   UNL A   1      40.294  28.909  30.487  1.00  0.00    -0.354 N 
ATOM     49  C   UNL A   1      43.972  29.766  28.234  1.00  0.00     0.074 A 
ATOM     50  C   UNL A   1      43.378  29.612  26.929  1.00  0.00     0.031 C 
ATOM     51  C   UNL A   1      38.357  27.881  30.866  1.00  0.00     0.029 A 
ATOM     52  C   UNL A   1      39.076  29.119  31.122  1.00  0.00     0.049 A 
ATOM     53  H   UNL A   1      41.048  29.537  30.566  1.00  0.00     0.167 HD
ATOM     54  C   UNL A   1      44.844  30.695  28.711  1.00  0.00     0.031 A 
ATOM     55  C   UNL A   1      38.691  30.247  31.779  1.00  0.00     0.031 A 
ATOM     56  C   UNL A   1      45.268  30.395  30.052  1.00  0.00     0.049 A 
ATOM     57  C   UNL A   1      39.927  30.963  32.177  1.00  0.00     0.074 A 
ATOM     58  C   UNL A   1      45.966  29.355  30.633  1.00  0.00     0.029 A 
ATOM     59  N   UNL A   1      44.628  31.043  31.081  1.00  0.00    -0.354 N 
ATOM     60  N   UNL A   1      40.772  30.507  33.058  1.00  0.00    -0.248 NA
ATOM     61  C   UNL A   1      40.440  31.990  31.286  1.00  0.00     0.031 C 
ATOM     62  C   UNL A   1      45.329  29.141  31.888  1.00  0.00     0.029 A 
ATOM     63  C   UNL A   1      44.325  30.102  32.032  1.00  0.00     0.049 A 
ATOM     64  H   UNL A   1      44.424  32.006  31.127  1.00  0.00     0.167 HD
ATOM     65  C   UNL A   1      42.018  30.857  32.561  1.00  0.00     0.074 A 
ATOM     66  C   UNL A   1      41.747  31.843  31.516  1.00  0.00     0.031 C 
ATOM     67  C   UNL A   1      43.131  30.125  32.855  1.00  0.00     0.031 A 
BRANCH  54  68
ATOM     68  C   UNL A   1      45.056  32.038  28.068  1.00  0.00    -0.014 A 
ATOM     69  C   UNL A   1      44.130  33.097  28.178  1.00  0.00     0.010 A 
ATOM     70  C   UNL A   1      46.320  32.349  27.529  1.00  0.00     0.010 A 
ATOM     71  C   UNL A   1      44.429  34.391  27.755  1.00  0.00     0.020 A 
ATOM     72  C   UNL A   1      46.648  33.656  27.142  1.00  0.00     0.020 A 
ATOM     73  C   UNL A   1      45.694  34.666  27.251  1.00  0.00     0.054 A 
BRANCH  73  74
ATOM     74  S   UNL A   1      46.076  36.377  26.809  1.00  0.00     0.124 S 
ATOM     75  O   UNL A   1      46.742  36.211  25.520  1.00  0.00    -0.237 OA
ATOM     76  O   UNL A   1      44.751  36.990  26.761  1.00  0.00    -0.237 OA
ATOM     77  O   UNL A   1      46.932  36.830  27.901  1.00  0.00    -0.744 OA
ENDBRANCH  73  74
ENDBRANCH  54  68
BRANCH  55  78
ATOM     78  C   UNL A   1      37.393  30.970  31.675  1.00  0.00    -0.014 A 
ATOM     79  C   UNL A   1      37.103  31.724  30.523  1.00  0.00     0.010 A 
ATOM     80  C   UNL A   1      36.616  31.210  32.830  1.00  0.00     0.010 A 
ATOM     81  C   UNL A   1      36.146  32.748  30.548  1.00  0.00     0.020 A 
ATOM     82  C   UNL A   1      35.655  32.236  32.861  1.00  0.00     0.020 A 
ATOM     83  C   UNL A   1      35.457  33.026  31.728  1.00  0.00     0.054 A 
BRANCH  83  84
ATOM     84  S   UNL A   1      34.387  34.495  31.777  1.00  0.00     0.124 S 
ATOM     85  O   UNL A   1      34.117  34.720  30.359  1.00  0.00    -0.237 OA
ATOM     86  O   UNL A   1      33.248  34.031  32.566  1.00  0.00    -0.237 OA
ATOM     87  O   UNL A   1      35.217  35.510  32.423  1.00  0.00    -0.744 OA
ENDBRANCH  83  84
ENDBRANCH  55  78
BRANCH  67  88
ATOM     88  C   UNL A   1      43.059  29.072  33.944  1.00  0.00    -0.014 A 
ATOM     89  C   UNL A   1      42.964  27.730  33.532  1.00  0.00     0.010 A 
ATOM     90  C   UNL A   1      42.876  29.365  35.312  1.00  0.00     0.010 A 
ATOM     91  C   UNL A   1      42.644  26.717  34.437  1.00  0.00     0.020 A 
ATOM     92  C   UNL A   1      42.581  28.346  36.234  1.00  0.00     0.020 A 
ATOM     93  C   UNL A   1      42.436  27.031  35.781  1.00  0.00     0.054 A 
BRANCH  93  94
ATOM     94  S   UNL A   1      41.937  25.693  36.898  1.00  0.00     0.124 S 
ATOM     95  O   UNL A   1      40.624  25.325  36.371  1.00  0.00    -0.237 OA
ATOM     96  O   UNL A   1      42.988  24.696  36.699  1.00  0.00    -0.237 OA
ATOM     97  O   UNL A   1      41.921  26.319  38.218  1.00  0.00    -0.744 OA
ENDBRANCH  93  94
ENDBRANCH  67  88
ENDBRANCH  41  42
ENDBRANCH  34  36
ENDBRANCH  33  34
ENDBRANCH  32  33
ENDBRANCH  31  32
ENDBRANCH  30  31
ENDBRANCH   1  30
TORSDOF 22
ENDMDL
MODEL 3
REMARK VINA RESULT:     -10.9      1.988      2.684
REMARK SMILES COc1ccc2c(c1)c(CC(=O)OCCOCCOC(=O)c1ccc(-c3c4nc(c(-c5ccc(S(=O)(=O)[O-])cc5)c5ccc([nH]5)c(-c5ccc(S(=O)(=O)[O-])cc5)c5nc(c(-c6ccc(S(=O)(=O)[O-])cc6)c6ccc3[nH]6)C=C5)C=C4)cc1)c(C)n2Cc1ccn(C(F)F)c(=O)c1
REMARK SMILES IDX 15 1 14 2 13 3 11 4 12 5 10 6 9 7 3 8 4 9 8 10 5 11 7 12
REMARK SMILES IDX 6 13 84 14 82 15 83 16 2 17 1 18 85 19 86 20 87 21 95 22
REMARK SMILES IDX 88 23 93 24 89 25 94 26 90 27 91 28 92 29 16 30 17 31 18 32
REMARK SMILES IDX 19 33 20 34 21 35 22 36 23 37 81 38 24 39 80 40 25 41 26 42
REMARK SMILES IDX 27 43 74 44 28 45 79 46 73 47 75 48 29 49 78 50 72 51 71 52
REMARK SMILES IDX 30 54 60 55 41 56 59 57 42 58 45 59 58 60 76 61 43 62 44 63
REMARK SMILES IDX 57 65 77 66 46 67 31 68 32 69 40 70 33 71 39 72 34 73 35 74
REMARK SMILES IDX 36 75 37 76 38 77 61 78 62 79 70 80 63 81 69 82 64 83 65 84
REMARK SMILES IDX 66 85 67 86 68 87 47 88 48 89 56 90 49 91 55 92 50 93 51 94
REMARK SMILES IDX 52 95 53 96 54 97
REMARK H PARENT 75 53 45 64
REMARK Flexibility Score: inf
ROOT
ATOM      1  C   UNL A   1      34.505  32.511  28.075  1.00  0.00     0.202 C 
ENDROOT
BRANCH   1   2
ATOM      2  C   UNL A   1      34.374  30.988  27.877  1.00  0.00     0.261 C 
BRANCH   2   3
ATOM      3  O   UNL A   1      33.088  30.516  27.438  1.00  0.00    -0.463 OA
BRANCH   3   4
ATOM      4  C   UNL A   1      33.123  29.298  26.833  1.00  0.00     0.310 C 
ATOM      5  O   UNL A   1      32.865  28.240  27.406  1.00  0.00    -0.252 OA
BRANCH   4   6
ATOM      6  C   UNL A   1      33.502  29.295  25.368  1.00  0.00     0.160 C 
BRANCH   6   7
ATOM      7  C   UNL A   1      32.639  28.560  24.374  1.00  0.00    -0.008 A 
ATOM      8  C   UNL A   1      29.292  30.228  23.520  1.00  0.00     0.119 A 
ATOM      9  C   UNL A   1      28.906  29.304  22.557  1.00  0.00     0.048 A 
ATOM     10  C   UNL A   1      30.485  30.027  24.221  1.00  0.00     0.057 A 
ATOM     11  C   UNL A   1      29.699  28.175  22.280  1.00  0.00     0.031 A 
ATOM     12  C   UNL A   1      31.341  28.946  23.914  1.00  0.00     0.007 A 
ATOM     13  C   UNL A   1      30.914  28.004  22.975  1.00  0.00     0.049 A 
ATOM     14  N   UNL A   1      31.870  26.993  22.950  1.00  0.00    -0.340 N 
ATOM     15  C   UNL A   1      32.859  27.280  23.881  1.00  0.00     0.020 A 
ATOM     16  C   UNL A   1      33.944  26.341  24.286  1.00  0.00     0.065 C 
BRANCH   8  17
ATOM     17  O   UNL A   1      28.672  31.408  23.826  1.00  0.00    -0.497 OA
ATOM     18  C   UNL A   1      28.490  32.378  22.807  1.00  0.00     0.278 C 
ENDBRANCH   8  17
BRANCH  14  19
ATOM     19  C   UNL A   1      31.733  25.740  22.188  1.00  0.00     0.158 C 
BRANCH  19  20
ATOM     20  C   UNL A   1      31.891  24.485  23.016  1.00  0.00    -0.021 A 
ATOM     21  C   UNL A   1      32.960  23.560  22.690  1.00  0.00     0.024 A 
ATOM     22  C   UNL A   1      31.112  24.201  24.076  1.00  0.00     0.077 A 
ATOM     23  C   UNL A   1      33.008  22.346  23.244  1.00  0.00     0.095 A 
ATOM     24  C   UNL A   1      31.241  22.899  24.799  1.00  0.00     0.255 A 
ATOM     25  N   UNL A   1      32.122  21.989  24.240  1.00  0.00    -0.258 N 
ATOM     26  O   UNL A   1      30.560  22.721  25.804  1.00  0.00    -0.269 OA
BRANCH  25  27
ATOM     27  C   UNL A   1      32.160  20.659  24.794  1.00  0.00     0.451 C 
ATOM     28  F   UNL A   1      32.767  19.802  23.936  1.00  0.00    -0.185 F 
ATOM     29  F   UNL A   1      32.846  20.638  25.962  1.00  0.00    -0.185 F 
ENDBRANCH  25  27
ENDBRANCH  19  20
ENDBRANCH  14  19
ENDBRANCH   6   7
ENDBRANCH   4   6
ENDBRANCH   3   4
ENDBRANCH   2   3
ENDBRANCH   1   2
BRANCH   1  30
ATOM     30  O   UNL A   1      35.778  33.144  28.146  1.00  0.00    -0.374 OA
BRANCH  30  31
ATOM     31  C   UNL A   1      36.303  33.434  29.438  1.00  0.00     0.202 C 
BRANCH  31  32
ATOM     32  C   UNL A   1      35.387  33.364  30.672  1.00  0.00     0.261 C 
BRANCH  32  33
ATOM     33  O   UNL A   1      35.431  32.098  31.325  1.00  0.00    -0.460 OA
BRANCH  33  34
ATOM     34  C   UNL A   1      35.971  32.119  32.570  1.00  0.00     0.338 C 
ATOM     35  O   UNL A   1      35.481  32.567  33.594  1.00  0.00    -0.246 OA
BRANCH  34  36
ATOM     36  C   UNL A   1      37.054  31.127  32.506  1.00  0.00     0.060 A 
ATOM     37  C   UNL A   1      38.385  31.553  32.506  1.00  0.00     0.016 A 
ATOM     38  C   UNL A   1      36.692  29.844  32.063  1.00  0.00     0.016 A 
ATOM     39  C   UNL A   1      39.341  30.718  31.950  1.00  0.00     0.010 A 
ATOM     40  C   UNL A   1      37.654  29.018  31.497  1.00  0.00     0.010 A 
ATOM     41  C   UNL A   1      38.969  29.475  31.401  1.00  0.00    -0.014 A 
BRANCH  41  42
ATOM     42  C   UNL A   1      40.048  28.592  30.964  1.00  0.00     0.031 A 
ATOM     43  C   UNL A   1      40.941  28.228  32.096  1.00  0.00     0.074 A 
ATOM     44  C   UNL A   1      40.247  28.045  29.749  1.00  0.00     0.049 A 
ATOM     45  N   UNL A   1      42.160  28.609  32.283  1.00  0.00    -0.248 NA
ATOM     46  C   UNL A   1      40.340  27.518  33.234  1.00  0.00     0.031 C 
ATOM     47  C   UNL A   1      39.381  28.042  28.571  1.00  0.00     0.029 A 
ATOM     48  N   UNL A   1      41.304  27.277  29.349  1.00  0.00    -0.354 N 
ATOM     49  C   UNL A   1      42.547  28.052  33.495  1.00  0.00     0.074 A 
ATOM     50  C   UNL A   1      41.350  27.526  34.103  1.00  0.00     0.031 C 
ATOM     51  C   UNL A   1      39.841  27.128  27.678  1.00  0.00     0.029 A 
ATOM     52  C   UNL A   1      41.110  26.598  28.151  1.00  0.00     0.049 A 
ATOM     53  H   UNL A   1      42.138  27.209  29.867  1.00  0.00     0.167 HD
ATOM     54  C   UNL A   1      43.856  27.908  33.835  1.00  0.00     0.031 A 
ATOM     55  C   UNL A   1      41.926  25.649  27.619  1.00  0.00     0.031 A 
ATOM     56  C   UNL A   1      44.717  28.713  33.012  1.00  0.00     0.049 A 
ATOM     57  C   UNL A   1      43.274  25.855  28.205  1.00  0.00     0.074 A 
ATOM     58  C   UNL A   1      44.860  30.071  32.803  1.00  0.00     0.029 A 
ATOM     59  N   UNL A   1      45.335  28.099  31.949  1.00  0.00    -0.354 N 
ATOM     60  N   UNL A   1      44.012  26.901  27.964  1.00  0.00    -0.248 NA
ATOM     61  C   UNL A   1      43.626  25.095  29.392  1.00  0.00     0.031 C 
ATOM     62  C   UNL A   1      45.118  30.203  31.410  1.00  0.00     0.029 A 
ATOM     63  C   UNL A   1      45.186  28.920  30.859  1.00  0.00     0.049 A 
ATOM     64  H   UNL A   1      45.799  27.231  31.966  1.00  0.00     0.167 HD
ATOM     65  C   UNL A   1      44.625  27.183  29.175  1.00  0.00     0.074 A 
ATOM     66  C   UNL A   1      44.418  25.987  29.992  1.00  0.00     0.031 C 
ATOM     67  C   UNL A   1      45.009  28.451  29.499  1.00  0.00     0.031 A 
BRANCH  54  68
ATOM     68  C   UNL A   1      44.366  26.793  34.706  1.00  0.00    -0.014 A 
ATOM     69  C   UNL A   1      45.726  26.647  35.051  1.00  0.00     0.010 A 
ATOM     70  C   UNL A   1      43.442  25.990  35.404  1.00  0.00     0.010 A 
ATOM     71  C   UNL A   1      46.154  25.739  36.018  1.00  0.00     0.020 A 
ATOM     72  C   UNL A   1      43.856  25.105  36.410  1.00  0.00     0.020 A 
ATOM     73  C   UNL A   1      45.213  24.981  36.702  1.00  0.00     0.054 A 
BRANCH  73  74
ATOM     74  S   UNL A   1      45.799  23.890  38.018  1.00  0.00     0.124 S 
ATOM     75  O   UNL A   1      45.600  22.571  37.424  1.00  0.00    -0.237 OA
ATOM     76  O   UNL A   1      47.189  24.308  38.174  1.00  0.00    -0.237 OA
ATOM     77  O   UNL A   1      44.923  24.208  39.142  1.00  0.00    -0.744 OA
ENDBRANCH  73  74
ENDBRANCH  54  68
BRANCH  55  78
ATOM     78  C   UNL A   1      41.544  24.334  27.034  1.00  0.00    -0.014 A 
ATOM     79  C   UNL A   1      40.692  23.472  27.748  1.00  0.00     0.010 A 
ATOM     80  C   UNL A   1      42.289  23.784  25.967  1.00  0.00     0.010 A 
ATOM     81  C   UNL A   1      40.657  22.097  27.479  1.00  0.00     0.020 A 
ATOM     82  C   UNL A   1      42.258  22.406  25.691  1.00  0.00     0.020 A 
ATOM     83  C   UNL A   1      41.472  21.565  26.479  1.00  0.00     0.054 A 
BRANCH  83  84
ATOM     84  S   UNL A   1      41.557  19.757  26.308  1.00  0.00     0.124 S 
ATOM     85  O   UNL A   1      42.083  19.354  27.609  1.00  0.00    -0.237 OA
ATOM     86  O   UNL A   1      40.164  19.398  26.056  1.00  0.00    -0.237 OA
ATOM     87  O   UNL A   1      42.462  19.557  25.178  1.00  0.00    -0.744 OA
ENDBRANCH  83  84
ENDBRANCH  55  78
BRANCH  67  88
ATOM     88  C   UNL A   1      45.009  29.522  28.425  1.00  0.00    -0.014 A 
ATOM     89  C   UNL A   1      46.204  30.239  28.236  1.00  0.00     0.010 A 
ATOM     90  C   UNL A   1      43.848  29.972  27.761  1.00  0.00     0.010 A 
ATOM     91  C   UNL A   1      46.236  31.398  27.459  1.00  0.00     0.020 A 
ATOM     92  C   UNL A   1      43.880  31.122  26.954  1.00  0.00     0.020 A 
ATOM     93  C   UNL A   1      45.070  31.845  26.835  1.00  0.00     0.054 A 
BRANCH  93  94
ATOM     94  S   UNL A   1      45.145  33.402  25.909  1.00  0.00     0.124 S 
ATOM     95  O   UNL A   1      44.390  33.078  24.700  1.00  0.00    -0.237 OA
ATOM     96  O   UNL A   1      44.494  34.348  26.814  1.00  0.00    -0.237 OA
ATOM     97  O   UNL A   1      46.575  33.626  25.705  1.00  0.00    -0.744 OA
ENDBRANCH  93  94
ENDBRANCH  67  88
ENDBRANCH  41  42
ENDBRANCH  34  36
ENDBRANCH  33  34
ENDBRANCH  32  33
ENDBRANCH  31  32
ENDBRANCH  30  31
ENDBRANCH   1  30
TORSDOF 22
ENDMDL
