MODEL 1
REMARK VINA RESULT:     -10.4      0.000      0.000
REMARK SMILES C[C@@H](Oc1ccc(I)cc1)C(=O)NCc1ccc(C(=O)OCCOCCOC(=O)c2ccc(-c3c4nc(c(-c5ccc(S(=O)(=O)[O-])cc5)c5ccc([nH]5)c(-c5ccc(S(=O)(=O)[O-])cc5)c5nc(c(-c6ccc(S(=O)(=O)[O-])cc6)c6ccc3[nH]6)C=C5)C=C4)cc2)cc1
REMARK SMILES IDX 23 1 22 2 21 3 19 4 20 5 18 6 15 7 16 8 91 9 17 10 90 11
REMARK SMILES IDX 14 12 13 13 11 14 12 15 2 17 1 18 3 19 4 20 5 21 10 22 6 23
REMARK SMILES IDX 9 24 7 25 8 26 24 27 25 28 26 29 27 30 28 31 29 32 30 33
REMARK SMILES IDX 31 34 89 35 32 36 88 37 33 38 34 39 35 40 82 41 36 42 87 43
REMARK SMILES IDX 81 44 83 45 37 46 86 47 80 48 79 49 38 51 68 52 49 53 67 54
REMARK SMILES IDX 50 55 53 56 66 57 84 58 51 59 52 60 65 62 85 63 54 64 39 65
REMARK SMILES IDX 40 66 48 67 41 68 47 69 42 70 43 71 44 72 45 73 46 74 69 75
REMARK SMILES IDX 70 76 78 77 71 78 77 79 72 80 73 81 74 82 75 83 76 84 55 85
REMARK SMILES IDX 56 86 64 87 57 88 63 89 58 90 59 91 60 92 61 93 62 94
REMARK H PARENT 13 16 83 50 53 61
REMARK Flexibility Score: inf
ROOT
ATOM      1  C   UNL A   1      43.859  20.938  25.743  1.00  0.00     0.202 C 
ENDROOT
BRANCH   1   2
ATOM      2  C   UNL A   1      42.453  20.369  25.957  1.00  0.00     0.261 C 
BRANCH   2   3
ATOM      3  O   UNL A   1      41.445  21.374  25.769  1.00  0.00    -0.460 OA
BRANCH   3   4
ATOM      4  C   UNL A   1      40.494  21.403  26.731  1.00  0.00     0.338 C 
ATOM      5  O   UNL A   1      40.634  21.105  27.908  1.00  0.00    -0.246 OA
BRANCH   4   6
ATOM      6  C   UNL A   1      39.243  22.001  26.214  1.00  0.00     0.060 A 
ATOM      7  C   UNL A   1      36.877  23.004  25.076  1.00  0.00    -0.029 A 
ATOM      8  C   UNL A   1      37.265  21.673  24.864  1.00  0.00     0.006 A 
ATOM      9  C   UNL A   1      37.662  23.811  25.915  1.00  0.00     0.006 A 
ATOM     10  C   UNL A   1      38.439  21.179  25.421  1.00  0.00     0.016 A 
ATOM     11  C   UNL A   1      38.844  23.314  26.484  1.00  0.00     0.016 A 
BRANCH   7  12
ATOM     12  C   UNL A   1      35.607  23.537  24.458  1.00  0.00     0.151 C 
BRANCH  12  13
ATOM     13  N   UNL A   1      34.732  22.460  24.026  1.00  0.00    -0.349 N 
ATOM     14  C   UNL A   1      33.388  22.453  23.794  1.00  0.00     0.261 C 
ATOM     15  O   UNL A   1      32.863  21.388  23.450  1.00  0.00    -0.271 OA
ATOM     16  H   UNL A   1      35.181  21.596  23.877  1.00  0.00     0.163 HD
BRANCH  14  17
ATOM     17  C   UNL A   1      32.527  23.705  24.035  1.00  0.00     0.258 C 
ATOM     18  C   UNL A   1      31.160  23.489  23.388  1.00  0.00     0.064 C 
BRANCH  17  19
ATOM     19  O   UNL A   1      32.472  23.948  25.444  1.00  0.00    -0.481 OA
BRANCH  19  20
ATOM     20  C   UNL A   1      32.471  25.264  25.797  1.00  0.00     0.120 A 
ATOM     21  C   UNL A   1      33.623  26.035  25.651  1.00  0.00     0.047 A 
ATOM     22  C   UNL A   1      31.257  25.865  26.123  1.00  0.00     0.047 A 
ATOM     23  C   UNL A   1      33.576  27.409  25.883  1.00  0.00     0.018 A 
ATOM     24  C   UNL A   1      31.203  27.243  26.341  1.00  0.00     0.018 A 
ATOM     25  C   UNL A   1      32.365  28.009  26.224  1.00  0.00     0.013 A 
ATOM     26  I   UNL A   1      32.283  30.065  26.512  1.00  0.00    -0.044 I 
ENDBRANCH  19  20
ENDBRANCH  17  19
ENDBRANCH  14  17
ENDBRANCH  12  13
ENDBRANCH   7  12
ENDBRANCH   4   6
ENDBRANCH   3   4
ENDBRANCH   2   3
ENDBRANCH   1   2
BRANCH   1  27
ATOM     27  O   UNL A   1      44.023  22.328  26.020  1.00  0.00    -0.374 OA
BRANCH  27  28
ATOM     28  C   UNL A   1      44.173  23.197  24.895  1.00  0.00     0.202 C 
BRANCH  28  29
ATOM     29  C   UNL A   1      43.600  24.612  25.049  1.00  0.00     0.261 C 
BRANCH  29  30
ATOM     30  O   UNL A   1      42.554  24.661  26.037  1.00  0.00    -0.460 OA
BRANCH  30  31
ATOM     31  C   UNL A   1      41.801  25.786  26.017  1.00  0.00     0.338 C 
ATOM     32  O   UNL A   1      41.077  26.173  25.109  1.00  0.00    -0.246 OA
BRANCH  31  33
ATOM     33  C   UNL A   1      41.814  26.423  27.347  1.00  0.00     0.060 A 
ATOM     34  C   UNL A   1      40.778  26.095  28.232  1.00  0.00     0.016 A 
ATOM     35  C   UNL A   1      42.782  27.363  27.708  1.00  0.00     0.016 A 
ATOM     36  C   UNL A   1      40.677  26.743  29.461  1.00  0.00     0.010 A 
ATOM     37  C   UNL A   1      42.675  28.017  28.940  1.00  0.00     0.010 A 
ATOM     38  C   UNL A   1      41.603  27.736  29.805  1.00  0.00    -0.014 A 
BRANCH  38  39
ATOM     39  C   UNL A   1      41.365  28.574  31.006  1.00  0.00     0.031 A 
ATOM     40  C   UNL A   1      40.253  29.589  30.978  1.00  0.00     0.074 A 
ATOM     41  C   UNL A   1      42.111  28.419  32.114  1.00  0.00     0.049 A 
ATOM     42  N   UNL A   1      39.885  30.437  31.903  1.00  0.00    -0.248 NA
ATOM     43  C   UNL A   1      39.453  29.655  29.744  1.00  0.00     0.031 C 
ATOM     44  C   UNL A   1      43.188  27.444  32.278  1.00  0.00     0.029 A 
ATOM     45  N   UNL A   1      42.074  29.086  33.313  1.00  0.00    -0.354 N 
ATOM     46  C   UNL A   1      38.816  31.145  31.361  1.00  0.00     0.074 A 
ATOM     47  C   UNL A   1      38.614  30.644  30.019  1.00  0.00     0.031 C 
ATOM     48  C   UNL A   1      43.716  27.582  33.508  1.00  0.00     0.029 A 
ATOM     49  C   UNL A   1      43.035  28.673  34.203  1.00  0.00     0.049 A 
ATOM     50  H   UNL A   1      41.419  29.793  33.515  1.00  0.00     0.167 HD
ATOM     51  C   UNL A   1      38.068  32.118  31.931  1.00  0.00     0.031 A 
ATOM     52  C   UNL A   1      43.345  29.135  35.431  1.00  0.00     0.031 A 
ATOM     53  C   UNL A   1      38.279  32.624  33.263  1.00  0.00     0.049 A 
ATOM     54  C   UNL A   1      42.543  30.265  36.020  1.00  0.00     0.074 A 
ATOM     55  C   UNL A   1      37.563  33.597  33.936  1.00  0.00     0.029 A 
ATOM     56  N   UNL A   1      39.284  32.203  34.119  1.00  0.00    -0.354 N 
ATOM     57  N   UNL A   1      41.520  30.905  35.505  1.00  0.00    -0.248 NA
ATOM     58  C   UNL A   1      42.933  30.730  37.359  1.00  0.00     0.031 C 
ATOM     59  C   UNL A   1      38.169  33.804  35.180  1.00  0.00     0.029 A 
ATOM     60  C   UNL A   1      39.226  32.916  35.304  1.00  0.00     0.049 A 
ATOM     61  H   UNL A   1      39.942  31.500  33.914  1.00  0.00     0.167 HD
ATOM     62  C   UNL A   1      41.127  31.830  36.468  1.00  0.00     0.074 A 
ATOM     63  C   UNL A   1      42.015  31.657  37.599  1.00  0.00     0.031 C 
ATOM     64  C   UNL A   1      40.119  32.736  36.421  1.00  0.00     0.031 A 
BRANCH  51  65
ATOM     65  C   UNL A   1      36.973  32.729  31.099  1.00  0.00    -0.014 A 
ATOM     66  C   UNL A   1      37.241  33.770  30.191  1.00  0.00     0.010 A 
ATOM     67  C   UNL A   1      35.660  32.235  31.204  1.00  0.00     0.010 A 
ATOM     68  C   UNL A   1      36.208  34.331  29.434  1.00  0.00     0.020 A 
ATOM     69  C   UNL A   1      34.630  32.776  30.430  1.00  0.00     0.020 A 
ATOM     70  C   UNL A   1      34.909  33.834  29.563  1.00  0.00     0.054 A 
BRANCH  70  71
ATOM     71  S   UNL A   1      33.589  34.571  28.560  1.00  0.00     0.124 S 
ATOM     72  O   UNL A   1      34.283  35.691  27.928  1.00  0.00    -0.237 OA
ATOM     73  O   UNL A   1      33.218  33.478  27.664  1.00  0.00    -0.237 OA
ATOM     74  O   UNL A   1      32.572  34.941  29.540  1.00  0.00    -0.744 OA
ENDBRANCH  70  71
ENDBRANCH  51  65
BRANCH  52  75
ATOM     75  C   UNL A   1      44.485  28.538  36.180  1.00  0.00    -0.014 A 
ATOM     76  C   UNL A   1      45.737  29.174  36.211  1.00  0.00     0.010 A 
ATOM     77  C   UNL A   1      44.314  27.326  36.876  1.00  0.00     0.010 A 
ATOM     78  C   UNL A   1      46.802  28.604  36.915  1.00  0.00     0.020 A 
ATOM     79  C   UNL A   1      45.369  26.768  37.602  1.00  0.00     0.020 A 
ATOM     80  C   UNL A   1      46.609  27.406  37.609  1.00  0.00     0.054 A 
BRANCH  80  81
ATOM     81  S   UNL A   1      47.989  26.715  38.566  1.00  0.00     0.124 S 
ATOM     82  O   UNL A   1      47.912  25.298  38.230  1.00  0.00    -0.237 OA
ATOM     83  O   UNL A   1      49.139  27.434  38.025  1.00  0.00    -0.237 OA
ATOM     84  O   UNL A   1      47.647  27.052  39.947  1.00  0.00    -0.744 OA
ENDBRANCH  80  81
ENDBRANCH  52  75
BRANCH  64  85
ATOM     85  C   UNL A   1      39.897  33.593  37.639  1.00  0.00    -0.014 A 
ATOM     86  C   UNL A   1      40.468  34.874  37.744  1.00  0.00     0.010 A 
ATOM     87  C   UNL A   1      39.055  33.131  38.668  1.00  0.00     0.010 A 
ATOM     88  C   UNL A   1      40.225  35.664  38.871  1.00  0.00     0.020 A 
ATOM     89  C   UNL A   1      38.788  33.930  39.783  1.00  0.00     0.020 A 
ATOM     90  C   UNL A   1      39.387  35.188  39.884  1.00  0.00     0.054 A 
BRANCH  90  91
ATOM     91  S   UNL A   1      39.052  36.249  41.316  1.00  0.00     0.124 S 
ATOM     92  O   UNL A   1      40.316  36.186  42.043  1.00  0.00    -0.237 OA
ATOM     93  O   UNL A   1      38.746  37.537  40.697  1.00  0.00    -0.237 OA
ATOM     94  O   UNL A   1      37.922  35.598  41.974  1.00  0.00    -0.744 OA
ENDBRANCH  90  91
ENDBRANCH  64  85
ENDBRANCH  38  39
ENDBRANCH  31  33
ENDBRANCH  30  31
ENDBRANCH  29  30
ENDBRANCH  28  29
ENDBRANCH  27  28
ENDBRANCH   1  27
TORSDOF 22
ENDMDL
MODEL 2
REMARK VINA RESULT:      -9.7      6.747     12.465
REMARK SMILES C[C@@H](Oc1ccc(I)cc1)C(=O)NCc1ccc(C(=O)OCCOCCOC(=O)c2ccc(-c3c4nc(c(-c5ccc(S(=O)(=O)[O-])cc5)c5ccc([nH]5)c(-c5ccc(S(=O)(=O)[O-])cc5)c5nc(c(-c6ccc(S(=O)(=O)[O-])cc6)c6ccc3[nH]6)C=C5)C=C4)cc2)cc1
REMARK SMILES IDX 23 1 22 2 21 3 19 4 20 5 18 6 15 7 16 8 91 9 17 10 90 11
REMARK SMILES IDX 14 12 13 13 11 14 12 15 2 17 1 18 3 19 4 20 5 21 10 22 6 23
REMARK SMILES IDX 9 24 7 25 8 26 24 27 25 28 26 29 27 30 28 31 29 32 30 33
REMARK SMILES IDX 31 34 89 35 32 36 88 37 33 38 34 39 35 40 82 41 36 42 87 43
REMARK SMILES IDX 81 44 83 45 37 46 86 47 80 48 79 49 38 51 68 52 49 53 67 54
REMARK SMILES IDX 50 55 53 56 66 57 84 58 51 59 52 60 65 62 85 63 54 64 39 65
REMARK SMILES IDX 40 66 48 67 41 68 47 69 42 70 43 71 44 72 45 73 46 74 69 75
REMARK SMILES IDX 70 76 78 77 71 78 77 79 72 80 73 81 74 82 75 83 76 84 55 85
REMARK SMILES IDX 56 86 64 87 57 88 63 89 58 90 59 91 60 92 61 93 62 94
REMARK H PARENT 13 16 83 50 53 61
REMARK Flexibility Score: inf
ROOT
ATOM      1  C   UNL A   1      32.209  29.498  26.105  1.00  0.00     0.202 C 
ENDROOT
BRANCH   1   2
ATOM      2  C   UNL A   1      31.245  29.880  24.979  1.00  0.00     0.261 C 
BRANCH   2   3
ATOM      3  O   UNL A   1      31.350  28.976  23.868  1.00  0.00    -0.460 OA
BRANCH   3   4
ATOM      4  C   UNL A   1      30.277  28.171  23.694  1.00  0.00     0.338 C 
ATOM      5  O   UNL A   1      29.201  28.482  23.203  1.00  0.00    -0.246 OA
BRANCH   4   6
ATOM      6  C   UNL A   1      30.608  26.772  24.042  1.00  0.00     0.060 A 
ATOM      7  C   UNL A   1      31.250  24.174  24.901  1.00  0.00    -0.029 A 
ATOM      8  C   UNL A   1      30.603  25.072  25.762  1.00  0.00     0.006 A 
ATOM      9  C   UNL A   1      31.520  24.577  23.583  1.00  0.00     0.006 A 
ATOM     10  C   UNL A   1      30.292  26.360  25.340  1.00  0.00     0.016 A 
ATOM     11  C   UNL A   1      31.202  25.872  23.151  1.00  0.00     0.016 A 
BRANCH   7  12
ATOM     12  C   UNL A   1      31.596  22.782  25.371  1.00  0.00     0.151 C 
BRANCH  12  13
ATOM     13  N   UNL A   1      31.706  21.855  24.256  1.00  0.00    -0.349 N 
ATOM     14  C   UNL A   1      32.468  20.732  24.113  1.00  0.00     0.261 C 
ATOM     15  O   UNL A   1      32.400  20.118  23.043  1.00  0.00    -0.271 OA
ATOM     16  H   UNL A   1      31.141  22.073  23.479  1.00  0.00     0.163 HD
BRANCH  14  17
ATOM     17  C   UNL A   1      33.449  20.285  25.210  1.00  0.00     0.258 C 
ATOM     18  C   UNL A   1      32.913  19.006  25.852  1.00  0.00     0.064 C 
BRANCH  17  19
ATOM     19  O   UNL A   1      34.746  20.142  24.622  1.00  0.00    -0.481 OA
BRANCH  19  20
ATOM     20  C   UNL A   1      35.642  21.106  24.972  1.00  0.00     0.120 A 
ATOM     21  C   UNL A   1      35.209  22.290  25.566  1.00  0.00     0.047 A 
ATOM     22  C   UNL A   1      37.001  20.808  24.902  1.00  0.00     0.047 A 
ATOM     23  C   UNL A   1      36.140  23.210  26.048  1.00  0.00     0.018 A 
ATOM     24  C   UNL A   1      37.936  21.720  25.396  1.00  0.00     0.018 A 
ATOM     25  C   UNL A   1      37.501  22.919  25.964  1.00  0.00     0.013 A 
ATOM     26  I   UNL A   1      38.886  24.263  26.734  1.00  0.00    -0.044 I 
ENDBRANCH  19  20
ENDBRANCH  17  19
ENDBRANCH  14  17
ENDBRANCH  12  13
ENDBRANCH   7  12
ENDBRANCH   4   6
ENDBRANCH   3   4
ENDBRANCH   2   3
ENDBRANCH   1   2
BRANCH   1  27
ATOM     27  O   UNL A   1      33.582  29.365  25.739  1.00  0.00    -0.374 OA
BRANCH  27  28
ATOM     28  C   UNL A   1      34.446  28.736  26.689  1.00  0.00     0.202 C 
BRANCH  28  29
ATOM     29  C   UNL A   1      35.364  29.667  27.492  1.00  0.00     0.261 C 
BRANCH  29  30
ATOM     30  O   UNL A   1      36.340  28.932  28.252  1.00  0.00    -0.460 OA
BRANCH  30  31
ATOM     31  C   UNL A   1      37.229  29.694  28.932  1.00  0.00     0.338 C 
ATOM     32  O   UNL A   1      36.985  30.472  29.845  1.00  0.00    -0.246 OA
BRANCH  31  33
ATOM     33  C   UNL A   1      38.604  29.323  28.550  1.00  0.00     0.060 A 
ATOM     34  C   UNL A   1      39.516  29.069  29.583  1.00  0.00     0.016 A 
ATOM     35  C   UNL A   1      39.015  29.278  27.216  1.00  0.00     0.016 A 
ATOM     36  C   UNL A   1      40.855  28.819  29.288  1.00  0.00     0.010 A 
ATOM     37  C   UNL A   1      40.361  29.034  26.922  1.00  0.00     0.010 A 
ATOM     38  C   UNL A   1      41.292  28.838  27.958  1.00  0.00    -0.014 A 
BRANCH  38  39
ATOM     39  C   UNL A   1      42.746  28.795  27.665  1.00  0.00     0.031 A 
ATOM     40  C   UNL A   1      43.344  27.523  27.126  1.00  0.00     0.074 A 
ATOM     41  C   UNL A   1      43.519  29.880  27.852  1.00  0.00     0.049 A 
ATOM     42  N   UNL A   1      44.588  27.259  26.821  1.00  0.00    -0.248 NA
ATOM     43  C   UNL A   1      42.416  26.403  26.901  1.00  0.00     0.031 C 
ATOM     44  C   UNL A   1      43.050  31.180  28.330  1.00  0.00     0.029 A 
ATOM     45  N   UNL A   1      44.867  30.056  27.663  1.00  0.00    -0.354 N 
ATOM     46  C   UNL A   1      44.596  25.941  26.378  1.00  0.00     0.074 A 
ATOM     47  C   UNL A   1      43.237  25.453  26.479  1.00  0.00     0.031 C 
ATOM     48  C   UNL A   1      44.098  32.020  28.403  1.00  0.00     0.029 A 
ATOM     49  C   UNL A   1      45.313  31.308  28.009  1.00  0.00     0.049 A 
ATOM     50  H   UNL A   1      45.458  29.350  27.312  1.00  0.00     0.167 HD
ATOM     51  C   UNL A   1      45.638  25.205  25.924  1.00  0.00     0.031 A 
ATOM     52  C   UNL A   1      46.561  31.818  28.025  1.00  0.00     0.031 A 
ATOM     53  C   UNL A   1      46.991  25.688  25.837  1.00  0.00     0.049 A 
ATOM     54  C   UNL A   1      47.715  30.959  27.579  1.00  0.00     0.074 A 
ATOM     55  C   UNL A   1      48.113  25.024  25.373  1.00  0.00     0.029 A 
ATOM     56  N   UNL A   1      47.407  26.952  26.228  1.00  0.00    -0.354 N 
ATOM     57  N   UNL A   1      47.702  29.724  27.139  1.00  0.00    -0.248 NA
ATOM     58  C   UNL A   1      49.052  31.568  27.626  1.00  0.00     0.031 C 
ATOM     59  C   UNL A   1      49.217  25.867  25.536  1.00  0.00     0.029 A 
ATOM     60  C   UNL A   1      48.773  27.078  26.044  1.00  0.00     0.049 A 
ATOM     61  H   UNL A   1      46.817  27.655  26.584  1.00  0.00     0.167 HD
ATOM     62  C   UNL A   1      49.024  29.416  26.830  1.00  0.00     0.074 A 
ATOM     63  C   UNL A   1      49.806  30.598  27.124  1.00  0.00     0.031 C 
ATOM     64  C   UNL A   1      49.540  28.261  26.344  1.00  0.00     0.031 A 
BRANCH  51  65
ATOM     65  C   UNL A   1      45.359  23.781  25.522  1.00  0.00    -0.014 A 
ATOM     66  C   UNL A   1      45.690  22.707  26.367  1.00  0.00     0.010 A 
ATOM     67  C   UNL A   1      44.728  23.516  24.293  1.00  0.00     0.010 A 
ATOM     68  C   UNL A   1      45.432  21.390  25.971  1.00  0.00     0.020 A 
ATOM     69  C   UNL A   1      44.445  22.203  23.905  1.00  0.00     0.020 A 
ATOM     70  C   UNL A   1      44.816  21.148  24.740  1.00  0.00     0.054 A 
BRANCH  70  71
ATOM     71  S   UNL A   1      44.481  19.432  24.256  1.00  0.00     0.124 S 
ATOM     72  O   UNL A   1      43.153  19.214  24.824  1.00  0.00    -0.237 OA
ATOM     73  O   UNL A   1      44.537  19.493  22.797  1.00  0.00    -0.237 OA
ATOM     74  O   UNL A   1      45.560  18.675  24.886  1.00  0.00    -0.744 OA
ENDBRANCH  70  71
ENDBRANCH  51  65
BRANCH  52  75
ATOM     75  C   UNL A   1      46.785  33.211  28.499  1.00  0.00    -0.014 A 
ATOM     76  C   UNL A   1      46.750  34.290  27.600  1.00  0.00     0.010 A 
ATOM     77  C   UNL A   1      47.029  33.462  29.862  1.00  0.00     0.010 A 
ATOM     78  C   UNL A   1      46.965  35.595  28.053  1.00  0.00     0.020 A 
ATOM     79  C   UNL A   1      47.219  34.768  30.323  1.00  0.00     0.020 A 
ATOM     80  C   UNL A   1      47.194  35.825  29.413  1.00  0.00     0.054 A 
BRANCH  80  81
ATOM     81  S   UNL A   1      47.411  37.533  29.989  1.00  0.00     0.124 S 
ATOM     82  O   UNL A   1      48.574  37.967  29.224  1.00  0.00    -0.237 OA
ATOM     83  O   UNL A   1      46.141  38.154  29.620  1.00  0.00    -0.237 OA
ATOM     84  O   UNL A   1      47.626  37.382  31.427  1.00  0.00    -0.744 OA
ENDBRANCH  80  81
ENDBRANCH  52  75
BRANCH  64  85
ATOM     85  C   UNL A   1      51.020  28.223  26.066  1.00  0.00    -0.014 A 
ATOM     86  C   UNL A   1      51.543  28.646  24.831  1.00  0.00     0.010 A 
ATOM     87  C   UNL A   1      51.905  27.811  27.080  1.00  0.00     0.010 A 
ATOM     88  C   UNL A   1      52.922  28.629  24.605  1.00  0.00     0.020 A 
ATOM     89  C   UNL A   1      53.286  27.819  26.867  1.00  0.00     0.020 A 
ATOM     90  C   UNL A   1      53.785  28.215  25.624  1.00  0.00     0.054 A 
BRANCH  90  91
ATOM     91  S   UNL A   1      55.574  28.244  25.322  1.00  0.00     0.124 S 
ATOM     92  O   UNL A   1      55.793  26.953  24.675  1.00  0.00    -0.237 OA
ATOM     93  O   UNL A   1      55.736  29.414  24.463  1.00  0.00    -0.237 OA
ATOM     94  O   UNL A   1      56.149  28.376  26.659  1.00  0.00    -0.744 OA
ENDBRANCH  90  91
ENDBRANCH  64  85
ENDBRANCH  38  39
ENDBRANCH  31  33
ENDBRANCH  30  31
ENDBRANCH  29  30
ENDBRANCH  28  29
ENDBRANCH  27  28
ENDBRANCH   1  27
TORSDOF 22
ENDMDL
MODEL 3
REMARK VINA RESULT:      -9.5      5.807     10.190
REMARK SMILES C[C@@H](Oc1ccc(I)cc1)C(=O)NCc1ccc(C(=O)OCCOCCOC(=O)c2ccc(-c3c4nc(c(-c5ccc(S(=O)(=O)[O-])cc5)c5ccc([nH]5)c(-c5ccc(S(=O)(=O)[O-])cc5)c5nc(c(-c6ccc(S(=O)(=O)[O-])cc6)c6ccc3[nH]6)C=C5)C=C4)cc2)cc1
REMARK SMILES IDX 23 1 22 2 21 3 19 4 20 5 18 6 15 7 16 8 91 9 17 10 90 11
REMARK SMILES IDX 14 12 13 13 11 14 12 15 2 17 1 18 3 19 4 20 5 21 10 22 6 23
REMARK SMILES IDX 9 24 7 25 8 26 24 27 25 28 26 29 27 30 28 31 29 32 30 33
REMARK SMILES IDX 31 34 89 35 32 36 88 37 33 38 34 39 35 40 82 41 36 42 87 43
REMARK SMILES IDX 81 44 83 45 37 46 86 47 80 48 79 49 38 51 68 52 49 53 67 54
REMARK SMILES IDX 50 55 53 56 66 57 84 58 51 59 52 60 65 62 85 63 54 64 39 65
REMARK SMILES IDX 40 66 48 67 41 68 47 69 42 70 43 71 44 72 45 73 46 74 69 75
REMARK SMILES IDX 70 76 78 77 71 78 77 79 72 80 73 81 74 82 75 83 76 84 55 85
REMARK SMILES IDX 56 86 64 87 57 88 63 89 58 90 59 91 60 92 61 93 62 94
REMARK H PARENT 13 16 83 50 53 61
REMARK Flexibility Score: inf
ROOT
ATOM      1  C   UNL A   1      42.397  20.312  26.333  1.00  0.00     0.202 C 
ENDROOT
BRANCH   1   2
ATOM      2  C   UNL A   1      41.046  20.336  27.053  1.00  0.00     0.261 C 
BRANCH   2   3
ATOM      3  O   UNL A   1      40.109  21.192  26.382  1.00  0.00    -0.460 OA
BRANCH   3   4
ATOM      4  C   UNL A   1      39.182  20.540  25.643  1.00  0.00     0.338 C 
ATOM      5  O   UNL A   1      39.180  19.353  25.352  1.00  0.00    -0.246 OA
BRANCH   4   6
ATOM      6  C   UNL A   1      38.040  21.429  25.330  1.00  0.00     0.060 A 
ATOM      7  C   UNL A   1      35.914  23.218  24.910  1.00  0.00    -0.029 A 
ATOM      8  C   UNL A   1      37.040  23.606  25.648  1.00  0.00     0.006 A 
ATOM      9  C   UNL A   1      35.893  21.937  24.335  1.00  0.00     0.006 A 
ATOM     10  C   UNL A   1      38.089  22.720  25.862  1.00  0.00     0.016 A 
ATOM     11  C   UNL A   1      36.951  21.041  24.542  1.00  0.00     0.016 A 
BRANCH   7  12
ATOM     12  C   UNL A   1      34.774  24.182  24.692  1.00  0.00     0.151 C 
BRANCH  12  13
ATOM     13  N   UNL A   1      34.400  24.258  23.290  1.00  0.00    -0.349 N 
ATOM     14  C   UNL A   1      33.299  23.780  22.641  1.00  0.00     0.261 C 
ATOM     15  O   UNL A   1      33.222  23.956  21.420  1.00  0.00    -0.271 OA
ATOM     16  H   UNL A   1      35.046  24.731  22.715  1.00  0.00     0.163 HD
BRANCH  14  17
ATOM     17  C   UNL A   1      32.223  22.967  23.382  1.00  0.00     0.258 C 
ATOM     18  C   UNL A   1      31.010  23.867  23.618  1.00  0.00     0.064 C 
BRANCH  17  19
ATOM     19  O   UNL A   1      31.937  21.795  22.615  1.00  0.00    -0.481 OA
BRANCH  19  20
ATOM     20  C   UNL A   1      32.302  20.622  23.205  1.00  0.00     0.120 A 
ATOM     21  C   UNL A   1      32.495  20.557  24.584  1.00  0.00     0.047 A 
ATOM     22  C   UNL A   1      32.292  19.460  22.438  1.00  0.00     0.047 A 
ATOM     23  C   UNL A   1      32.732  19.326  25.197  1.00  0.00     0.018 A 
ATOM     24  C   UNL A   1      32.514  18.224  23.050  1.00  0.00     0.018 A 
ATOM     25  C   UNL A   1      32.737  18.164  24.428  1.00  0.00     0.013 A 
ATOM     26  I   UNL A   1      33.031  16.325  25.349  1.00  0.00    -0.044 I 
ENDBRANCH  19  20
ENDBRANCH  17  19
ENDBRANCH  14  17
ENDBRANCH  12  13
ENDBRANCH   7  12
ENDBRANCH   4   6
ENDBRANCH   3   4
ENDBRANCH   2   3
ENDBRANCH   1   2
BRANCH   1  27
ATOM     27  O   UNL A   1      42.670  19.153  25.545  1.00  0.00    -0.374 OA
BRANCH  27  28
ATOM     28  C   UNL A   1      44.045  18.834  25.320  1.00  0.00     0.202 C 
BRANCH  28  29
ATOM     29  C   UNL A   1      44.686  19.445  24.066  1.00  0.00     0.261 C 
BRANCH  29  30
ATOM     30  O   UNL A   1      45.475  20.607  24.381  1.00  0.00    -0.460 OA
BRANCH  30  31
ATOM     31  C   UNL A   1      44.948  21.784  23.971  1.00  0.00     0.338 C 
ATOM     32  O   UNL A   1      44.327  21.994  22.937  1.00  0.00    -0.246 OA
BRANCH  31  33
ATOM     33  C   UNL A   1      45.052  22.784  25.051  1.00  0.00     0.060 A 
ATOM     34  C   UNL A   1      44.791  24.121  24.723  1.00  0.00     0.016 A 
ATOM     35  C   UNL A   1      45.451  22.437  26.344  1.00  0.00     0.016 A 
ATOM     36  C   UNL A   1      44.976  25.123  25.673  1.00  0.00     0.010 A 
ATOM     37  C   UNL A   1      45.644  23.446  27.294  1.00  0.00     0.010 A 
ATOM     38  C   UNL A   1      45.441  24.795  26.952  1.00  0.00    -0.014 A 
BRANCH  38  39
ATOM     39  C   UNL A   1      45.849  25.876  27.882  1.00  0.00     0.031 A 
ATOM     40  C   UNL A   1      47.303  26.259  27.965  1.00  0.00     0.074 A 
ATOM     41  C   UNL A   1      44.936  26.526  28.626  1.00  0.00     0.049 A 
ATOM     42  N   UNL A   1      47.880  27.156  28.720  1.00  0.00    -0.248 NA
ATOM     43  C   UNL A   1      48.226  25.533  27.077  1.00  0.00     0.031 C 
ATOM     44  C   UNL A   1      43.495  26.275  28.606  1.00  0.00     0.029 A 
ATOM     45  N   UNL A   1      45.090  27.531  29.548  1.00  0.00    -0.354 N 
ATOM     46  C   UNL A   1      49.234  27.097  28.408  1.00  0.00     0.074 A 
ATOM     47  C   UNL A   1      49.394  26.059  27.413  1.00  0.00     0.031 C 
ATOM     48  C   UNL A   1      42.898  27.102  29.482  1.00  0.00     0.029 A 
ATOM     49  C   UNL A   1      43.915  27.915  30.146  1.00  0.00     0.049 A 
ATOM     50  H   UNL A   1      45.962  27.938  29.760  1.00  0.00     0.167 HD
ATOM     51  C   UNL A   1      50.251  27.844  28.899  1.00  0.00     0.031 A 
ATOM     52  C   UNL A   1      43.687  28.807  31.131  1.00  0.00     0.031 A 
ATOM     53  C   UNL A   1      50.091  28.869  29.898  1.00  0.00     0.049 A 
ATOM     54  C   UNL A   1      44.842  29.579  31.711  1.00  0.00     0.074 A 
ATOM     55  C   UNL A   1      51.058  29.692  30.447  1.00  0.00     0.029 A 
ATOM     56  N   UNL A   1      48.889  29.205  30.502  1.00  0.00    -0.354 N 
ATOM     57  N   UNL A   1      46.112  29.531  31.386  1.00  0.00    -0.248 NA
ATOM     58  C   UNL A   1      44.531  30.532  32.786  1.00  0.00     0.031 C 
ATOM     59  C   UNL A   1      50.451  30.487  31.425  1.00  0.00     0.029 A 
ATOM     60  C   UNL A   1      49.094  30.202  31.440  1.00  0.00     0.049 A 
ATOM     61  H   UNL A   1      48.019  28.794  30.295  1.00  0.00     0.167 HD
ATOM     62  C   UNL A   1      46.748  30.465  32.198  1.00  0.00     0.074 A 
ATOM     63  C   UNL A   1      45.721  31.071  33.020  1.00  0.00     0.031 C 
ATOM     64  C   UNL A   1      48.062  30.794  32.254  1.00  0.00     0.031 A 
BRANCH  51  65
ATOM     65  C   UNL A   1      51.636  27.551  28.390  1.00  0.00    -0.014 A 
ATOM     66  C   UNL A   1      52.462  26.605  29.023  1.00  0.00     0.010 A 
ATOM     67  C   UNL A   1      52.109  28.211  27.240  1.00  0.00     0.010 A 
ATOM     68  C   UNL A   1      53.750  26.355  28.540  1.00  0.00     0.020 A 
ATOM     69  C   UNL A   1      53.387  27.944  26.739  1.00  0.00     0.020 A 
ATOM     70  C   UNL A   1      54.205  27.031  27.405  1.00  0.00     0.054 A 
BRANCH  70  71
ATOM     71  S   UNL A   1      55.875  26.677  26.791  1.00  0.00     0.124 S 
ATOM     72  O   UNL A   1      56.559  27.944  27.036  1.00  0.00    -0.237 OA
ATOM     73  O   UNL A   1      56.299  25.562  27.635  1.00  0.00    -0.237 OA
ATOM     74  O   UNL A   1      55.666  26.344  25.384  1.00  0.00    -0.744 OA
ENDBRANCH  70  71
ENDBRANCH  51  65
BRANCH  52  75
ATOM     75  C   UNL A   1      42.303  29.005  31.644  1.00  0.00    -0.014 A 
ATOM     76  C   UNL A   1      41.818  28.237  32.716  1.00  0.00     0.010 A 
ATOM     77  C   UNL A   1      41.466  29.975  31.062  1.00  0.00     0.010 A 
ATOM     78  C   UNL A   1      40.515  28.428  33.189  1.00  0.00     0.020 A 
ATOM     79  C   UNL A   1      40.174  30.187  31.549  1.00  0.00     0.020 A 
ATOM     80  C   UNL A   1      39.704  29.405  32.604  1.00  0.00     0.054 A 
BRANCH  80  81
ATOM     81  S   UNL A   1      38.039  29.677  33.274  1.00  0.00     0.124 S 
ATOM     82  O   UNL A   1      38.324  30.045  34.656  1.00  0.00    -0.237 OA
ATOM     83  O   UNL A   1      37.528  30.749  32.424  1.00  0.00    -0.237 OA
ATOM     84  O   UNL A   1      37.383  28.383  33.091  1.00  0.00    -0.744 OA
ENDBRANCH  80  81
ENDBRANCH  52  75
BRANCH  64  85
ATOM     85  C   UNL A   1      48.467  31.881  33.214  1.00  0.00    -0.014 A 
ATOM     86  C   UNL A   1      48.863  31.584  34.530  1.00  0.00     0.010 A 
ATOM     87  C   UNL A   1      48.508  33.217  32.771  1.00  0.00     0.010 A 
ATOM     88  C   UNL A   1      49.262  32.607  35.396  1.00  0.00     0.020 A 
ATOM     89  C   UNL A   1      48.933  34.238  33.625  1.00  0.00     0.020 A 
ATOM     90  C   UNL A   1      49.295  33.928  34.938  1.00  0.00     0.054 A 
BRANCH  90  91
ATOM     91  S   UNL A   1      49.858  35.232  36.066  1.00  0.00     0.124 S 
ATOM     92  O   UNL A   1      50.400  34.457  37.179  1.00  0.00    -0.237 OA
ATOM     93  O   UNL A   1      50.844  35.949  35.261  1.00  0.00    -0.237 OA
ATOM     94  O   UNL A   1      48.641  35.983  36.364  1.00  0.00    -0.744 OA
ENDBRANCH  90  91
ENDBRANCH  64  85
ENDBRANCH  38  39
ENDBRANCH  31  33
ENDBRANCH  30  31
ENDBRANCH  29  30
ENDBRANCH  28  29
ENDBRANCH  27  28
ENDBRANCH   1  27
TORSDOF 22
ENDMDL
