MODEL 1
REMARK VINA RESULT:     -10.9      0.000      0.000
REMARK SMILES COC(=O)c1c(NC(=O)[C@@H]2[C@H]3CC[C@H](CC3)[C@H]2C(=O)OCCOCCOC(=O)c2ccc(-c3c4nc(c(-c5ccc(S(=O)(=O)[O-])cc5)c5ccc([nH]5)c(-c5ccc(S(=O)(=O)[O-])cc5)c5nc(c(-c6ccc(S(=O)(=O)[O-])cc6)c6ccc3[nH]6)C=C5)C=C4)cc2)sc(C)c1-c1ccc(C)cc1
REMARK SMILES IDX 22 1 21 2 20 3 18 4 19 5 17 6 10 7 11 8 12 9 16 10 14 11
REMARK SMILES IDX 13 12 15 13 8 14 7 15 9 17 6 18 5 19 92 20 89 21 90 22 91 23
REMARK SMILES IDX 3 24 4 25 2 26 1 27 93 28 94 29 99 30 95 31 98 32 96 33
REMARK SMILES IDX 97 34 23 35 24 36 25 37 26 38 27 39 28 40 29 41 30 42 88 43
REMARK SMILES IDX 31 44 87 45 32 46 33 47 34 48 81 49 35 50 86 51 80 52 82 53
REMARK SMILES IDX 36 54 85 55 79 56 78 57 37 59 67 60 48 61 66 62 49 63 52 64
REMARK SMILES IDX 65 65 83 66 50 67 51 68 64 70 84 71 53 72 38 73 39 74 47 75
REMARK SMILES IDX 40 76 46 77 41 78 42 79 43 80 44 81 45 82 68 83 69 84 77 85
REMARK SMILES IDX 70 86 76 87 71 88 72 89 73 90 74 91 75 92 54 93 55 94 63 95
REMARK SMILES IDX 56 96 62 97 57 98 58 99 59 100 60 101 61 102
REMARK H PARENT 7 16 82 58 52 69
REMARK Flexibility Score: inf
ROOT
ATOM      1  C   UNL A   1      31.962  28.145  26.538  1.00  0.00     0.202 C 
ENDROOT
BRANCH   1   2
ATOM      2  C   UNL A   1      31.641  26.658  26.744  1.00  0.00     0.261 C 
BRANCH   2   3
ATOM      3  O   UNL A   1      32.601  25.743  26.187  1.00  0.00    -0.463 OA
BRANCH   3   4
ATOM      4  C   UNL A   1      32.286  24.429  26.336  1.00  0.00     0.310 C 
ATOM      5  O   UNL A   1      31.539  23.989  27.205  1.00  0.00    -0.252 OA
BRANCH   4   6
ATOM      6  C   UNL A   1      32.997  23.504  25.362  1.00  0.00     0.115 C 
ATOM      7  C   UNL A   1      34.011  24.123  24.334  1.00  0.00     0.096 C 
ATOM      8  C   UNL A   1      35.353  23.340  24.458  1.00  0.00     0.002 C 
ATOM      9  C   UNL A   1      35.895  23.543  25.886  1.00  0.00     0.005 C 
ATOM     10  C   UNL A   1      35.137  21.819  24.258  1.00  0.00     0.005 C 
ATOM     11  C   UNL A   1      33.672  22.394  26.206  1.00  0.00     0.004 C 
ATOM     12  C   UNL A   1      34.925  22.946  26.912  1.00  0.00     0.005 C 
ATOM     13  C   UNL A   1      34.103  21.277  25.250  1.00  0.00     0.005 C 
BRANCH   7  14
ATOM     14  C   UNL A   1      33.491  24.020  22.886  1.00  0.00     0.229 C 
ATOM     15  N   UNL A   1      32.407  24.661  22.360  1.00  0.00    -0.317 N 
ATOM     16  H   UNL A   1      32.293  24.455  21.405  1.00  0.00     0.170 HD
ATOM     17  O   UNL A   1      34.094  23.296  22.079  1.00  0.00    -0.274 OA
BRANCH  15  18
ATOM     18  C   UNL A   1      31.424  25.526  22.817  1.00  0.00     0.111 A 
ATOM     19  C   UNL A   1      31.459  26.920  22.761  1.00  0.00     0.102 A 
ATOM     20  C   UNL A   1      30.172  27.494  23.117  1.00  0.00     0.012 A 
ATOM     21  S   UNL A   1      30.031  24.982  23.594  1.00  0.00    -0.122 S 
ATOM     22  C   UNL A   1      29.285  26.522  23.550  1.00  0.00     0.012 A 
ATOM     23  C   UNL A   1      27.842  26.658  23.929  1.00  0.00     0.057 C 
BRANCH  19  24
ATOM     24  C   UNL A   1      32.636  27.674  22.332  1.00  0.00     0.341 C 
ATOM     25  O   UNL A   1      33.343  27.330  21.385  1.00  0.00    -0.246 OA
BRANCH  24  26
ATOM     26  O   UNL A   1      32.881  28.754  23.118  1.00  0.00    -0.465 OA
ATOM     27  C   UNL A   1      34.239  28.962  23.504  1.00  0.00     0.282 C 
ENDBRANCH  24  26
ENDBRANCH  19  24
BRANCH  20  28
ATOM     28  C   UNL A   1      29.737  28.887  22.987  1.00  0.00    -0.016 A 
ATOM     29  C   UNL A   1      29.869  29.778  24.060  1.00  0.00     0.009 A 
ATOM     30  C   UNL A   1      29.234  29.361  21.769  1.00  0.00     0.009 A 
ATOM     31  C   UNL A   1      29.525  31.126  23.904  1.00  0.00     0.004 A 
ATOM     32  C   UNL A   1      28.919  30.712  21.607  1.00  0.00     0.004 A 
ATOM     33  C   UNL A   1      29.073  31.608  22.670  1.00  0.00    -0.051 A 
ATOM     34  C   UNL A   1      28.738  33.061  22.496  1.00  0.00     0.044 C 
ENDBRANCH  20  28
ENDBRANCH  15  18
ENDBRANCH   7  14
ENDBRANCH   4   6
ENDBRANCH   3   4
ENDBRANCH   2   3
ENDBRANCH   1   2
BRANCH   1  35
ATOM     35  O   UNL A   1      32.807  28.794  27.480  1.00  0.00    -0.374 OA
BRANCH  35  36
ATOM     36  C   UNL A   1      34.137  29.124  27.091  1.00  0.00     0.202 C 
BRANCH  36  37
ATOM     37  C   UNL A   1      35.071  29.733  28.141  1.00  0.00     0.261 C 
BRANCH  37  38
ATOM     38  O   UNL A   1      36.464  29.706  27.766  1.00  0.00    -0.460 OA
BRANCH  38  39
ATOM     39  C   UNL A   1      37.299  29.406  28.792  1.00  0.00     0.338 C 
ATOM     40  O   UNL A   1      37.021  29.451  29.982  1.00  0.00    -0.246 OA
BRANCH  39  41
ATOM     41  C   UNL A   1      38.616  28.897  28.352  1.00  0.00     0.060 A 
ATOM     42  C   UNL A   1      39.469  28.429  29.357  1.00  0.00     0.016 A 
ATOM     43  C   UNL A   1      39.099  29.074  27.054  1.00  0.00     0.016 A 
ATOM     44  C   UNL A   1      40.825  28.252  29.096  1.00  0.00     0.010 A 
ATOM     45  C   UNL A   1      40.469  28.941  26.802  1.00  0.00     0.010 A 
ATOM     46  C   UNL A   1      41.341  28.571  27.835  1.00  0.00    -0.014 A 
BRANCH  46  47
ATOM     47  C   UNL A   1      42.801  28.508  27.611  1.00  0.00     0.031 A 
ATOM     48  C   UNL A   1      43.440  27.259  27.071  1.00  0.00     0.074 A 
ATOM     49  C   UNL A   1      43.539  29.599  27.881  1.00  0.00     0.049 A 
ATOM     50  N   UNL A   1      44.691  27.052  26.746  1.00  0.00    -0.248 NA
ATOM     51  C   UNL A   1      42.566  26.092  26.867  1.00  0.00     0.031 C 
ATOM     52  C   UNL A   1      43.010  30.859  28.405  1.00  0.00     0.029 A 
ATOM     53  N   UNL A   1      44.883  29.820  27.756  1.00  0.00    -0.354 N 
ATOM     54  C   UNL A   1      44.756  25.740  26.290  1.00  0.00     0.074 A 
ATOM     55  C   UNL A   1      43.422  25.189  26.402  1.00  0.00     0.031 C 
ATOM     56  C   UNL A   1      44.027  31.720  28.571  1.00  0.00     0.029 A 
ATOM     57  C   UNL A   1      45.272  31.067  28.179  1.00  0.00     0.049 A 
ATOM     58  H   UNL A   1      45.510  29.151  27.398  1.00  0.00     0.167 HD
ATOM     59  C   UNL A   1      45.833  25.065  25.817  1.00  0.00     0.031 A 
ATOM     60  C   UNL A   1      46.499  31.616  28.252  1.00  0.00     0.031 A 
ATOM     61  C   UNL A   1      47.160  25.625  25.734  1.00  0.00     0.049 A 
ATOM     62  C   UNL A   1      47.681  30.827  27.762  1.00  0.00     0.074 A 
ATOM     63  C   UNL A   1      48.308  25.043  25.223  1.00  0.00     0.029 A 
ATOM     64  N   UNL A   1      47.520  26.886  26.186  1.00  0.00    -0.354 N 
ATOM     65  N   UNL A   1      47.710  29.620  27.249  1.00  0.00    -0.248 NA
ATOM     66  C   UNL A   1      48.992  31.483  27.840  1.00  0.00     0.031 C 
ATOM     67  C   UNL A   1      49.374  25.924  25.426  1.00  0.00     0.029 A 
ATOM     68  C   UNL A   1      48.879  27.084  26.001  1.00  0.00     0.049 A 
ATOM     69  H   UNL A   1      46.902  27.543  26.580  1.00  0.00     0.167 HD
ATOM     70  C   UNL A   1      49.038  29.385  26.915  1.00  0.00     0.074 A 
ATOM     71  C   UNL A   1      49.776  30.580  27.268  1.00  0.00     0.031 C 
ATOM     72  C   UNL A   1      49.598  28.280  26.361  1.00  0.00     0.031 A 
BRANCH  59  73
ATOM     73  C   UNL A   1      45.647  23.640  25.363  1.00  0.00    -0.014 A 
ATOM     74  C   UNL A   1      45.859  22.563  26.243  1.00  0.00     0.010 A 
ATOM     75  C   UNL A   1      45.137  23.379  24.077  1.00  0.00     0.010 A 
ATOM     76  C   UNL A   1      45.575  21.253  25.842  1.00  0.00     0.020 A 
ATOM     77  C   UNL A   1      44.832  22.073  23.679  1.00  0.00     0.020 A 
ATOM     78  C   UNL A   1      45.060  21.017  24.563  1.00  0.00     0.054 A 
BRANCH  78  79
ATOM     79  S   UNL A   1      44.642  19.314  24.092  1.00  0.00     0.124 S 
ATOM     80  O   UNL A   1      45.730  18.556  24.708  1.00  0.00    -0.237 OA
ATOM     81  O   UNL A   1      43.326  19.128  24.699  1.00  0.00    -0.237 OA
ATOM     82  O   UNL A   1      44.654  19.344  22.632  1.00  0.00    -0.744 OA
ENDBRANCH  78  79
ENDBRANCH  59  73
BRANCH  60  83
ATOM     83  C   UNL A   1      46.665  32.977  28.825  1.00  0.00    -0.014 A 
ATOM     84  C   UNL A   1      46.818  33.163  30.209  1.00  0.00     0.010 A 
ATOM     85  C   UNL A   1      46.664  34.099  27.976  1.00  0.00     0.010 A 
ATOM     86  C   UNL A   1      46.931  34.452  30.738  1.00  0.00     0.020 A 
ATOM     87  C   UNL A   1      46.807  35.386  28.498  1.00  0.00     0.020 A 
ATOM     88  C   UNL A   1      46.920  35.555  29.879  1.00  0.00     0.054 A 
BRANCH  88  89
ATOM     89  S   UNL A   1      47.082  37.218  30.585  1.00  0.00     0.124 S 
ATOM     90  O   UNL A   1      48.481  37.234  30.999  1.00  0.00    -0.237 OA
ATOM     91  O   UNL A   1      46.745  38.077  29.452  1.00  0.00    -0.237 OA
ATOM     92  O   UNL A   1      46.106  37.223  31.673  1.00  0.00    -0.744 OA
ENDBRANCH  88  89
ENDBRANCH  60  83
BRANCH  72  93
ATOM     93  C   UNL A   1      51.075  28.327  26.074  1.00  0.00    -0.014 A 
ATOM     94  C   UNL A   1      52.018  27.915  27.030  1.00  0.00     0.010 A 
ATOM     95  C   UNL A   1      51.521  28.754  24.809  1.00  0.00     0.010 A 
ATOM     96  C   UNL A   1      53.385  27.963  26.740  1.00  0.00     0.020 A 
ATOM     97  C   UNL A   1      52.885  28.775  24.505  1.00  0.00     0.020 A 
ATOM     98  C   UNL A   1      53.809  28.395  25.480  1.00  0.00     0.054 A 
BRANCH  98  99
ATOM     99  S   UNL A   1      55.585  28.415  25.116  1.00  0.00     0.124 S 
ATOM    100  O   UNL A   1      56.019  27.127  25.649  1.00  0.00    -0.237 OA
ATOM    101  O   UNL A   1      55.614  28.535  23.661  1.00  0.00    -0.237 OA
ATOM    102  O   UNL A   1      56.074  29.586  25.841  1.00  0.00    -0.744 OA
ENDBRANCH  98  99
ENDBRANCH  72  93
ENDBRANCH  46  47
ENDBRANCH  39  41
ENDBRANCH  38  39
ENDBRANCH  37  38
ENDBRANCH  36  37
ENDBRANCH  35  36
ENDBRANCH   1  35
TORSDOF 22
ENDMDL
MODEL 2
REMARK VINA RESULT:     -10.7      5.093      9.353
REMARK SMILES COC(=O)c1c(NC(=O)[C@@H]2[C@H]3CC[C@H](CC3)[C@H]2C(=O)OCCOCCOC(=O)c2ccc(-c3c4nc(c(-c5ccc(S(=O)(=O)[O-])cc5)c5ccc([nH]5)c(-c5ccc(S(=O)(=O)[O-])cc5)c5nc(c(-c6ccc(S(=O)(=O)[O-])cc6)c6ccc3[nH]6)C=C5)C=C4)cc2)sc(C)c1-c1ccc(C)cc1
REMARK SMILES IDX 22 1 21 2 20 3 18 4 19 5 17 6 10 7 11 8 12 9 16 10 14 11
REMARK SMILES IDX 13 12 15 13 8 14 7 15 9 17 6 18 5 19 92 20 89 21 90 22 91 23
REMARK SMILES IDX 3 24 4 25 2 26 1 27 93 28 94 29 99 30 95 31 98 32 96 33
REMARK SMILES IDX 97 34 23 35 24 36 25 37 26 38 27 39 28 40 29 41 30 42 88 43
REMARK SMILES IDX 31 44 87 45 32 46 33 47 34 48 81 49 35 50 86 51 80 52 82 53
REMARK SMILES IDX 36 54 85 55 79 56 78 57 37 59 67 60 48 61 66 62 49 63 52 64
REMARK SMILES IDX 65 65 83 66 50 67 51 68 64 70 84 71 53 72 38 73 39 74 47 75
REMARK SMILES IDX 40 76 46 77 41 78 42 79 43 80 44 81 45 82 68 83 69 84 77 85
REMARK SMILES IDX 70 86 76 87 71 88 72 89 73 90 74 91 75 92 54 93 55 94 63 95
REMARK SMILES IDX 56 96 62 97 57 98 58 99 59 100 60 101 61 102
REMARK H PARENT 7 16 82 58 52 69
REMARK Flexibility Score: inf
ROOT
ATOM      1  C   UNL A   1      31.420  27.583  26.469  1.00  0.00     0.202 C 
ENDROOT
BRANCH   1   2
ATOM      2  C   UNL A   1      31.341  26.058  26.637  1.00  0.00     0.261 C 
BRANCH   2   3
ATOM      3  O   UNL A   1      32.553  25.347  26.335  1.00  0.00    -0.463 OA
BRANCH   3   4
ATOM      4  C   UNL A   1      32.440  23.993  26.364  1.00  0.00     0.310 C 
ATOM      5  O   UNL A   1      31.777  23.370  27.188  1.00  0.00    -0.252 OA
BRANCH   4   6
ATOM      6  C   UNL A   1      33.269  23.275  25.311  1.00  0.00     0.115 C 
ATOM      7  C   UNL A   1      34.070  24.132  24.266  1.00  0.00     0.096 C 
ATOM      8  C   UNL A   1      35.550  23.645  24.285  1.00  0.00     0.002 C 
ATOM      9  C   UNL A   1      36.122  23.903  25.692  1.00  0.00     0.005 C 
ATOM     10  C   UNL A   1      35.644  22.121  24.020  1.00  0.00     0.005 C 
ATOM     11  C   UNL A   1      34.209  22.301  26.065  1.00  0.00     0.004 C 
ATOM     12  C   UNL A   1      35.358  23.077  26.734  1.00  0.00     0.005 C 
ATOM     13  C   UNL A   1      34.805  21.337  25.034  1.00  0.00     0.005 C 
BRANCH   7  14
ATOM     14  C   UNL A   1      33.498  23.977  22.842  1.00  0.00     0.229 C 
ATOM     15  N   UNL A   1      32.413  24.622  22.323  1.00  0.00    -0.317 N 
ATOM     16  H   UNL A   1      32.261  24.376  21.383  1.00  0.00     0.170 HD
ATOM     17  O   UNL A   1      34.054  23.201  22.050  1.00  0.00    -0.274 OA
BRANCH  15  18
ATOM     18  C   UNL A   1      31.468  25.533  22.771  1.00  0.00     0.111 A 
ATOM     19  C   UNL A   1      31.572  26.923  22.718  1.00  0.00     0.102 A 
ATOM     20  C   UNL A   1      30.311  27.559  23.061  1.00  0.00     0.012 A 
ATOM     21  S   UNL A   1      30.043  25.057  23.532  1.00  0.00    -0.122 S 
ATOM     22  C   UNL A   1      29.373  26.632  23.483  1.00  0.00     0.012 A 
ATOM     23  C   UNL A   1      27.934  26.836  23.848  1.00  0.00     0.057 C 
BRANCH  19  24
ATOM     24  C   UNL A   1      32.789  27.621  22.303  1.00  0.00     0.341 C 
ATOM     25  O   UNL A   1      33.493  27.238  21.368  1.00  0.00    -0.246 OA
BRANCH  24  26
ATOM     26  O   UNL A   1      33.072  28.693  23.087  1.00  0.00    -0.465 OA
ATOM     27  C   UNL A   1      34.038  28.488  24.116  1.00  0.00     0.282 C 
ENDBRANCH  24  26
ENDBRANCH  19  24
BRANCH  20  28
ATOM     28  C   UNL A   1      29.946  28.972  22.930  1.00  0.00    -0.016 A 
ATOM     29  C   UNL A   1      29.469  29.475  21.713  1.00  0.00     0.009 A 
ATOM     30  C   UNL A   1      30.017  29.828  24.036  1.00  0.00     0.009 A 
ATOM     31  C   UNL A   1      29.047  30.806  21.615  1.00  0.00     0.004 A 
ATOM     32  C   UNL A   1      29.569  31.147  23.945  1.00  0.00     0.004 A 
ATOM     33  C   UNL A   1      29.070  31.644  22.737  1.00  0.00    -0.051 A 
ATOM     34  C   UNL A   1      28.585  33.061  22.638  1.00  0.00     0.044 C 
ENDBRANCH  20  28
ENDBRANCH  15  18
ENDBRANCH   7  14
ENDBRANCH   4   6
ENDBRANCH   3   4
ENDBRANCH   2   3
ENDBRANCH   1   2
BRANCH   1  35
ATOM     35  O   UNL A   1      31.911  28.361  27.553  1.00  0.00    -0.374 OA
BRANCH  35  36
ATOM     36  C   UNL A   1      33.027  29.216  27.331  1.00  0.00     0.202 C 
BRANCH  36  37
ATOM     37  C   UNL A   1      32.787  30.728  27.288  1.00  0.00     0.261 C 
BRANCH  37  38
ATOM     38  O   UNL A   1      33.995  31.506  27.150  1.00  0.00    -0.460 OA
BRANCH  38  39
ATOM     39  C   UNL A   1      34.556  31.855  28.334  1.00  0.00     0.338 C 
ATOM     40  O   UNL A   1      34.035  32.536  29.205  1.00  0.00    -0.246 OA
BRANCH  39  41
ATOM     41  C   UNL A   1      35.884  31.243  28.560  1.00  0.00     0.060 A 
ATOM     42  C   UNL A   1      35.904  30.060  29.307  1.00  0.00     0.016 A 
ATOM     43  C   UNL A   1      37.080  31.900  28.264  1.00  0.00     0.016 A 
ATOM     44  C   UNL A   1      37.098  29.600  29.855  1.00  0.00     0.010 A 
ATOM     45  C   UNL A   1      38.272  31.465  28.851  1.00  0.00     0.010 A 
ATOM     46  C   UNL A   1      38.275  30.337  29.684  1.00  0.00    -0.014 A 
BRANCH  46  47
ATOM     47  C   UNL A   1      39.506  29.911  30.382  1.00  0.00     0.031 A 
ATOM     48  C   UNL A   1      39.909  30.547  31.683  1.00  0.00     0.074 A 
ATOM     49  C   UNL A   1      40.244  28.927  29.839  1.00  0.00     0.049 A 
ATOM     50  N   UNL A   1      40.914  30.248  32.467  1.00  0.00    -0.248 NA
ATOM     51  C   UNL A   1      39.078  31.661  32.171  1.00  0.00     0.031 C 
ATOM     52  C   UNL A   1      39.934  28.244  28.581  1.00  0.00     0.029 A 
ATOM     53  N   UNL A   1      41.400  28.336  30.270  1.00  0.00    -0.354 N 
ATOM     54  C   UNL A   1      40.835  31.125  33.543  1.00  0.00     0.074 A 
ATOM     55  C   UNL A   1      39.695  31.986  33.301  1.00  0.00     0.031 C 
ATOM     56  C   UNL A   1      40.890  27.335  28.334  1.00  0.00     0.029 A 
ATOM     57  C   UNL A   1      41.879  27.382  29.407  1.00  0.00     0.049 A 
ATOM     58  H   UNL A   1      41.845  28.572  31.116  1.00  0.00     0.167 HD
ATOM     59  C   UNL A   1      41.639  31.196  34.633  1.00  0.00     0.031 A 
ATOM     60  C   UNL A   1      42.999  26.638  29.469  1.00  0.00     0.031 A 
ATOM     61  C   UNL A   1      42.782  30.344  34.845  1.00  0.00     0.049 A 
ATOM     62  C   UNL A   1      43.896  26.770  30.668  1.00  0.00     0.074 A 
ATOM     63  C   UNL A   1      43.631  30.300  35.938  1.00  0.00     0.029 A 
ATOM     64  N   UNL A   1      43.248  29.399  33.942  1.00  0.00    -0.354 N 
ATOM     65  N   UNL A   1      43.756  27.541  31.721  1.00  0.00    -0.248 NA
ATOM     66  C   UNL A   1      45.090  25.916  30.698  1.00  0.00     0.031 C 
ATOM     67  C   UNL A   1      44.646  29.378  35.668  1.00  0.00     0.029 A 
ATOM     68  C   UNL A   1      44.393  28.796  34.436  1.00  0.00     0.049 A 
ATOM     69  H   UNL A   1      42.827  29.188  33.077  1.00  0.00     0.167 HD
ATOM     70  C   UNL A   1      44.828  27.242  32.553  1.00  0.00     0.074 A 
ATOM     71  C   UNL A   1      45.597  26.209  31.889  1.00  0.00     0.031 C 
ATOM     72  C   UNL A   1      45.147  27.770  33.760  1.00  0.00     0.031 A 
BRANCH  59  73
ATOM     73  C   UNL A   1      41.337  32.234  35.683  1.00  0.00    -0.014 A 
ATOM     74  C   UNL A   1      41.944  33.502  35.647  1.00  0.00     0.010 A 
ATOM     75  C   UNL A   1      40.344  31.981  36.648  1.00  0.00     0.010 A 
ATOM     76  C   UNL A   1      41.571  34.493  36.563  1.00  0.00     0.020 A 
ATOM     77  C   UNL A   1      39.953  32.975  37.552  1.00  0.00     0.020 A 
ATOM     78  C   UNL A   1      40.576  34.223  37.507  1.00  0.00     0.054 A 
BRANCH  78  79
ATOM     79  S   UNL A   1      40.068  35.548  38.641  1.00  0.00     0.124 S 
ATOM     80  O   UNL A   1      39.709  36.617  37.713  1.00  0.00    -0.237 OA
ATOM     81  O   UNL A   1      38.952  34.941  39.363  1.00  0.00    -0.237 OA
ATOM     82  O   UNL A   1      41.264  35.796  39.442  1.00  0.00    -0.744 OA
ENDBRANCH  78  79
ENDBRANCH  59  73
BRANCH  60  83
ATOM     83  C   UNL A   1      43.335  25.715  28.354  1.00  0.00    -0.014 A 
ATOM     84  C   UNL A   1      42.976  24.358  28.409  1.00  0.00     0.010 A 
ATOM     85  C   UNL A   1      44.028  26.198  27.229  1.00  0.00     0.010 A 
ATOM     86  C   UNL A   1      43.336  23.492  27.372  1.00  0.00     0.020 A 
ATOM     87  C   UNL A   1      44.363  25.342  26.179  1.00  0.00     0.020 A 
ATOM     88  C   UNL A   1      44.032  23.989  26.266  1.00  0.00     0.054 A 
BRANCH  88  89
ATOM     89  S   UNL A   1      44.477  22.851  24.926  1.00  0.00     0.124 S 
ATOM     90  O   UNL A   1      44.880  21.659  25.665  1.00  0.00    -0.237 OA
ATOM     91  O   UNL A   1      43.227  22.741  24.177  1.00  0.00    -0.237 OA
ATOM     92  O   UNL A   1      45.553  23.551  24.228  1.00  0.00    -0.744 OA
ENDBRANCH  88  89
ENDBRANCH  60  83
BRANCH  72  93
ATOM     93  C   UNL A   1      46.362  27.217  34.455  1.00  0.00    -0.014 A 
ATOM     94  C   UNL A   1      47.632  27.790  34.273  1.00  0.00     0.010 A 
ATOM     95  C   UNL A   1      46.220  26.128  35.336  1.00  0.00     0.010 A 
ATOM     96  C   UNL A   1      48.746  27.261  34.932  1.00  0.00     0.020 A 
ATOM     97  C   UNL A   1      47.326  25.616  36.019  1.00  0.00     0.020 A 
ATOM     98  C   UNL A   1      48.586  26.176  35.799  1.00  0.00     0.054 A 
BRANCH  98  99
ATOM     99  S   UNL A   1      50.041  25.532  36.668  1.00  0.00     0.124 S 
ATOM    100  O   UNL A   1      50.379  26.640  37.557  1.00  0.00    -0.237 OA
ATOM    101  O   UNL A   1      49.519  24.336  37.326  1.00  0.00    -0.237 OA
ATOM    102  O   UNL A   1      51.000  25.276  35.596  1.00  0.00    -0.744 OA
ENDBRANCH  98  99
ENDBRANCH  72  93
ENDBRANCH  46  47
ENDBRANCH  39  41
ENDBRANCH  38  39
ENDBRANCH  37  38
ENDBRANCH  36  37
ENDBRANCH  35  36
ENDBRANCH   1  35
TORSDOF 22
ENDMDL
MODEL 3
REMARK VINA RESULT:     -10.0      6.451      9.361
REMARK SMILES COC(=O)c1c(NC(=O)[C@@H]2[C@H]3CC[C@H](CC3)[C@H]2C(=O)OCCOCCOC(=O)c2ccc(-c3c4nc(c(-c5ccc(S(=O)(=O)[O-])cc5)c5ccc([nH]5)c(-c5ccc(S(=O)(=O)[O-])cc5)c5nc(c(-c6ccc(S(=O)(=O)[O-])cc6)c6ccc3[nH]6)C=C5)C=C4)cc2)sc(C)c1-c1ccc(C)cc1
REMARK SMILES IDX 22 1 21 2 20 3 18 4 19 5 17 6 10 7 11 8 12 9 16 10 14 11
REMARK SMILES IDX 13 12 15 13 8 14 7 15 9 17 6 18 5 19 92 20 89 21 90 22 91 23
REMARK SMILES IDX 3 24 4 25 2 26 1 27 93 28 94 29 99 30 95 31 98 32 96 33
REMARK SMILES IDX 97 34 23 35 24 36 25 37 26 38 27 39 28 40 29 41 30 42 88 43
REMARK SMILES IDX 31 44 87 45 32 46 33 47 34 48 81 49 35 50 86 51 80 52 82 53
REMARK SMILES IDX 36 54 85 55 79 56 78 57 37 59 67 60 48 61 66 62 49 63 52 64
REMARK SMILES IDX 65 65 83 66 50 67 51 68 64 70 84 71 53 72 38 73 39 74 47 75
REMARK SMILES IDX 40 76 46 77 41 78 42 79 43 80 44 81 45 82 68 83 69 84 77 85
REMARK SMILES IDX 70 86 76 87 71 88 72 89 73 90 74 91 75 92 54 93 55 94 63 95
REMARK SMILES IDX 56 96 62 97 57 98 58 99 59 100 60 101 61 102
REMARK H PARENT 7 16 82 58 52 69
REMARK Flexibility Score: inf
ROOT
ATOM      1  C   UNL A   1      34.354  29.634  27.170  1.00  0.00     0.202 C 
ENDROOT
BRANCH   1   2
ATOM      2  C   UNL A   1      33.580  28.340  27.461  1.00  0.00     0.261 C 
BRANCH   2   3
ATOM      3  O   UNL A   1      33.592  27.370  26.400  1.00  0.00    -0.463 OA
BRANCH   3   4
ATOM      4  C   UNL A   1      32.381  26.824  26.115  1.00  0.00     0.310 C 
ATOM      5  O   UNL A   1      31.484  26.659  26.937  1.00  0.00    -0.252 OA
BRANCH   4   6
ATOM      6  C   UNL A   1      32.230  26.357  24.676  1.00  0.00     0.115 C 
ATOM      7  C   UNL A   1      30.846  26.551  23.960  1.00  0.00     0.096 C 
ATOM      8  C   UNL A   1      31.108  27.286  22.611  1.00  0.00     0.002 C 
ATOM      9  C   UNL A   1      31.710  28.669  22.927  1.00  0.00     0.005 C 
ATOM     10  C   UNL A   1      32.139  26.521  21.743  1.00  0.00     0.005 C 
ATOM     11  C   UNL A   1      33.372  27.019  23.865  1.00  0.00     0.004 C 
ATOM     12  C   UNL A   1      33.065  28.510  23.628  1.00  0.00     0.005 C 
ATOM     13  C   UNL A   1      33.450  26.314  22.508  1.00  0.00     0.005 C 
BRANCH   7  14
ATOM     14  C   UNL A   1      30.153  25.202  23.681  1.00  0.00     0.229 C 
ATOM     15  N   UNL A   1      30.527  23.979  24.154  1.00  0.00    -0.317 N 
ATOM     16  H   UNL A   1      29.910  23.272  23.858  1.00  0.00     0.170 HD
ATOM     17  O   UNL A   1      29.142  25.181  22.962  1.00  0.00    -0.274 OA
BRANCH  15  18
ATOM     18  C   UNL A   1      31.548  23.468  24.941  1.00  0.00     0.111 A 
ATOM     19  C   UNL A   1      32.782  22.998  24.490  1.00  0.00     0.102 A 
ATOM     20  C   UNL A   1      33.690  22.752  25.599  1.00  0.00     0.012 A 
ATOM     21  S   UNL A   1      31.395  23.276  26.608  1.00  0.00    -0.122 S 
ATOM     22  C   UNL A   1      33.056  22.915  26.819  1.00  0.00     0.012 A 
ATOM     23  C   UNL A   1      33.628  22.844  28.202  1.00  0.00     0.057 C 
BRANCH  19  24
ATOM     24  C   UNL A   1      33.112  22.846  23.074  1.00  0.00     0.341 C 
ATOM     25  O   UNL A   1      34.179  23.225  22.591  1.00  0.00    -0.246 OA
BRANCH  24  26
ATOM     26  O   UNL A   1      32.101  22.290  22.357  1.00  0.00    -0.465 OA
ATOM     27  C   UNL A   1      32.066  20.865  22.311  1.00  0.00     0.282 C 
ENDBRANCH  24  26
ENDBRANCH  19  24
BRANCH  20  28
ATOM     28  C   UNL A   1      35.123  22.453  25.545  1.00  0.00    -0.016 A 
ATOM     29  C   UNL A   1      36.070  23.449  25.815  1.00  0.00     0.009 A 
ATOM     30  C   UNL A   1      35.566  21.152  25.275  1.00  0.00     0.009 A 
ATOM     31  C   UNL A   1      37.434  23.139  25.839  1.00  0.00     0.004 A 
ATOM     32  C   UNL A   1      36.925  20.838  25.328  1.00  0.00     0.004 A 
ATOM     33  C   UNL A   1      37.870  21.827  25.621  1.00  0.00    -0.051 A 
ATOM     34  C   UNL A   1      39.331  21.490  25.682  1.00  0.00     0.044 C 
ENDBRANCH  20  28
ENDBRANCH  15  18
ENDBRANCH   7  14
ENDBRANCH   4   6
ENDBRANCH   3   4
ENDBRANCH   2   3
ENDBRANCH   1   2
BRANCH   1  35
ATOM     35  O   UNL A   1      33.637  30.861  27.136  1.00  0.00    -0.374 OA
BRANCH  35  36
ATOM     36  C   UNL A   1      34.245  32.023  27.691  1.00  0.00     0.202 C 
BRANCH  36  37
ATOM     37  C   UNL A   1      33.358  33.236  27.987  1.00  0.00     0.261 C 
BRANCH  37  38
ATOM     38  O   UNL A   1      34.048  34.313  28.655  1.00  0.00    -0.460 OA
BRANCH  38  39
ATOM     39  C   UNL A   1      33.647  34.508  29.935  1.00  0.00     0.338 C 
ATOM     40  O   UNL A   1      32.569  34.962  30.291  1.00  0.00    -0.246 OA
BRANCH  39  41
ATOM     41  C   UNL A   1      34.616  34.015  30.938  1.00  0.00     0.060 A 
ATOM     42  C   UNL A   1      35.681  34.870  31.245  1.00  0.00     0.016 A 
ATOM     43  C   UNL A   1      34.629  32.695  31.393  1.00  0.00     0.016 A 
ATOM     44  C   UNL A   1      36.805  34.377  31.902  1.00  0.00     0.010 A 
ATOM     45  C   UNL A   1      35.776  32.188  32.012  1.00  0.00     0.010 A 
ATOM     46  C   UNL A   1      36.884  33.018  32.228  1.00  0.00    -0.014 A 
BRANCH  46  47
ATOM     47  C   UNL A   1      38.136  32.482  32.802  1.00  0.00     0.031 A 
ATOM     48  C   UNL A   1      39.049  31.617  31.977  1.00  0.00     0.074 A 
ATOM     49  C   UNL A   1      38.451  32.802  34.069  1.00  0.00     0.049 A 
ATOM     50  N   UNL A   1      40.218  31.122  32.293  1.00  0.00    -0.248 NA
ATOM     51  C   UNL A   1      38.593  31.263  30.622  1.00  0.00     0.031 C 
ATOM     52  C   UNL A   1      37.632  33.638  34.949  1.00  0.00     0.029 A 
ATOM     53  N   UNL A   1      39.534  32.464  34.833  1.00  0.00    -0.354 N 
ATOM     54  C   UNL A   1      40.646  30.408  31.179  1.00  0.00     0.074 A 
ATOM     55  C   UNL A   1      39.598  30.512  30.185  1.00  0.00     0.031 C 
ATOM     56  C   UNL A   1      38.238  33.734  36.143  1.00  0.00     0.029 A 
ATOM     57  C   UNL A   1      39.475  32.958  36.112  1.00  0.00     0.049 A 
ATOM     58  H   UNL A   1      40.283  31.919  34.498  1.00  0.00     0.167 HD
ATOM     59  C   UNL A   1      41.809  29.732  31.007  1.00  0.00     0.031 A 
ATOM     60  C   UNL A   1      40.320  32.794  37.147  1.00  0.00     0.031 A 
ATOM     61  C   UNL A   1      42.831  29.621  32.019  1.00  0.00     0.049 A 
ATOM     62  C   UNL A   1      41.581  32.002  36.940  1.00  0.00     0.074 A 
ATOM     63  C   UNL A   1      44.067  29.003  31.927  1.00  0.00     0.029 A 
ATOM     64  N   UNL A   1      42.731  30.121  33.309  1.00  0.00    -0.354 N 
ATOM     65  N   UNL A   1      42.012  31.410  35.851  1.00  0.00    -0.248 NA
ATOM     66  C   UNL A   1      42.480  31.876  38.094  1.00  0.00     0.031 C 
ATOM     67  C   UNL A   1      44.685  29.072  33.180  1.00  0.00     0.029 A 
ATOM     68  C   UNL A   1      43.865  29.793  34.033  1.00  0.00     0.049 A 
ATOM     69  H   UNL A   1      41.966  30.633  33.658  1.00  0.00     0.167 HD
ATOM     70  C   UNL A   1      43.247  30.867  36.182  1.00  0.00     0.074 A 
ATOM     71  C   UNL A   1      43.501  31.216  37.565  1.00  0.00     0.031 C 
ATOM     72  C   UNL A   1      44.099  30.147  35.410  1.00  0.00     0.031 A 
BRANCH  59  73
ATOM     73  C   UNL A   1      42.052  29.041  29.690  1.00  0.00    -0.014 A 
ATOM     74  C   UNL A   1      41.711  27.690  29.504  1.00  0.00     0.010 A 
ATOM     75  C   UNL A   1      42.516  29.785  28.588  1.00  0.00     0.010 A 
ATOM     76  C   UNL A   1      41.839  27.093  28.245  1.00  0.00     0.020 A 
ATOM     77  C   UNL A   1      42.625  29.198  27.323  1.00  0.00     0.020 A 
ATOM     78  C   UNL A   1      42.292  27.853  27.161  1.00  0.00     0.054 A 
BRANCH  78  79
ATOM     79  S   UNL A   1      42.388  27.069  25.526  1.00  0.00     0.124 S 
ATOM     80  O   UNL A   1      41.163  26.272  25.503  1.00  0.00    -0.237 OA
ATOM     81  O   UNL A   1      42.408  28.216  24.622  1.00  0.00    -0.237 OA
ATOM     82  O   UNL A   1      43.628  26.300  25.582  1.00  0.00    -0.744 OA
ENDBRANCH  78  79
ENDBRANCH  59  73
BRANCH  60  83
ATOM     83  C   UNL A   1      39.988  33.381  38.471  1.00  0.00    -0.014 A 
ATOM     84  C   UNL A   1      40.344  34.704  38.782  1.00  0.00     0.010 A 
ATOM     85  C   UNL A   1      39.315  32.606  39.433  1.00  0.00     0.010 A 
ATOM     86  C   UNL A   1      40.064  35.230  40.047  1.00  0.00     0.020 A 
ATOM     87  C   UNL A   1      39.007  33.138  40.686  1.00  0.00     0.020 A 
ATOM     88  C   UNL A   1      39.402  34.441  40.992  1.00  0.00     0.054 A 
BRANCH  88  89
ATOM     89  S   UNL A   1      39.035  35.148  42.622  1.00  0.00     0.124 S 
ATOM     90  O   UNL A   1      39.424  34.061  43.515  1.00  0.00    -0.237 OA
ATOM     91  O   UNL A   1      39.890  36.332  42.652  1.00  0.00    -0.237 OA
ATOM     92  O   UNL A   1      37.602  35.425  42.558  1.00  0.00    -0.744 OA
ENDBRANCH  88  89
ENDBRANCH  60  83
BRANCH  72  93
ATOM     93  C   UNL A   1      45.400  29.717  36.036  1.00  0.00    -0.014 A 
ATOM     94  C   UNL A   1      46.499  30.590  36.108  1.00  0.00     0.010 A 
ATOM     95  C   UNL A   1      45.507  28.430  36.594  1.00  0.00     0.010 A 
ATOM     96  C   UNL A   1      47.695  30.170  36.696  1.00  0.00     0.020 A 
ATOM     97  C   UNL A   1      46.692  28.018  37.210  1.00  0.00     0.020 A 
ATOM     98  C   UNL A   1      47.784  28.886  37.242  1.00  0.00     0.054 A 
BRANCH  98  99
ATOM     99  S   UNL A   1      49.336  28.378  38.031  1.00  0.00     0.124 S 
ATOM    100  O   UNL A   1      49.796  27.315  37.141  1.00  0.00    -0.237 OA
ATOM    101  O   UNL A   1      50.127  29.606  38.003  1.00  0.00    -0.237 OA
ATOM    102  O   UNL A   1      48.922  27.942  39.362  1.00  0.00    -0.744 OA
ENDBRANCH  98  99
ENDBRANCH  72  93
ENDBRANCH  46  47
ENDBRANCH  39  41
ENDBRANCH  38  39
ENDBRANCH  37  38
ENDBRANCH  36  37
ENDBRANCH  35  36
ENDBRANCH   1  35
TORSDOF 22
ENDMDL
