MODEL 1
REMARK VINA RESULT:     -13.2      0.000      0.000
REMARK SMILES Cc1ccc([C@@]23C[C@@H]4C[C@@H](C[C@@](C(=O)N5CCC(C(=O)OCCOCCOC(=O)c6ccc(-c7c8nc(c(-c9ccc(S(=O)(=O)[O-])cc9)c9ccc([nH]9)c(-c9ccc(S(=O)(=O)[O-])cc9)c9nc(c(-c%10ccc(S(=O)(=O)[O-])cc%10)c%10ccc7[nH]%10)C=C9)C=C8)cc6)CC5)(C4)C2)C3)cc1
REMARK SMILES IDX 25 1 24 2 23 3 22 4 21 5 19 6 20 7 18 8 13 9 14 10 15 11
REMARK SMILES IDX 16 12 91 13 17 14 90 15 12 16 6 17 7 18 93 19 94 20 8 21
REMARK SMILES IDX 10 22 9 23 92 24 11 25 5 26 1 27 2 28 3 29 96 30 4 31 95 32
REMARK SMILES IDX 26 33 27 34 28 35 29 36 30 37 31 38 89 39 32 40 88 41 33 42
REMARK SMILES IDX 34 43 35 44 82 45 36 46 87 47 81 48 83 49 37 50 86 51 80 52
REMARK SMILES IDX 79 53 38 55 68 56 49 57 67 58 50 59 53 60 66 61 84 62 51 63
REMARK SMILES IDX 52 64 65 66 85 67 54 68 39 69 40 70 48 71 41 72 47 73 42 74
REMARK SMILES IDX 43 75 44 76 45 77 46 78 69 79 70 80 78 81 71 82 77 83 72 84
REMARK SMILES IDX 73 85 74 86 75 87 76 88 55 89 56 90 64 91 57 92 63 93 58 94
REMARK SMILES IDX 59 95 60 96 61 97 62 98
REMARK H PARENT 83 54 53 65
REMARK Flexibility Score: inf
ROOT
ATOM      1  C   UNL A   1      32.748  29.962  26.896  1.00  0.00     0.202 C 
ENDROOT
BRANCH   1   2
ATOM      2  O   UNL A   1      33.562  29.338  25.894  1.00  0.00    -0.374 OA
BRANCH   2   3
ATOM      3  C   UNL A   1      32.842  28.478  25.041  1.00  0.00     0.202 C 
BRANCH   3   4
ATOM      4  C   UNL A   1      31.991  29.323  24.130  1.00  0.00     0.261 C 
BRANCH   4   5
ATOM      5  O   UNL A   1      31.919  28.821  22.784  1.00  0.00    -0.463 OA
BRANCH   5   6
ATOM      6  C   UNL A   1      30.761  28.284  22.313  1.00  0.00     0.309 C 
ATOM      7  O   UNL A   1      29.783  28.888  21.896  1.00  0.00    -0.252 OA
BRANCH   6   8
ATOM      8  C   UNL A   1      30.814  26.794  22.373  1.00  0.00     0.103 C 
ATOM      9  C   UNL A   1      32.419  24.478  25.127  1.00  0.00     0.228 C 
ATOM     10  O   UNL A   1      31.879  24.724  26.207  1.00  0.00    -0.274 OA
ATOM     11  N   UNL A   1      31.743  24.623  23.904  1.00  0.00    -0.342 N 
ATOM     12  C   UNL A   1      30.313  24.873  23.919  1.00  0.00     0.120 C 
ATOM     13  C   UNL A   1      32.345  24.855  22.578  1.00  0.00     0.120 C 
ATOM     14  C   UNL A   1      30.080  26.339  23.638  1.00  0.00     0.037 C 
ATOM     15  C   UNL A   1      32.270  26.325  22.282  1.00  0.00     0.037 C 
BRANCH   9  16
ATOM     16  C   UNL A   1      33.823  23.856  25.079  1.00  0.00     0.051 C 
ATOM     17  C   UNL A   1      34.801  21.478  25.050  1.00  0.00    -0.003 C 
ATOM     18  C   UNL A   1      35.462  21.892  23.700  1.00  0.00     0.015 C 
ATOM     19  C   UNL A   1      33.575  22.354  25.263  1.00  0.00     0.028 C 
ATOM     20  C   UNL A   1      35.746  21.854  26.217  1.00  0.00     0.015 C 
ATOM     21  C   UNL A   1      35.861  23.381  23.688  1.00  0.00    -0.009 C 
ATOM     22  C   UNL A   1      36.055  23.377  26.193  1.00  0.00    -0.009 C 
ATOM     23  C   UNL A   1      36.786  23.687  24.875  1.00  0.00     0.007 C 
ATOM     24  C   UNL A   1      34.605  24.249  23.810  1.00  0.00     0.020 C 
ATOM     25  C   UNL A   1      34.751  24.227  26.267  1.00  0.00     0.020 C 
BRANCH  17  26
ATOM     26  C   UNL A   1      34.369  19.995  25.017  1.00  0.00    -0.042 A 
ATOM     27  C   UNL A   1      33.068  15.865  24.666  1.00  0.00     0.044 C 
ATOM     28  C   UNL A   1      33.536  17.282  24.783  1.00  0.00    -0.051 A 
ATOM     29  C   UNL A   1      32.640  18.252  25.210  1.00  0.00     0.004 A 
ATOM     30  C   UNL A   1      34.846  17.664  24.476  1.00  0.00     0.004 A 
ATOM     31  C   UNL A   1      33.056  19.575  25.340  1.00  0.00     0.004 A 
ATOM     32  C   UNL A   1      35.257  19.003  24.589  1.00  0.00     0.004 A 
ENDBRANCH  17  26
ENDBRANCH   9  16
ENDBRANCH   6   8
ENDBRANCH   5   6
ENDBRANCH   4   5
ENDBRANCH   3   4
ENDBRANCH   2   3
ENDBRANCH   1   2
BRANCH   1  33
ATOM     33  C   UNL A   1      32.927  31.476  27.257  1.00  0.00     0.261 C 
BRANCH  33  34
ATOM     34  O   UNL A   1      33.830  31.650  28.384  1.00  0.00    -0.460 OA
BRANCH  34  35
ATOM     35  C   UNL A   1      35.164  31.844  28.100  1.00  0.00     0.338 C 
ATOM     36  O   UNL A   1      35.645  32.848  27.647  1.00  0.00    -0.246 OA
BRANCH  35  37
ATOM     37  C   UNL A   1      35.882  30.531  28.289  1.00  0.00     0.060 A 
ATOM     38  C   UNL A   1      36.001  29.985  29.578  1.00  0.00     0.016 A 
ATOM     39  C   UNL A   1      36.738  30.097  27.283  1.00  0.00     0.016 A 
ATOM     40  C   UNL A   1      37.148  29.247  29.920  1.00  0.00     0.010 A 
ATOM     41  C   UNL A   1      37.932  29.508  27.663  1.00  0.00     0.010 A 
ATOM     42  C   UNL A   1      38.185  29.146  28.995  1.00  0.00    -0.014 A 
BRANCH  42  43
ATOM     43  C   UNL A   1      39.596  28.875  29.327  1.00  0.00     0.031 A 
ATOM     44  C   UNL A   1      40.132  27.512  29.090  1.00  0.00     0.074 A 
ATOM     45  C   UNL A   1      40.457  29.889  29.627  1.00  0.00     0.049 A 
ATOM     46  N   UNL A   1      41.289  27.131  29.494  1.00  0.00    -0.248 NA
ATOM     47  C   UNL A   1      39.417  26.430  28.405  1.00  0.00     0.031 C 
ATOM     48  C   UNL A   1      41.925  29.893  29.635  1.00  0.00     0.029 A 
ATOM     49  N   UNL A   1      40.154  31.173  30.082  1.00  0.00    -0.354 N 
ATOM     50  C   UNL A   1      41.615  25.986  28.815  1.00  0.00     0.074 A 
ATOM     51  C   UNL A   1      40.375  25.508  28.269  1.00  0.00     0.031 C 
ATOM     52  C   UNL A   1      42.375  30.954  30.328  1.00  0.00     0.029 A 
ATOM     53  C   UNL A   1      41.220  31.658  30.848  1.00  0.00     0.049 A 
ATOM     54  H   UNL A   1      39.321  31.663  29.893  1.00  0.00     0.167 HD
ATOM     55  C   UNL A   1      42.931  25.674  28.680  1.00  0.00     0.031 A 
ATOM     56  C   UNL A   1      40.966  32.016  32.128  1.00  0.00     0.031 A 
ATOM     57  C   UNL A   1      43.750  26.512  29.577  1.00  0.00     0.049 A 
ATOM     58  C   UNL A   1      41.581  30.931  32.982  1.00  0.00     0.074 A 
ATOM     59  C   UNL A   1      44.712  27.488  29.397  1.00  0.00     0.029 A 
ATOM     60  N   UNL A   1      43.339  26.636  30.915  1.00  0.00    -0.354 N 
ATOM     61  N   UNL A   1      41.852  29.728  32.521  1.00  0.00    -0.248 NA
ATOM     62  C   UNL A   1      42.182  31.166  34.287  1.00  0.00     0.031 C 
ATOM     63  C   UNL A   1      44.758  28.281  30.597  1.00  0.00     0.029 A 
ATOM     64  C   UNL A   1      43.854  27.769  31.522  1.00  0.00     0.049 A 
ATOM     65  H   UNL A   1      42.751  25.990  31.368  1.00  0.00     0.167 HD
ATOM     66  C   UNL A   1      42.814  29.147  33.294  1.00  0.00     0.074 A 
ATOM     67  C   UNL A   1      42.928  30.054  34.432  1.00  0.00     0.031 C 
ATOM     68  C   UNL A   1      43.556  28.048  32.939  1.00  0.00     0.031 A 
BRANCH  55  69
ATOM     69  C   UNL A   1      43.443  24.728  27.608  1.00  0.00    -0.014 A 
ATOM     70  C   UNL A   1      43.329  23.334  27.765  1.00  0.00     0.010 A 
ATOM     71  C   UNL A   1      44.123  25.156  26.441  1.00  0.00     0.010 A 
ATOM     72  C   UNL A   1      43.814  22.433  26.790  1.00  0.00     0.020 A 
ATOM     73  C   UNL A   1      44.574  24.275  25.445  1.00  0.00     0.020 A 
ATOM     74  C   UNL A   1      44.415  22.911  25.625  1.00  0.00     0.054 A 
BRANCH  74  75
ATOM     75  S   UNL A   1      44.988  21.749  24.355  1.00  0.00     0.124 S 
ATOM     76  O   UNL A   1      44.252  20.532  24.685  1.00  0.00    -0.237 OA
ATOM     77  O   UNL A   1      44.591  22.411  23.115  1.00  0.00    -0.237 OA
ATOM     78  O   UNL A   1      46.432  21.673  24.575  1.00  0.00    -0.744 OA
ENDBRANCH  74  75
ENDBRANCH  55  69
BRANCH  56  79
ATOM     79  C   UNL A   1      39.736  32.890  32.188  1.00  0.00    -0.014 A 
ATOM     80  C   UNL A   1      38.509  32.215  31.920  1.00  0.00     0.010 A 
ATOM     81  C   UNL A   1      39.649  34.061  32.965  1.00  0.00     0.010 A 
ATOM     82  C   UNL A   1      37.295  32.591  32.522  1.00  0.00     0.020 A 
ATOM     83  C   UNL A   1      38.423  34.450  33.569  1.00  0.00     0.020 A 
ATOM     84  C   UNL A   1      37.269  33.682  33.385  1.00  0.00     0.054 A 
BRANCH  84  85
ATOM     85  S   UNL A   1      35.743  33.993  34.338  1.00  0.00     0.124 S 
ATOM     86  O   UNL A   1      35.438  35.383  34.008  1.00  0.00    -0.237 OA
ATOM     87  O   UNL A   1      34.824  33.003  33.776  1.00  0.00    -0.237 OA
ATOM     88  O   UNL A   1      36.154  33.757  35.718  1.00  0.00    -0.744 OA
ENDBRANCH  84  85
ENDBRANCH  56  79
BRANCH  68  89
ATOM     89  C   UNL A   1      44.081  27.075  33.973  1.00  0.00    -0.014 A 
ATOM     90  C   UNL A   1      43.317  26.584  35.041  1.00  0.00     0.010 A 
ATOM     91  C   UNL A   1      45.343  26.465  33.763  1.00  0.00     0.010 A 
ATOM     92  C   UNL A   1      43.800  25.581  35.884  1.00  0.00     0.020 A 
ATOM     93  C   UNL A   1      45.803  25.409  34.548  1.00  0.00     0.020 A 
ATOM     94  C   UNL A   1      45.035  24.993  35.624  1.00  0.00     0.054 A 
BRANCH  94  95
ATOM     95  S   UNL A   1      45.594  23.651  36.688  1.00  0.00     0.124 S 
ATOM     96  O   UNL A   1      44.942  22.497  36.077  1.00  0.00    -0.237 OA
ATOM     97  O   UNL A   1      47.046  23.707  36.533  1.00  0.00    -0.237 OA
ATOM     98  O   UNL A   1      45.099  24.025  38.010  1.00  0.00    -0.744 OA
ENDBRANCH  94  95
ENDBRANCH  68  89
ENDBRANCH  42  43
ENDBRANCH  35  37
ENDBRANCH  34  35
ENDBRANCH  33  34
ENDBRANCH   1  33
TORSDOF 19
ENDMDL
MODEL 2
REMARK VINA RESULT:     -12.9      1.935      2.427
REMARK SMILES Cc1ccc([C@@]23C[C@@H]4C[C@@H](C[C@@](C(=O)N5CCC(C(=O)OCCOCCOC(=O)c6ccc(-c7c8nc(c(-c9ccc(S(=O)(=O)[O-])cc9)c9ccc([nH]9)c(-c9ccc(S(=O)(=O)[O-])cc9)c9nc(c(-c%10ccc(S(=O)(=O)[O-])cc%10)c%10ccc7[nH]%10)C=C9)C=C8)cc6)CC5)(C4)C2)C3)cc1
REMARK SMILES IDX 25 1 24 2 23 3 22 4 21 5 19 6 20 7 18 8 13 9 14 10 15 11
REMARK SMILES IDX 16 12 91 13 17 14 90 15 12 16 6 17 7 18 93 19 94 20 8 21
REMARK SMILES IDX 10 22 9 23 92 24 11 25 5 26 1 27 2 28 3 29 96 30 4 31 95 32
REMARK SMILES IDX 26 33 27 34 28 35 29 36 30 37 31 38 89 39 32 40 88 41 33 42
REMARK SMILES IDX 34 43 35 44 82 45 36 46 87 47 81 48 83 49 37 50 86 51 80 52
REMARK SMILES IDX 79 53 38 55 68 56 49 57 67 58 50 59 53 60 66 61 84 62 51 63
REMARK SMILES IDX 52 64 65 66 85 67 54 68 39 69 40 70 48 71 41 72 47 73 42 74
REMARK SMILES IDX 43 75 44 76 45 77 46 78 69 79 70 80 78 81 71 82 77 83 72 84
REMARK SMILES IDX 73 85 74 86 75 87 76 88 55 89 56 90 64 91 57 92 63 93 58 94
REMARK SMILES IDX 59 95 60 96 61 97 62 98
REMARK H PARENT 83 54 53 65
REMARK Flexibility Score: inf
ROOT
ATOM      1  C   UNL A   1      33.196  30.324  27.334  1.00  0.00     0.202 C 
ENDROOT
BRANCH   1   2
ATOM      2  O   UNL A   1      32.797  30.103  25.974  1.00  0.00    -0.374 OA
BRANCH   2   3
ATOM      3  C   UNL A   1      31.708  29.218  25.845  1.00  0.00     0.202 C 
BRANCH   3   4
ATOM      4  C   UNL A   1      30.943  29.593  24.604  1.00  0.00     0.261 C 
BRANCH   4   5
ATOM      5  O   UNL A   1      31.625  29.251  23.384  1.00  0.00    -0.463 OA
BRANCH   5   6
ATOM      6  C   UNL A   1      31.139  28.270  22.577  1.00  0.00     0.309 C 
ATOM      7  O   UNL A   1      29.970  28.072  22.278  1.00  0.00    -0.252 OA
BRANCH   6   8
ATOM      8  C   UNL A   1      32.248  27.407  22.077  1.00  0.00     0.103 C 
ATOM      9  C   UNL A   1      33.069  23.658  22.969  1.00  0.00     0.228 C 
ATOM     10  O   UNL A   1      32.096  22.964  22.670  1.00  0.00    -0.274 OA
ATOM     11  N   UNL A   1      33.384  24.839  22.278  1.00  0.00    -0.342 N 
ATOM     12  C   UNL A   1      32.668  25.147  21.054  1.00  0.00     0.120 C 
ATOM     13  C   UNL A   1      34.153  25.989  22.788  1.00  0.00     0.120 C 
ATOM     14  C   UNL A   1      31.632  26.204  21.356  1.00  0.00     0.037 C 
ATOM     15  C   UNL A   1      33.180  27.040  23.237  1.00  0.00     0.037 C 
BRANCH   9  16
ATOM     16  C   UNL A   1      34.074  23.179  24.029  1.00  0.00     0.051 C 
ATOM     17  C   UNL A   1      34.619  20.956  25.200  1.00  0.00    -0.003 C 
ATOM     18  C   UNL A   1      36.053  21.134  24.615  1.00  0.00     0.015 C 
ATOM     19  C   UNL A   1      33.651  21.734  24.321  1.00  0.00     0.028 C 
ATOM     20  C   UNL A   1      34.539  21.664  26.576  1.00  0.00     0.015 C 
ATOM     21  C   UNL A   1      36.468  22.618  24.547  1.00  0.00    -0.009 C 
ATOM     22  C   UNL A   1      34.899  23.168  26.431  1.00  0.00    -0.009 C 
ATOM     23  C   UNL A   1      36.353  23.259  25.938  1.00  0.00     0.007 C 
ATOM     24  C   UNL A   1      35.539  23.366  23.586  1.00  0.00     0.020 C 
ATOM     25  C   UNL A   1      33.966  23.884  25.408  1.00  0.00     0.020 C 
BRANCH  17  26
ATOM     26  C   UNL A   1      34.213  19.466  25.213  1.00  0.00    -0.042 A 
ATOM     27  C   UNL A   1      32.936  15.318  25.009  1.00  0.00     0.044 C 
ATOM     28  C   UNL A   1      33.395  16.742  25.071  1.00  0.00    -0.051 A 
ATOM     29  C   UNL A   1      32.572  17.687  25.668  1.00  0.00     0.004 A 
ATOM     30  C   UNL A   1      34.626  17.155  24.549  1.00  0.00     0.004 A 
ATOM     31  C   UNL A   1      32.983  19.016  25.750  1.00  0.00     0.004 A 
ATOM     32  C   UNL A   1      35.028  18.499  24.616  1.00  0.00     0.004 A 
ENDBRANCH  17  26
ENDBRANCH   9  16
ENDBRANCH   6   8
ENDBRANCH   5   6
ENDBRANCH   4   5
ENDBRANCH   3   4
ENDBRANCH   2   3
ENDBRANCH   1   2
BRANCH   1  33
ATOM     33  C   UNL A   1      33.959  31.626  27.753  1.00  0.00     0.261 C 
BRANCH  33  34
ATOM     34  O   UNL A   1      34.726  31.423  28.972  1.00  0.00    -0.460 OA
BRANCH  34  35
ATOM     35  C   UNL A   1      36.068  31.733  28.933  1.00  0.00     0.338 C 
ATOM     36  O   UNL A   1      36.529  32.832  28.783  1.00  0.00    -0.246 OA
BRANCH  35  37
ATOM     37  C   UNL A   1      36.850  30.442  28.935  1.00  0.00     0.060 A 
ATOM     38  C   UNL A   1      36.783  29.594  30.053  1.00  0.00     0.016 A 
ATOM     39  C   UNL A   1      37.903  30.308  28.039  1.00  0.00     0.016 A 
ATOM     40  C   UNL A   1      37.910  28.837  30.421  1.00  0.00     0.010 A 
ATOM     41  C   UNL A   1      39.057  29.688  28.488  1.00  0.00     0.010 A 
ATOM     42  C   UNL A   1      39.099  29.012  29.716  1.00  0.00    -0.014 A 
BRANCH  42  43
ATOM     43  C   UNL A   1      40.447  28.719  30.239  1.00  0.00     0.031 A 
ATOM     44  C   UNL A   1      41.302  27.757  29.500  1.00  0.00     0.074 A 
ATOM     45  C   UNL A   1      40.995  29.469  31.237  1.00  0.00     0.049 A 
ATOM     46  N   UNL A   1      42.417  27.313  29.954  1.00  0.00    -0.248 NA
ATOM     47  C   UNL A   1      40.982  27.173  28.193  1.00  0.00     0.031 C 
ATOM     48  C   UNL A   1      42.398  29.588  31.651  1.00  0.00     0.029 A 
ATOM     49  N   UNL A   1      40.339  30.265  32.179  1.00  0.00    -0.354 N 
ATOM     50  C   UNL A   1      43.106  26.759  28.908  1.00  0.00     0.074 A 
ATOM     51  C   UNL A   1      42.125  26.558  27.877  1.00  0.00     0.031 C 
ATOM     52  C   UNL A   1      42.467  30.129  32.880  1.00  0.00     0.029 A 
ATOM     53  C   UNL A   1      41.110  30.336  33.344  1.00  0.00     0.049 A 
ATOM     54  H   UNL A   1      39.470  30.708  32.044  1.00  0.00     0.167 HD
ATOM     55  C   UNL A   1      44.459  26.680  29.002  1.00  0.00     0.031 A 
ATOM     56  C   UNL A   1      40.548  29.912  34.500  1.00  0.00     0.031 A 
ATOM     57  C   UNL A   1      44.893  26.953  30.386  1.00  0.00     0.049 A 
ATOM     58  C   UNL A   1      41.213  28.591  34.813  1.00  0.00     0.074 A 
ATOM     59  C   UNL A   1      45.635  27.943  31.002  1.00  0.00     0.029 A 
ATOM     60  N   UNL A   1      44.220  26.290  31.426  1.00  0.00    -0.354 N 
ATOM     61  N   UNL A   1      41.821  27.865  33.900  1.00  0.00    -0.248 NA
ATOM     62  C   UNL A   1      41.491  28.122  36.163  1.00  0.00     0.031 C 
ATOM     63  C   UNL A   1      45.281  27.950  32.397  1.00  0.00     0.029 A 
ATOM     64  C   UNL A   1      44.352  26.943  32.640  1.00  0.00     0.049 A 
ATOM     65  H   UNL A   1      43.712  25.456  31.305  1.00  0.00     0.167 HD
ATOM     66  C   UNL A   1      42.723  27.035  34.499  1.00  0.00     0.074 A 
ATOM     67  C   UNL A   1      42.420  27.177  35.920  1.00  0.00     0.031 C 
ATOM     68  C   UNL A   1      43.739  26.375  33.855  1.00  0.00     0.031 A 
BRANCH  55  69
ATOM     69  C   UNL A   1      45.358  26.521  27.787  1.00  0.00    -0.014 A 
ATOM     70  C   UNL A   1      45.468  25.281  27.132  1.00  0.00     0.010 A 
ATOM     71  C   UNL A   1      46.187  27.553  27.283  1.00  0.00     0.010 A 
ATOM     72  C   UNL A   1      46.310  25.103  26.012  1.00  0.00     0.020 A 
ATOM     73  C   UNL A   1      46.998  27.403  26.146  1.00  0.00     0.020 A 
ATOM     74  C   UNL A   1      47.055  26.173  25.513  1.00  0.00     0.054 A 
BRANCH  74  75
ATOM     75  S   UNL A   1      48.095  25.949  24.042  1.00  0.00     0.124 S 
ATOM     76  O   UNL A   1      47.668  24.642  23.550  1.00  0.00    -0.237 OA
ATOM     77  O   UNL A   1      47.720  27.090  23.211  1.00  0.00    -0.237 OA
ATOM     78  O   UNL A   1      49.459  25.994  24.567  1.00  0.00    -0.744 OA
ENDBRANCH  74  75
ENDBRANCH  55  69
BRANCH  56  79
ATOM     79  C   UNL A   1      39.168  30.508  34.654  1.00  0.00    -0.014 A 
ATOM     80  C   UNL A   1      39.122  31.724  35.396  1.00  0.00     0.010 A 
ATOM     81  C   UNL A   1      38.120  30.294  33.737  1.00  0.00     0.010 A 
ATOM     82  C   UNL A   1      38.182  32.735  35.129  1.00  0.00     0.020 A 
ATOM     83  C   UNL A   1      37.164  31.309  33.470  1.00  0.00     0.020 A 
ATOM     84  C   UNL A   1      37.234  32.540  34.129  1.00  0.00     0.054 A 
BRANCH  84  85
ATOM     85  S   UNL A   1      36.192  33.956  33.639  1.00  0.00     0.124 S 
ATOM     86  O   UNL A   1      37.179  34.994  33.351  1.00  0.00    -0.237 OA
ATOM     87  O   UNL A   1      35.487  33.428  32.471  1.00  0.00    -0.237 OA
ATOM     88  O   UNL A   1      35.367  34.192  34.818  1.00  0.00    -0.744 OA
ENDBRANCH  84  85
ENDBRANCH  56  79
BRANCH  68  89
ATOM     89  C   UNL A   1      44.259  25.041  34.348  1.00  0.00    -0.014 A 
ATOM     90  C   UNL A   1      43.488  23.872  34.392  1.00  0.00     0.010 A 
ATOM     91  C   UNL A   1      45.647  24.896  34.600  1.00  0.00     0.010 A 
ATOM     92  C   UNL A   1      44.052  22.637  34.720  1.00  0.00     0.020 A 
ATOM     93  C   UNL A   1      46.235  23.658  34.848  1.00  0.00     0.020 A 
ATOM     94  C   UNL A   1      45.424  22.537  34.933  1.00  0.00     0.054 A 
BRANCH  94  95
ATOM     95  S   UNL A   1      46.129  20.916  35.280  1.00  0.00     0.124 S 
ATOM     96  O   UNL A   1      47.278  20.894  34.379  1.00  0.00    -0.237 OA
ATOM     97  O   UNL A   1      46.449  21.007  36.703  1.00  0.00    -0.237 OA
ATOM     98  O   UNL A   1      45.052  19.989  34.947  1.00  0.00    -0.744 OA
ENDBRANCH  94  95
ENDBRANCH  68  89
ENDBRANCH  42  43
ENDBRANCH  35  37
ENDBRANCH  34  35
ENDBRANCH  33  34
ENDBRANCH   1  33
TORSDOF 19
ENDMDL
MODEL 3
REMARK VINA RESULT:     -12.5      3.256      4.600
REMARK SMILES Cc1ccc([C@@]23C[C@@H]4C[C@@H](C[C@@](C(=O)N5CCC(C(=O)OCCOCCOC(=O)c6ccc(-c7c8nc(c(-c9ccc(S(=O)(=O)[O-])cc9)c9ccc([nH]9)c(-c9ccc(S(=O)(=O)[O-])cc9)c9nc(c(-c%10ccc(S(=O)(=O)[O-])cc%10)c%10ccc7[nH]%10)C=C9)C=C8)cc6)CC5)(C4)C2)C3)cc1
REMARK SMILES IDX 25 1 24 2 23 3 22 4 21 5 19 6 20 7 18 8 13 9 14 10 15 11
REMARK SMILES IDX 16 12 91 13 17 14 90 15 12 16 6 17 7 18 93 19 94 20 8 21
REMARK SMILES IDX 10 22 9 23 92 24 11 25 5 26 1 27 2 28 3 29 96 30 4 31 95 32
REMARK SMILES IDX 26 33 27 34 28 35 29 36 30 37 31 38 89 39 32 40 88 41 33 42
REMARK SMILES IDX 34 43 35 44 82 45 36 46 87 47 81 48 83 49 37 50 86 51 80 52
REMARK SMILES IDX 79 53 38 55 68 56 49 57 67 58 50 59 53 60 66 61 84 62 51 63
REMARK SMILES IDX 52 64 65 66 85 67 54 68 39 69 40 70 48 71 41 72 47 73 42 74
REMARK SMILES IDX 43 75 44 76 45 77 46 78 69 79 70 80 78 81 71 82 77 83 72 84
REMARK SMILES IDX 73 85 74 86 75 87 76 88 55 89 56 90 64 91 57 92 63 93 58 94
REMARK SMILES IDX 59 95 60 96 61 97 62 98
REMARK H PARENT 83 54 53 65
REMARK Flexibility Score: inf
ROOT
ATOM      1  C   UNL A   1      34.852  29.641  27.760  1.00  0.00     0.202 C 
ENDROOT
BRANCH   1   2
ATOM      2  O   UNL A   1      33.907  29.771  26.689  1.00  0.00    -0.374 OA
BRANCH   2   3
ATOM      3  C   UNL A   1      32.610  29.337  27.028  1.00  0.00     0.202 C 
BRANCH   3   4
ATOM      4  C   UNL A   1      31.644  29.915  26.030  1.00  0.00     0.261 C 
BRANCH   4   5
ATOM      5  O   UNL A   1      32.014  29.667  24.661  1.00  0.00    -0.463 OA
BRANCH   5   6
ATOM      6  C   UNL A   1      31.215  28.913  23.860  1.00  0.00     0.309 C 
ATOM      7  O   UNL A   1      29.996  28.965  23.774  1.00  0.00    -0.252 OA
BRANCH   6   8
ATOM      8  C   UNL A   1      32.031  27.955  23.059  1.00  0.00     0.103 C 
ATOM      9  C   UNL A   1      32.644  24.110  23.664  1.00  0.00     0.228 C 
ATOM     10  O   UNL A   1      31.554  23.535  23.653  1.00  0.00    -0.274 OA
ATOM     11  N   UNL A   1      32.880  25.275  22.916  1.00  0.00    -0.342 N 
ATOM     12  C   UNL A   1      31.886  25.702  21.949  1.00  0.00     0.120 C 
ATOM     13  C   UNL A   1      33.887  26.317  23.190  1.00  0.00     0.120 C 
ATOM     14  C   UNL A   1      31.104  26.853  22.540  1.00  0.00     0.037 C 
ATOM     15  C   UNL A   1      33.207  27.449  23.903  1.00  0.00     0.037 C 
BRANCH   9  16
ATOM     16  C   UNL A   1      33.847  23.489  24.389  1.00  0.00     0.051 C 
ATOM     17  C   UNL A   1      34.555  21.129  25.126  1.00  0.00    -0.003 C 
ATOM     18  C   UNL A   1      35.818  21.358  24.241  1.00  0.00     0.015 C 
ATOM     19  C   UNL A   1      33.443  22.025  24.601  1.00  0.00     0.028 C 
ATOM     20  C   UNL A   1      34.831  21.661  26.555  1.00  0.00     0.015 C 
ATOM     21  C   UNL A   1      36.269  22.833  24.252  1.00  0.00    -0.009 C 
ATOM     22  C   UNL A   1      35.211  23.166  26.507  1.00  0.00    -0.009 C 
ATOM     23  C   UNL A   1      36.512  23.297  25.696  1.00  0.00     0.007 C 
ATOM     24  C   UNL A   1      35.174  23.708  23.635  1.00  0.00     0.020 C 
ATOM     25  C   UNL A   1      34.097  24.018  25.827  1.00  0.00     0.020 C 
BRANCH  17  26
ATOM     26  C   UNL A   1      34.098  19.655  25.060  1.00  0.00    -0.042 A 
ATOM     27  C   UNL A   1      32.960  15.463  25.102  1.00  0.00     0.044 C 
ATOM     28  C   UNL A   1      33.333  16.912  25.097  1.00  0.00    -0.051 A 
ATOM     29  C   UNL A   1      34.501  17.303  24.454  1.00  0.00     0.004 A 
ATOM     30  C   UNL A   1      32.548  17.889  25.717  1.00  0.00     0.004 A 
ATOM     31  C   UNL A   1      34.862  18.648  24.424  1.00  0.00     0.004 A 
ATOM     32  C   UNL A   1      32.926  19.242  25.701  1.00  0.00     0.004 A 
ENDBRANCH  17  26
ENDBRANCH   9  16
ENDBRANCH   6   8
ENDBRANCH   5   6
ENDBRANCH   4   5
ENDBRANCH   3   4
ENDBRANCH   2   3
ENDBRANCH   1   2
BRANCH   1  33
ATOM     33  C   UNL A   1      36.387  29.828  27.513  1.00  0.00     0.261 C 
BRANCH  33  34
ATOM     34  O   UNL A   1      37.100  30.073  28.756  1.00  0.00    -0.460 OA
BRANCH  34  35
ATOM     35  C   UNL A   1      38.079  29.172  29.112  1.00  0.00     0.338 C 
ATOM     36  O   UNL A   1      37.949  28.268  29.892  1.00  0.00    -0.246 OA
BRANCH  35  37
ATOM     37  C   UNL A   1      39.380  29.622  28.494  1.00  0.00     0.060 A 
ATOM     38  C   UNL A   1      39.714  29.197  27.198  1.00  0.00     0.016 A 
ATOM     39  C   UNL A   1      40.379  30.099  29.334  1.00  0.00     0.016 A 
ATOM     40  C   UNL A   1      41.062  28.971  26.864  1.00  0.00     0.010 A 
ATOM     41  C   UNL A   1      41.684  29.729  29.058  1.00  0.00     0.010 A 
ATOM     42  C   UNL A   1      42.032  29.093  27.857  1.00  0.00    -0.014 A 
BRANCH  42  43
ATOM     43  C   UNL A   1      43.352  28.435  27.840  1.00  0.00     0.031 A 
ATOM     44  C   UNL A   1      43.407  26.954  27.908  1.00  0.00     0.074 A 
ATOM     45  C   UNL A   1      44.484  29.133  27.540  1.00  0.00     0.049 A 
ATOM     46  N   UNL A   1      44.499  26.297  28.063  1.00  0.00    -0.248 NA
ATOM     47  C   UNL A   1      42.246  26.061  27.840  1.00  0.00     0.031 C 
ATOM     48  C   UNL A   1      45.802  28.637  27.125  1.00  0.00     0.029 A 
ATOM     49  N   UNL A   1      44.699  30.510  27.626  1.00  0.00    -0.354 N 
ATOM     50  C   UNL A   1      44.256  24.993  27.723  1.00  0.00     0.074 A 
ATOM     51  C   UNL A   1      42.825  24.861  27.738  1.00  0.00     0.031 C 
ATOM     52  C   UNL A   1      46.724  29.603  27.282  1.00  0.00     0.029 A 
ATOM     53  C   UNL A   1      46.057  30.754  27.858  1.00  0.00     0.049 A 
ATOM     54  H   UNL A   1      44.003  31.201  27.538  1.00  0.00     0.167 HD
ATOM     55  C   UNL A   1      45.307  24.228  27.324  1.00  0.00     0.031 A 
ATOM     56  C   UNL A   1      46.393  31.444  28.972  1.00  0.00     0.031 A 
ATOM     57  C   UNL A   1      46.580  24.908  27.631  1.00  0.00     0.049 A 
ATOM     58  C   UNL A   1      46.993  30.425  29.914  1.00  0.00     0.074 A 
ATOM     59  C   UNL A   1      47.614  25.434  26.880  1.00  0.00     0.029 A 
ATOM     60  N   UNL A   1      46.739  25.450  28.917  1.00  0.00    -0.354 N 
ATOM     61  N   UNL A   1      46.768  29.133  29.804  1.00  0.00    -0.248 NA
ATOM     62  C   UNL A   1      48.074  30.717  30.845  1.00  0.00     0.031 C 
ATOM     63  C   UNL A   1      48.298  26.402  27.697  1.00  0.00     0.029 A 
ATOM     64  C   UNL A   1      47.705  26.441  28.955  1.00  0.00     0.049 A 
ATOM     65  H   UNL A   1      46.222  25.158  29.702  1.00  0.00     0.167 HD
ATOM     66  C   UNL A   1      47.773  28.439  30.413  1.00  0.00     0.074 A 
ATOM     67  C   UNL A   1      48.521  29.476  31.118  1.00  0.00     0.031 C 
ATOM     68  C   UNL A   1      48.033  27.104  30.231  1.00  0.00     0.031 A 
BRANCH  55  69
ATOM     69  C   UNL A   1      45.133  22.956  26.511  1.00  0.00    -0.014 A 
ATOM     70  C   UNL A   1      46.177  22.473  25.700  1.00  0.00     0.010 A 
ATOM     71  C   UNL A   1      43.922  22.224  26.447  1.00  0.00     0.010 A 
ATOM     72  C   UNL A   1      46.034  21.303  24.921  1.00  0.00     0.020 A 
ATOM     73  C   UNL A   1      43.778  21.037  25.710  1.00  0.00     0.020 A 
ATOM     74  C   UNL A   1      44.840  20.580  24.948  1.00  0.00     0.054 A 
BRANCH  74  75
ATOM     75  S   UNL A   1      44.682  19.050  23.985  1.00  0.00     0.124 S 
ATOM     76  O   UNL A   1      43.543  18.394  24.621  1.00  0.00    -0.237 OA
ATOM     77  O   UNL A   1      44.450  19.548  22.632  1.00  0.00    -0.237 OA
ATOM     78  O   UNL A   1      45.967  18.379  24.180  1.00  0.00    -0.744 OA
ENDBRANCH  74  75
ENDBRANCH  55  69
BRANCH  56  79
ATOM     79  C   UNL A   1      45.530  32.677  29.098  1.00  0.00    -0.014 A 
ATOM     80  C   UNL A   1      45.992  33.808  28.364  1.00  0.00     0.010 A 
ATOM     81  C   UNL A   1      44.151  32.637  29.383  1.00  0.00     0.010 A 
ATOM     82  C   UNL A   1      45.115  34.757  27.810  1.00  0.00     0.020 A 
ATOM     83  C   UNL A   1      43.262  33.598  28.833  1.00  0.00     0.020 A 
ATOM     84  C   UNL A   1      43.745  34.619  28.008  1.00  0.00     0.054 A 
BRANCH  84  85
ATOM     85  S   UNL A   1      42.623  35.717  27.076  1.00  0.00     0.124 S 
ATOM     86  O   UNL A   1      41.330  35.461  27.707  1.00  0.00    -0.237 OA
ATOM     87  O   UNL A   1      43.195  37.037  27.343  1.00  0.00    -0.237 OA
ATOM     88  O   UNL A   1      42.750  35.242  25.703  1.00  0.00    -0.744 OA
ENDBRANCH  84  85
ENDBRANCH  56  79
BRANCH  68  89
ATOM     89  C   UNL A   1      48.647  26.258  31.326  1.00  0.00    -0.014 A 
ATOM     90  C   UNL A   1      47.979  25.905  32.507  1.00  0.00     0.010 A 
ATOM     91  C   UNL A   1      49.888  25.616  31.084  1.00  0.00     0.010 A 
ATOM     92  C   UNL A   1      48.535  25.007  33.420  1.00  0.00     0.020 A 
ATOM     93  C   UNL A   1      50.415  24.658  31.947  1.00  0.00     0.020 A 
ATOM     94  C   UNL A   1      49.743  24.381  33.128  1.00  0.00     0.054 A 
BRANCH  94  95
ATOM     95  S   UNL A   1      50.395  23.171  34.293  1.00  0.00     0.124 S 
ATOM     96  O   UNL A   1      50.615  22.015  33.428  1.00  0.00    -0.237 OA
ATOM     97  O   UNL A   1      51.604  23.826  34.787  1.00  0.00    -0.237 OA
ATOM     98  O   UNL A   1      49.325  23.024  35.277  1.00  0.00    -0.744 OA
ENDBRANCH  94  95
ENDBRANCH  68  89
ENDBRANCH  42  43
ENDBRANCH  35  37
ENDBRANCH  34  35
ENDBRANCH  33  34
ENDBRANCH   1  33
TORSDOF 19
ENDMDL
