MODEL 1
REMARK VINA RESULT:      -9.5      0.000      0.000
REMARK SMILES O=C(C[N@@H+](C[C@@H]1COc2ccccc2O1)CC(F)(F)F)OCCOCCOC(=O)c1ccc(-c2c3nc(c(-c4ccc(S(=O)(=O)[O-])cc4)c4ccc([nH]4)c(-c4ccc(S(=O)(=O)[O-])cc4)c4nc(c(-c5ccc(S(=O)(=O)[O-])cc5)c5ccc2[nH]5)C=C4)C=C3)cc1
REMARK SMILES IDX 24 1 23 2 22 3 21 4 2 5 1 6 3 7 4 8 5 10 6 11 7 12 15 13
REMARK SMILES IDX 8 14 14 15 9 16 13 17 10 18 12 19 11 20 16 21 17 22 18 23
REMARK SMILES IDX 19 24 20 25 25 26 26 27 27 28 28 29 29 30 30 31 31 32 89 33
REMARK SMILES IDX 32 34 88 35 33 36 34 37 35 38 82 39 36 40 87 41 81 42 83 43
REMARK SMILES IDX 37 44 86 45 80 46 79 47 38 49 68 50 49 51 67 52 50 53 53 54
REMARK SMILES IDX 66 55 84 56 51 57 52 58 65 60 85 61 54 62 39 63 40 64 48 65
REMARK SMILES IDX 41 66 47 67 42 68 43 69 44 70 45 71 46 72 69 73 70 74 78 75
REMARK SMILES IDX 71 76 77 77 72 78 73 79 74 80 75 81 76 82 55 83 56 84 64 85
REMARK SMILES IDX 57 86 63 87 58 88 59 89 60 90 61 91 62 92
REMARK H PARENT 4 9 83 48 53 59
REMARK Flexibility Score: inf
ROOT
ATOM      1  O   UNL A   1      36.669  22.244  24.703  1.00  0.00    -0.374 OA
ENDROOT
BRANCH   1   2
ATOM      2  C   UNL A   1      35.730  21.319  25.257  1.00  0.00     0.202 C 
BRANCH   2   3
ATOM      3  C   UNL A   1      34.371  21.250  24.563  1.00  0.00     0.261 C 
BRANCH   3   4
ATOM      4  O   UNL A   1      33.812  22.560  24.349  1.00  0.00    -0.459 OA
BRANCH   4   5
ATOM      5  C   UNL A   1      33.678  23.153  23.142  1.00  0.00     0.361 C 
ATOM      6  O   UNL A   1      34.656  23.285  22.408  1.00  0.00    -0.245 OA
BRANCH   5   7
ATOM      7  C   UNL A   1      32.322  23.713  22.741  1.00  0.00     0.386 C 
BRANCH   7   8
ATOM      8  N   UNL A   1      31.832  24.755  23.652  1.00  0.00    -0.315 N 
ATOM      9  H   UNL A   1      32.646  25.181  24.093  1.00  0.00     0.348 HD
BRANCH   8  10
ATOM     10  C   UNL A   1      31.210  25.882  22.927  1.00  0.00     0.312 C 
BRANCH  10  11
ATOM     11  C   UNL A   1      32.135  27.077  22.620  1.00  0.00     0.265 C 
ATOM     12  C   UNL A   1      33.621  26.808  22.869  1.00  0.00     0.281 C 
ATOM     13  O   UNL A   1      31.671  28.213  23.354  1.00  0.00    -0.477 OA
ATOM     14  O   UNL A   1      33.954  26.658  24.247  1.00  0.00    -0.486 OA
ATOM     15  C   UNL A   1      32.199  28.299  24.610  1.00  0.00     0.162 A 
ATOM     16  C   UNL A   1      33.324  27.590  25.025  1.00  0.00     0.161 A 
ATOM     17  C   UNL A   1      31.547  29.162  25.487  1.00  0.00     0.050 A 
ATOM     18  C   UNL A   1      33.837  27.792  26.304  1.00  0.00     0.050 A 
ATOM     19  C   UNL A   1      32.045  29.346  26.775  1.00  0.00     0.004 A 
ATOM     20  C   UNL A   1      33.204  28.679  27.176  1.00  0.00     0.004 A 
ENDBRANCH  10  11
ENDBRANCH   8  10
BRANCH   8  21
ATOM     21  C   UNL A   1      31.116  24.234  24.842  1.00  0.00     0.379 C 
BRANCH  21  22
ATOM     22  C   UNL A   1      31.446  24.663  26.295  1.00  0.00     0.438 C 
ATOM     23  F   UNL A   1      30.952  25.882  26.596  1.00  0.00    -0.165 F 
ATOM     24  F   UNL A   1      30.904  23.786  27.174  1.00  0.00    -0.165 F 
ATOM     25  F   UNL A   1      32.771  24.700  26.539  1.00  0.00    -0.165 F 
ENDBRANCH  21  22
ENDBRANCH   8  21
ENDBRANCH   7   8
ENDBRANCH   5   7
ENDBRANCH   4   5
ENDBRANCH   3   4
ENDBRANCH   2   3
ENDBRANCH   1   2
BRANCH   1  26
ATOM     26  C   UNL A   1      37.028  23.350  25.543  1.00  0.00     0.202 C 
BRANCH  26  27
ATOM     27  C   UNL A   1      38.452  23.344  26.100  1.00  0.00     0.261 C 
BRANCH  27  28
ATOM     28  O   UNL A   1      38.741  24.571  26.777  1.00  0.00    -0.460 OA
BRANCH  28  29
ATOM     29  C   UNL A   1      40.050  24.908  26.824  1.00  0.00     0.338 C 
ATOM     30  O   UNL A   1      40.901  24.692  25.976  1.00  0.00    -0.246 OA
BRANCH  29  31
ATOM     31  C   UNL A   1      40.245  25.810  27.973  1.00  0.00     0.060 A 
ATOM     32  C   UNL A   1      39.214  25.908  28.921  1.00  0.00     0.016 A 
ATOM     33  C   UNL A   1      41.434  26.524  28.131  1.00  0.00     0.016 A 
ATOM     34  C   UNL A   1      39.344  26.773  30.002  1.00  0.00     0.010 A 
ATOM     35  C   UNL A   1      41.560  27.394  29.205  1.00  0.00     0.010 A 
ATOM     36  C   UNL A   1      40.497  27.556  30.112  1.00  0.00    -0.014 A 
BRANCH  36  37
ATOM     37  C   UNL A   1      40.535  28.718  31.019  1.00  0.00     0.031 A 
ATOM     38  C   UNL A   1      41.439  28.630  32.214  1.00  0.00     0.074 A 
ATOM     39  C   UNL A   1      39.727  29.771  30.830  1.00  0.00     0.049 A 
ATOM     40  N   UNL A   1      41.504  29.400  33.264  1.00  0.00    -0.248 NA
ATOM     41  C   UNL A   1      42.378  27.493  32.234  1.00  0.00     0.031 C 
ATOM     42  C   UNL A   1      38.842  29.961  29.683  1.00  0.00     0.029 A 
ATOM     43  N   UNL A   1      39.493  30.858  31.630  1.00  0.00    -0.354 N 
ATOM     44  C   UNL A   1      42.459  28.820  34.091  1.00  0.00     0.074 A 
ATOM     45  C   UNL A   1      42.930  27.624  33.431  1.00  0.00     0.031 C 
ATOM     46  C   UNL A   1      38.127  31.084  29.872  1.00  0.00     0.029 A 
ATOM     47  C   UNL A   1      38.472  31.654  31.173  1.00  0.00     0.049 A 
ATOM     48  H   UNL A   1      40.005  31.048  32.448  1.00  0.00     0.167 HD
ATOM     49  C   UNL A   1      42.894  29.247  35.300  1.00  0.00     0.031 A 
ATOM     50  C   UNL A   1      37.855  32.695  31.765  1.00  0.00     0.031 A 
ATOM     51  C   UNL A   1      42.386  30.427  35.945  1.00  0.00     0.049 A 
ATOM     52  C   UNL A   1      38.315  33.132  33.131  1.00  0.00     0.074 A 
ATOM     53  C   UNL A   1      42.770  30.979  37.153  1.00  0.00     0.029 A 
ATOM     54  N   UNL A   1      41.369  31.226  35.440  1.00  0.00    -0.354 N 
ATOM     55  N   UNL A   1      39.241  32.602  33.896  1.00  0.00    -0.248 NA
ATOM     56  C   UNL A   1      37.655  34.310  33.709  1.00  0.00     0.031 C 
ATOM     57  C   UNL A   1      41.937  32.074  37.409  1.00  0.00     0.029 A 
ATOM     58  C   UNL A   1      41.091  32.253  36.324  1.00  0.00     0.049 A 
ATOM     59  H   UNL A   1      40.915  31.084  34.579  1.00  0.00     0.167 HD
ATOM     60  C   UNL A   1      39.301  33.402  35.032  1.00  0.00     0.074 A 
ATOM     61  C   UNL A   1      38.316  34.451  34.851  1.00  0.00     0.031 C 
ATOM     62  C   UNL A   1      40.105  33.287  36.119  1.00  0.00     0.031 A 
BRANCH  49  63
ATOM     63  C   UNL A   1      43.910  28.391  36.010  1.00  0.00    -0.014 A 
ATOM     64  C   UNL A   1      43.525  27.345  36.870  1.00  0.00     0.010 A 
ATOM     65  C   UNL A   1      45.280  28.656  35.833  1.00  0.00     0.010 A 
ATOM     66  C   UNL A   1      44.485  26.627  37.589  1.00  0.00     0.020 A 
ATOM     67  C   UNL A   1      46.246  27.916  36.521  1.00  0.00     0.020 A 
ATOM     68  C   UNL A   1      45.839  26.924  37.415  1.00  0.00     0.054 A 
BRANCH  68  69
ATOM     69  S   UNL A   1      47.064  25.994  38.377  1.00  0.00     0.124 S 
ATOM     70  O   UNL A   1      46.601  24.620  38.205  1.00  0.00    -0.237 OA
ATOM     71  O   UNL A   1      48.317  26.324  37.703  1.00  0.00    -0.237 OA
ATOM     72  O   UNL A   1      46.926  26.532  39.729  1.00  0.00    -0.744 OA
ENDBRANCH  68  69
ENDBRANCH  49  63
BRANCH  50  73
ATOM     73  C   UNL A   1      36.733  33.367  31.060  1.00  0.00    -0.014 A 
ATOM     74  C   UNL A   1      36.986  34.256  30.002  1.00  0.00     0.010 A 
ATOM     75  C   UNL A   1      35.400  33.053  31.387  1.00  0.00     0.010 A 
ATOM     76  C   UNL A   1      35.926  34.808  29.275  1.00  0.00     0.020 A 
ATOM     77  C   UNL A   1      34.339  33.581  30.645  1.00  0.00     0.020 A 
ATOM     78  C   UNL A   1      34.611  34.456  29.591  1.00  0.00     0.054 A 
BRANCH  78  79
ATOM     79  S   UNL A   1      33.264  35.101  28.560  1.00  0.00     0.124 S 
ATOM     80  O   UNL A   1      32.669  33.876  28.035  1.00  0.00    -0.237 OA
ATOM     81  O   UNL A   1      32.453  35.834  29.530  1.00  0.00    -0.237 OA
ATOM     82  O   UNL A   1      33.953  35.934  27.577  1.00  0.00    -0.744 OA
ENDBRANCH  78  79
ENDBRANCH  50  73
BRANCH  62  83
ATOM     83  C   UNL A   1      40.004  34.351  37.182  1.00  0.00    -0.014 A 
ATOM     84  C   UNL A   1      40.636  35.598  37.041  1.00  0.00     0.010 A 
ATOM     85  C   UNL A   1      39.172  34.123  38.294  1.00  0.00     0.010 A 
ATOM     86  C   UNL A   1      40.449  36.594  38.003  1.00  0.00     0.020 A 
ATOM     87  C   UNL A   1      38.958  35.126  39.241  1.00  0.00     0.020 A 
ATOM     88  C   UNL A   1      39.604  36.353  39.093  1.00  0.00     0.054 A 
BRANCH  88  89
ATOM     89  S   UNL A   1      39.317  37.690  40.287  1.00  0.00     0.124 S 
ATOM     90  O   UNL A   1      38.293  38.483  39.613  1.00  0.00    -0.237 OA
ATOM     91  O   UNL A   1      38.872  36.965  41.474  1.00  0.00    -0.237 OA
ATOM     92  O   UNL A   1      40.624  38.333  40.409  1.00  0.00    -0.744 OA
ENDBRANCH  88  89
ENDBRANCH  62  83
ENDBRANCH  36  37
ENDBRANCH  29  31
ENDBRANCH  28  29
ENDBRANCH  27  28
ENDBRANCH  26  27
ENDBRANCH   1  26
TORSDOF 22
ENDMDL
MODEL 2
REMARK VINA RESULT:      -9.4      4.675      9.918
REMARK SMILES O=C(C[N@@H+](C[C@@H]1COc2ccccc2O1)CC(F)(F)F)OCCOCCOC(=O)c1ccc(-c2c3nc(c(-c4ccc(S(=O)(=O)[O-])cc4)c4ccc([nH]4)c(-c4ccc(S(=O)(=O)[O-])cc4)c4nc(c(-c5ccc(S(=O)(=O)[O-])cc5)c5ccc2[nH]5)C=C4)C=C3)cc1
REMARK SMILES IDX 24 1 23 2 22 3 21 4 2 5 1 6 3 7 4 8 5 10 6 11 7 12 15 13
REMARK SMILES IDX 8 14 14 15 9 16 13 17 10 18 12 19 11 20 16 21 17 22 18 23
REMARK SMILES IDX 19 24 20 25 25 26 26 27 27 28 28 29 29 30 30 31 31 32 89 33
REMARK SMILES IDX 32 34 88 35 33 36 34 37 35 38 82 39 36 40 87 41 81 42 83 43
REMARK SMILES IDX 37 44 86 45 80 46 79 47 38 49 68 50 49 51 67 52 50 53 53 54
REMARK SMILES IDX 66 55 84 56 51 57 52 58 65 60 85 61 54 62 39 63 40 64 48 65
REMARK SMILES IDX 41 66 47 67 42 68 43 69 44 70 45 71 46 72 69 73 70 74 78 75
REMARK SMILES IDX 71 76 77 77 72 78 73 79 74 80 75 81 76 82 55 83 56 84 64 85
REMARK SMILES IDX 57 86 63 87 58 88 59 89 60 90 61 91 62 92
REMARK H PARENT 4 9 83 48 53 59
REMARK Flexibility Score: inf
ROOT
ATOM      1  O   UNL A   1      33.268  25.550  25.857  1.00  0.00    -0.374 OA
ENDROOT
BRANCH   1   2
ATOM      2  C   UNL A   1      34.619  25.733  25.428  1.00  0.00     0.202 C 
BRANCH   2   3
ATOM      3  C   UNL A   1      35.415  24.458  25.159  1.00  0.00     0.261 C 
BRANCH   3   4
ATOM      4  O   UNL A   1      35.148  23.443  26.146  1.00  0.00    -0.459 OA
BRANCH   4   5
ATOM      5  C   UNL A   1      35.020  22.124  25.881  1.00  0.00     0.361 C 
ATOM      6  O   UNL A   1      35.523  21.291  26.633  1.00  0.00    -0.245 OA
BRANCH   5   7
ATOM      7  C   UNL A   1      34.308  21.693  24.608  1.00  0.00     0.386 C 
BRANCH   7   8
ATOM      8  N   UNL A   1      32.866  21.492  24.789  1.00  0.00    -0.315 N 
ATOM      9  H   UNL A   1      32.705  21.313  25.780  1.00  0.00     0.348 HD
BRANCH   8  10
ATOM     10  C   UNL A   1      32.094  22.727  24.538  1.00  0.00     0.312 C 
BRANCH  10  11
ATOM     11  C   UNL A   1      31.628  22.946  23.085  1.00  0.00     0.265 C 
ATOM     12  C   UNL A   1      32.764  23.121  22.074  1.00  0.00     0.281 C 
ATOM     13  O   UNL A   1      30.721  24.051  23.059  1.00  0.00    -0.477 OA
ATOM     14  O   UNL A   1      33.488  24.339  22.228  1.00  0.00    -0.486 OA
ATOM     15  C   UNL A   1      31.340  25.257  22.900  1.00  0.00     0.162 A 
ATOM     16  C   UNL A   1      32.653  25.399  22.454  1.00  0.00     0.161 A 
ATOM     17  C   UNL A   1      30.575  26.380  23.205  1.00  0.00     0.050 A 
ATOM     18  C   UNL A   1      33.183  26.671  22.254  1.00  0.00     0.050 A 
ATOM     19  C   UNL A   1      31.112  27.653  23.028  1.00  0.00     0.004 A 
ATOM     20  C   UNL A   1      32.408  27.799  22.530  1.00  0.00     0.004 A 
ENDBRANCH  10  11
ENDBRANCH   8  10
BRANCH   8  21
ATOM     21  C   UNL A   1      32.348  20.235  24.196  1.00  0.00     0.379 C 
BRANCH  21  22
ATOM     22  C   UNL A   1      32.752  18.823  24.693  1.00  0.00     0.438 C 
ATOM     23  F   UNL A   1      31.908  17.864  24.258  1.00  0.00    -0.165 F 
ATOM     24  F   UNL A   1      33.987  18.504  24.236  1.00  0.00    -0.165 F 
ATOM     25  F   UNL A   1      32.792  18.736  26.037  1.00  0.00    -0.165 F 
ENDBRANCH  21  22
ENDBRANCH   8  21
ENDBRANCH   7   8
ENDBRANCH   5   7
ENDBRANCH   4   5
ENDBRANCH   3   4
ENDBRANCH   2   3
ENDBRANCH   1   2
BRANCH   1  26
ATOM     26  C   UNL A   1      32.628  26.703  26.420  1.00  0.00     0.202 C 
BRANCH  26  27
ATOM     27  C   UNL A   1      33.370  28.032  26.269  1.00  0.00     0.261 C 
BRANCH  27  28
ATOM     28  O   UNL A   1      33.775  28.538  27.545  1.00  0.00    -0.460 OA
BRANCH  28  29
ATOM     29  C   UNL A   1      34.265  29.799  27.534  1.00  0.00     0.338 C 
ATOM     30  O   UNL A   1      33.645  30.833  27.345  1.00  0.00    -0.246 OA
BRANCH  29  31
ATOM     31  C   UNL A   1      35.650  29.750  28.038  1.00  0.00     0.060 A 
ATOM     32  C   UNL A   1      36.695  29.972  27.128  1.00  0.00     0.016 A 
ATOM     33  C   UNL A   1      35.913  29.520  29.389  1.00  0.00     0.016 A 
ATOM     34  C   UNL A   1      38.016  29.903  27.557  1.00  0.00     0.010 A 
ATOM     35  C   UNL A   1      37.232  29.441  29.816  1.00  0.00     0.010 A 
ATOM     36  C   UNL A   1      38.282  29.582  28.891  1.00  0.00    -0.014 A 
BRANCH  36  37
ATOM     37  C   UNL A   1      39.631  29.158  29.309  1.00  0.00     0.031 A 
ATOM     38  C   UNL A   1      40.515  30.194  29.940  1.00  0.00     0.074 A 
ATOM     39  C   UNL A   1      40.077  27.920  29.054  1.00  0.00     0.049 A 
ATOM     40  N   UNL A   1      41.793  30.148  30.199  1.00  0.00    -0.248 NA
ATOM     41  C   UNL A   1      39.866  31.469  30.298  1.00  0.00     0.031 C 
ATOM     42  C   UNL A   1      39.282  26.837  28.477  1.00  0.00     0.029 A 
ATOM     43  N   UNL A   1      41.328  27.384  29.209  1.00  0.00    -0.354 N 
ATOM     44  C   UNL A   1      42.112  31.401  30.712  1.00  0.00     0.074 A 
ATOM     45  C   UNL A   1      40.900  32.188  30.706  1.00  0.00     0.031 C 
ATOM     46  C   UNL A   1      40.079  25.771  28.289  1.00  0.00     0.029 A 
ATOM     47  C   UNL A   1      41.442  26.120  28.685  1.00  0.00     0.049 A 
ATOM     48  H   UNL A   1      42.069  27.857  29.651  1.00  0.00     0.167 HD
ATOM     49  C   UNL A   1      43.314  31.852  31.137  1.00  0.00     0.031 A 
ATOM     50  C   UNL A   1      42.536  25.354  28.502  1.00  0.00     0.031 A 
ATOM     51  C   UNL A   1      44.509  31.053  31.105  1.00  0.00     0.049 A 
ATOM     52  C   UNL A   1      43.876  25.885  28.936  1.00  0.00     0.074 A 
ATOM     53  C   UNL A   1      45.779  31.386  31.539  1.00  0.00     0.029 A 
ATOM     54  N   UNL A   1      44.582  29.764  30.592  1.00  0.00    -0.354 N 
ATOM     55  N   UNL A   1      44.170  27.057  29.451  1.00  0.00    -0.248 NA
ATOM     56  C   UNL A   1      45.029  24.990  28.774  1.00  0.00     0.031 C 
ATOM     57  C   UNL A   1      46.633  30.324  31.226  1.00  0.00     0.029 A 
ATOM     58  C   UNL A   1      45.882  29.297  30.672  1.00  0.00     0.049 A 
ATOM     59  H   UNL A   1      43.821  29.259  30.227  1.00  0.00     0.167 HD
ATOM     60  C   UNL A   1      45.536  27.028  29.708  1.00  0.00     0.074 A 
ATOM     61  C   UNL A   1      46.009  25.722  29.290  1.00  0.00     0.031 C 
ATOM     62  C   UNL A   1      46.326  27.989  30.251  1.00  0.00     0.031 A 
BRANCH  49  63
ATOM     63  C   UNL A   1      43.391  33.283  31.601  1.00  0.00    -0.014 A 
ATOM     64  C   UNL A   1      43.697  34.333  30.714  1.00  0.00     0.010 A 
ATOM     65  C   UNL A   1      43.176  33.581  32.959  1.00  0.00     0.010 A 
ATOM     66  C   UNL A   1      43.853  35.639  31.188  1.00  0.00     0.020 A 
ATOM     67  C   UNL A   1      43.295  34.891  33.431  1.00  0.00     0.020 A 
ATOM     68  C   UNL A   1      43.659  35.907  32.545  1.00  0.00     0.054 A 
BRANCH  68  69
ATOM     69  S   UNL A   1      43.891  37.605  33.138  1.00  0.00     0.124 S 
ATOM     70  O   UNL A   1      43.995  38.350  31.886  1.00  0.00    -0.237 OA
ATOM     71  O   UNL A   1      42.675  37.843  33.911  1.00  0.00    -0.237 OA
ATOM     72  O   UNL A   1      45.121  37.535  33.923  1.00  0.00    -0.744 OA
ENDBRANCH  68  69
ENDBRANCH  49  63
BRANCH  50  73
ATOM     73  C   UNL A   1      42.386  24.020  27.864  1.00  0.00    -0.014 A 
ATOM     74  C   UNL A   1      42.588  23.864  26.483  1.00  0.00     0.010 A 
ATOM     75  C   UNL A   1      42.125  22.882  28.651  1.00  0.00     0.010 A 
ATOM     76  C   UNL A   1      42.546  22.592  25.902  1.00  0.00     0.020 A 
ATOM     77  C   UNL A   1      42.109  21.607  28.080  1.00  0.00     0.020 A 
ATOM     78  C   UNL A   1      42.321  21.471  26.706  1.00  0.00     0.054 A 
BRANCH  78  79
ATOM     79  S   UNL A   1      42.382  19.825  25.944  1.00  0.00     0.124 S 
ATOM     80  O   UNL A   1      41.007  19.650  25.486  1.00  0.00    -0.237 OA
ATOM     81  O   UNL A   1      43.381  20.007  24.893  1.00  0.00    -0.237 OA
ATOM     82  O   UNL A   1      42.794  18.953  27.041  1.00  0.00    -0.744 OA
ENDBRANCH  78  79
ENDBRANCH  50  73
BRANCH  62  83
ATOM     83  C   UNL A   1      47.777  27.656  30.484  1.00  0.00    -0.014 A 
ATOM     84  C   UNL A   1      48.190  26.888  31.585  1.00  0.00     0.010 A 
ATOM     85  C   UNL A   1      48.726  28.041  29.518  1.00  0.00     0.010 A 
ATOM     86  C   UNL A   1      49.532  26.522  31.723  1.00  0.00     0.020 A 
ATOM     87  C   UNL A   1      50.061  27.650  29.636  1.00  0.00     0.020 A 
ATOM     88  C   UNL A   1      50.457  26.899  30.743  1.00  0.00     0.054 A 
BRANCH  88  89
ATOM     89  S   UNL A   1      52.177  26.346  30.906  1.00  0.00     0.124 S 
ATOM     90  O   UNL A   1      52.572  26.166  29.512  1.00  0.00    -0.237 OA
ATOM     91  O   UNL A   1      52.807  27.466  31.599  1.00  0.00    -0.237 OA
ATOM     92  O   UNL A   1      52.073  25.115  31.688  1.00  0.00    -0.744 OA
ENDBRANCH  88  89
ENDBRANCH  62  83
ENDBRANCH  36  37
ENDBRANCH  29  31
ENDBRANCH  28  29
ENDBRANCH  27  28
ENDBRANCH  26  27
ENDBRANCH   1  26
TORSDOF 22
ENDMDL
MODEL 3
REMARK VINA RESULT:      -9.2      4.251     10.268
REMARK SMILES O=C(C[N@@H+](C[C@@H]1COc2ccccc2O1)CC(F)(F)F)OCCOCCOC(=O)c1ccc(-c2c3nc(c(-c4ccc(S(=O)(=O)[O-])cc4)c4ccc([nH]4)c(-c4ccc(S(=O)(=O)[O-])cc4)c4nc(c(-c5ccc(S(=O)(=O)[O-])cc5)c5ccc2[nH]5)C=C4)C=C3)cc1
REMARK SMILES IDX 24 1 23 2 22 3 21 4 2 5 1 6 3 7 4 8 5 10 6 11 7 12 15 13
REMARK SMILES IDX 8 14 14 15 9 16 13 17 10 18 12 19 11 20 16 21 17 22 18 23
REMARK SMILES IDX 19 24 20 25 25 26 26 27 27 28 28 29 29 30 30 31 31 32 89 33
REMARK SMILES IDX 32 34 88 35 33 36 34 37 35 38 82 39 36 40 87 41 81 42 83 43
REMARK SMILES IDX 37 44 86 45 80 46 79 47 38 49 68 50 49 51 67 52 50 53 53 54
REMARK SMILES IDX 66 55 84 56 51 57 52 58 65 60 85 61 54 62 39 63 40 64 48 65
REMARK SMILES IDX 41 66 47 67 42 68 43 69 44 70 45 71 46 72 69 73 70 74 78 75
REMARK SMILES IDX 71 76 77 77 72 78 73 79 74 80 75 81 76 82 55 83 56 84 64 85
REMARK SMILES IDX 57 86 63 87 58 88 59 89 60 90 61 91 62 92
REMARK H PARENT 4 9 83 48 53 59
REMARK Flexibility Score: inf
ROOT
ATOM      1  O   UNL A   1      45.653  24.085  28.595  1.00  0.00    -0.374 OA
ENDROOT
BRANCH   1   2
ATOM      2  C   UNL A   1      46.421  25.087  27.923  1.00  0.00     0.202 C 
BRANCH   2   3
ATOM      3  C   UNL A   1      46.770  24.797  26.465  1.00  0.00     0.261 C 
BRANCH   3   4
ATOM      4  O   UNL A   1      46.461  23.437  26.101  1.00  0.00    -0.459 OA
BRANCH   4   5
ATOM      5  C   UNL A   1      45.934  23.057  24.916  1.00  0.00     0.361 C 
ATOM      6  O   UNL A   1      46.661  22.912  23.936  1.00  0.00    -0.245 OA
BRANCH   5   7
ATOM      7  C   UNL A   1      44.428  22.882  24.802  1.00  0.00     0.386 C 
BRANCH   7   8
ATOM      8  N   UNL A   1      43.899  21.818  25.664  1.00  0.00    -0.315 N 
ATOM      9  H   UNL A   1      43.958  22.150  26.627  1.00  0.00     0.348 HD
BRANCH   8  10
ATOM     10  C   UNL A   1      42.451  21.606  25.465  1.00  0.00     0.312 C 
BRANCH  10  11
ATOM     11  C   UNL A   1      41.665  21.131  26.704  1.00  0.00     0.265 C 
ATOM     12  C   UNL A   1      41.341  19.635  26.713  1.00  0.00     0.281 C 
ATOM     13  O   UNL A   1      40.485  21.930  26.828  1.00  0.00    -0.477 OA
ATOM     14  O   UNL A   1      40.391  19.246  25.723  1.00  0.00    -0.486 OA
ATOM     15  C   UNL A   1      39.420  21.438  26.130  1.00  0.00     0.162 A 
ATOM     16  C   UNL A   1      39.354  20.134  25.641  1.00  0.00     0.161 A 
ATOM     17  C   UNL A   1      38.364  22.321  25.926  1.00  0.00     0.050 A 
ATOM     18  C   UNL A   1      38.199  19.693  24.999  1.00  0.00     0.050 A 
ATOM     19  C   UNL A   1      37.218  21.889  25.263  1.00  0.00     0.004 A 
ATOM     20  C   UNL A   1      37.125  20.567  24.820  1.00  0.00     0.004 A 
ENDBRANCH  10  11
ENDBRANCH   8  10
BRANCH   8  21
ATOM     21  C   UNL A   1      44.759  20.612  25.738  1.00  0.00     0.379 C 
BRANCH  21  22
ATOM     22  C   UNL A   1      44.810  19.526  24.632  1.00  0.00     0.438 C 
ATOM     23  F   UNL A   1      45.955  18.813  24.664  1.00  0.00    -0.165 F 
ATOM     24  F   UNL A   1      43.791  18.649  24.794  1.00  0.00    -0.165 F 
ATOM     25  F   UNL A   1      44.696  20.040  23.392  1.00  0.00    -0.165 F 
ENDBRANCH  21  22
ENDBRANCH   8  21
ENDBRANCH   7   8
ENDBRANCH   5   7
ENDBRANCH   4   5
ENDBRANCH   3   4
ENDBRANCH   2   3
ENDBRANCH   1   2
BRANCH   1  26
ATOM     26  C   UNL A   1      44.342  24.482  29.021  1.00  0.00     0.202 C 
BRANCH  26  27
ATOM     27  C   UNL A   1      43.181  24.062  28.118  1.00  0.00     0.261 C 
BRANCH  27  28
ATOM     28  O   UNL A   1      43.114  24.891  26.954  1.00  0.00    -0.460 OA
BRANCH  28  29
ATOM     29  C   UNL A   1      41.874  25.320  26.624  1.00  0.00     0.338 C 
ATOM     30  O   UNL A   1      41.150  24.885  25.743  1.00  0.00    -0.246 OA
BRANCH  29  31
ATOM     31  C   UNL A   1      41.424  26.253  27.674  1.00  0.00     0.060 A 
ATOM     32  C   UNL A   1      42.144  27.444  27.856  1.00  0.00     0.016 A 
ATOM     33  C   UNL A   1      40.294  25.973  28.444  1.00  0.00     0.016 A 
ATOM     34  C   UNL A   1      41.771  28.335  28.857  1.00  0.00     0.010 A 
ATOM     35  C   UNL A   1      39.927  26.858  29.449  1.00  0.00     0.010 A 
ATOM     36  C   UNL A   1      40.695  28.012  29.688  1.00  0.00    -0.014 A 
BRANCH  36  37
ATOM     37  C   UNL A   1      40.481  28.731  30.957  1.00  0.00     0.031 A 
ATOM     38  C   UNL A   1      39.422  29.795  30.977  1.00  0.00     0.074 A 
ATOM     39  C   UNL A   1      41.264  28.504  32.021  1.00  0.00     0.049 A 
ATOM     40  N   UNL A   1      39.178  30.706  31.878  1.00  0.00    -0.248 NA
ATOM     41  C   UNL A   1      38.537  29.850  29.800  1.00  0.00     0.031 C 
ATOM     42  C   UNL A   1      42.294  27.471  32.108  1.00  0.00     0.029 A 
ATOM     43  N   UNL A   1      41.338  29.166  33.219  1.00  0.00    -0.354 N 
ATOM     44  C   UNL A   1      38.140  31.471  31.359  1.00  0.00     0.074 A 
ATOM     45  C   UNL A   1      37.817  30.931  30.058  1.00  0.00     0.031 C 
ATOM     46  C   UNL A   1      42.929  27.593  33.287  1.00  0.00     0.029 A 
ATOM     47  C   UNL A   1      42.381  28.742  34.006  1.00  0.00     0.049 A 
ATOM     48  H   UNL A   1      40.709  29.873  33.487  1.00  0.00     0.167 HD
ATOM     49  C   UNL A   1      37.522  32.538  31.918  1.00  0.00     0.031 A 
ATOM     50  C   UNL A   1      42.865  29.257  35.153  1.00  0.00     0.031 A 
ATOM     51  C   UNL A   1      37.885  33.071  33.203  1.00  0.00     0.049 A 
ATOM     52  C   UNL A   1      42.200  30.472  35.742  1.00  0.00     0.074 A 
ATOM     53  C   UNL A   1      37.312  34.125  33.890  1.00  0.00     0.029 A 
ATOM     54  N   UNL A   1      38.929  32.598  33.986  1.00  0.00    -0.354 N 
ATOM     55  N   UNL A   1      41.197  31.173  35.266  1.00  0.00    -0.248 NA
ATOM     56  C   UNL A   1      42.722  30.960  37.024  1.00  0.00     0.031 C 
ATOM     57  C   UNL A   1      38.055  34.332  35.057  1.00  0.00     0.029 A 
ATOM     58  C   UNL A   1      39.038  33.356  35.137  1.00  0.00     0.049 A 
ATOM     59  H   UNL A   1      39.506  31.835  33.756  1.00  0.00     0.167 HD
ATOM     60  C   UNL A   1      40.945  32.166  36.207  1.00  0.00     0.074 A 
ATOM     61  C   UNL A   1      41.902  31.972  37.279  1.00  0.00     0.031 C 
ATOM     62  C   UNL A   1      40.000  33.140  36.192  1.00  0.00     0.031 A 
BRANCH  49  63
ATOM     63  C   UNL A   1      36.452  33.220  31.107  1.00  0.00    -0.014 A 
ATOM     64  C   UNL A   1      36.768  34.069  30.029  1.00  0.00     0.010 A 
ATOM     65  C   UNL A   1      35.101  33.027  31.446  1.00  0.00     0.010 A 
ATOM     66  C   UNL A   1      35.760  34.762  29.353  1.00  0.00     0.020 A 
ATOM     67  C   UNL A   1      34.086  33.689  30.749  1.00  0.00     0.020 A 
ATOM     68  C   UNL A   1      34.426  34.574  29.724  1.00  0.00     0.054 A 
BRANCH  68  69
ATOM     69  S   UNL A   1      33.139  35.503  28.845  1.00  0.00     0.124 S 
ATOM     70  O   UNL A   1      33.933  36.380  27.990  1.00  0.00    -0.237 OA
ATOM     71  O   UNL A   1      32.401  34.449  28.153  1.00  0.00    -0.237 OA
ATOM     72  O   UNL A   1      32.404  36.175  29.914  1.00  0.00    -0.744 OA
ENDBRANCH  68  69
ENDBRANCH  49  63
BRANCH  50  73
ATOM     73  C   UNL A   1      44.047  28.620  35.789  1.00  0.00    -0.014 A 
ATOM     74  C   UNL A   1      43.885  27.548  36.682  1.00  0.00     0.010 A 
ATOM     75  C   UNL A   1      45.348  29.028  35.437  1.00  0.00     0.010 A 
ATOM     76  C   UNL A   1      45.003  26.885  37.200  1.00  0.00     0.020 A 
ATOM     77  C   UNL A   1      46.467  28.351  35.932  1.00  0.00     0.020 A 
ATOM     78  C   UNL A   1      46.286  27.282  36.811  1.00  0.00     0.054 A 
BRANCH  78  79
ATOM     79  S   UNL A   1      47.711  26.334  37.413  1.00  0.00     0.124 S 
ATOM     80  O   UNL A   1      47.130  25.012  37.626  1.00  0.00    -0.237 OA
ATOM     81  O   UNL A   1      48.649  26.440  36.297  1.00  0.00    -0.237 OA
ATOM     82  O   UNL A   1      48.111  27.046  38.624  1.00  0.00    -0.744 OA
ENDBRANCH  78  79
ENDBRANCH  50  73
BRANCH  62  83
ATOM     83  C   UNL A   1      39.907  34.045  37.394  1.00  0.00    -0.014 A 
ATOM     84  C   UNL A   1      40.562  35.287  37.435  1.00  0.00     0.010 A 
ATOM     85  C   UNL A   1      39.059  33.678  38.457  1.00  0.00     0.010 A 
ATOM     86  C   UNL A   1      40.382  36.141  38.527  1.00  0.00     0.020 A 
ATOM     87  C   UNL A   1      38.853  34.542  39.533  1.00  0.00     0.020 A 
ATOM     88  C   UNL A   1      39.523  35.765  39.566  1.00  0.00     0.054 A 
BRANCH  88  89
ATOM     89  S   UNL A   1      39.247  36.925  40.933  1.00  0.00     0.124 S 
ATOM     90  O   UNL A   1      38.516  36.098  41.890  1.00  0.00    -0.237 OA
ATOM     91  O   UNL A   1      40.607  37.286  41.323  1.00  0.00    -0.237 OA
ATOM     92  O   UNL A   1      38.472  38.004  40.323  1.00  0.00    -0.744 OA
ENDBRANCH  88  89
ENDBRANCH  62  83
ENDBRANCH  36  37
ENDBRANCH  29  31
ENDBRANCH  28  29
ENDBRANCH  27  28
ENDBRANCH  26  27
ENDBRANCH   1  26
TORSDOF 22
ENDMDL
