MODEL 1
REMARK VINA RESULT:     -10.5      0.000      0.000
REMARK SMILES O=C(OCCOCCOC(=O)[C@H]1CC[C@H]2CCCC[C@@H]2[N@H+]1[C@@H]1CCCSC1)c1ccc(-c2c3nc(c(-c4ccc(S(=O)(=O)[O-])cc4)c4ccc([nH]4)c(-c4ccc(S(=O)(=O)[O-])cc4)c4nc(c(-c5ccc(S(=O)(=O)[O-])cc5)c5ccc2[nH]5)C=C4)C=C3)cc1
REMARK SMILES IDX 5 1 4 2 3 3 2 4 1 5 28 6 29 7 87 8 30 9 86 10 31 11 32 12
REMARK SMILES IDX 33 13 80 14 34 15 85 16 79 17 81 18 35 19 84 20 78 21 77 22
REMARK SMILES IDX 36 24 66 25 47 26 65 27 48 28 51 29 64 30 82 31 49 32 50 33
REMARK SMILES IDX 63 35 83 36 52 37 37 38 38 39 46 40 39 41 45 42 40 43 41 44
REMARK SMILES IDX 42 45 43 46 44 47 67 48 68 49 76 50 69 51 75 52 70 53 71 54
REMARK SMILES IDX 72 55 73 56 74 57 53 58 54 59 62 60 55 61 61 62 56 63 57 64
REMARK SMILES IDX 58 65 59 66 60 67 6 68 7 69 8 70 9 71 10 72 11 73 12 74
REMARK SMILES IDX 13 75 21 76 14 77 20 78 15 80 19 81 16 82 18 83 17 84 22 85
REMARK SMILES IDX 23 86 27 87 24 88 26 89 25 90
REMARK H PARENT 81 23 51 34 21 79
REMARK Flexibility Score: inf
ROOT
ATOM      1  C   UNL A   1      40.845  22.071  26.977  1.00  0.00     0.202 C 
ENDROOT
BRANCH   1   2
ATOM      2  C   UNL A   1      41.771  22.693  25.922  1.00  0.00     0.261 C 
BRANCH   2   3
ATOM      3  O   UNL A   1      42.265  23.973  26.358  1.00  0.00    -0.460 OA
BRANCH   3   4
ATOM      4  C   UNL A   1      41.639  25.174  26.315  1.00  0.00     0.338 C 
ATOM      5  O   UNL A   1      41.216  25.576  25.231  1.00  0.00    -0.246 OA
BRANCH   4   6
ATOM      6  C   UNL A   1      41.432  26.041  27.515  1.00  0.00     0.060 A 
ATOM      7  C   UNL A   1      40.423  25.857  28.457  1.00  0.00     0.016 A 
ATOM      8  C   UNL A   1      42.369  27.063  27.751  1.00  0.00     0.016 A 
ATOM      9  C   UNL A   1      40.283  26.687  29.549  1.00  0.00     0.010 A 
ATOM     10  C   UNL A   1      42.270  27.879  28.886  1.00  0.00     0.010 A 
ATOM     11  C   UNL A   1      41.211  27.695  29.778  1.00  0.00    -0.014 A 
BRANCH  11  12
ATOM     12  C   UNL A   1      40.938  28.566  30.930  1.00  0.00     0.031 A 
ATOM     13  C   UNL A   1      41.902  28.550  32.074  1.00  0.00     0.074 A 
ATOM     14  C   UNL A   1      39.982  29.507  30.808  1.00  0.00     0.049 A 
ATOM     15  N   UNL A   1      41.915  29.292  33.145  1.00  0.00    -0.248 NA
ATOM     16  C   UNL A   1      43.018  27.591  31.986  1.00  0.00     0.031 C 
ATOM     17  C   UNL A   1      39.106  29.672  29.640  1.00  0.00     0.029 A 
ATOM     18  N   UNL A   1      39.632  30.541  31.630  1.00  0.00    -0.354 N 
ATOM     19  C   UNL A   1      43.031  28.885  33.864  1.00  0.00     0.074 A 
ATOM     20  C   UNL A   1      43.664  27.823  33.119  1.00  0.00     0.031 C 
ATOM     21  C   UNL A   1      38.352  30.769  29.806  1.00  0.00     0.029 A 
ATOM     22  C   UNL A   1      38.634  31.338  31.118  1.00  0.00     0.049 A 
ATOM     23  H   UNL A   1      40.053  30.702  32.506  1.00  0.00     0.167 HD
ATOM     24  C   UNL A   1      43.478  29.365  35.047  1.00  0.00     0.031 A 
ATOM     25  C   UNL A   1      38.001  32.389  31.669  1.00  0.00     0.031 A 
ATOM     26  C   UNL A   1      42.808  30.411  35.768  1.00  0.00     0.049 A 
ATOM     27  C   UNL A   1      38.441  32.817  33.042  1.00  0.00     0.074 A 
ATOM     28  C   UNL A   1      43.086  30.915  37.024  1.00  0.00     0.029 A 
ATOM     29  N   UNL A   1      41.718  31.122  35.279  1.00  0.00    -0.354 N 
ATOM     30  N   UNL A   1      39.437  32.357  33.766  1.00  0.00    -0.248 NA
ATOM     31  C   UNL A   1      37.675  33.892  33.679  1.00  0.00     0.031 C 
ATOM     32  C   UNL A   1      42.133  31.898  37.314  1.00  0.00     0.029 A 
ATOM     33  C   UNL A   1      41.300  32.050  36.215  1.00  0.00     0.049 A 
ATOM     34  H   UNL A   1      41.304  30.985  34.397  1.00  0.00     0.167 HD
ATOM     35  C   UNL A   1      39.420  33.090  34.944  1.00  0.00     0.074 A 
ATOM     36  C   UNL A   1      38.338  34.048  34.817  1.00  0.00     0.031 C 
ATOM     37  C   UNL A   1      40.211  32.978  36.041  1.00  0.00     0.031 A 
BRANCH  24  38
ATOM     38  C   UNL A   1      44.688  28.704  35.643  1.00  0.00    -0.014 A 
ATOM     39  C   UNL A   1      44.574  27.578  36.478  1.00  0.00     0.010 A 
ATOM     40  C   UNL A   1      45.965  29.232  35.376  1.00  0.00     0.010 A 
ATOM     41  C   UNL A   1      45.712  27.010  37.060  1.00  0.00     0.020 A 
ATOM     42  C   UNL A   1      47.107  28.653  35.937  1.00  0.00     0.020 A 
ATOM     43  C   UNL A   1      46.972  27.553  36.787  1.00  0.00     0.054 A 
BRANCH  43  44
ATOM     44  S   UNL A   1      48.433  26.788  37.539  1.00  0.00     0.124 S 
ATOM     45  O   UNL A   1      48.198  27.020  38.962  1.00  0.00    -0.237 OA
ATOM     46  O   UNL A   1      48.326  25.397  37.105  1.00  0.00    -0.237 OA
ATOM     47  O   UNL A   1      49.552  27.532  36.964  1.00  0.00    -0.744 OA
ENDBRANCH  43  44
ENDBRANCH  24  38
BRANCH  25  48
ATOM     48  C   UNL A   1      36.840  33.025  30.980  1.00  0.00    -0.014 A 
ATOM     49  C   UNL A   1      37.005  33.835  29.844  1.00  0.00     0.010 A 
ATOM     50  C   UNL A   1      35.541  32.840  31.496  1.00  0.00     0.010 A 
ATOM     51  C   UNL A   1      35.903  34.475  29.263  1.00  0.00     0.020 A 
ATOM     52  C   UNL A   1      34.435  33.447  30.897  1.00  0.00     0.020 A 
ATOM     53  C   UNL A   1      34.626  34.281  29.797  1.00  0.00     0.054 A 
BRANCH  53  54
ATOM     54  S   UNL A   1      33.208  35.119  29.033  1.00  0.00     0.124 S 
ATOM     55  O   UNL A   1      32.340  35.353  30.183  1.00  0.00    -0.237 OA
ATOM     56  O   UNL A   1      33.819  36.309  28.448  1.00  0.00    -0.237 OA
ATOM     57  O   UNL A   1      32.714  34.142  28.065  1.00  0.00    -0.744 OA
ENDBRANCH  53  54
ENDBRANCH  25  48
BRANCH  37  58
ATOM     58  C   UNL A   1      39.935  33.935  37.165  1.00  0.00    -0.014 A 
ATOM     59  C   UNL A   1      40.557  35.194  37.214  1.00  0.00     0.010 A 
ATOM     60  C   UNL A   1      39.013  33.577  38.165  1.00  0.00     0.010 A 
ATOM     61  C   UNL A   1      40.296  36.065  38.273  1.00  0.00     0.020 A 
ATOM     62  C   UNL A   1      38.725  34.459  39.207  1.00  0.00     0.020 A 
ATOM     63  C   UNL A   1      39.382  35.689  39.264  1.00  0.00     0.054 A 
BRANCH  63  64
ATOM     64  S   UNL A   1      39.040  36.848  40.615  1.00  0.00     0.124 S 
ATOM     65  O   UNL A   1      38.244  37.870  39.942  1.00  0.00    -0.237 OA
ATOM     66  O   UNL A   1      38.317  36.018  41.575  1.00  0.00    -0.237 OA
ATOM     67  O   UNL A   1      40.368  37.276  41.047  1.00  0.00    -0.744 OA
ENDBRANCH  63  64
ENDBRANCH  37  58
ENDBRANCH  11  12
ENDBRANCH   4   6
ENDBRANCH   3   4
ENDBRANCH   2   3
ENDBRANCH   1   2
BRANCH   1  68
ATOM     68  O   UNL A   1      39.535  21.727  26.514  1.00  0.00    -0.374 OA
BRANCH  68  69
ATOM     69  C   UNL A   1      38.692  22.823  26.141  1.00  0.00     0.202 C 
BRANCH  69  70
ATOM     70  C   UNL A   1      37.657  22.355  25.122  1.00  0.00     0.261 C 
BRANCH  70  71
ATOM     71  O   UNL A   1      36.571  23.288  25.177  1.00  0.00    -0.459 OA
BRANCH  71  72
ATOM     72  C   UNL A   1      35.889  23.410  23.997  1.00  0.00     0.365 C 
ATOM     73  O   UNL A   1      36.374  23.167  22.895  1.00  0.00    -0.245 OA
BRANCH  72  74
ATOM     74  C   UNL A   1      34.484  23.952  24.295  1.00  0.00     0.295 C 
ATOM     75  C   UNL A   1      34.062  24.837  23.115  1.00  0.00     0.078 C 
ATOM     76  N   UNL A   1      33.479  22.973  24.819  1.00  0.00    -0.317 N 
ATOM     77  C   UNL A   1      32.573  25.147  23.093  1.00  0.00     0.016 C 
ATOM     78  C   UNL A   1      32.129  23.553  24.979  1.00  0.00     0.188 C 
ATOM     79  H   UNL A   1      33.822  22.788  25.762  1.00  0.00     0.349 HD
ATOM     80  C   UNL A   1      31.989  25.016  24.495  1.00  0.00     0.048 C 
ATOM     81  C   UNL A   1      31.671  23.498  26.450  1.00  0.00     0.065 C 
ATOM     82  C   UNL A   1      30.515  25.430  24.534  1.00  0.00     0.010 C 
ATOM     83  C   UNL A   1      30.213  23.952  26.580  1.00  0.00     0.006 C 
ATOM     84  C   UNL A   1      29.961  25.323  25.954  1.00  0.00     0.001 C 
BRANCH  76  85
ATOM     85  C   UNL A   1      33.500  21.595  24.244  1.00  0.00     0.195 C 
ATOM     86  C   UNL A   1      32.199  21.249  23.493  1.00  0.00     0.067 C 
ATOM     87  C   UNL A   1      33.860  20.500  25.288  1.00  0.00     0.134 C 
ATOM     88  C   UNL A   1      32.253  19.905  22.773  1.00  0.00     0.017 C 
ATOM     89  S   UNL A   1      33.988  18.814  24.608  1.00  0.00    -0.156 SA
ATOM     90  C   UNL A   1      32.405  18.737  23.730  1.00  0.00     0.070 C 
ENDBRANCH  76  85
ENDBRANCH  72  74
ENDBRANCH  71  72
ENDBRANCH  70  71
ENDBRANCH  69  70
ENDBRANCH  68  69
ENDBRANCH   1  68
TORSDOF 18
ENDMDL
MODEL 2
REMARK VINA RESULT:     -10.5      4.229     10.097
REMARK SMILES O=C(OCCOCCOC(=O)[C@H]1CC[C@H]2CCCC[C@@H]2[N@H+]1[C@@H]1CCCSC1)c1ccc(-c2c3nc(c(-c4ccc(S(=O)(=O)[O-])cc4)c4ccc([nH]4)c(-c4ccc(S(=O)(=O)[O-])cc4)c4nc(c(-c5ccc(S(=O)(=O)[O-])cc5)c5ccc2[nH]5)C=C4)C=C3)cc1
REMARK SMILES IDX 5 1 4 2 3 3 2 4 1 5 28 6 29 7 87 8 30 9 86 10 31 11 32 12
REMARK SMILES IDX 33 13 80 14 34 15 85 16 79 17 81 18 35 19 84 20 78 21 77 22
REMARK SMILES IDX 36 24 66 25 47 26 65 27 48 28 51 29 64 30 82 31 49 32 50 33
REMARK SMILES IDX 63 35 83 36 52 37 37 38 38 39 46 40 39 41 45 42 40 43 41 44
REMARK SMILES IDX 42 45 43 46 44 47 67 48 68 49 76 50 69 51 75 52 70 53 71 54
REMARK SMILES IDX 72 55 73 56 74 57 53 58 54 59 62 60 55 61 61 62 56 63 57 64
REMARK SMILES IDX 58 65 59 66 60 67 6 68 7 69 8 70 9 71 10 72 11 73 12 74
REMARK SMILES IDX 13 75 21 76 14 77 20 78 15 80 19 81 16 82 18 83 17 84 22 85
REMARK SMILES IDX 23 86 27 87 24 88 26 89 25 90
REMARK H PARENT 81 23 51 34 21 79
REMARK Flexibility Score: inf
ROOT
ATOM      1  C   UNL A   1      32.639  29.284  25.026  1.00  0.00     0.202 C 
ENDROOT
BRANCH   1   2
ATOM      2  C   UNL A   1      32.212  29.116  26.491  1.00  0.00     0.261 C 
BRANCH   2   3
ATOM      3  O   UNL A   1      33.358  29.031  27.357  1.00  0.00    -0.460 OA
BRANCH   3   4
ATOM      4  C   UNL A   1      34.230  30.011  27.695  1.00  0.00     0.338 C 
ATOM      5  O   UNL A   1      33.811  31.165  27.777  1.00  0.00    -0.246 OA
BRANCH   4   6
ATOM      6  C   UNL A   1      35.678  29.767  27.976  1.00  0.00     0.060 A 
ATOM      7  C   UNL A   1      36.708  29.996  27.067  1.00  0.00     0.016 A 
ATOM      8  C   UNL A   1      36.030  29.353  29.274  1.00  0.00     0.016 A 
ATOM      9  C   UNL A   1      38.028  29.756  27.385  1.00  0.00     0.010 A 
ATOM     10  C   UNL A   1      37.372  29.158  29.625  1.00  0.00     0.010 A 
ATOM     11  C   UNL A   1      38.371  29.348  28.668  1.00  0.00    -0.014 A 
BRANCH  11  12
ATOM     12  C   UNL A   1      39.794  29.056  28.886  1.00  0.00     0.031 A 
ATOM     13  C   UNL A   1      40.610  30.046  29.657  1.00  0.00     0.074 A 
ATOM     14  C   UNL A   1      40.245  27.818  28.605  1.00  0.00     0.049 A 
ATOM     15  N   UNL A   1      41.851  29.959  30.047  1.00  0.00    -0.248 NA
ATOM     16  C   UNL A   1      39.929  31.287  30.068  1.00  0.00     0.031 C 
ATOM     17  C   UNL A   1      39.443  26.750  27.991  1.00  0.00     0.029 A 
ATOM     18  N   UNL A   1      41.448  27.222  28.857  1.00  0.00    -0.354 N 
ATOM     19  C   UNL A   1      42.104  31.135  30.741  1.00  0.00     0.074 A 
ATOM     20  C   UNL A   1      40.897  31.927  30.708  1.00  0.00     0.031 C 
ATOM     21  C   UNL A   1      40.168  25.622  27.955  1.00  0.00     0.029 A 
ATOM     22  C   UNL A   1      41.501  25.903  28.470  1.00  0.00     0.049 A 
ATOM     23  H   UNL A   1      42.206  27.692  29.275  1.00  0.00     0.167 HD
ATOM     24  C   UNL A   1      43.252  31.511  31.348  1.00  0.00     0.031 A 
ATOM     25  C   UNL A   1      42.529  25.036  28.501  1.00  0.00     0.031 A 
ATOM     26  C   UNL A   1      44.439  30.702  31.341  1.00  0.00     0.049 A 
ATOM     27  C   UNL A   1      43.831  25.529  29.070  1.00  0.00     0.074 A 
ATOM     28  C   UNL A   1      45.699  31.007  31.819  1.00  0.00     0.029 A 
ATOM     29  N   UNL A   1      44.501  29.411  30.830  1.00  0.00    -0.354 N 
ATOM     30  N   UNL A   1      44.095  26.687  29.634  1.00  0.00    -0.248 NA
ATOM     31  C   UNL A   1      44.974  24.614  29.001  1.00  0.00     0.031 C 
ATOM     32  C   UNL A   1      46.535  29.917  31.552  1.00  0.00     0.029 A 
ATOM     33  C   UNL A   1      45.782  28.910  30.964  1.00  0.00     0.049 A 
ATOM     34  H   UNL A   1      43.745  28.925  30.430  1.00  0.00     0.167 HD
ATOM     35  C   UNL A   1      45.435  26.638  29.991  1.00  0.00     0.074 A 
ATOM     36  C   UNL A   1      45.914  25.321  29.613  1.00  0.00     0.031 C 
ATOM     37  C   UNL A   1      46.211  27.593  30.565  1.00  0.00     0.031 A 
BRANCH  24  38
ATOM     38  C   UNL A   1      43.279  32.871  31.985  1.00  0.00    -0.014 A 
ATOM     39  C   UNL A   1      43.609  34.022  31.246  1.00  0.00     0.010 A 
ATOM     40  C   UNL A   1      42.985  32.998  33.355  1.00  0.00     0.010 A 
ATOM     41  C   UNL A   1      43.674  35.271  31.873  1.00  0.00     0.020 A 
ATOM     42  C   UNL A   1      43.027  34.248  33.980  1.00  0.00     0.020 A 
ATOM     43  C   UNL A   1      43.384  35.375  33.237  1.00  0.00     0.054 A 
BRANCH  43  44
ATOM     44  S   UNL A   1      43.459  37.007  34.023  1.00  0.00     0.124 S 
ATOM     45  O   UNL A   1      42.181  37.063  34.728  1.00  0.00    -0.237 OA
ATOM     46  O   UNL A   1      44.641  36.899  34.874  1.00  0.00    -0.237 OA
ATOM     47  O   UNL A   1      43.589  37.930  32.897  1.00  0.00    -0.744 OA
ENDBRANCH  43  44
ENDBRANCH  24  38
BRANCH  25  48
ATOM     48  C   UNL A   1      42.399  23.679  27.895  1.00  0.00    -0.014 A 
ATOM     49  C   UNL A   1      41.904  22.585  28.624  1.00  0.00     0.010 A 
ATOM     50  C   UNL A   1      42.811  23.472  26.562  1.00  0.00     0.010 A 
ATOM     51  C   UNL A   1      41.859  21.309  28.049  1.00  0.00     0.020 A 
ATOM     52  C   UNL A   1      42.735  22.208  25.972  1.00  0.00     0.020 A 
ATOM     53  C   UNL A   1      42.281  21.128  26.728  1.00  0.00     0.054 A 
BRANCH  53  54
ATOM     54  S   UNL A   1      42.220  19.468  25.996  1.00  0.00     0.124 S 
ATOM     55  O   UNL A   1      43.099  19.614  24.841  1.00  0.00    -0.237 OA
ATOM     56  O   UNL A   1      42.728  18.626  27.076  1.00  0.00    -0.237 OA
ATOM     57  O   UNL A   1      40.804  19.283  25.685  1.00  0.00    -0.744 OA
ENDBRANCH  53  54
ENDBRANCH  25  48
BRANCH  37  58
ATOM     58  C   UNL A   1      47.642  27.223  30.829  1.00  0.00    -0.014 A 
ATOM     59  C   UNL A   1      47.995  26.448  31.948  1.00  0.00     0.010 A 
ATOM     60  C   UNL A   1      48.638  27.629  29.924  1.00  0.00     0.010 A 
ATOM     61  C   UNL A   1      49.332  26.125  32.183  1.00  0.00     0.020 A 
ATOM     62  C   UNL A   1      49.971  27.279  30.138  1.00  0.00     0.020 A 
ATOM     63  C   UNL A   1      50.312  26.544  31.276  1.00  0.00     0.054 A 
BRANCH  63  64
ATOM     64  S   UNL A   1      52.038  26.089  31.588  1.00  0.00     0.124 S 
ATOM     65  O   UNL A   1      52.466  27.139  32.507  1.00  0.00    -0.237 OA
ATOM     66  O   UNL A   1      51.917  24.754  32.168  1.00  0.00    -0.237 OA
ATOM     67  O   UNL A   1      52.651  26.132  30.262  1.00  0.00    -0.744 OA
ENDBRANCH  63  64
ENDBRANCH  37  58
ENDBRANCH  11  12
ENDBRANCH   4   6
ENDBRANCH   3   4
ENDBRANCH   2   3
ENDBRANCH   1   2
BRANCH   1  68
ATOM     68  O   UNL A   1      33.242  28.131  24.429  1.00  0.00    -0.374 OA
BRANCH  68  69
ATOM     69  C   UNL A   1      33.856  28.333  23.151  1.00  0.00     0.202 C 
BRANCH  69  70
ATOM     70  C   UNL A   1      33.313  27.316  22.151  1.00  0.00     0.261 C 
BRANCH  70  71
ATOM     71  O   UNL A   1      34.102  26.130  22.297  1.00  0.00    -0.459 OA
BRANCH  71  72
ATOM     72  C   UNL A   1      33.602  25.049  21.623  1.00  0.00     0.365 C 
ATOM     73  O   UNL A   1      33.034  25.119  20.536  1.00  0.00    -0.245 OA
BRANCH  72  74
ATOM     74  C   UNL A   1      33.816  23.793  22.480  1.00  0.00     0.295 C 
ATOM     75  C   UNL A   1      35.225  23.868  23.080  1.00  0.00     0.078 C 
ATOM     76  N   UNL A   1      32.696  23.399  23.393  1.00  0.00    -0.317 N 
ATOM     77  C   UNL A   1      35.449  22.894  24.227  1.00  0.00     0.016 C 
ATOM     78  C   UNL A   1      33.026  22.243  24.254  1.00  0.00     0.188 C 
ATOM     79  H   UNL A   1      31.984  23.072  22.740  1.00  0.00     0.349 HD
ATOM     80  C   UNL A   1      34.477  21.725  24.117  1.00  0.00     0.048 C 
ATOM     81  C   UNL A   1      32.075  21.060  23.984  1.00  0.00     0.065 C 
ATOM     82  C   UNL A   1      34.745  20.665  25.190  1.00  0.00     0.010 C 
ATOM     83  C   UNL A   1      32.321  19.929  24.989  1.00  0.00     0.006 C 
ATOM     84  C   UNL A   1      33.783  19.488  25.040  1.00  0.00     0.001 C 
BRANCH  76  85
ATOM     85  C   UNL A   1      31.954  24.496  24.081  1.00  0.00     0.195 C 
ATOM     86  C   UNL A   1      31.879  24.290  25.607  1.00  0.00     0.067 C 
ATOM     87  C   UNL A   1      30.546  24.759  23.475  1.00  0.00     0.134 C 
ATOM     88  C   UNL A   1      31.255  25.469  26.348  1.00  0.00     0.017 C 
ATOM     89  S   UNL A   1      29.643  26.153  24.226  1.00  0.00    -0.156 SA
ATOM     90  C   UNL A   1      29.802  25.691  25.971  1.00  0.00     0.070 C 
ENDBRANCH  76  85
ENDBRANCH  72  74
ENDBRANCH  71  72
ENDBRANCH  70  71
ENDBRANCH  69  70
ENDBRANCH  68  69
ENDBRANCH   1  68
TORSDOF 18
ENDMDL
MODEL 3
REMARK VINA RESULT:     -10.5      6.227     12.101
REMARK SMILES O=C(OCCOCCOC(=O)[C@H]1CC[C@H]2CCCC[C@@H]2[N@H+]1[C@@H]1CCCSC1)c1ccc(-c2c3nc(c(-c4ccc(S(=O)(=O)[O-])cc4)c4ccc([nH]4)c(-c4ccc(S(=O)(=O)[O-])cc4)c4nc(c(-c5ccc(S(=O)(=O)[O-])cc5)c5ccc2[nH]5)C=C4)C=C3)cc1
REMARK SMILES IDX 5 1 4 2 3 3 2 4 1 5 28 6 29 7 87 8 30 9 86 10 31 11 32 12
REMARK SMILES IDX 33 13 80 14 34 15 85 16 79 17 81 18 35 19 84 20 78 21 77 22
REMARK SMILES IDX 36 24 66 25 47 26 65 27 48 28 51 29 64 30 82 31 49 32 50 33
REMARK SMILES IDX 63 35 83 36 52 37 37 38 38 39 46 40 39 41 45 42 40 43 41 44
REMARK SMILES IDX 42 45 43 46 44 47 67 48 68 49 76 50 69 51 75 52 70 53 71 54
REMARK SMILES IDX 72 55 73 56 74 57 53 58 54 59 62 60 55 61 61 62 56 63 57 64
REMARK SMILES IDX 58 65 59 66 60 67 6 68 7 69 8 70 9 71 10 72 11 73 12 74
REMARK SMILES IDX 13 75 21 76 14 77 20 78 15 80 19 81 16 82 18 83 17 84 22 85
REMARK SMILES IDX 23 86 27 87 24 88 26 89 25 90
REMARK H PARENT 81 23 51 34 21 79
REMARK Flexibility Score: inf
ROOT
ATOM      1  C   UNL A   1      34.650  32.760  28.623  1.00  0.00     0.202 C 
ENDROOT
BRANCH   1   2
ATOM      2  C   UNL A   1      34.854  31.953  29.913  1.00  0.00     0.261 C 
BRANCH   2   3
ATOM      3  O   UNL A   1      36.247  31.667  30.129  1.00  0.00    -0.460 OA
BRANCH   3   4
ATOM      4  C   UNL A   1      36.827  30.475  30.412  1.00  0.00     0.338 C 
ATOM      5  O   UNL A   1      36.227  29.693  31.150  1.00  0.00    -0.246 OA
BRANCH   4   6
ATOM      6  C   UNL A   1      38.157  30.055  29.876  1.00  0.00     0.060 A 
ATOM      7  C   UNL A   1      39.236  29.658  30.662  1.00  0.00     0.016 A 
ATOM      8  C   UNL A   1      38.303  29.980  28.478  1.00  0.00     0.016 A 
ATOM      9  C   UNL A   1      40.440  29.276  30.109  1.00  0.00     0.010 A 
ATOM     10  C   UNL A   1      39.504  29.542  27.905  1.00  0.00     0.010 A 
ATOM     11  C   UNL A   1      40.579  29.203  28.729  1.00  0.00    -0.014 A 
BRANCH  11  12
ATOM     12  C   UNL A   1      41.919  28.850  28.240  1.00  0.00     0.031 A 
ATOM     13  C   UNL A   1      43.000  29.881  28.333  1.00  0.00     0.074 A 
ATOM     14  C   UNL A   1      42.180  27.559  27.960  1.00  0.00     0.049 A 
ATOM     15  N   UNL A   1      44.268  29.767  28.051  1.00  0.00    -0.248 NA
ATOM     16  C   UNL A   1      42.607  31.208  28.839  1.00  0.00     0.031 C 
ATOM     17  C   UNL A   1      41.192  26.472  28.004  1.00  0.00     0.029 A 
ATOM     18  N   UNL A   1      43.352  26.926  27.656  1.00  0.00    -0.354 N 
ATOM     19  C   UNL A   1      44.823  31.008  28.335  1.00  0.00     0.074 A 
ATOM     20  C   UNL A   1      43.757  31.865  28.797  1.00  0.00     0.031 C 
ATOM     21  C   UNL A   1      41.812  25.304  27.778  1.00  0.00     0.029 A 
ATOM     22  C   UNL A   1      43.218  25.566  27.500  1.00  0.00     0.049 A 
ATOM     23  H   UNL A   1      44.211  27.398  27.558  1.00  0.00     0.167 HD
ATOM     24  C   UNL A   1      46.115  31.387  28.214  1.00  0.00     0.031 A 
ATOM     25  C   UNL A   1      44.130  24.645  27.138  1.00  0.00     0.031 A 
ATOM     26  C   UNL A   1      47.144  30.508  27.731  1.00  0.00     0.049 A 
ATOM     27  C   UNL A   1      45.533  25.125  26.888  1.00  0.00     0.074 A 
ATOM     28  C   UNL A   1      48.467  30.793  27.454  1.00  0.00     0.029 A 
ATOM     29  N   UNL A   1      46.955  29.158  27.460  1.00  0.00    -0.354 N 
ATOM     30  N   UNL A   1      46.032  26.329  27.060  1.00  0.00    -0.248 NA
ATOM     31  C   UNL A   1      46.494  24.136  26.390  1.00  0.00     0.031 C 
ATOM     32  C   UNL A   1      49.065  29.625  26.969  1.00  0.00     0.029 A 
ATOM     33  C   UNL A   1      48.132  28.598  27.002  1.00  0.00     0.049 A 
ATOM     34  H   UNL A   1      46.106  28.673  27.576  1.00  0.00     0.167 HD
ATOM     35  C   UNL A   1      47.368  26.242  26.693  1.00  0.00     0.074 A 
ATOM     36  C   UNL A   1      47.605  24.858  26.329  1.00  0.00     0.031 C 
ATOM     37  C   UNL A   1      48.314  27.213  26.645  1.00  0.00     0.031 A 
BRANCH  24  38
ATOM     38  C   UNL A   1      46.445  32.817  28.536  1.00  0.00    -0.014 A 
ATOM     39  C   UNL A   1      46.353  33.829  27.564  1.00  0.00     0.010 A 
ATOM     40  C   UNL A   1      46.872  33.152  29.834  1.00  0.00     0.010 A 
ATOM     41  C   UNL A   1      46.711  35.145  27.876  1.00  0.00     0.020 A 
ATOM     42  C   UNL A   1      47.209  34.469  30.156  1.00  0.00     0.020 A 
ATOM     43  C   UNL A   1      47.139  35.455  29.170  1.00  0.00     0.054 A 
BRANCH  43  44
ATOM     44  S   UNL A   1      47.582  37.172  29.554  1.00  0.00     0.124 S 
ATOM     45  O   UNL A   1      47.563  37.792  28.232  1.00  0.00    -0.237 OA
ATOM     46  O   UNL A   1      46.508  37.585  30.455  1.00  0.00    -0.237 OA
ATOM     47  O   UNL A   1      48.902  37.062  30.171  1.00  0.00    -0.744 OA
ENDBRANCH  43  44
ENDBRANCH  24  38
BRANCH  25  48
ATOM     48  C   UNL A   1      43.727  23.230  26.893  1.00  0.00    -0.014 A 
ATOM     49  C   UNL A   1      43.947  22.599  25.657  1.00  0.00     0.010 A 
ATOM     50  C   UNL A   1      43.078  22.506  27.915  1.00  0.00     0.010 A 
ATOM     51  C   UNL A   1      43.494  21.293  25.435  1.00  0.00     0.020 A 
ATOM     52  C   UNL A   1      42.657  21.190  27.710  1.00  0.00     0.020 A 
ATOM     53  C   UNL A   1      42.846  20.599  26.462  1.00  0.00     0.054 A 
BRANCH  53  54
ATOM     54  S   UNL A   1      42.263  18.907  26.159  1.00  0.00     0.124 S 
ATOM     55  O   UNL A   1      43.162  18.462  25.100  1.00  0.00    -0.237 OA
ATOM     56  O   UNL A   1      42.450  18.268  27.459  1.00  0.00    -0.237 OA
ATOM     57  O   UNL A   1      40.869  19.092  25.760  1.00  0.00    -0.744 OA
ENDBRANCH  53  54
ENDBRANCH  25  48
BRANCH  37  58
ATOM     58  C   UNL A   1      49.686  26.790  26.202  1.00  0.00    -0.014 A 
ATOM     59  C   UNL A   1      50.119  27.002  24.882  1.00  0.00     0.010 A 
ATOM     60  C   UNL A   1      50.561  26.203  27.134  1.00  0.00     0.010 A 
ATOM     61  C   UNL A   1      51.392  26.590  24.487  1.00  0.00     0.020 A 
ATOM     62  C   UNL A   1      51.846  25.821  26.751  1.00  0.00     0.020 A 
ATOM     63  C   UNL A   1      52.247  26.001  25.425  1.00  0.00     0.054 A 
BRANCH  63  64
ATOM     64  S   UNL A   1      53.906  25.500  24.895  1.00  0.00     0.124 S 
ATOM     65  O   UNL A   1      53.824  24.044  24.983  1.00  0.00    -0.237 OA
ATOM     66  O   UNL A   1      53.990  26.046  23.544  1.00  0.00    -0.237 OA
ATOM     67  O   UNL A   1      54.787  26.134  25.873  1.00  0.00    -0.744 OA
ENDBRANCH  63  64
ENDBRANCH  37  58
ENDBRANCH  11  12
ENDBRANCH   4   6
ENDBRANCH   3   4
ENDBRANCH   2   3
ENDBRANCH   1   2
BRANCH   1  68
ATOM     68  O   UNL A   1      33.941  32.080  27.582  1.00  0.00    -0.374 OA
BRANCH  68  69
ATOM     69  C   UNL A   1      34.121  30.661  27.522  1.00  0.00     0.202 C 
BRANCH  69  70
ATOM     70  C   UNL A   1      32.783  29.982  27.238  1.00  0.00     0.261 C 
BRANCH  70  71
ATOM     71  O   UNL A   1      33.082  28.681  26.718  1.00  0.00    -0.459 OA
BRANCH  71  72
ATOM     72  C   UNL A   1      32.077  27.770  26.901  1.00  0.00     0.365 C 
ATOM     73  O   UNL A   1      31.228  27.853  27.785  1.00  0.00    -0.245 OA
BRANCH  72  74
ATOM     74  C   UNL A   1      32.246  26.638  25.878  1.00  0.00     0.295 C 
ATOM     75  C   UNL A   1      31.708  25.349  26.511  1.00  0.00     0.078 C 
ATOM     76  N   UNL A   1      31.842  26.936  24.468  1.00  0.00    -0.317 N 
ATOM     77  C   UNL A   1      31.474  24.232  25.506  1.00  0.00     0.016 C 
ATOM     78  C   UNL A   1      31.939  25.763  23.573  1.00  0.00     0.188 C 
ATOM     79  H   UNL A   1      32.567  27.587  24.163  1.00  0.00     0.349 HD
ATOM     80  C   UNL A   1      32.346  24.445  24.274  1.00  0.00     0.048 C 
ATOM     81  C   UNL A   1      32.941  26.018  22.429  1.00  0.00     0.065 C 
ATOM     82  C   UNL A   1      32.223  23.282  23.285  1.00  0.00     0.010 C 
ATOM     83  C   UNL A   1      32.916  24.865  21.421  1.00  0.00     0.006 C 
ATOM     84  C   UNL A   1      33.130  23.500  22.076  1.00  0.00     0.001 C 
BRANCH  76  85
ATOM     85  C   UNL A   1      30.621  27.773  24.266  1.00  0.00     0.195 C 
ATOM     86  C   UNL A   1      29.502  27.015  23.525  1.00  0.00     0.067 C 
ATOM     87  C   UNL A   1      30.920  29.142  23.592  1.00  0.00     0.134 C 
ATOM     88  C   UNL A   1      28.195  27.797  23.438  1.00  0.00     0.017 C 
ATOM     89  S   UNL A   1      29.472  30.234  23.413  1.00  0.00    -0.156 SA
ATOM     90  C   UNL A   1      28.332  29.069  22.621  1.00  0.00     0.070 C 
ENDBRANCH  76  85
ENDBRANCH  72  74
ENDBRANCH  71  72
ENDBRANCH  70  71
ENDBRANCH  69  70
ENDBRANCH  68  69
ENDBRANCH   1  68
TORSDOF 18
ENDMDL
