MODEL 1
REMARK VINA RESULT:      -9.2      0.000      0.000
REMARK SMILES CCC[NH2+][C@@H]1COC[C@@H]1C(=O)N[C@@](C)(CC)C(=O)OCCOCCOC(=O)c1ccc(-c2c3nc(c(-c4ccc(S(=O)(=O)[O-])cc4)c4ccc([nH]4)c(-c4ccc(S(=O)(=O)[O-])cc4)c4nc(c(-c5ccc(S(=O)(=O)[O-])cc5)c5ccc2[nH]5)C=C4)C=C3)cc1
REMARK SMILES IDX 21 1 20 2 19 3 17 4 18 5 13 6 14 7 12 8 10 9 11 10 9 12 5 13
REMARK SMILES IDX 6 14 7 15 8 16 4 17 3 20 2 21 1 22 15 23 16 24 22 25 23 26
REMARK SMILES IDX 24 27 25 28 26 29 27 30 28 31 29 32 87 33 30 34 86 35 31 36
REMARK SMILES IDX 32 37 33 38 80 39 34 40 85 41 79 42 81 43 35 44 84 45 78 46
REMARK SMILES IDX 77 47 36 49 66 50 47 51 65 52 48 53 51 54 64 55 82 56 49 57
REMARK SMILES IDX 50 58 63 60 83 61 52 62 37 63 38 64 46 65 39 66 45 67 40 68
REMARK SMILES IDX 41 69 42 70 43 71 44 72 67 73 68 74 76 75 69 76 75 77 70 78
REMARK SMILES IDX 71 79 72 80 73 81 74 82 53 83 54 84 62 85 55 86 61 87 56 88
REMARK SMILES IDX 57 89 58 90 59 91 60 92
REMARK H PARENT 12 11 4 18 4 19 81 48 51 59
REMARK Flexibility Score: inf
ROOT
ATOM      1  C   UNL A   1      32.674  30.981  27.066  1.00  0.00     0.202 C 
ENDROOT
BRANCH   1   2
ATOM      2  C   UNL A   1      32.165  29.810  26.197  1.00  0.00     0.261 C 
BRANCH   2   3
ATOM      3  O   UNL A   1      32.737  28.549  26.595  1.00  0.00    -0.462 OA
BRANCH   3   4
ATOM      4  C   UNL A   1      31.874  27.508  26.718  1.00  0.00     0.331 C 
ATOM      5  O   UNL A   1      31.033  27.434  27.606  1.00  0.00    -0.249 OA
BRANCH   4   6
ATOM      6  C   UNL A   1      32.140  26.350  25.709  1.00  0.00     0.135 C 
ATOM      7  C   UNL A   1      33.707  26.326  25.743  1.00  0.00     0.047 C 
BRANCH   6   8
ATOM      8  N   UNL A   1      31.706  24.984  26.180  1.00  0.00    -0.340 N 
ATOM      9  C   UNL A   1      32.218  23.851  26.726  1.00  0.00     0.232 C 
ATOM     10  O   UNL A   1      31.521  23.434  27.671  1.00  0.00    -0.274 OA
ATOM     11  H   UNL A   1      30.736  24.879  26.047  1.00  0.00     0.164 HD
BRANCH   9  12
ATOM     12  C   UNL A   1      33.322  22.906  26.212  1.00  0.00     0.164 C 
ATOM     13  C   UNL A   1      33.259  22.104  24.911  1.00  0.00     0.223 C 
ATOM     14  C   UNL A   1      32.740  20.773  25.432  1.00  0.00     0.225 C 
ATOM     15  O   UNL A   1      33.446  20.563  26.668  1.00  0.00    -0.374 OA
ATOM     16  C   UNL A   1      33.800  21.857  27.199  1.00  0.00     0.180 C 
BRANCH  13  17
ATOM     17  N   UNL A   1      32.793  22.750  23.676  1.00  0.00    -0.341 N 
ATOM     18  H   UNL A   1      32.128  22.126  23.219  1.00  0.00     0.346 HD
ATOM     19  H   UNL A   1      32.377  23.641  23.950  1.00  0.00     0.346 HD
BRANCH  17  20
ATOM     20  C   UNL A   1      33.847  23.059  22.730  1.00  0.00     0.260 C 
BRANCH  20  21
ATOM     21  C   UNL A   1      35.043  23.811  23.345  1.00  0.00     0.058 C 
ATOM     22  C   UNL A   1      36.322  22.988  23.425  1.00  0.00     0.010 C 
ENDBRANCH  20  21
ENDBRANCH  17  20
ENDBRANCH  13  17
ENDBRANCH   9  12
ENDBRANCH   6   8
BRANCH   6  23
ATOM     23  C   UNL A   1      31.840  26.584  24.177  1.00  0.00     0.037 C 
ATOM     24  C   UNL A   1      30.467  27.105  23.754  1.00  0.00     0.007 C 
ENDBRANCH   6  23
ENDBRANCH   4   6
ENDBRANCH   3   4
ENDBRANCH   2   3
ENDBRANCH   1   2
BRANCH   1  25
ATOM     25  O   UNL A   1      33.883  30.775  27.810  1.00  0.00    -0.374 OA
BRANCH  25  26
ATOM     26  C   UNL A   1      34.832  31.828  27.650  1.00  0.00     0.202 C 
BRANCH  26  27
ATOM     27  C   UNL A   1      36.061  31.765  28.548  1.00  0.00     0.261 C 
BRANCH  27  28
ATOM     28  O   UNL A   1      36.894  30.695  28.189  1.00  0.00    -0.460 OA
BRANCH  28  29
ATOM     29  C   UNL A   1      37.103  29.804  29.195  1.00  0.00     0.338 C 
ATOM     30  O   UNL A   1      36.299  29.261  29.905  1.00  0.00    -0.246 OA
BRANCH  29  31
ATOM     31  C   UNL A   1      38.513  29.445  28.988  1.00  0.00     0.060 A 
ATOM     32  C   UNL A   1      39.214  28.813  30.018  1.00  0.00     0.016 A 
ATOM     33  C   UNL A   1      39.040  29.570  27.694  1.00  0.00     0.016 A 
ATOM     34  C   UNL A   1      40.483  28.326  29.752  1.00  0.00     0.010 A 
ATOM     35  C   UNL A   1      40.254  29.010  27.406  1.00  0.00     0.010 A 
ATOM     36  C   UNL A   1      40.995  28.453  28.454  1.00  0.00    -0.014 A 
BRANCH  36  37
ATOM     37  C   UNL A   1      42.418  28.281  28.177  1.00  0.00     0.031 A 
ATOM     38  C   UNL A   1      43.272  29.495  28.385  1.00  0.00     0.074 A 
ATOM     39  C   UNL A   1      42.842  27.134  27.631  1.00  0.00     0.049 A 
ATOM     40  N   UNL A   1      44.509  29.698  28.043  1.00  0.00    -0.248 NA
ATOM     41  C   UNL A   1      42.617  30.666  29.008  1.00  0.00     0.031 C 
ATOM     42  C   UNL A   1      42.012  25.953  27.380  1.00  0.00     0.029 A 
ATOM     43  N   UNL A   1      44.074  26.789  27.169  1.00  0.00    -0.354 N 
ATOM     44  C   UNL A   1      44.768  31.021  28.383  1.00  0.00     0.074 A 
ATOM     45  C   UNL A   1      43.547  31.596  28.886  1.00  0.00     0.031 C 
ATOM     46  C   UNL A   1      42.774  24.999  26.820  1.00  0.00     0.029 A 
ATOM     47  C   UNL A   1      44.123  25.522  26.643  1.00  0.00     0.049 A 
ATOM     48  H   UNL A   1      44.854  27.388  27.207  1.00  0.00     0.167 HD
ATOM     49  C   UNL A   1      45.943  31.681  28.298  1.00  0.00     0.031 A 
ATOM     50  C   UNL A   1      45.165  24.885  26.082  1.00  0.00     0.031 A 
ATOM     51  C   UNL A   1      47.126  31.051  27.790  1.00  0.00     0.049 A 
ATOM     52  C   UNL A   1      46.469  25.633  26.013  1.00  0.00     0.074 A 
ATOM     53  C   UNL A   1      48.403  31.560  27.680  1.00  0.00     0.029 A 
ATOM     54  N   UNL A   1      47.162  29.745  27.309  1.00  0.00    -0.354 N 
ATOM     55  N   UNL A   1      46.731  26.866  26.391  1.00  0.00    -0.248 NA
ATOM     56  C   UNL A   1      47.616  24.910  25.461  1.00  0.00     0.031 C 
ATOM     57  C   UNL A   1      49.200  30.575  27.086  1.00  0.00     0.029 A 
ATOM     58  C   UNL A   1      48.434  29.433  26.885  1.00  0.00     0.049 A 
ATOM     59  H   UNL A   1      46.389  29.135  27.277  1.00  0.00     0.167 HD
ATOM     60  C   UNL A   1      48.083  27.060  26.149  1.00  0.00     0.074 A 
ATOM     61  C   UNL A   1      48.583  25.807  25.606  1.00  0.00     0.031 C 
ATOM     62  C   UNL A   1      48.855  28.159  26.351  1.00  0.00     0.031 A 
BRANCH  49  63
ATOM     63  C   UNL A   1      45.966  33.118  28.744  1.00  0.00    -0.014 A 
ATOM     64  C   UNL A   1      45.882  34.175  27.814  1.00  0.00     0.010 A 
ATOM     65  C   UNL A   1      46.106  33.426  30.107  1.00  0.00     0.010 A 
ATOM     66  C   UNL A   1      45.987  35.504  28.234  1.00  0.00     0.020 A 
ATOM     67  C   UNL A   1      46.178  34.755  30.537  1.00  0.00     0.020 A 
ATOM     68  C   UNL A   1      46.137  35.785  29.594  1.00  0.00     0.054 A 
BRANCH  68  69
ATOM     69  S   UNL A   1      46.249  37.519  30.114  1.00  0.00     0.124 S 
ATOM     70  O   UNL A   1      44.960  38.049  29.677  1.00  0.00    -0.237 OA
ATOM     71  O   UNL A   1      46.423  37.408  31.561  1.00  0.00    -0.237 OA
ATOM     72  O   UNL A   1      47.409  38.026  29.387  1.00  0.00    -0.744 OA
ENDBRANCH  68  69
ENDBRANCH  49  63
BRANCH  50  73
ATOM     73  C   UNL A   1      45.015  23.485  25.606  1.00  0.00    -0.014 A 
ATOM     74  C   UNL A   1      44.687  23.224  24.264  1.00  0.00     0.010 A 
ATOM     75  C   UNL A   1      45.251  22.401  26.471  1.00  0.00     0.010 A 
ATOM     76  C   UNL A   1      44.579  21.909  23.800  1.00  0.00     0.020 A 
ATOM     77  C   UNL A   1      45.169  21.083  26.006  1.00  0.00     0.020 A 
ATOM     78  C   UNL A   1      44.822  20.846  24.676  1.00  0.00     0.054 A 
BRANCH  78  79
ATOM     79  S   UNL A   1      44.719  19.150  24.039  1.00  0.00     0.124 S 
ATOM     80  O   UNL A   1      44.562  19.373  22.606  1.00  0.00    -0.237 OA
ATOM     81  O   UNL A   1      45.998  18.580  24.455  1.00  0.00    -0.237 OA
ATOM     82  O   UNL A   1      43.550  18.599  24.720  1.00  0.00    -0.744 OA
ENDBRANCH  78  79
ENDBRANCH  50  73
BRANCH  62  83
ATOM     83  C   UNL A   1      50.310  28.028  26.010  1.00  0.00    -0.014 A 
ATOM     84  C   UNL A   1      51.241  27.602  26.972  1.00  0.00     0.010 A 
ATOM     85  C   UNL A   1      50.728  28.267  24.690  1.00  0.00     0.010 A 
ATOM     86  C   UNL A   1      52.582  27.452  26.623  1.00  0.00     0.020 A 
ATOM     87  C   UNL A   1      52.062  28.084  24.330  1.00  0.00     0.020 A 
ATOM     88  C   UNL A   1      52.982  27.691  25.304  1.00  0.00     0.054 A 
BRANCH  88  89
ATOM     89  S   UNL A   1      54.720  27.440  24.866  1.00  0.00     0.124 S 
ATOM     90  O   UNL A   1      55.127  28.784  24.465  1.00  0.00    -0.237 OA
ATOM     91  O   UNL A   1      55.297  26.954  26.118  1.00  0.00    -0.237 OA
ATOM     92  O   UNL A   1      54.667  26.456  23.788  1.00  0.00    -0.744 OA
ENDBRANCH  88  89
ENDBRANCH  62  83
ENDBRANCH  36  37
ENDBRANCH  29  31
ENDBRANCH  28  29
ENDBRANCH  27  28
ENDBRANCH  26  27
ENDBRANCH  25  26
ENDBRANCH   1  25
TORSDOF 23
ENDMDL
MODEL 2
REMARK VINA RESULT:      -9.0      1.282      2.131
REMARK SMILES CCC[NH2+][C@@H]1COC[C@@H]1C(=O)N[C@@](C)(CC)C(=O)OCCOCCOC(=O)c1ccc(-c2c3nc(c(-c4ccc(S(=O)(=O)[O-])cc4)c4ccc([nH]4)c(-c4ccc(S(=O)(=O)[O-])cc4)c4nc(c(-c5ccc(S(=O)(=O)[O-])cc5)c5ccc2[nH]5)C=C4)C=C3)cc1
REMARK SMILES IDX 21 1 20 2 19 3 17 4 18 5 13 6 14 7 12 8 10 9 11 10 9 12 5 13
REMARK SMILES IDX 6 14 7 15 8 16 4 17 3 20 2 21 1 22 15 23 16 24 22 25 23 26
REMARK SMILES IDX 24 27 25 28 26 29 27 30 28 31 29 32 87 33 30 34 86 35 31 36
REMARK SMILES IDX 32 37 33 38 80 39 34 40 85 41 79 42 81 43 35 44 84 45 78 46
REMARK SMILES IDX 77 47 36 49 66 50 47 51 65 52 48 53 51 54 64 55 82 56 49 57
REMARK SMILES IDX 50 58 63 60 83 61 52 62 37 63 38 64 46 65 39 66 45 67 40 68
REMARK SMILES IDX 41 69 42 70 43 71 44 72 67 73 68 74 76 75 69 76 75 77 70 78
REMARK SMILES IDX 71 79 72 80 73 81 74 82 53 83 54 84 62 85 55 86 61 87 56 88
REMARK SMILES IDX 57 89 58 90 59 91 60 92
REMARK H PARENT 12 11 4 18 4 19 81 48 51 59
REMARK Flexibility Score: inf
ROOT
ATOM      1  C   UNL A   1      32.205  29.262  27.181  1.00  0.00     0.202 C 
ENDROOT
BRANCH   1   2
ATOM      2  C   UNL A   1      31.513  28.265  26.225  1.00  0.00     0.261 C 
BRANCH   2   3
ATOM      3  O   UNL A   1      32.078  26.942  26.316  1.00  0.00    -0.462 OA
BRANCH   3   4
ATOM      4  C   UNL A   1      31.470  25.976  25.582  1.00  0.00     0.331 C 
ATOM      5  O   UNL A   1      30.297  26.035  25.233  1.00  0.00    -0.249 OA
BRANCH   4   6
ATOM      6  C   UNL A   1      32.361  24.720  25.339  1.00  0.00     0.135 C 
ATOM      7  C   UNL A   1      31.289  23.751  24.731  1.00  0.00     0.047 C 
BRANCH   6   8
ATOM      8  N   UNL A   1      33.410  24.883  24.267  1.00  0.00    -0.340 N 
ATOM      9  C   UNL A   1      34.223  24.140  23.473  1.00  0.00     0.232 C 
ATOM     10  O   UNL A   1      34.210  24.537  22.292  1.00  0.00    -0.274 OA
ATOM     11  H   UNL A   1      33.553  25.840  24.084  1.00  0.00     0.164 HD
BRANCH   9  12
ATOM     12  C   UNL A   1      35.304  23.106  23.842  1.00  0.00     0.164 C 
ATOM     13  C   UNL A   1      35.059  21.817  24.629  1.00  0.00     0.223 C 
ATOM     14  C   UNL A   1      35.407  22.281  26.034  1.00  0.00     0.225 C 
ATOM     15  O   UNL A   1      36.572  23.109  25.868  1.00  0.00    -0.374 OA
ATOM     16  C   UNL A   1      36.534  23.662  24.536  1.00  0.00     0.180 C 
BRANCH  13  17
ATOM     17  N   UNL A   1      33.907  20.967  24.296  1.00  0.00    -0.341 N 
ATOM     18  H   UNL A   1      33.067  21.402  24.678  1.00  0.00     0.346 HD
ATOM     19  H   UNL A   1      33.884  20.888  23.279  1.00  0.00     0.346 HD
BRANCH  17  20
ATOM     20  C   UNL A   1      33.992  19.616  24.815  1.00  0.00     0.260 C 
BRANCH  20  21
ATOM     21  C   UNL A   1      32.637  19.018  25.238  1.00  0.00     0.058 C 
ATOM     22  C   UNL A   1      32.621  17.497  25.309  1.00  0.00     0.010 C 
ENDBRANCH  20  21
ENDBRANCH  17  20
ENDBRANCH  13  17
ENDBRANCH   9  12
ENDBRANCH   6   8
BRANCH   6  23
ATOM     23  C   UNL A   1      32.889  23.903  26.582  1.00  0.00     0.037 C 
ATOM     24  C   UNL A   1      31.988  22.850  27.224  1.00  0.00     0.007 C 
ENDBRANCH   6  23
ENDBRANCH   4   6
ENDBRANCH   3   4
ENDBRANCH   2   3
ENDBRANCH   1   2
BRANCH   1  25
ATOM     25  O   UNL A   1      33.024  30.282  26.593  1.00  0.00    -0.374 OA
BRANCH  25  26
ATOM     26  C   UNL A   1      34.226  30.530  27.318  1.00  0.00     0.202 C 
BRANCH  26  27
ATOM     27  C   UNL A   1      35.092  29.312  27.615  1.00  0.00     0.261 C 
BRANCH  27  28
ATOM     28  O   UNL A   1      36.429  29.680  27.819  1.00  0.00    -0.460 OA
BRANCH  28  29
ATOM     29  C   UNL A   1      36.844  29.545  29.107  1.00  0.00     0.338 C 
ATOM     30  O   UNL A   1      36.186  29.461  30.109  1.00  0.00    -0.246 OA
BRANCH  29  31
ATOM     31  C   UNL A   1      38.266  29.220  28.931  1.00  0.00     0.060 A 
ATOM     32  C   UNL A   1      38.922  28.473  29.913  1.00  0.00     0.016 A 
ATOM     33  C   UNL A   1      38.856  29.502  27.691  1.00  0.00     0.016 A 
ATOM     34  C   UNL A   1      40.208  28.027  29.656  1.00  0.00     0.010 A 
ATOM     35  C   UNL A   1      40.089  28.987  27.400  1.00  0.00     0.010 A 
ATOM     36  C   UNL A   1      40.783  28.312  28.411  1.00  0.00    -0.014 A 
BRANCH  36  37
ATOM     37  C   UNL A   1      42.219  28.181  28.188  1.00  0.00     0.031 A 
ATOM     38  C   UNL A   1      43.034  29.410  28.461  1.00  0.00     0.074 A 
ATOM     39  C   UNL A   1      42.694  27.060  27.631  1.00  0.00     0.049 A 
ATOM     40  N   UNL A   1      44.278  29.652  28.176  1.00  0.00    -0.248 NA
ATOM     41  C   UNL A   1      42.325  30.549  29.086  1.00  0.00     0.031 C 
ATOM     42  C   UNL A   1      41.905  25.866  27.316  1.00  0.00     0.029 A 
ATOM     43  N   UNL A   1      43.952  26.757  27.211  1.00  0.00    -0.354 N 
ATOM     44  C   UNL A   1      44.490  30.972  28.560  1.00  0.00     0.074 A 
ATOM     45  C   UNL A   1      43.235  31.503  29.027  1.00  0.00     0.031 C 
ATOM     46  C   UNL A   1      42.713  24.946  26.765  1.00  0.00     0.029 A 
ATOM     47  C   UNL A   1      44.055  25.506  26.657  1.00  0.00     0.049 A 
ATOM     48  H   UNL A   1      44.715  27.374  27.297  1.00  0.00     0.167 HD
ATOM     49  C   UNL A   1      45.650  31.662  28.540  1.00  0.00     0.031 A 
ATOM     50  C   UNL A   1      45.134  24.909  26.123  1.00  0.00     0.031 A 
ATOM     51  C   UNL A   1      46.869  31.073  28.066  1.00  0.00     0.049 A 
ATOM     52  C   UNL A   1      46.420  25.690  26.126  1.00  0.00     0.074 A 
ATOM     53  C   UNL A   1      48.135  31.616  28.021  1.00  0.00     0.029 A 
ATOM     54  N   UNL A   1      46.956  29.782  27.554  1.00  0.00    -0.354 N 
ATOM     55  N   UNL A   1      46.636  26.919  26.546  1.00  0.00    -0.248 NA
ATOM     56  C   UNL A   1      47.607  25.010  25.605  1.00  0.00     0.031 C 
ATOM     57  C   UNL A   1      48.981  30.666  27.436  1.00  0.00     0.029 A 
ATOM     58  C   UNL A   1      48.253  29.512  27.174  1.00  0.00     0.049 A 
ATOM     59  H   UNL A   1      46.202  29.155  27.474  1.00  0.00     0.167 HD
ATOM     60  C   UNL A   1      47.992  27.151  26.365  1.00  0.00     0.074 A 
ATOM     61  C   UNL A   1      48.545  25.926  25.812  1.00  0.00     0.031 C 
ATOM     62  C   UNL A   1      48.726  28.263  26.626  1.00  0.00     0.031 A 
BRANCH  49  63
ATOM     63  C   UNL A   1      45.619  33.087  29.023  1.00  0.00    -0.014 A 
ATOM     64  C   UNL A   1      45.806  33.402  30.384  1.00  0.00     0.010 A 
ATOM     65  C   UNL A   1      45.368  34.128  28.114  1.00  0.00     0.010 A 
ATOM     66  C   UNL A   1      45.693  34.722  30.832  1.00  0.00     0.020 A 
ATOM     67  C   UNL A   1      45.288  35.455  28.551  1.00  0.00     0.020 A 
ATOM     68  C   UNL A   1      45.432  35.740  29.912  1.00  0.00     0.054 A 
BRANCH  68  69
ATOM     69  S   UNL A   1      45.311  37.445  30.516  1.00  0.00     0.124 S 
ATOM     70  O   UNL A   1      46.677  37.929  30.329  1.00  0.00    -0.237 OA
ATOM     71  O   UNL A   1      44.312  38.030  29.624  1.00  0.00    -0.237 OA
ATOM     72  O   UNL A   1      44.889  37.293  31.905  1.00  0.00    -0.744 OA
ENDBRANCH  68  69
ENDBRANCH  49  63
BRANCH  50  73
ATOM     73  C   UNL A   1      45.039  23.519  25.606  1.00  0.00    -0.014 A 
ATOM     74  C   UNL A   1      44.849  23.284  24.232  1.00  0.00     0.010 A 
ATOM     75  C   UNL A   1      45.191  22.418  26.468  1.00  0.00     0.010 A 
ATOM     76  C   UNL A   1      44.793  21.979  23.734  1.00  0.00     0.020 A 
ATOM     77  C   UNL A   1      45.161  21.110  25.971  1.00  0.00     0.020 A 
ATOM     78  C   UNL A   1      44.951  20.900  24.608  1.00  0.00     0.054 A 
BRANCH  78  79
ATOM     79  S   UNL A   1      44.921  19.216  23.930  1.00  0.00     0.124 S 
ATOM     80  O   UNL A   1      46.311  18.801  24.087  1.00  0.00    -0.237 OA
ATOM     81  O   UNL A   1      43.956  18.545  24.798  1.00  0.00    -0.237 OA
ATOM     82  O   UNL A   1      44.476  19.411  22.552  1.00  0.00    -0.744 OA
ENDBRANCH  78  79
ENDBRANCH  50  73
BRANCH  62  83
ATOM     83  C   UNL A   1      50.197  28.176  26.343  1.00  0.00    -0.014 A 
ATOM     84  C   UNL A   1      51.107  27.820  27.352  1.00  0.00     0.010 A 
ATOM     85  C   UNL A   1      50.654  28.385  25.030  1.00  0.00     0.010 A 
ATOM     86  C   UNL A   1      52.464  27.709  27.056  1.00  0.00     0.020 A 
ATOM     87  C   UNL A   1      52.006  28.240  24.725  1.00  0.00     0.020 A 
ATOM     88  C   UNL A   1      52.904  27.917  25.744  1.00  0.00     0.054 A 
BRANCH  88  89
ATOM     89  S   UNL A   1      54.665  27.717  25.378  1.00  0.00     0.124 S 
ATOM     90  O   UNL A   1      55.283  28.540  26.415  1.00  0.00    -0.237 OA
ATOM     91  O   UNL A   1      54.859  26.277  25.520  1.00  0.00    -0.237 OA
ATOM     92  O   UNL A   1      54.797  28.228  24.016  1.00  0.00    -0.744 OA
ENDBRANCH  88  89
ENDBRANCH  62  83
ENDBRANCH  36  37
ENDBRANCH  29  31
ENDBRANCH  28  29
ENDBRANCH  27  28
ENDBRANCH  26  27
ENDBRANCH  25  26
ENDBRANCH   1  25
TORSDOF 23
ENDMDL
MODEL 3
REMARK VINA RESULT:      -9.0      1.925      2.645
REMARK SMILES CCC[NH2+][C@@H]1COC[C@@H]1C(=O)N[C@@](C)(CC)C(=O)OCCOCCOC(=O)c1ccc(-c2c3nc(c(-c4ccc(S(=O)(=O)[O-])cc4)c4ccc([nH]4)c(-c4ccc(S(=O)(=O)[O-])cc4)c4nc(c(-c5ccc(S(=O)(=O)[O-])cc5)c5ccc2[nH]5)C=C4)C=C3)cc1
REMARK SMILES IDX 21 1 20 2 19 3 17 4 18 5 13 6 14 7 12 8 10 9 11 10 9 12 5 13
REMARK SMILES IDX 6 14 7 15 8 16 4 17 3 20 2 21 1 22 15 23 16 24 22 25 23 26
REMARK SMILES IDX 24 27 25 28 26 29 27 30 28 31 29 32 87 33 30 34 86 35 31 36
REMARK SMILES IDX 32 37 33 38 80 39 34 40 85 41 79 42 81 43 35 44 84 45 78 46
REMARK SMILES IDX 77 47 36 49 66 50 47 51 65 52 48 53 51 54 64 55 82 56 49 57
REMARK SMILES IDX 50 58 63 60 83 61 52 62 37 63 38 64 46 65 39 66 45 67 40 68
REMARK SMILES IDX 41 69 42 70 43 71 44 72 67 73 68 74 76 75 69 76 75 77 70 78
REMARK SMILES IDX 71 79 72 80 73 81 74 82 53 83 54 84 62 85 55 86 61 87 56 88
REMARK SMILES IDX 57 89 58 90 59 91 60 92
REMARK H PARENT 12 11 4 18 4 19 81 48 51 59
REMARK Flexibility Score: inf
ROOT
ATOM      1  C   UNL A   1      31.888  28.918  26.604  1.00  0.00     0.202 C 
ENDROOT
BRANCH   1   2
ATOM      2  C   UNL A   1      31.445  27.747  27.508  1.00  0.00     0.261 C 
BRANCH   2   3
ATOM      3  O   UNL A   1      31.506  26.480  26.826  1.00  0.00    -0.462 OA
BRANCH   3   4
ATOM      4  C   UNL A   1      32.604  26.262  26.058  1.00  0.00     0.331 C 
ATOM      5  O   UNL A   1      33.707  26.728  26.315  1.00  0.00    -0.249 OA
BRANCH   4   6
ATOM      6  C   UNL A   1      32.303  25.478  24.745  1.00  0.00     0.135 C 
ATOM      7  C   UNL A   1      32.198  26.677  23.740  1.00  0.00     0.047 C 
BRANCH   6   8
ATOM      8  N   UNL A   1      33.442  24.627  24.237  1.00  0.00    -0.340 N 
ATOM      9  C   UNL A   1      33.805  23.323  24.118  1.00  0.00     0.232 C 
ATOM     10  O   UNL A   1      34.271  23.073  22.990  1.00  0.00    -0.274 OA
ATOM     11  H   UNL A   1      34.153  25.204  23.877  1.00  0.00     0.164 HD
BRANCH   9  12
ATOM     12  C   UNL A   1      33.967  22.231  25.192  1.00  0.00     0.164 C 
ATOM     13  C   UNL A   1      35.214  22.019  26.052  1.00  0.00     0.223 C 
ATOM     14  C   UNL A   1      35.929  20.948  25.243  1.00  0.00     0.225 C 
ATOM     15  O   UNL A   1      34.884  20.057  24.811  1.00  0.00    -0.374 OA
ATOM     16  C   UNL A   1      33.660  20.815  24.739  1.00  0.00     0.180 C 
BRANCH  13  17
ATOM     17  N   UNL A   1      35.879  23.174  26.671  1.00  0.00    -0.341 N 
ATOM     18  H   UNL A   1      35.166  23.863  26.910  1.00  0.00     0.346 HD
ATOM     19  H   UNL A   1      36.378  22.821  27.489  1.00  0.00     0.346 HD
BRANCH  17  20
ATOM     20  C   UNL A   1      36.867  23.817  25.828  1.00  0.00     0.260 C 
BRANCH  20  21
ATOM     21  C   UNL A   1      38.218  24.071  26.524  1.00  0.00     0.058 C 
ATOM     22  C   UNL A   1      39.153  22.870  26.529  1.00  0.00     0.010 C 
ENDBRANCH  20  21
ENDBRANCH  17  20
ENDBRANCH  13  17
ENDBRANCH   9  12
ENDBRANCH   6   8
BRANCH   6  23
ATOM     23  C   UNL A   1      30.901  24.773  24.576  1.00  0.00     0.037 C 
ATOM     24  C   UNL A   1      30.423  24.380  23.179  1.00  0.00     0.007 C 
ENDBRANCH   6  23
ENDBRANCH   4   6
ENDBRANCH   3   4
ENDBRANCH   2   3
ENDBRANCH   1   2
BRANCH   1  25
ATOM     25  O   UNL A   1      32.291  30.135  27.247  1.00  0.00    -0.374 OA
BRANCH  25  26
ATOM     26  C   UNL A   1      33.701  30.349  27.220  1.00  0.00     0.202 C 
BRANCH  26  27
ATOM     27  C   UNL A   1      34.200  31.609  27.917  1.00  0.00     0.261 C 
BRANCH  27  28
ATOM     28  O   UNL A   1      35.573  31.524  28.191  1.00  0.00    -0.460 OA
BRANCH  28  29
ATOM     29  C   UNL A   1      35.861  31.435  29.517  1.00  0.00     0.338 C 
ATOM     30  O   UNL A   1      35.121  31.527  30.460  1.00  0.00    -0.246 OA
BRANCH  29  31
ATOM     31  C   UNL A   1      37.228  30.897  29.491  1.00  0.00     0.060 A 
ATOM     32  C   UNL A   1      37.867  30.599  30.698  1.00  0.00     0.016 A 
ATOM     33  C   UNL A   1      37.760  30.517  28.251  1.00  0.00     0.016 A 
ATOM     34  C   UNL A   1      39.081  29.935  30.655  1.00  0.00     0.010 A 
ATOM     35  C   UNL A   1      38.913  29.781  28.211  1.00  0.00     0.010 A 
ATOM     36  C   UNL A   1      39.600  29.556  29.410  1.00  0.00    -0.014 A 
BRANCH  36  37
ATOM     37  C   UNL A   1      40.997  29.167  29.254  1.00  0.00     0.031 A 
ATOM     38  C   UNL A   1      42.001  30.268  29.419  1.00  0.00     0.074 A 
ATOM     39  C   UNL A   1      41.287  27.927  28.840  1.00  0.00     0.049 A 
ATOM     40  N   UNL A   1      43.273  30.269  29.153  1.00  0.00    -0.248 NA
ATOM     41  C   UNL A   1      41.482  31.572  29.889  1.00  0.00     0.031 C 
ATOM     42  C   UNL A   1      40.315  26.851  28.630  1.00  0.00     0.029 A 
ATOM     43  N   UNL A   1      42.484  27.375  28.501  1.00  0.00    -0.354 N 
ATOM     44  C   UNL A   1      43.696  31.571  29.397  1.00  0.00     0.074 A 
ATOM     45  C   UNL A   1      42.540  32.350  29.758  1.00  0.00     0.031 C 
ATOM     46  C   UNL A   1      40.967  25.753  28.212  1.00  0.00     0.029 A 
ATOM     47  C   UNL A   1      42.385  26.070  28.091  1.00  0.00     0.049 A 
ATOM     48  H   UNL A   1      43.338  27.865  28.545  1.00  0.00     0.167 HD
ATOM     49  C   UNL A   1      44.955  32.054  29.342  1.00  0.00     0.031 A 
ATOM     50  C   UNL A   1      43.358  25.246  27.664  1.00  0.00     0.031 A 
ATOM     51  C   UNL A   1      46.066  31.224  28.978  1.00  0.00     0.049 A 
ATOM     52  C   UNL A   1      44.756  25.801  27.627  1.00  0.00     0.074 A 
ATOM     53  C   UNL A   1      47.406  31.542  28.919  1.00  0.00     0.029 A 
ATOM     54  N   UNL A   1      45.945  29.886  28.615  1.00  0.00    -0.354 N 
ATOM     55  N   UNL A   1      45.167  27.018  27.917  1.00  0.00    -0.248 NA
ATOM     56  C   UNL A   1      45.822  24.881  27.225  1.00  0.00     0.031 C 
ATOM     57  C   UNL A   1      48.090  30.406  28.472  1.00  0.00     0.029 A 
ATOM     58  C   UNL A   1      47.184  29.365  28.313  1.00  0.00     0.049 A 
ATOM     59  H   UNL A   1      45.097  29.386  28.577  1.00  0.00     0.167 HD
ATOM     60  C   UNL A   1      46.546  27.002  27.759  1.00  0.00     0.074 A 
ATOM     61  C   UNL A   1      46.895  25.648  27.363  1.00  0.00     0.031 C 
ATOM     62  C   UNL A   1      47.451  28.001  27.922  1.00  0.00     0.031 A 
BRANCH  49  63
ATOM     63  C   UNL A   1      45.154  33.511  29.664  1.00  0.00    -0.014 A 
ATOM     64  C   UNL A   1      45.045  34.502  28.668  1.00  0.00     0.010 A 
ATOM     65  C   UNL A   1      45.488  33.899  30.972  1.00  0.00     0.010 A 
ATOM     66  C   UNL A   1      45.313  35.842  28.963  1.00  0.00     0.020 A 
ATOM     67  C   UNL A   1      45.724  35.243  31.281  1.00  0.00     0.020 A 
ATOM     68  C   UNL A   1      45.653  36.203  30.269  1.00  0.00     0.054 A 
BRANCH  68  69
ATOM     69  S   UNL A   1      45.975  37.951  30.630  1.00  0.00     0.124 S 
ATOM     70  O   UNL A   1      47.430  38.020  30.518  1.00  0.00    -0.237 OA
ATOM     71  O   UNL A   1      45.233  38.637  29.574  1.00  0.00    -0.237 OA
ATOM     72  O   UNL A   1      45.445  38.130  31.978  1.00  0.00    -0.744 OA
ENDBRANCH  68  69
ENDBRANCH  49  63
BRANCH  50  73
ATOM     73  C   UNL A   1      43.041  23.841  27.299  1.00  0.00    -0.014 A 
ATOM     74  C   UNL A   1      42.821  22.880  28.302  1.00  0.00     0.010 A 
ATOM     75  C   UNL A   1      42.901  23.461  25.952  1.00  0.00     0.010 A 
ATOM     76  C   UNL A   1      42.489  21.564  27.966  1.00  0.00     0.020 A 
ATOM     77  C   UNL A   1      42.544  22.152  25.611  1.00  0.00     0.020 A 
ATOM     78  C   UNL A   1      42.351  21.209  26.622  1.00  0.00     0.054 A 
BRANCH  78  79
ATOM     79  S   UNL A   1      41.874  19.506  26.213  1.00  0.00     0.124 S 
ATOM     80  O   UNL A   1      40.442  19.642  25.968  1.00  0.00    -0.237 OA
ATOM     81  O   UNL A   1      42.694  19.223  25.038  1.00  0.00    -0.237 OA
ATOM     82  O   UNL A   1      42.236  18.753  27.411  1.00  0.00    -0.744 OA
ENDBRANCH  78  79
ENDBRANCH  50  73
BRANCH  62  83
ATOM     83  C   UNL A   1      48.891  27.642  27.702  1.00  0.00    -0.014 A 
ATOM     84  C   UNL A   1      49.498  27.830  26.449  1.00  0.00     0.010 A 
ATOM     85  C   UNL A   1      49.655  27.179  28.787  1.00  0.00     0.010 A 
ATOM     86  C   UNL A   1      50.848  27.525  26.278  1.00  0.00     0.020 A 
ATOM     87  C   UNL A   1      51.012  26.906  28.627  1.00  0.00     0.020 A 
ATOM     88  C   UNL A   1      51.595  27.067  27.368  1.00  0.00     0.054 A 
BRANCH  88  89
ATOM     89  S   UNL A   1      53.357  26.726  27.129  1.00  0.00     0.124 S 
ATOM     90  O   UNL A   1      53.676  27.580  25.988  1.00  0.00    -0.237 OA
ATOM     91  O   UNL A   1      53.938  27.137  28.405  1.00  0.00    -0.237 OA
ATOM     92  O   UNL A   1      53.399  25.290  26.865  1.00  0.00    -0.744 OA
ENDBRANCH  88  89
ENDBRANCH  62  83
ENDBRANCH  36  37
ENDBRANCH  29  31
ENDBRANCH  28  29
ENDBRANCH  27  28
ENDBRANCH  26  27
ENDBRANCH  25  26
ENDBRANCH   1  25
TORSDOF 23
ENDMDL
