MODEL 1
REMARK VINA RESULT:     -10.8      0.000      0.000
REMARK SMILES CC(C)=CCc1cccc2c(C(=O)OCCOCCOC(=O)c3ccc(-c4c5nc(c(-c6ccc(S(=O)(=O)[O-])cc6)c6ccc([nH]6)c(-c6ccc(S(=O)(=O)[O-])cc6)c6nc(c(-c7ccc(S(=O)(=O)[O-])cc7)c7ccc4[nH]7)C=C6)C=C5)cc3)c[nH]c12
REMARK SMILES IDX 18 1 17 2 16 3 15 4 14 5 12 6 13 7 11 8 6 9 7 10 85 11 8 12
REMARK SMILES IDX 10 13 84 14 9 15 83 16 5 18 4 19 1 20 2 21 3 22 19 23 20 24
REMARK SMILES IDX 21 25 22 26 23 27 24 28 82 29 25 30 81 31 26 32 27 33 28 34
REMARK SMILES IDX 75 35 29 36 80 37 74 38 76 39 30 40 79 41 73 42 72 43 31 45
REMARK SMILES IDX 61 46 42 47 60 48 43 49 46 50 59 51 77 52 44 53 45 54 58 56
REMARK SMILES IDX 78 57 47 58 32 59 33 60 41 61 34 62 40 63 35 64 36 65 37 66
REMARK SMILES IDX 38 67 39 68 62 69 63 70 71 71 64 72 70 73 65 74 66 75 67 76
REMARK SMILES IDX 68 77 69 78 48 79 49 80 57 81 50 82 56 83 51 84 52 85 53 86
REMARK SMILES IDX 54 87 55 88
REMARK H PARENT 84 17 76 44 46 55
REMARK Flexibility Score: inf
ROOT
ATOM      1  C   UNL A   1      32.051  30.274  25.921  1.00  0.00     0.202 C 
ENDROOT
BRANCH   1   2
ATOM      2  O   UNL A   1      32.912  29.391  25.196  1.00  0.00    -0.374 OA
BRANCH   2   3
ATOM      3  C   UNL A   1      32.401  28.892  23.958  1.00  0.00     0.202 C 
BRANCH   3   4
ATOM      4  C   UNL A   1      32.209  27.373  23.922  1.00  0.00     0.261 C 
BRANCH   4   5
ATOM      5  O   UNL A   1      33.477  26.715  23.764  1.00  0.00    -0.460 OA
BRANCH   5   6
ATOM      6  C   UNL A   1      33.543  25.803  22.755  1.00  0.00     0.340 C 
ATOM      7  O   UNL A   1      33.805  26.076  21.587  1.00  0.00    -0.246 OA
BRANCH   6   8
ATOM      8  C   UNL A   1      33.391  24.427  23.215  1.00  0.00     0.085 A 
ATOM      9  C   UNL A   1      34.272  21.157  24.580  1.00  0.00    -0.020 A 
ATOM     10  C   UNL A   1      35.666  21.232  24.757  1.00  0.00     0.006 A 
ATOM     11  C   UNL A   1      33.663  22.300  24.017  1.00  0.00     0.050 A 
ATOM     12  C   UNL A   1      36.400  22.351  24.369  1.00  0.00     0.001 A 
ATOM     13  C   UNL A   1      34.361  23.459  23.655  1.00  0.00     0.014 A 
ATOM     14  N   UNL A   1      32.335  22.531  23.733  1.00  0.00    -0.360 N 
ATOM     15  C   UNL A   1      35.762  23.468  23.821  1.00  0.00     0.011 A 
ATOM     16  C   UNL A   1      32.159  23.798  23.267  1.00  0.00     0.099 A 
ATOM     17  H   UNL A   1      31.614  21.872  23.850  1.00  0.00     0.166 HD
BRANCH   9  18
ATOM     18  C   UNL A   1      33.470  19.980  25.093  1.00  0.00     0.065 C 
BRANCH  18  19
ATOM     19  C   UNL A   1      33.939  18.628  24.629  1.00  0.00    -0.024 C 
ATOM     20  C   UNL A   1      32.348  18.441  22.700  1.00  0.00     0.039 C 
ATOM     21  C   UNL A   1      33.470  17.940  23.568  1.00  0.00    -0.080 C 
ATOM     22  C   UNL A   1      34.064  16.604  23.218  1.00  0.00     0.039 C 
ENDBRANCH  18  19
ENDBRANCH   9  18
ENDBRANCH   6   8
ENDBRANCH   5   6
ENDBRANCH   4   5
ENDBRANCH   3   4
ENDBRANCH   2   3
ENDBRANCH   1   2
BRANCH   1  23
ATOM     23  C   UNL A   1      32.728  31.050  27.055  1.00  0.00     0.261 C 
BRANCH  23  24
ATOM     24  O   UNL A   1      33.767  30.262  27.663  1.00  0.00    -0.460 OA
BRANCH  24  25
ATOM     25  C   UNL A   1      34.708  30.975  28.324  1.00  0.00     0.338 C 
ATOM     26  O   UNL A   1      34.543  32.020  28.932  1.00  0.00    -0.246 OA
BRANCH  25  27
ATOM     27  C   UNL A   1      35.979  30.221  28.366  1.00  0.00     0.060 A 
ATOM     28  C   UNL A   1      36.327  29.628  29.586  1.00  0.00     0.016 A 
ATOM     29  C   UNL A   1      36.843  30.143  27.270  1.00  0.00     0.016 A 
ATOM     30  C   UNL A   1      37.571  29.021  29.739  1.00  0.00     0.010 A 
ATOM     31  C   UNL A   1      38.095  29.537  27.427  1.00  0.00     0.010 A 
ATOM     32  C   UNL A   1      38.482  29.018  28.676  1.00  0.00    -0.014 A 
BRANCH  32  33
ATOM     33  C   UNL A   1      39.894  28.650  28.940  1.00  0.00     0.031 A 
ATOM     34  C   UNL A   1      40.785  29.653  29.625  1.00  0.00     0.074 A 
ATOM     35  C   UNL A   1      40.362  27.428  28.633  1.00  0.00     0.049 A 
ATOM     36  N   UNL A   1      42.036  29.539  29.985  1.00  0.00    -0.248 NA
ATOM     37  C   UNL A   1      40.180  30.957  29.946  1.00  0.00     0.031 C 
ATOM     38  C   UNL A   1      39.590  26.357  28.004  1.00  0.00     0.029 A 
ATOM     39  N   UNL A   1      41.609  26.883  28.815  1.00  0.00    -0.354 N 
ATOM     40  C   UNL A   1      42.371  30.756  30.570  1.00  0.00     0.074 A 
ATOM     41  C   UNL A   1      41.202  31.603  30.488  1.00  0.00     0.031 C 
ATOM     42  C   UNL A   1      40.383  25.281  27.853  1.00  0.00     0.029 A 
ATOM     43  C   UNL A   1      41.720  25.594  28.355  1.00  0.00     0.049 A 
ATOM     44  H   UNL A   1      42.353  27.370  29.239  1.00  0.00     0.167 HD
ATOM     45  C   UNL A   1      43.544  31.134  31.132  1.00  0.00     0.031 A 
ATOM     46  C   UNL A   1      42.781  24.764  28.332  1.00  0.00     0.031 A 
ATOM     47  C   UNL A   1      44.712  30.298  31.203  1.00  0.00     0.049 A 
ATOM     48  C   UNL A   1      44.090  25.221  28.921  1.00  0.00     0.074 A 
ATOM     49  C   UNL A   1      45.947  30.587  31.756  1.00  0.00     0.029 A 
ATOM     50  N   UNL A   1      44.789  29.007  30.702  1.00  0.00    -0.354 N 
ATOM     51  N   UNL A   1      44.385  26.367  29.487  1.00  0.00    -0.248 NA
ATOM     52  C   UNL A   1      45.205  24.264  28.884  1.00  0.00     0.031 C 
ATOM     53  C   UNL A   1      46.786  29.485  31.551  1.00  0.00     0.029 A 
ATOM     54  C   UNL A   1      46.056  28.491  30.919  1.00  0.00     0.049 A 
ATOM     55  H   UNL A   1      44.052  28.528  30.259  1.00  0.00     0.167 HD
ATOM     56  C   UNL A   1      45.708  26.256  29.903  1.00  0.00     0.074 A 
ATOM     57  C   UNL A   1      46.154  24.930  29.528  1.00  0.00     0.031 C 
ATOM     58  C   UNL A   1      46.482  27.167  30.543  1.00  0.00     0.031 A 
BRANCH  45  59
ATOM     59  C   UNL A   1      43.623  32.532  31.682  1.00  0.00    -0.014 A 
ATOM     60  C   UNL A   1      43.165  32.833  32.977  1.00  0.00     0.010 A 
ATOM     61  C   UNL A   1      44.171  33.560  30.893  1.00  0.00     0.010 A 
ATOM     62  C   UNL A   1      43.210  34.145  33.457  1.00  0.00     0.020 A 
ATOM     63  C   UNL A   1      44.241  34.869  31.378  1.00  0.00     0.020 A 
ATOM     64  C   UNL A   1      43.741  35.157  32.649  1.00  0.00     0.054 A 
BRANCH  64  65
ATOM     65  S   UNL A   1      43.790  36.852  33.292  1.00  0.00     0.124 S 
ATOM     66  O   UNL A   1      45.120  36.907  33.894  1.00  0.00    -0.237 OA
ATOM     67  O   UNL A   1      43.613  37.660  32.088  1.00  0.00    -0.237 OA
ATOM     68  O   UNL A   1      42.676  36.896  34.237  1.00  0.00    -0.744 OA
ENDBRANCH  64  65
ENDBRANCH  45  59
BRANCH  46  69
ATOM     69  C   UNL A   1      42.648  23.410  27.730  1.00  0.00    -0.014 A 
ATOM     70  C   UNL A   1      43.193  23.128  26.465  1.00  0.00     0.010 A 
ATOM     71  C   UNL A   1      41.981  22.389  28.432  1.00  0.00     0.010 A 
ATOM     72  C   UNL A   1      43.062  21.853  25.908  1.00  0.00     0.020 A 
ATOM     73  C   UNL A   1      41.869  21.107  27.887  1.00  0.00     0.020 A 
ATOM     74  C   UNL A   1      42.403  20.849  26.624  1.00  0.00     0.054 A 
BRANCH  74  75
ATOM     75  S   UNL A   1      42.298  19.184  25.909  1.00  0.00     0.124 S 
ATOM     76  O   UNL A   1      40.864  19.046  25.673  1.00  0.00    -0.237 OA
ATOM     77  O   UNL A   1      43.129  19.300  24.713  1.00  0.00    -0.237 OA
ATOM     78  O   UNL A   1      42.847  18.329  26.958  1.00  0.00    -0.744 OA
ENDBRANCH  74  75
ENDBRANCH  46  69
BRANCH  58  79
ATOM     79  C   UNL A   1      47.877  26.748  30.924  1.00  0.00    -0.014 A 
ATOM     80  C   UNL A   1      48.979  27.028  30.096  1.00  0.00     0.010 A 
ATOM     81  C   UNL A   1      48.091  26.104  32.156  1.00  0.00     0.010 A 
ATOM     82  C   UNL A   1      50.265  26.638  30.479  1.00  0.00     0.020 A 
ATOM     83  C   UNL A   1      49.379  25.733  32.552  1.00  0.00     0.020 A 
ATOM     84  C   UNL A   1      50.456  25.989  31.702  1.00  0.00     0.054 A 
BRANCH  84  85
ATOM     85  S   UNL A   1      52.138  25.518  32.194  1.00  0.00     0.124 S 
ATOM     86  O   UNL A   1      51.972  24.107  32.530  1.00  0.00    -0.237 OA
ATOM     87  O   UNL A   1      52.915  25.790  30.987  1.00  0.00    -0.237 OA
ATOM     88  O   UNL A   1      52.428  26.399  33.323  1.00  0.00    -0.744 OA
ENDBRANCH  84  85
ENDBRANCH  58  79
ENDBRANCH  32  33
ENDBRANCH  25  27
ENDBRANCH  24  25
ENDBRANCH  23  24
ENDBRANCH   1  23
TORSDOF 19
ENDMDL
MODEL 2
REMARK VINA RESULT:     -10.8      3.919      7.109
REMARK SMILES CC(C)=CCc1cccc2c(C(=O)OCCOCCOC(=O)c3ccc(-c4c5nc(c(-c6ccc(S(=O)(=O)[O-])cc6)c6ccc([nH]6)c(-c6ccc(S(=O)(=O)[O-])cc6)c6nc(c(-c7ccc(S(=O)(=O)[O-])cc7)c7ccc4[nH]7)C=C6)C=C5)cc3)c[nH]c12
REMARK SMILES IDX 18 1 17 2 16 3 15 4 14 5 12 6 13 7 11 8 6 9 7 10 85 11 8 12
REMARK SMILES IDX 10 13 84 14 9 15 83 16 5 18 4 19 1 20 2 21 3 22 19 23 20 24
REMARK SMILES IDX 21 25 22 26 23 27 24 28 82 29 25 30 81 31 26 32 27 33 28 34
REMARK SMILES IDX 75 35 29 36 80 37 74 38 76 39 30 40 79 41 73 42 72 43 31 45
REMARK SMILES IDX 61 46 42 47 60 48 43 49 46 50 59 51 77 52 44 53 45 54 58 56
REMARK SMILES IDX 78 57 47 58 32 59 33 60 41 61 34 62 40 63 35 64 36 65 37 66
REMARK SMILES IDX 38 67 39 68 62 69 63 70 71 71 64 72 70 73 65 74 66 75 67 76
REMARK SMILES IDX 68 77 69 78 48 79 49 80 57 81 50 82 56 83 51 84 52 85 53 86
REMARK SMILES IDX 54 87 55 88
REMARK H PARENT 84 17 76 44 46 55
REMARK Flexibility Score: inf
ROOT
ATOM      1  C   UNL A   1      34.750  34.137  30.429  1.00  0.00     0.202 C 
ENDROOT
BRANCH   1   2
ATOM      2  O   UNL A   1      33.765  34.174  31.464  1.00  0.00    -0.374 OA
BRANCH   2   3
ATOM      3  C   UNL A   1      34.247  33.989  32.798  1.00  0.00     0.202 C 
BRANCH   3   4
ATOM      4  C   UNL A   1      35.229  32.824  32.956  1.00  0.00     0.261 C 
BRANCH   4   5
ATOM      5  O   UNL A   1      35.929  32.931  34.207  1.00  0.00    -0.460 OA
BRANCH   5   6
ATOM      6  C   UNL A   1      37.114  33.600  34.160  1.00  0.00     0.340 C 
ATOM      7  O   UNL A   1      37.222  34.812  34.002  1.00  0.00    -0.246 OA
BRANCH   6   8
ATOM      8  C   UNL A   1      38.266  32.748  34.440  1.00  0.00     0.085 A 
ATOM      9  C   UNL A   1      40.544  29.901  34.251  1.00  0.00    -0.020 A 
ATOM     10  C   UNL A   1      39.903  29.018  33.362  1.00  0.00     0.006 A 
ATOM     11  C   UNL A   1      39.846  31.095  34.538  1.00  0.00     0.050 A 
ATOM     12  C   UNL A   1      38.646  29.291  32.828  1.00  0.00     0.001 A 
ATOM     13  C   UNL A   1      38.601  31.424  33.987  1.00  0.00     0.014 A 
ATOM     14  N   UNL A   1      40.210  32.145  35.352  1.00  0.00    -0.360 N 
ATOM     15  C   UNL A   1      37.987  30.487  33.130  1.00  0.00     0.011 A 
ATOM     16  C   UNL A   1      39.284  33.141  35.291  1.00  0.00     0.099 A 
ATOM     17  H   UNL A   1      41.027  32.171  35.900  1.00  0.00     0.166 HD
BRANCH   9  18
ATOM     18  C   UNL A   1      41.950  29.644  34.749  1.00  0.00     0.065 C 
BRANCH  18  19
ATOM     19  C   UNL A   1      42.726  28.606  33.984  1.00  0.00    -0.024 C 
ATOM     20  C   UNL A   1      42.346  26.737  35.611  1.00  0.00     0.039 C 
ATOM     21  C   UNL A   1      42.898  27.316  34.338  1.00  0.00    -0.080 C 
ATOM     22  C   UNL A   1      43.685  26.393  33.449  1.00  0.00     0.039 C 
ENDBRANCH  18  19
ENDBRANCH   9  18
ENDBRANCH   6   8
ENDBRANCH   5   6
ENDBRANCH   4   5
ENDBRANCH   3   4
ENDBRANCH   2   3
ENDBRANCH   1   2
BRANCH   1  23
ATOM     23  C   UNL A   1      34.356  33.326  29.191  1.00  0.00     0.261 C 
BRANCH  23  24
ATOM     24  O   UNL A   1      34.493  31.915  29.440  1.00  0.00    -0.460 OA
BRANCH  24  25
ATOM     25  C   UNL A   1      34.621  31.152  28.329  1.00  0.00     0.338 C 
ATOM     26  O   UNL A   1      33.901  31.165  27.344  1.00  0.00    -0.246 OA
BRANCH  25  27
ATOM     27  C   UNL A   1      35.886  30.390  28.381  1.00  0.00     0.060 A 
ATOM     28  C   UNL A   1      36.174  29.715  29.574  1.00  0.00     0.016 A 
ATOM     29  C   UNL A   1      36.801  30.378  27.325  1.00  0.00     0.016 A 
ATOM     30  C   UNL A   1      37.407  29.093  29.746  1.00  0.00     0.010 A 
ATOM     31  C   UNL A   1      38.043  29.755  27.500  1.00  0.00     0.010 A 
ATOM     32  C   UNL A   1      38.368  29.154  28.729  1.00  0.00    -0.014 A 
BRANCH  32  33
ATOM     33  C   UNL A   1      39.765  28.761  29.034  1.00  0.00     0.031 A 
ATOM     34  C   UNL A   1      40.647  29.740  29.763  1.00  0.00     0.074 A 
ATOM     35  C   UNL A   1      40.225  27.536  28.725  1.00  0.00     0.049 A 
ATOM     36  N   UNL A   1      41.883  29.602  30.164  1.00  0.00    -0.248 NA
ATOM     37  C   UNL A   1      40.051  31.048  30.083  1.00  0.00     0.031 C 
ATOM     38  C   UNL A   1      39.459  26.486  28.055  1.00  0.00     0.029 A 
ATOM     39  N   UNL A   1      41.457  26.970  28.941  1.00  0.00    -0.354 N 
ATOM     40  C   UNL A   1      42.216  30.805  30.777  1.00  0.00     0.074 A 
ATOM     41  C   UNL A   1      41.063  31.671  30.669  1.00  0.00     0.031 C 
ATOM     42  C   UNL A   1      40.241  25.400  27.915  1.00  0.00     0.029 A 
ATOM     43  C   UNL A   1      41.565  25.686  28.465  1.00  0.00     0.049 A 
ATOM     44  H   UNL A   1      42.193  27.439  29.397  1.00  0.00     0.167 HD
ATOM     45  C   UNL A   1      43.375  31.157  31.383  1.00  0.00     0.031 A 
ATOM     46  C   UNL A   1      42.614  24.841  28.465  1.00  0.00     0.031 A 
ATOM     47  C   UNL A   1      44.527  30.302  31.482  1.00  0.00     0.049 A 
ATOM     48  C   UNL A   1      43.908  25.269  29.105  1.00  0.00     0.074 A 
ATOM     49  C   UNL A   1      45.747  30.566  32.079  1.00  0.00     0.029 A 
ATOM     50  N   UNL A   1      44.603  29.018  30.964  1.00  0.00    -0.354 N 
ATOM     51  N   UNL A   1      44.201  26.403  29.697  1.00  0.00    -0.248 NA
ATOM     52  C   UNL A   1      45.010  24.296  29.090  1.00  0.00     0.031 C 
ATOM     53  C   UNL A   1      46.577  29.454  31.886  1.00  0.00     0.029 A 
ATOM     54  C   UNL A   1      45.854  28.480  31.216  1.00  0.00     0.049 A 
ATOM     55  H   UNL A   1      43.874  28.557  30.490  1.00  0.00     0.167 HD
ATOM     56  C   UNL A   1      45.508  26.266  30.155  1.00  0.00     0.074 A 
ATOM     57  C   UNL A   1      45.946  24.938  29.776  1.00  0.00     0.031 C 
ATOM     58  C   UNL A   1      46.273  27.156  30.834  1.00  0.00     0.031 A 
BRANCH  45  59
ATOM     59  C   UNL A   1      43.456  32.546  31.957  1.00  0.00    -0.014 A 
ATOM     60  C   UNL A   1      43.138  32.799  33.303  1.00  0.00     0.010 A 
ATOM     61  C   UNL A   1      43.864  33.614  31.137  1.00  0.00     0.010 A 
ATOM     62  C   UNL A   1      43.180  34.102  33.808  1.00  0.00     0.020 A 
ATOM     63  C   UNL A   1      43.932  34.915  31.644  1.00  0.00     0.020 A 
ATOM     64  C   UNL A   1      43.570  35.153  32.971  1.00  0.00     0.054 A 
BRANCH  64  65
ATOM     65  S   UNL A   1      43.619  36.835  33.648  1.00  0.00     0.124 S 
ATOM     66  O   UNL A   1      42.352  36.906  34.370  1.00  0.00    -0.237 OA
ATOM     67  O   UNL A   1      44.818  36.813  34.483  1.00  0.00    -0.237 OA
ATOM     68  O   UNL A   1      43.708  37.683  32.461  1.00  0.00    -0.744 OA
ENDBRANCH  64  65
ENDBRANCH  45  59
BRANCH  46  69
ATOM     69  C   UNL A   1      42.481  23.498  27.840  1.00  0.00    -0.014 A 
ATOM     70  C   UNL A   1      42.962  23.259  26.540  1.00  0.00     0.010 A 
ATOM     71  C   UNL A   1      41.880  22.444  28.552  1.00  0.00     0.010 A 
ATOM     72  C   UNL A   1      42.831  21.993  25.960  1.00  0.00     0.020 A 
ATOM     73  C   UNL A   1      41.770  21.172  27.984  1.00  0.00     0.020 A 
ATOM     74  C   UNL A   1      42.239  20.957  26.687  1.00  0.00     0.054 A 
BRANCH  74  75
ATOM     75  S   UNL A   1      42.135  19.306  25.940  1.00  0.00     0.124 S 
ATOM     76  O   UNL A   1      40.709  19.193  25.649  1.00  0.00    -0.237 OA
ATOM     77  O   UNL A   1      43.011  19.431  24.776  1.00  0.00    -0.237 OA
ATOM     78  O   UNL A   1      42.634  18.425  26.992  1.00  0.00    -0.744 OA
ENDBRANCH  74  75
ENDBRANCH  46  69
BRANCH  58  79
ATOM     79  C   UNL A   1      47.648  26.710  31.255  1.00  0.00    -0.014 A 
ATOM     80  C   UNL A   1      47.876  26.125  32.513  1.00  0.00     0.010 A 
ATOM     81  C   UNL A   1      48.720  26.839  30.354  1.00  0.00     0.010 A 
ATOM     82  C   UNL A   1      49.161  25.709  32.875  1.00  0.00     0.020 A 
ATOM     83  C   UNL A   1      50.001  26.403  30.704  1.00  0.00     0.020 A 
ATOM     84  C   UNL A   1      50.216  25.855  31.970  1.00  0.00     0.054 A 
BRANCH  84  85
ATOM     85  S   UNL A   1      51.869  25.281  32.447  1.00  0.00     0.124 S 
ATOM     86  O   UNL A   1      51.935  25.679  33.851  1.00  0.00    -0.237 OA
ATOM     87  O   UNL A   1      51.794  23.842  32.205  1.00  0.00    -0.237 OA
ATOM     88  O   UNL A   1      52.762  26.011  31.550  1.00  0.00    -0.744 OA
ENDBRANCH  84  85
ENDBRANCH  58  79
ENDBRANCH  32  33
ENDBRANCH  25  27
ENDBRANCH  24  25
ENDBRANCH  23  24
ENDBRANCH   1  23
TORSDOF 19
ENDMDL
MODEL 3
REMARK VINA RESULT:     -10.6      3.901      6.871
REMARK SMILES CC(C)=CCc1cccc2c(C(=O)OCCOCCOC(=O)c3ccc(-c4c5nc(c(-c6ccc(S(=O)(=O)[O-])cc6)c6ccc([nH]6)c(-c6ccc(S(=O)(=O)[O-])cc6)c6nc(c(-c7ccc(S(=O)(=O)[O-])cc7)c7ccc4[nH]7)C=C6)C=C5)cc3)c[nH]c12
REMARK SMILES IDX 18 1 17 2 16 3 15 4 14 5 12 6 13 7 11 8 6 9 7 10 85 11 8 12
REMARK SMILES IDX 10 13 84 14 9 15 83 16 5 18 4 19 1 20 2 21 3 22 19 23 20 24
REMARK SMILES IDX 21 25 22 26 23 27 24 28 82 29 25 30 81 31 26 32 27 33 28 34
REMARK SMILES IDX 75 35 29 36 80 37 74 38 76 39 30 40 79 41 73 42 72 43 31 45
REMARK SMILES IDX 61 46 42 47 60 48 43 49 46 50 59 51 77 52 44 53 45 54 58 56
REMARK SMILES IDX 78 57 47 58 32 59 33 60 41 61 34 62 40 63 35 64 36 65 37 66
REMARK SMILES IDX 38 67 39 68 62 69 63 70 71 71 64 72 70 73 65 74 66 75 67 76
REMARK SMILES IDX 68 77 69 78 48 79 49 80 57 81 50 82 56 83 51 84 52 85 53 86
REMARK SMILES IDX 54 87 55 88
REMARK H PARENT 84 17 76 44 46 55
REMARK Flexibility Score: inf
ROOT
ATOM      1  C   UNL A   1      33.529  34.525  28.035  1.00  0.00     0.202 C 
ENDROOT
BRANCH   1   2
ATOM      2  O   UNL A   1      34.096  35.648  28.716  1.00  0.00    -0.374 OA
BRANCH   2   3
ATOM      3  C   UNL A   1      33.204  36.390  29.552  1.00  0.00     0.202 C 
BRANCH   3   4
ATOM      4  C   UNL A   1      33.073  35.841  30.976  1.00  0.00     0.261 C 
BRANCH   4   5
ATOM      5  O   UNL A   1      34.306  35.226  31.388  1.00  0.00    -0.460 OA
BRANCH   5   6
ATOM      6  C   UNL A   1      34.192  34.273  32.354  1.00  0.00     0.340 C 
ATOM      7  O   UNL A   1      33.145  33.987  32.928  1.00  0.00    -0.246 OA
BRANCH   6   8
ATOM      8  C   UNL A   1      35.424  33.522  32.568  1.00  0.00     0.085 A 
ATOM      9  C   UNL A   1      38.284  32.061  34.307  1.00  0.00    -0.020 A 
ATOM     10  C   UNL A   1      38.164  32.552  35.620  1.00  0.00     0.006 A 
ATOM     11  C   UNL A   1      37.305  32.511  33.393  1.00  0.00     0.050 A 
ATOM     12  C   UNL A   1      37.163  33.451  35.984  1.00  0.00     0.001 A 
ATOM     13  C   UNL A   1      36.259  33.378  33.731  1.00  0.00     0.014 A 
ATOM     14  N   UNL A   1      37.151  32.206  32.058  1.00  0.00    -0.360 N 
ATOM     15  C   UNL A   1      36.207  33.868  35.053  1.00  0.00     0.011 A 
ATOM     16  C   UNL A   1      36.028  32.791  31.560  1.00  0.00     0.099 A 
ATOM     17  H   UNL A   1      37.768  31.643  31.538  1.00  0.00     0.166 HD
BRANCH   9  18
ATOM     18  C   UNL A   1      39.312  31.011  33.943  1.00  0.00     0.065 C 
BRANCH  18  19
ATOM     19  C   UNL A   1      38.772  29.794  33.242  1.00  0.00    -0.024 C 
ATOM     20  C   UNL A   1      40.889  28.457  33.363  1.00  0.00     0.039 C 
ATOM     21  C   UNL A   1      39.445  28.652  32.992  1.00  0.00    -0.080 C 
ATOM     22  C   UNL A   1      38.754  27.511  32.301  1.00  0.00     0.039 C 
ENDBRANCH  18  19
ENDBRANCH   9  18
ENDBRANCH   6   8
ENDBRANCH   5   6
ENDBRANCH   4   5
ENDBRANCH   3   4
ENDBRANCH   2   3
ENDBRANCH   1   2
BRANCH   1  23
ATOM     23  C   UNL A   1      33.733  33.177  28.735  1.00  0.00     0.261 C 
BRANCH  23  24
ATOM     24  O   UNL A   1      34.756  32.410  28.077  1.00  0.00    -0.460 OA
BRANCH  24  25
ATOM     25  C   UNL A   1      34.513  31.080  28.007  1.00  0.00     0.338 C 
ATOM     26  O   UNL A   1      33.451  30.542  27.743  1.00  0.00    -0.246 OA
BRANCH  25  27
ATOM     27  C   UNL A   1      35.779  30.326  28.129  1.00  0.00     0.060 A 
ATOM     28  C   UNL A   1      36.046  29.727  29.366  1.00  0.00     0.016 A 
ATOM     29  C   UNL A   1      36.713  30.253  27.091  1.00  0.00     0.016 A 
ATOM     30  C   UNL A   1      37.278  29.120  29.597  1.00  0.00     0.010 A 
ATOM     31  C   UNL A   1      37.953  29.647  27.327  1.00  0.00     0.010 A 
ATOM     32  C   UNL A   1      38.257  29.122  28.596  1.00  0.00    -0.014 A 
BRANCH  32  33
ATOM     33  C   UNL A   1      39.649  28.754  28.950  1.00  0.00     0.031 A 
ATOM     34  C   UNL A   1      40.487  29.747  29.711  1.00  0.00     0.074 A 
ATOM     35  C   UNL A   1      40.142  27.538  28.655  1.00  0.00     0.049 A 
ATOM     36  N   UNL A   1      41.711  29.630  30.155  1.00  0.00    -0.248 NA
ATOM     37  C   UNL A   1      39.857  31.044  30.012  1.00  0.00     0.031 C 
ATOM     38  C   UNL A   1      39.418  26.476  27.957  1.00  0.00     0.029 A 
ATOM     39  N   UNL A   1      41.375  26.993  28.913  1.00  0.00    -0.354 N 
ATOM     40  C   UNL A   1      42.000  30.837  30.781  1.00  0.00     0.074 A 
ATOM     41  C   UNL A   1      40.837  31.683  30.634  1.00  0.00     0.031 C 
ATOM     42  C   UNL A   1      40.224  25.405  27.843  1.00  0.00     0.029 A 
ATOM     43  C   UNL A   1      41.522  25.713  28.440  1.00  0.00     0.049 A 
ATOM     44  H   UNL A   1      42.086  27.475  29.396  1.00  0.00     0.167 HD
ATOM     45  C   UNL A   1      43.130  31.209  31.429  1.00  0.00     0.031 A 
ATOM     46  C   UNL A   1      42.586  24.886  28.476  1.00  0.00     0.031 A 
ATOM     47  C   UNL A   1      44.294  30.375  31.567  1.00  0.00     0.049 A 
ATOM     48  C   UNL A   1      43.849  25.336  29.162  1.00  0.00     0.074 A 
ATOM     49  C   UNL A   1      45.487  30.658  32.208  1.00  0.00     0.029 A 
ATOM     50  N   UNL A   1      44.410  29.093  31.050  1.00  0.00    -0.354 N 
ATOM     51  N   UNL A   1      44.100  26.473  29.766  1.00  0.00    -0.248 NA
ATOM     52  C   UNL A   1      44.968  24.382  29.185  1.00  0.00     0.031 C 
ATOM     53  C   UNL A   1      46.342  29.562  32.042  1.00  0.00     0.029 A 
ATOM     54  C   UNL A   1      45.661  28.577  31.345  1.00  0.00     0.049 A 
ATOM     55  H   UNL A   1      43.708  28.620  30.549  1.00  0.00     0.167 HD
ATOM     56  C   UNL A   1      45.393  26.359  30.269  1.00  0.00     0.074 A 
ATOM     57  C   UNL A   1      45.868  25.040  29.904  1.00  0.00     0.031 C 
ATOM     58  C   UNL A   1      46.117  27.261  30.977  1.00  0.00     0.031 A 
BRANCH  45  59
ATOM     59  C   UNL A   1      43.166  32.598  32.007  1.00  0.00    -0.014 A 
ATOM     60  C   UNL A   1      43.628  33.691  31.251  1.00  0.00     0.010 A 
ATOM     61  C   UNL A   1      42.723  32.814  33.324  1.00  0.00     0.010 A 
ATOM     62  C   UNL A   1      43.691  34.967  31.818  1.00  0.00     0.020 A 
ATOM     63  C   UNL A   1      42.761  34.093  33.887  1.00  0.00     0.020 A 
ATOM     64  C   UNL A   1      43.264  35.158  33.136  1.00  0.00     0.054 A 
BRANCH  64  65
ATOM     65  S   UNL A   1      43.354  36.822  33.851  1.00  0.00     0.124 S 
ATOM     66  O   UNL A   1      41.987  37.020  34.325  1.00  0.00    -0.237 OA
ATOM     67  O   UNL A   1      44.365  36.672  34.894  1.00  0.00    -0.237 OA
ATOM     68  O   UNL A   1      43.749  37.662  32.723  1.00  0.00    -0.744 OA
ENDBRANCH  64  65
ENDBRANCH  45  59
BRANCH  46  69
ATOM     69  C   UNL A   1      42.500  23.543  27.844  1.00  0.00    -0.014 A 
ATOM     70  C   UNL A   1      42.946  23.337  26.527  1.00  0.00     0.010 A 
ATOM     71  C   UNL A   1      41.977  22.455  28.568  1.00  0.00     0.010 A 
ATOM     72  C   UNL A   1      42.860  22.070  25.941  1.00  0.00     0.020 A 
ATOM     73  C   UNL A   1      41.912  21.183  27.993  1.00  0.00     0.020 A 
ATOM     74  C   UNL A   1      42.346  21.000  26.679  1.00  0.00     0.054 A 
BRANCH  74  75
ATOM     75  S   UNL A   1      42.300  19.352  25.922  1.00  0.00     0.124 S 
ATOM     76  O   UNL A   1      43.159  19.529  24.755  1.00  0.00    -0.237 OA
ATOM     77  O   UNL A   1      42.838  18.502  26.982  1.00  0.00    -0.237 OA
ATOM     78  O   UNL A   1      40.882  19.150  25.633  1.00  0.00    -0.744 OA
ENDBRANCH  74  75
ENDBRANCH  46  69
BRANCH  58  79
ATOM     79  C   UNL A   1      47.484  26.839  31.445  1.00  0.00    -0.014 A 
ATOM     80  C   UNL A   1      47.667  26.175  32.671  1.00  0.00     0.010 A 
ATOM     81  C   UNL A   1      48.598  27.072  30.619  1.00  0.00     0.010 A 
ATOM     82  C   UNL A   1      48.945  25.784  33.078  1.00  0.00     0.020 A 
ATOM     83  C   UNL A   1      49.875  26.661  31.012  1.00  0.00     0.020 A 
ATOM     84  C   UNL A   1      50.042  26.033  32.247  1.00  0.00     0.054 A 
BRANCH  84  85
ATOM     85  S   UNL A   1      51.689  25.490  32.780  1.00  0.00     0.124 S 
ATOM     86  O   UNL A   1      51.632  24.054  32.524  1.00  0.00    -0.237 OA
ATOM     87  O   UNL A   1      52.578  26.249  31.904  1.00  0.00    -0.237 OA
ATOM     88  O   UNL A   1      51.740  25.871  34.189  1.00  0.00    -0.744 OA
ENDBRANCH  84  85
ENDBRANCH  58  79
ENDBRANCH  32  33
ENDBRANCH  25  27
ENDBRANCH  24  25
ENDBRANCH  23  24
ENDBRANCH   1  23
TORSDOF 19
ENDMDL
