MODEL 1
REMARK VINA RESULT:     -10.1      0.000      0.000
REMARK SMILES COc1ccc2cc([C@@H](C)C(=O)OCCOCCOC(=O)c3ccc(-c4c5nc(c(-c6ccc(S(=O)(=O)[O-])cc6)c6ccc([nH]6)c(-c6ccc(S(=O)(=O)[O-])cc6)c6nc(c(-c7ccc(S(=O)(=O)[O-])cc7)c7ccc4[nH]7)C=C6)C=C5)cc3)ccc2c1
REMARK SMILES IDX 17 1 16 2 15 3 14 4 13 5 11 6 12 7 9 8 10 9 8 10 3 11 4 12
REMARK SMILES IDX 85 13 5 14 84 15 6 16 83 17 7 18 82 19 2 20 1 21 18 22 19 23
REMARK SMILES IDX 20 24 21 25 22 26 23 27 81 28 24 29 80 30 25 31 26 32 27 33
REMARK SMILES IDX 74 34 28 35 79 36 73 37 75 38 29 39 78 40 72 41 71 42 30 44
REMARK SMILES IDX 60 45 41 46 59 47 42 48 45 49 58 50 76 51 43 52 44 53 57 55
REMARK SMILES IDX 77 56 46 57 31 58 32 59 40 60 33 61 39 62 34 63 35 64 36 65
REMARK SMILES IDX 37 66 38 67 61 68 62 69 70 70 63 71 69 72 64 73 65 74 66 75
REMARK SMILES IDX 67 76 68 77 47 78 48 79 56 80 49 81 55 82 50 83 51 84 52 85
REMARK SMILES IDX 53 86 54 87
REMARK H PARENT 75 43 45 54
REMARK Flexibility Score: inf
ROOT
ATOM      1  C   UNL A   1      45.584  24.017  24.984  1.00  0.00     0.202 C 
ENDROOT
BRANCH   1   2
ATOM      2  O   UNL A   1      45.354  23.143  23.879  1.00  0.00    -0.374 OA
BRANCH   2   3
ATOM      3  C   UNL A   1      44.969  21.800  24.176  1.00  0.00     0.202 C 
BRANCH   3   4
ATOM      4  C   UNL A   1      44.198  21.595  25.482  1.00  0.00     0.261 C 
BRANCH   4   5
ATOM      5  O   UNL A   1      42.800  21.358  25.236  1.00  0.00    -0.463 OA
BRANCH   5   6
ATOM      6  C   UNL A   1      42.030  21.141  26.333  1.00  0.00     0.313 C 
ATOM      7  O   UNL A   1      41.867  20.043  26.861  1.00  0.00    -0.252 OA
BRANCH   6   8
ATOM      8  C   UNL A   1      41.334  22.386  26.857  1.00  0.00     0.126 C 
ATOM      9  C   UNL A   1      41.507  22.461  28.372  1.00  0.00     0.025 C 
BRANCH   8  10
ATOM     10  C   UNL A   1      39.889  22.633  26.434  1.00  0.00    -0.033 A 
ATOM     11  C   UNL A   1      34.945  22.251  25.253  1.00  0.00     0.119 A 
ATOM     12  C   UNL A   1      35.518  21.026  24.920  1.00  0.00     0.047 A 
ATOM     13  C   UNL A   1      35.759  23.284  25.720  1.00  0.00     0.055 A 
ATOM     14  C   UNL A   1      36.891  20.823  25.100  1.00  0.00     0.012 A 
ATOM     15  C   UNL A   1      37.137  23.090  25.921  1.00  0.00    -0.015 A 
ATOM     16  C   UNL A   1      37.713  21.838  25.618  1.00  0.00    -0.018 A 
ATOM     17  C   UNL A   1      37.948  24.108  26.438  1.00  0.00     0.009 A 
ATOM     18  C   UNL A   1      39.085  21.629  25.868  1.00  0.00     0.013 A 
ATOM     19  C   UNL A   1      39.303  23.882  26.693  1.00  0.00     0.005 A 
BRANCH  11  20
ATOM     20  O   UNL A   1      33.617  22.562  25.136  1.00  0.00    -0.497 OA
ATOM     21  C   UNL A   1      32.725  21.451  25.122  1.00  0.00     0.278 C 
ENDBRANCH  11  20
ENDBRANCH   8  10
ENDBRANCH   6   8
ENDBRANCH   5   6
ENDBRANCH   4   5
ENDBRANCH   3   4
ENDBRANCH   2   3
ENDBRANCH   1   2
BRANCH   1  22
ATOM     22  C   UNL A   1      44.663  25.237  25.100  1.00  0.00     0.261 C 
BRANCH  22  23
ATOM     23  O   UNL A   1      43.439  24.937  25.792  1.00  0.00    -0.460 OA
BRANCH  23  24
ATOM     24  C   UNL A   1      42.528  25.936  25.791  1.00  0.00     0.338 C 
ATOM     25  O   UNL A   1      41.716  26.193  24.912  1.00  0.00    -0.246 OA
BRANCH  24  26
ATOM     26  C   UNL A   1      42.500  26.605  27.105  1.00  0.00     0.060 A 
ATOM     27  C   UNL A   1      41.568  26.139  28.042  1.00  0.00     0.016 A 
ATOM     28  C   UNL A   1      43.301  27.714  27.392  1.00  0.00     0.016 A 
ATOM     29  C   UNL A   1      41.385  26.822  29.242  1.00  0.00     0.010 A 
ATOM     30  C   UNL A   1      43.112  28.399  28.597  1.00  0.00     0.010 A 
ATOM     31  C   UNL A   1      42.122  27.983  29.506  1.00  0.00    -0.014 A 
BRANCH  31  32
ATOM     32  C   UNL A   1      41.728  28.839  30.650  1.00  0.00     0.031 A 
ATOM     33  C   UNL A   1      42.535  28.779  31.919  1.00  0.00     0.074 A 
ATOM     34  C   UNL A   1      40.697  29.696  30.550  1.00  0.00     0.049 A 
ATOM     35  N   UNL A   1      42.391  29.460  33.027  1.00  0.00    -0.248 NA
ATOM     36  C   UNL A   1      43.653  27.822  31.941  1.00  0.00     0.031 C 
ATOM     37  C   UNL A   1      39.858  29.873  29.367  1.00  0.00     0.029 A 
ATOM     38  N   UNL A   1      40.184  30.580  31.467  1.00  0.00    -0.354 N 
ATOM     39  C   UNL A   1      43.391  29.009  33.880  1.00  0.00     0.074 A 
ATOM     40  C   UNL A   1      44.115  27.975  33.172  1.00  0.00     0.031 C 
ATOM     41  C   UNL A   1      38.925  30.804  29.632  1.00  0.00     0.029 A 
ATOM     42  C   UNL A   1      39.090  31.272  31.008  1.00  0.00     0.049 A 
ATOM     43  H   UNL A   1      40.564  30.706  32.365  1.00  0.00     0.167 HD
ATOM     44  C   UNL A   1      43.687  29.420  35.137  1.00  0.00     0.031 A 
ATOM     45  C   UNL A   1      38.300  32.170  31.629  1.00  0.00     0.031 A 
ATOM     46  C   UNL A   1      42.957  30.437  35.847  1.00  0.00     0.049 A 
ATOM     47  C   UNL A   1      38.613  32.583  33.042  1.00  0.00     0.074 A 
ATOM     48  C   UNL A   1      43.193  30.940  37.115  1.00  0.00     0.029 A 
ATOM     49  N   UNL A   1      41.838  31.095  35.357  1.00  0.00    -0.354 N 
ATOM     50  N   UNL A   1      39.587  32.176  33.821  1.00  0.00    -0.248 NA
ATOM     51  C   UNL A   1      37.731  33.587  33.652  1.00  0.00     0.031 C 
ATOM     52  C   UNL A   1      42.184  31.864  37.412  1.00  0.00     0.029 A 
ATOM     53  C   UNL A   1      41.353  31.978  36.308  1.00  0.00     0.049 A 
ATOM     54  H   UNL A   1      41.447  30.954  34.465  1.00  0.00     0.167 HD
ATOM     55  C   UNL A   1      39.446  32.887  35.008  1.00  0.00     0.074 A 
ATOM     56  C   UNL A   1      38.300  33.758  34.838  1.00  0.00     0.031 C 
ATOM     57  C   UNL A   1      40.202  32.828  36.134  1.00  0.00     0.031 A 
BRANCH  44  58
ATOM     58  C   UNL A   1      44.824  28.722  35.833  1.00  0.00    -0.014 A 
ATOM     59  C   UNL A   1      44.612  27.566  36.609  1.00  0.00     0.010 A 
ATOM     60  C   UNL A   1      46.126  29.243  35.725  1.00  0.00     0.010 A 
ATOM     61  C   UNL A   1      45.668  26.985  37.315  1.00  0.00     0.020 A 
ATOM     62  C   UNL A   1      47.190  28.648  36.407  1.00  0.00     0.020 A 
ATOM     63  C   UNL A   1      46.949  27.539  37.221  1.00  0.00     0.054 A 
BRANCH  63  64
ATOM     64  S   UNL A   1      48.300  26.787  38.169  1.00  0.00     0.124 S 
ATOM     65  O   UNL A   1      47.918  27.112  39.542  1.00  0.00    -0.237 OA
ATOM     66  O   UNL A   1      48.201  25.375  37.809  1.00  0.00    -0.237 OA
ATOM     67  O   UNL A   1      49.493  27.470  37.676  1.00  0.00    -0.744 OA
ENDBRANCH  63  64
ENDBRANCH  44  58
BRANCH  45  68
ATOM     68  C   UNL A   1      37.128  32.728  30.903  1.00  0.00    -0.014 A 
ATOM     69  C   UNL A   1      35.822  32.321  31.222  1.00  0.00     0.010 A 
ATOM     70  C   UNL A   1      37.317  33.723  29.926  1.00  0.00     0.010 A 
ATOM     71  C   UNL A   1      34.724  32.908  30.585  1.00  0.00     0.020 A 
ATOM     72  C   UNL A   1      36.223  34.327  29.303  1.00  0.00     0.020 A 
ATOM     73  C   UNL A   1      34.932  33.916  29.637  1.00  0.00     0.054 A 
BRANCH  73  74
ATOM     74  S   UNL A   1      33.492  34.741  28.903  1.00  0.00     0.124 S 
ATOM     75  O   UNL A   1      33.067  33.774  27.896  1.00  0.00    -0.237 OA
ATOM     76  O   UNL A   1      32.599  34.896  30.049  1.00  0.00    -0.237 OA
ATOM     77  O   UNL A   1      34.043  35.989  28.382  1.00  0.00    -0.744 OA
ENDBRANCH  73  74
ENDBRANCH  45  68
BRANCH  57  78
ATOM     78  C   UNL A   1      39.828  33.743  37.270  1.00  0.00    -0.014 A 
ATOM     79  C   UNL A   1      38.897  33.349  38.248  1.00  0.00     0.010 A 
ATOM     80  C   UNL A   1      40.459  34.995  37.391  1.00  0.00     0.010 A 
ATOM     81  C   UNL A   1      38.583  34.202  39.309  1.00  0.00     0.020 A 
ATOM     82  C   UNL A   1      40.166  35.841  38.464  1.00  0.00     0.020 A 
ATOM     83  C   UNL A   1      39.218  35.445  39.409  1.00  0.00     0.054 A 
BRANCH  83  84
ATOM     84  S   UNL A   1      38.823  36.520  40.816  1.00  0.00     0.124 S 
ATOM     85  O   UNL A   1      37.867  35.704  41.561  1.00  0.00    -0.237 OA
ATOM     86  O   UNL A   1      40.123  36.706  41.455  1.00  0.00    -0.237 OA
ATOM     87  O   UNL A   1      38.266  37.717  40.190  1.00  0.00    -0.744 OA
ENDBRANCH  83  84
ENDBRANCH  57  78
ENDBRANCH  31  32
ENDBRANCH  24  26
ENDBRANCH  23  24
ENDBRANCH  22  23
ENDBRANCH   1  22
TORSDOF 19
ENDMDL
MODEL 2
REMARK VINA RESULT:      -9.8      2.160      3.638
REMARK SMILES COc1ccc2cc([C@@H](C)C(=O)OCCOCCOC(=O)c3ccc(-c4c5nc(c(-c6ccc(S(=O)(=O)[O-])cc6)c6ccc([nH]6)c(-c6ccc(S(=O)(=O)[O-])cc6)c6nc(c(-c7ccc(S(=O)(=O)[O-])cc7)c7ccc4[nH]7)C=C6)C=C5)cc3)ccc2c1
REMARK SMILES IDX 17 1 16 2 15 3 14 4 13 5 11 6 12 7 9 8 10 9 8 10 3 11 4 12
REMARK SMILES IDX 85 13 5 14 84 15 6 16 83 17 7 18 82 19 2 20 1 21 18 22 19 23
REMARK SMILES IDX 20 24 21 25 22 26 23 27 81 28 24 29 80 30 25 31 26 32 27 33
REMARK SMILES IDX 74 34 28 35 79 36 73 37 75 38 29 39 78 40 72 41 71 42 30 44
REMARK SMILES IDX 60 45 41 46 59 47 42 48 45 49 58 50 76 51 43 52 44 53 57 55
REMARK SMILES IDX 77 56 46 57 31 58 32 59 40 60 33 61 39 62 34 63 35 64 36 65
REMARK SMILES IDX 37 66 38 67 61 68 62 69 70 70 63 71 69 72 64 73 65 74 66 75
REMARK SMILES IDX 67 76 68 77 47 78 48 79 56 80 49 81 55 82 50 83 51 84 52 85
REMARK SMILES IDX 53 86 54 87
REMARK H PARENT 75 43 45 54
REMARK Flexibility Score: inf
ROOT
ATOM      1  C   UNL A   1      40.634  21.735  26.259  1.00  0.00     0.202 C 
ENDROOT
BRANCH   1   2
ATOM      2  O   UNL A   1      39.408  21.132  25.845  1.00  0.00    -0.374 OA
BRANCH   2   3
ATOM      3  C   UNL A   1      38.267  21.983  25.726  1.00  0.00     0.202 C 
BRANCH   3   4
ATOM      4  C   UNL A   1      37.149  21.483  24.809  1.00  0.00     0.261 C 
BRANCH   4   5
ATOM      5  O   UNL A   1      35.990  21.084  25.562  1.00  0.00    -0.463 OA
BRANCH   5   6
ATOM      6  C   UNL A   1      34.866  21.819  25.362  1.00  0.00     0.313 C 
ATOM      7  O   UNL A   1      34.217  21.826  24.319  1.00  0.00    -0.252 OA
BRANCH   6   8
ATOM      8  C   UNL A   1      34.477  22.688  26.546  1.00  0.00     0.126 C 
ATOM      9  C   UNL A   1      33.844  21.815  27.627  1.00  0.00     0.025 C 
BRANCH   8  10
ATOM     10  C   UNL A   1      33.657  23.946  26.275  1.00  0.00    -0.033 A 
ATOM     11  C   UNL A   1      31.646  28.227  24.372  1.00  0.00     0.119 A 
ATOM     12  C   UNL A   1      32.992  28.240  24.015  1.00  0.00     0.047 A 
ATOM     13  C   UNL A   1      31.160  27.194  25.177  1.00  0.00     0.055 A 
ATOM     14  C   UNL A   1      33.835  27.199  24.423  1.00  0.00     0.012 A 
ATOM     15  C   UNL A   1      31.991  26.135  25.580  1.00  0.00    -0.015 A 
ATOM     16  C   UNL A   1      33.347  26.128  25.190  1.00  0.00    -0.018 A 
ATOM     17  C   UNL A   1      31.495  25.071  26.344  1.00  0.00     0.009 A 
ATOM     18  C   UNL A   1      34.166  25.038  25.552  1.00  0.00     0.013 A 
ATOM     19  C   UNL A   1      32.315  23.991  26.684  1.00  0.00     0.005 A 
BRANCH  11  20
ATOM     20  O   UNL A   1      30.724  29.176  24.023  1.00  0.00    -0.497 OA
ATOM     21  C   UNL A   1      30.449  29.280  22.628  1.00  0.00     0.278 C 
ENDBRANCH  11  20
ENDBRANCH   8  10
ENDBRANCH   6   8
ENDBRANCH   5   6
ENDBRANCH   4   5
ENDBRANCH   3   4
ENDBRANCH   2   3
ENDBRANCH   1   2
BRANCH   1  22
ATOM     22  C   UNL A   1      40.541  23.141  26.864  1.00  0.00     0.261 C 
BRANCH  22  23
ATOM     23  O   UNL A   1      41.668  23.964  26.516  1.00  0.00    -0.460 OA
BRANCH  23  24
ATOM     24  C   UNL A   1      41.374  25.268  26.314  1.00  0.00     0.338 C 
ATOM     25  O   UNL A   1      40.998  25.786  25.270  1.00  0.00    -0.246 OA
BRANCH  24  26
ATOM     26  C   UNL A   1      41.386  26.000  27.593  1.00  0.00     0.060 A 
ATOM     27  C   UNL A   1      40.234  25.924  28.387  1.00  0.00     0.016 A 
ATOM     28  C   UNL A   1      42.458  26.812  27.975  1.00  0.00     0.016 A 
ATOM     29  C   UNL A   1      40.121  26.711  29.530  1.00  0.00     0.010 A 
ATOM     30  C   UNL A   1      42.340  27.605  29.122  1.00  0.00     0.010 A 
ATOM     31  C   UNL A   1      41.153  27.591  29.878  1.00  0.00    -0.014 A 
BRANCH  31  32
ATOM     32  C   UNL A   1      40.907  28.607  30.931  1.00  0.00     0.031 A 
ATOM     33  C   UNL A   1      41.760  28.594  32.170  1.00  0.00     0.074 A 
ATOM     34  C   UNL A   1      39.973  29.559  30.768  1.00  0.00     0.049 A 
ATOM     35  N   UNL A   1      41.742  29.404  33.198  1.00  0.00    -0.248 NA
ATOM     36  C   UNL A   1      42.767  27.525  32.263  1.00  0.00     0.031 C 
ATOM     37  C   UNL A   1      39.104  29.699  29.601  1.00  0.00     0.029 A 
ATOM     38  N   UNL A   1      39.601  30.590  31.595  1.00  0.00    -0.354 N 
ATOM     39  C   UNL A   1      42.725  28.938  34.062  1.00  0.00     0.074 A 
ATOM     40  C   UNL A   1      43.299  27.757  33.453  1.00  0.00     0.031 C 
ATOM     41  C   UNL A   1      38.291  30.753  29.790  1.00  0.00     0.029 A 
ATOM     42  C   UNL A   1      38.569  31.347  31.097  1.00  0.00     0.049 A 
ATOM     43  H   UNL A   1      40.033  30.769  32.460  1.00  0.00     0.167 HD
ATOM     44  C   UNL A   1      43.121  29.448  35.254  1.00  0.00     0.031 A 
ATOM     45  C   UNL A   1      37.910  32.391  31.639  1.00  0.00     0.031 A 
ATOM     46  C   UNL A   1      42.539  30.612  35.869  1.00  0.00     0.049 A 
ATOM     47  C   UNL A   1      38.331  32.918  32.984  1.00  0.00     0.074 A 
ATOM     48  C   UNL A   1      42.887  31.220  37.062  1.00  0.00     0.029 A 
ATOM     49  N   UNL A   1      41.478  31.335  35.345  1.00  0.00    -0.354 N 
ATOM     50  N   UNL A   1      39.290  32.490  33.772  1.00  0.00    -0.248 NA
ATOM     51  C   UNL A   1      37.592  34.075  33.506  1.00  0.00     0.031 C 
ATOM     52  C   UNL A   1      41.999  32.279  37.286  1.00  0.00     0.029 A 
ATOM     53  C   UNL A   1      41.135  32.366  36.204  1.00  0.00     0.049 A 
ATOM     54  H   UNL A   1      41.033  31.143  34.488  1.00  0.00     0.167 HD
ATOM     55  C   UNL A   1      39.281  33.338  34.874  1.00  0.00     0.074 A 
ATOM     56  C   UNL A   1      38.231  34.309  34.645  1.00  0.00     0.031 C 
ATOM     57  C   UNL A   1      40.076  33.317  35.974  1.00  0.00     0.031 A 
BRANCH  44  58
ATOM     58  C   UNL A   1      44.206  28.705  35.987  1.00  0.00    -0.014 A 
ATOM     59  C   UNL A   1      43.910  27.621  36.834  1.00  0.00     0.010 A 
ATOM     60  C   UNL A   1      45.544  29.113  35.840  1.00  0.00     0.010 A 
ATOM     61  C   UNL A   1      44.924  27.002  37.570  1.00  0.00     0.020 A 
ATOM     62  C   UNL A   1      46.565  28.478  36.553  1.00  0.00     0.020 A 
ATOM     63  C   UNL A   1      46.244  27.444  37.435  1.00  0.00     0.054 A 
BRANCH  63  64
ATOM     64  S   UNL A   1      47.540  26.647  38.422  1.00  0.00     0.124 S 
ATOM     65  O   UNL A   1      46.773  26.106  39.542  1.00  0.00    -0.237 OA
ATOM     66  O   UNL A   1      48.085  25.654  37.499  1.00  0.00    -0.237 OA
ATOM     67  O   UNL A   1      48.445  27.743  38.758  1.00  0.00    -0.744 OA
ENDBRANCH  63  64
ENDBRANCH  44  58
BRANCH  45  68
ATOM     68  C   UNL A   1      36.774  32.996  30.893  1.00  0.00    -0.014 A 
ATOM     69  C   UNL A   1      35.445  32.721  31.258  1.00  0.00     0.010 A 
ATOM     70  C   UNL A   1      37.025  33.904  29.849  1.00  0.00     0.010 A 
ATOM     71  C   UNL A   1      34.388  33.354  30.598  1.00  0.00     0.020 A 
ATOM     72  C   UNL A   1      35.973  34.555  29.202  1.00  0.00     0.020 A 
ATOM     73  C   UNL A   1      34.659  34.276  29.581  1.00  0.00     0.054 A 
BRANCH  73  74
ATOM     74  S   UNL A   1      33.277  35.169  28.814  1.00  0.00     0.124 S 
ATOM     75  O   UNL A   1      32.497  35.580  29.977  1.00  0.00    -0.237 OA
ATOM     76  O   UNL A   1      33.957  36.244  28.095  1.00  0.00    -0.237 OA
ATOM     77  O   UNL A   1      32.652  34.160  27.962  1.00  0.00    -0.744 OA
ENDBRANCH  73  74
ENDBRANCH  45  68
BRANCH  57  78
ATOM     78  C   UNL A   1      39.857  34.387  37.010  1.00  0.00    -0.014 A 
ATOM     79  C   UNL A   1      39.029  34.163  38.124  1.00  0.00     0.010 A 
ATOM     80  C   UNL A   1      40.534  35.615  36.896  1.00  0.00     0.010 A 
ATOM     81  C   UNL A   1      38.858  35.160  39.089  1.00  0.00     0.020 A 
ATOM     82  C   UNL A   1      40.386  36.605  37.871  1.00  0.00     0.020 A 
ATOM     83  C   UNL A   1      39.536  36.376  38.955  1.00  0.00     0.054 A 
BRANCH  83  84
ATOM     84  S   UNL A   1      39.330  37.641  40.240  1.00  0.00     0.124 S 
ATOM     85  O   UNL A   1      40.666  38.228  40.304  1.00  0.00    -0.237 OA
ATOM     86  O   UNL A   1      38.290  38.502  39.681  1.00  0.00    -0.237 OA
ATOM     87  O   UNL A   1      38.928  36.875  41.417  1.00  0.00    -0.744 OA
ENDBRANCH  83  84
ENDBRANCH  57  78
ENDBRANCH  31  32
ENDBRANCH  24  26
ENDBRANCH  23  24
ENDBRANCH  22  23
ENDBRANCH   1  22
TORSDOF 19
ENDMDL
MODEL 3
REMARK VINA RESULT:      -9.7      6.081     12.388
REMARK SMILES COc1ccc2cc([C@@H](C)C(=O)OCCOCCOC(=O)c3ccc(-c4c5nc(c(-c6ccc(S(=O)(=O)[O-])cc6)c6ccc([nH]6)c(-c6ccc(S(=O)(=O)[O-])cc6)c6nc(c(-c7ccc(S(=O)(=O)[O-])cc7)c7ccc4[nH]7)C=C6)C=C5)cc3)ccc2c1
REMARK SMILES IDX 17 1 16 2 15 3 14 4 13 5 11 6 12 7 9 8 10 9 8 10 3 11 4 12
REMARK SMILES IDX 85 13 5 14 84 15 6 16 83 17 7 18 82 19 2 20 1 21 18 22 19 23
REMARK SMILES IDX 20 24 21 25 22 26 23 27 81 28 24 29 80 30 25 31 26 32 27 33
REMARK SMILES IDX 74 34 28 35 79 36 73 37 75 38 29 39 78 40 72 41 71 42 30 44
REMARK SMILES IDX 60 45 41 46 59 47 42 48 45 49 58 50 76 51 43 52 44 53 57 55
REMARK SMILES IDX 77 56 46 57 31 58 32 59 40 60 33 61 39 62 34 63 35 64 36 65
REMARK SMILES IDX 37 66 38 67 61 68 62 69 70 70 63 71 69 72 64 73 65 74 66 75
REMARK SMILES IDX 67 76 68 77 47 78 48 79 56 80 49 81 55 82 50 83 51 84 52 85
REMARK SMILES IDX 53 86 54 87
REMARK H PARENT 75 43 45 54
REMARK Flexibility Score: inf
ROOT
ATOM      1  C   UNL A   1      34.760  32.880  30.487  1.00  0.00     0.202 C 
ENDROOT
BRANCH   1   2
ATOM      2  O   UNL A   1      34.559  33.666  29.312  1.00  0.00    -0.374 OA
BRANCH   2   3
ATOM      3  C   UNL A   1      34.105  32.987  28.140  1.00  0.00     0.202 C 
BRANCH   3   4
ATOM      4  C   UNL A   1      34.687  31.592  27.903  1.00  0.00     0.261 C 
BRANCH   4   5
ATOM      5  O   UNL A   1      33.660  30.645  27.558  1.00  0.00    -0.463 OA
BRANCH   5   6
ATOM      6  C   UNL A   1      34.088  29.454  27.067  1.00  0.00     0.313 C 
ATOM      7  O   UNL A   1      35.153  28.920  27.370  1.00  0.00    -0.252 OA
BRANCH   6   8
ATOM      8  C   UNL A   1      33.144  28.825  26.057  1.00  0.00     0.126 C 
ATOM      9  C   UNL A   1      31.755  29.440  26.214  1.00  0.00     0.025 C 
BRANCH   8  10
ATOM     10  C   UNL A   1      33.089  27.303  25.976  1.00  0.00    -0.033 A 
ATOM     11  C   UNL A   1      31.686  22.413  25.637  1.00  0.00     0.119 A 
ATOM     12  C   UNL A   1      30.658  23.064  26.315  1.00  0.00     0.047 A 
ATOM     13  C   UNL A   1      32.834  23.125  25.286  1.00  0.00     0.055 A 
ATOM     14  C   UNL A   1      30.761  24.432  26.596  1.00  0.00     0.012 A 
ATOM     15  C   UNL A   1      32.945  24.502  25.548  1.00  0.00    -0.015 A 
ATOM     16  C   UNL A   1      31.889  25.171  26.203  1.00  0.00    -0.018 A 
ATOM     17  C   UNL A   1      34.073  25.230  25.151  1.00  0.00     0.009 A 
ATOM     18  C   UNL A   1      31.980  26.562  26.418  1.00  0.00     0.013 A 
ATOM     19  C   UNL A   1      34.143  26.610  25.359  1.00  0.00     0.005 A 
BRANCH  11  20
ATOM     20  O   UNL A   1      31.693  21.089  25.293  1.00  0.00    -0.497 OA
ATOM     21  C   UNL A   1      32.905  20.390  25.565  1.00  0.00     0.278 C 
ENDBRANCH  11  20
ENDBRANCH   8  10
ENDBRANCH   6   8
ENDBRANCH   5   6
ENDBRANCH   4   5
ENDBRANCH   3   4
ENDBRANCH   2   3
ENDBRANCH   1   2
BRANCH   1  22
ATOM     22  C   UNL A   1      36.211  32.677  30.940  1.00  0.00     0.261 C 
BRANCH  22  23
ATOM     23  O   UNL A   1      36.375  31.494  31.741  1.00  0.00    -0.460 OA
BRANCH  23  24
ATOM     24  C   UNL A   1      36.589  30.360  31.037  1.00  0.00     0.338 C 
ATOM     25  O   UNL A   1      35.749  29.544  30.679  1.00  0.00    -0.246 OA
BRANCH  24  26
ATOM     26  C   UNL A   1      37.987  30.301  30.573  1.00  0.00     0.060 A 
ATOM     27  C   UNL A   1      38.203  30.236  29.190  1.00  0.00     0.016 A 
ATOM     28  C   UNL A   1      39.063  30.225  31.463  1.00  0.00     0.016 A 
ATOM     29  C   UNL A   1      39.486  30.026  28.693  1.00  0.00     0.010 A 
ATOM     30  C   UNL A   1      40.351  30.010  30.960  1.00  0.00     0.010 A 
ATOM     31  C   UNL A   1      40.561  29.864  29.576  1.00  0.00    -0.014 A 
BRANCH  31  32
ATOM     32  C   UNL A   1      41.858  29.377  29.048  1.00  0.00     0.031 A 
ATOM     33  C   UNL A   1      43.017  30.332  28.967  1.00  0.00     0.074 A 
ATOM     34  C   UNL A   1      42.020  28.091  28.692  1.00  0.00     0.049 A 
ATOM     35  N   UNL A   1      44.245  30.114  28.570  1.00  0.00    -0.248 NA
ATOM     36  C   UNL A   1      42.757  31.718  29.387  1.00  0.00     0.031 C 
ATOM     37  C   UNL A   1      40.986  27.060  28.753  1.00  0.00     0.029 A 
ATOM     38  N   UNL A   1      43.124  27.436  28.204  1.00  0.00    -0.354 N 
ATOM     39  C   UNL A   1      44.901  31.334  28.684  1.00  0.00     0.074 A 
ATOM     40  C   UNL A   1      43.927  32.295  29.157  1.00  0.00     0.031 C 
ATOM     41  C   UNL A   1      41.502  25.901  28.311  1.00  0.00     0.029 A 
ATOM     42  C   UNL A   1      42.895  26.113  27.916  1.00  0.00     0.049 A 
ATOM     43  H   UNL A   1      43.996  27.873  28.073  1.00  0.00     0.167 HD
ATOM     44  C   UNL A   1      46.197  31.631  28.425  1.00  0.00     0.031 A 
ATOM     45  C   UNL A   1      43.708  25.181  27.382  1.00  0.00     0.031 A 
ATOM     46  C   UNL A   1      47.162  30.680  27.939  1.00  0.00     0.049 A 
ATOM     47  C   UNL A   1      45.133  25.537  27.056  1.00  0.00     0.074 A 
ATOM     48  C   UNL A   1      48.505  30.878  27.668  1.00  0.00     0.029 A 
ATOM     49  N   UNL A   1      46.884  29.356  27.635  1.00  0.00    -0.354 N 
ATOM     50  N   UNL A   1      45.749  26.686  27.207  1.00  0.00    -0.248 NA
ATOM     51  C   UNL A   1      45.976  24.469  26.503  1.00  0.00     0.031 C 
ATOM     52  C   UNL A   1      49.026  29.686  27.150  1.00  0.00     0.029 A 
ATOM     53  C   UNL A   1      48.020  28.730  27.151  1.00  0.00     0.049 A 
ATOM     54  H   UNL A   1      46.006  28.924  27.747  1.00  0.00     0.167 HD
ATOM     55  C   UNL A   1      47.057  26.474  26.785  1.00  0.00     0.074 A 
ATOM     56  C   UNL A   1      47.145  25.084  26.384  1.00  0.00     0.031 C 
ATOM     57  C   UNL A   1      48.092  27.350  26.739  1.00  0.00     0.031 A 
BRANCH  44  58
ATOM     58  C   UNL A   1      46.622  33.062  28.619  1.00  0.00    -0.014 A 
ATOM     59  C   UNL A   1      46.413  34.032  27.619  1.00  0.00     0.010 A 
ATOM     60  C   UNL A   1      47.258  33.439  29.815  1.00  0.00     0.010 A 
ATOM     61  C   UNL A   1      46.892  35.333  27.787  1.00  0.00     0.020 A 
ATOM     62  C   UNL A   1      47.713  34.747  29.998  1.00  0.00     0.020 A 
ATOM     63  C   UNL A   1      47.552  35.679  28.970  1.00  0.00     0.054 A 
BRANCH  63  64
ATOM     64  S   UNL A   1      48.191  37.367  29.155  1.00  0.00     0.124 S 
ATOM     65  O   UNL A   1      47.997  37.606  30.584  1.00  0.00    -0.237 OA
ATOM     66  O   UNL A   1      49.581  37.235  28.725  1.00  0.00    -0.237 OA
ATOM     67  O   UNL A   1      47.342  38.158  28.269  1.00  0.00    -0.744 OA
ENDBRANCH  63  64
ENDBRANCH  44  58
BRANCH  45  68
ATOM     68  C   UNL A   1      43.173  23.818  27.119  1.00  0.00    -0.014 A 
ATOM     69  C   UNL A   1      42.860  23.406  25.813  1.00  0.00     0.010 A 
ATOM     70  C   UNL A   1      43.034  22.903  28.179  1.00  0.00     0.010 A 
ATOM     71  C   UNL A   1      42.430  22.099  25.570  1.00  0.00     0.020 A 
ATOM     72  C   UNL A   1      42.626  21.590  27.937  1.00  0.00     0.020 A 
ATOM     73  C   UNL A   1      42.326  21.195  26.633  1.00  0.00     0.054 A 
BRANCH  73  74
ATOM     74  S   UNL A   1      41.872  19.473  26.281  1.00  0.00     0.124 S 
ATOM     75  O   UNL A   1      42.318  18.787  27.489  1.00  0.00    -0.237 OA
ATOM     76  O   UNL A   1      40.425  19.560  26.099  1.00  0.00    -0.237 OA
ATOM     77  O   UNL A   1      42.626  19.164  25.068  1.00  0.00    -0.744 OA
ENDBRANCH  73  74
ENDBRANCH  45  68
BRANCH  57  78
ATOM     78  C   UNL A   1      49.420  26.831  26.255  1.00  0.00    -0.014 A 
ATOM     79  C   UNL A   1      49.865  27.077  24.944  1.00  0.00     0.010 A 
ATOM     80  C   UNL A   1      50.261  26.136  27.144  1.00  0.00     0.010 A 
ATOM     81  C   UNL A   1      51.112  26.609  24.521  1.00  0.00     0.020 A 
ATOM     82  C   UNL A   1      51.519  25.687  26.733  1.00  0.00     0.020 A 
ATOM     83  C   UNL A   1      51.931  25.914  25.419  1.00  0.00     0.054 A 
BRANCH  83  84
ATOM     84  S   UNL A   1      53.562  25.350  24.859  1.00  0.00     0.124 S 
ATOM     85  O   UNL A   1      53.537  25.707  23.443  1.00  0.00    -0.237 OA
ATOM     86  O   UNL A   1      54.476  26.131  25.689  1.00  0.00    -0.237 OA
ATOM     87  O   UNL A   1      53.547  23.917  25.140  1.00  0.00    -0.744 OA
ENDBRANCH  83  84
ENDBRANCH  57  78
ENDBRANCH  31  32
ENDBRANCH  24  26
ENDBRANCH  23  24
ENDBRANCH  22  23
ENDBRANCH   1  22
TORSDOF 19
ENDMDL
