MODEL 1
REMARK VINA RESULT:     -10.1      0.000      0.000
REMARK SMILES COc1cccc(NC(=O)c2nccnc2C(=O)OCCOCCOC(=O)c2ccc(-c3c4nc(c(-c5ccc(S(=O)(=O)[O-])cc5)c5ccc([nH]5)c(-c5ccc(S(=O)(=O)[O-])cc5)c5nc(c(-c6ccc(S(=O)(=O)[O-])cc6)c6ccc3[nH]6)C=C5)C=C4)cc2)c1
REMARK SMILES IDX 22 1 21 2 20 3 19 4 17 5 18 6 16 7 11 8 12 9 13 10 15 11
REMARK SMILES IDX 14 12 9 13 8 14 10 16 7 17 3 18 4 19 88 20 5 21 6 22 2 23
REMARK SMILES IDX 1 24 23 25 24 26 25 27 26 28 27 29 28 30 29 31 87 32 30 33
REMARK SMILES IDX 86 34 31 35 32 36 33 37 80 38 34 39 85 40 79 41 81 42 35 43
REMARK SMILES IDX 84 44 78 45 77 46 36 48 66 49 47 50 65 51 48 52 51 53 64 54
REMARK SMILES IDX 82 55 49 56 50 57 63 59 83 60 52 61 37 62 38 63 46 64 39 65
REMARK SMILES IDX 45 66 40 67 41 68 42 69 43 70 44 71 67 72 68 73 76 74 69 75
REMARK SMILES IDX 75 76 70 77 71 78 72 79 73 80 74 81 53 82 54 83 62 84 55 85
REMARK SMILES IDX 61 86 56 87 57 88 58 89 59 90 60 91
REMARK H PARENT 8 15 81 47 51 58
REMARK Flexibility Score: inf
ROOT
ATOM      1  O   UNL A   1      37.386  21.924  24.247  1.00  0.00    -0.374 OA
ENDROOT
BRANCH   1   2
ATOM      2  C   UNL A   1      36.869  23.255  24.202  1.00  0.00     0.202 C 
BRANCH   2   3
ATOM      3  C   UNL A   1      36.554  23.895  25.554  1.00  0.00     0.261 C 
BRANCH   3   4
ATOM      4  O   UNL A   1      35.165  24.262  25.634  1.00  0.00    -0.458 OA
BRANCH   4   5
ATOM      5  C   UNL A   1      34.336  23.265  26.025  1.00  0.00     0.359 C 
ATOM      6  O   UNL A   1      34.389  22.658  27.087  1.00  0.00    -0.244 OA
BRANCH   5   7
ATOM      7  C   UNL A   1      33.199  23.106  25.087  1.00  0.00     0.179 A 
ATOM      8  C   UNL A   1      31.929  23.631  25.279  1.00  0.00     0.161 A 
ATOM      9  N   UNL A   1      30.995  23.605  24.275  1.00  0.00    -0.247 NA
ATOM     10  C   UNL A   1      31.338  22.957  23.140  1.00  0.00     0.132 A 
ATOM     11  N   UNL A   1      33.523  22.425  23.936  1.00  0.00    -0.245 NA
ATOM     12  C   UNL A   1      32.569  22.355  22.986  1.00  0.00     0.132 A 
BRANCH   8  13
ATOM     13  C   UNL A   1      31.513  24.297  26.535  1.00  0.00     0.276 C 
ATOM     14  N   UNL A   1      31.727  25.645  26.778  1.00  0.00    -0.320 N 
ATOM     15  H   UNL A   1      31.518  25.907  27.704  1.00  0.00     0.170 HD
ATOM     16  O   UNL A   1      31.030  23.606  27.433  1.00  0.00    -0.267 OA
BRANCH  14  17
ATOM     17  C   UNL A   1      32.182  26.722  25.985  1.00  0.00     0.045 A 
ATOM     18  C   UNL A   1      31.614  28.343  24.250  1.00  0.00     0.120 A 
ATOM     19  C   UNL A   1      32.856  28.955  24.418  1.00  0.00     0.046 A 
ATOM     20  C   UNL A   1      31.287  27.224  25.023  1.00  0.00     0.072 A 
ATOM     21  C   UNL A   1      33.773  28.435  25.326  1.00  0.00     0.006 A 
ATOM     22  C   UNL A   1      33.446  27.306  26.081  1.00  0.00     0.026 A 
BRANCH  18  23
ATOM     23  O   UNL A   1      30.826  28.927  23.297  1.00  0.00    -0.497 OA
ATOM     24  C   UNL A   1      29.520  28.391  23.126  1.00  0.00     0.278 C 
ENDBRANCH  18  23
ENDBRANCH  14  17
ENDBRANCH   8  13
ENDBRANCH   5   7
ENDBRANCH   4   5
ENDBRANCH   3   4
ENDBRANCH   2   3
ENDBRANCH   1   2
BRANCH   1  25
ATOM     25  C   UNL A   1      37.834  21.429  25.509  1.00  0.00     0.202 C 
BRANCH  25  26
ATOM     26  C   UNL A   1      38.836  20.268  25.477  1.00  0.00     0.261 C 
BRANCH  26  27
ATOM     27  O   UNL A   1      39.748  20.279  26.589  1.00  0.00    -0.460 OA
BRANCH  27  28
ATOM     28  C   UNL A   1      41.020  19.936  26.270  1.00  0.00     0.338 C 
ATOM     29  O   UNL A   1      41.392  18.883  25.767  1.00  0.00    -0.246 OA
BRANCH  28  30
ATOM     30  C   UNL A   1      41.938  21.076  26.454  1.00  0.00     0.060 A 
ATOM     31  C   UNL A   1      42.275  21.421  27.770  1.00  0.00     0.016 A 
ATOM     32  C   UNL A   1      42.360  21.865  25.382  1.00  0.00     0.016 A 
ATOM     33  C   UNL A   1      42.971  22.600  28.025  1.00  0.00     0.010 A 
ATOM     34  C   UNL A   1      43.054  23.054  25.643  1.00  0.00     0.010 A 
ATOM     35  C   UNL A   1      43.315  23.450  26.967  1.00  0.00    -0.014 A 
BRANCH  35  36
ATOM     36  C   UNL A   1      43.773  24.827  27.276  1.00  0.00     0.031 A 
ATOM     37  C   UNL A   1      45.213  25.190  27.026  1.00  0.00     0.074 A 
ATOM     38  C   UNL A   1      42.913  25.760  27.721  1.00  0.00     0.049 A 
ATOM     39  N   UNL A   1      45.817  26.340  27.178  1.00  0.00    -0.248 NA
ATOM     40  C   UNL A   1      46.087  24.108  26.547  1.00  0.00     0.031 C 
ATOM     41  C   UNL A   1      41.491  25.545  27.978  1.00  0.00     0.029 A 
ATOM     42  N   UNL A   1      43.119  27.081  28.033  1.00  0.00    -0.354 N 
ATOM     43  C   UNL A   1      47.143  26.119  26.822  1.00  0.00     0.074 A 
ATOM     44  C   UNL A   1      47.260  24.718  26.479  1.00  0.00     0.031 C 
ATOM     45  C   UNL A   1      40.950  26.693  28.419  1.00  0.00     0.029 A 
ATOM     46  C   UNL A   1      41.991  27.719  28.489  1.00  0.00     0.049 A 
ATOM     47  H   UNL A   1      43.991  27.527  27.940  1.00  0.00     0.167 HD
ATOM     48  C   UNL A   1      48.172  27.001  26.778  1.00  0.00     0.031 A 
ATOM     49  C   UNL A   1      41.817  28.983  28.921  1.00  0.00     0.031 A 
ATOM     50  C   UNL A   1      48.060  28.390  27.132  1.00  0.00     0.049 A 
ATOM     51  C   UNL A   1      42.974  29.944  28.889  1.00  0.00     0.074 A 
ATOM     52  C   UNL A   1      49.036  29.370  27.099  1.00  0.00     0.029 A 
ATOM     53  N   UNL A   1      46.901  28.996  27.598  1.00  0.00    -0.354 N 
ATOM     54  N   UNL A   1      44.213  29.731  28.510  1.00  0.00    -0.248 NA
ATOM     55  C   UNL A   1      42.705  31.322  29.323  1.00  0.00     0.031 C 
ATOM     56  C   UNL A   1      48.480  30.558  27.592  1.00  0.00     0.029 A 
ATOM     57  C   UNL A   1      47.144  30.330  27.879  1.00  0.00     0.049 A 
ATOM     58  H   UNL A   1      46.035  28.543  27.714  1.00  0.00     0.167 HD
ATOM     59  C   UNL A   1      44.865  30.953  28.636  1.00  0.00     0.074 A 
ATOM     60  C   UNL A   1      43.880  31.903  29.117  1.00  0.00     0.031 C 
ATOM     61  C   UNL A   1      46.159  31.263  28.370  1.00  0.00     0.031 A 
BRANCH  48  62
ATOM     62  C   UNL A   1      49.518  26.458  26.375  1.00  0.00    -0.014 A 
ATOM     63  C   UNL A   1      50.316  25.730  27.278  1.00  0.00     0.010 A 
ATOM     64  C   UNL A   1      50.003  26.703  25.078  1.00  0.00     0.010 A 
ATOM     65  C   UNL A   1      51.601  25.317  26.913  1.00  0.00     0.020 A 
ATOM     66  C   UNL A   1      51.275  26.266  24.700  1.00  0.00     0.020 A 
ATOM     67  C   UNL A   1      52.077  25.600  25.629  1.00  0.00     0.054 A 
BRANCH  67  68
ATOM     68  S   UNL A   1      53.758  25.085  25.186  1.00  0.00     0.124 S 
ATOM     69  O   UNL A   1      53.660  23.631  25.279  1.00  0.00    -0.237 OA
ATOM     70  O   UNL A   1      53.916  25.619  23.836  1.00  0.00    -0.237 OA
ATOM     71  O   UNL A   1      54.593  25.719  26.204  1.00  0.00    -0.744 OA
ENDBRANCH  67  68
ENDBRANCH  48  62
BRANCH  49  72
ATOM     72  C   UNL A   1      40.480  29.401  29.418  1.00  0.00    -0.014 A 
ATOM     73  C   UNL A   1      40.231  29.534  30.795  1.00  0.00     0.010 A 
ATOM     74  C   UNL A   1      39.462  29.728  28.503  1.00  0.00     0.010 A 
ATOM     75  C   UNL A   1      38.991  29.995  31.247  1.00  0.00     0.020 A 
ATOM     76  C   UNL A   1      38.229  30.209  28.950  1.00  0.00     0.020 A 
ATOM     77  C   UNL A   1      38.000  30.338  30.321  1.00  0.00     0.054 A 
BRANCH  77  78
ATOM     78  S   UNL A   1      36.435  31.028  30.926  1.00  0.00     0.124 S 
ATOM     79  O   UNL A   1      36.859  32.311  31.475  1.00  0.00    -0.237 OA
ATOM     80  O   UNL A   1      35.628  31.096  29.710  1.00  0.00    -0.237 OA
ATOM     81  O   UNL A   1      35.985  30.043  31.908  1.00  0.00    -0.744 OA
ENDBRANCH  77  78
ENDBRANCH  49  72
BRANCH  61  82
ATOM     82  C   UNL A   1      46.584  32.695  28.564  1.00  0.00    -0.014 A 
ATOM     83  C   UNL A   1      46.537  33.622  27.508  1.00  0.00     0.010 A 
ATOM     84  C   UNL A   1      46.997  33.128  29.837  1.00  0.00     0.010 A 
ATOM     85  C   UNL A   1      46.932  34.949  27.713  1.00  0.00     0.020 A 
ATOM     86  C   UNL A   1      47.366  34.458  30.053  1.00  0.00     0.020 A 
ATOM     87  C   UNL A   1      47.348  35.356  28.984  1.00  0.00     0.054 A 
BRANCH  87  88
ATOM     88  S   UNL A   1      47.830  37.087  29.235  1.00  0.00     0.124 S 
ATOM     89  O   UNL A   1      47.614  37.657  27.908  1.00  0.00    -0.237 OA
ATOM     90  O   UNL A   1      46.900  37.535  30.270  1.00  0.00    -0.237 OA
ATOM     91  O   UNL A   1      49.226  37.001  29.657  1.00  0.00    -0.744 OA
ENDBRANCH  87  88
ENDBRANCH  61  82
ENDBRANCH  35  36
ENDBRANCH  28  30
ENDBRANCH  27  28
ENDBRANCH  26  27
ENDBRANCH  25  26
ENDBRANCH   1  25
TORSDOF 20
ENDMDL
MODEL 2
REMARK VINA RESULT:     -10.0      2.374      8.589
REMARK SMILES COc1cccc(NC(=O)c2nccnc2C(=O)OCCOCCOC(=O)c2ccc(-c3c4nc(c(-c5ccc(S(=O)(=O)[O-])cc5)c5ccc([nH]5)c(-c5ccc(S(=O)(=O)[O-])cc5)c5nc(c(-c6ccc(S(=O)(=O)[O-])cc6)c6ccc3[nH]6)C=C5)C=C4)cc2)c1
REMARK SMILES IDX 22 1 21 2 20 3 19 4 17 5 18 6 16 7 11 8 12 9 13 10 15 11
REMARK SMILES IDX 14 12 9 13 8 14 10 16 7 17 3 18 4 19 88 20 5 21 6 22 2 23
REMARK SMILES IDX 1 24 23 25 24 26 25 27 26 28 27 29 28 30 29 31 87 32 30 33
REMARK SMILES IDX 86 34 31 35 32 36 33 37 80 38 34 39 85 40 79 41 81 42 35 43
REMARK SMILES IDX 84 44 78 45 77 46 36 48 66 49 47 50 65 51 48 52 51 53 64 54
REMARK SMILES IDX 82 55 49 56 50 57 63 59 83 60 52 61 37 62 38 63 46 64 39 65
REMARK SMILES IDX 45 66 40 67 41 68 42 69 43 70 44 71 67 72 68 73 76 74 69 75
REMARK SMILES IDX 75 76 70 77 71 78 72 79 73 80 74 81 53 82 54 83 62 84 55 85
REMARK SMILES IDX 61 86 56 87 57 88 58 89 59 90 60 91
REMARK H PARENT 8 15 81 47 51 58
REMARK Flexibility Score: inf
ROOT
ATOM      1  O   UNL A   1      33.348  30.815  26.576  1.00  0.00    -0.374 OA
ENDROOT
BRANCH   1   2
ATOM      2  C   UNL A   1      31.944  30.788  26.315  1.00  0.00     0.202 C 
BRANCH   2   3
ATOM      3  C   UNL A   1      31.455  29.657  25.410  1.00  0.00     0.261 C 
BRANCH   3   4
ATOM      4  O   UNL A   1      31.543  28.390  26.083  1.00  0.00    -0.458 OA
BRANCH   4   5
ATOM      5  C   UNL A   1      32.455  27.534  25.564  1.00  0.00     0.359 C 
ATOM      6  O   UNL A   1      33.667  27.584  25.730  1.00  0.00    -0.244 OA
BRANCH   5   7
ATOM      7  C   UNL A   1      31.800  26.377  24.908  1.00  0.00     0.179 A 
ATOM      8  C   UNL A   1      31.750  26.161  23.538  1.00  0.00     0.161 A 
ATOM      9  N   UNL A   1      31.298  24.972  23.026  1.00  0.00    -0.247 NA
ATOM     10  C   UNL A   1      30.812  24.074  23.911  1.00  0.00     0.132 A 
ATOM     11  N   UNL A   1      31.276  25.463  25.793  1.00  0.00    -0.245 NA
ATOM     12  C   UNL A   1      30.777  24.327  25.265  1.00  0.00     0.132 A 
BRANCH   8  13
ATOM     13  C   UNL A   1      32.226  27.155  22.548  1.00  0.00     0.276 C 
ATOM     14  N   UNL A   1      31.418  28.163  22.045  1.00  0.00    -0.320 N 
ATOM     15  H   UNL A   1      31.834  28.656  21.302  1.00  0.00     0.170 HD
ATOM     16  O   UNL A   1      33.364  27.031  22.093  1.00  0.00    -0.267 OA
BRANCH  14  17
ATOM     17  C   UNL A   1      30.125  28.632  22.368  1.00  0.00     0.045 A 
ATOM     18  C   UNL A   1      28.544  30.487  22.213  1.00  0.00     0.120 A 
ATOM     19  C   UNL A   1      27.558  29.692  22.796  1.00  0.00     0.046 A 
ATOM     20  C   UNL A   1      29.825  29.960  22.013  1.00  0.00     0.072 A 
ATOM     21  C   UNL A   1      27.857  28.396  23.204  1.00  0.00     0.006 A 
ATOM     22  C   UNL A   1      29.143  27.883  23.017  1.00  0.00     0.026 A 
BRANCH  18  23
ATOM     23  O   UNL A   1      28.131  31.752  21.899  1.00  0.00    -0.497 OA
ATOM     24  C   UNL A   1      27.940  32.042  20.519  1.00  0.00     0.278 C 
ENDBRANCH  18  23
ENDBRANCH  14  17
ENDBRANCH   8  13
ENDBRANCH   5   7
ENDBRANCH   4   5
ENDBRANCH   3   4
ENDBRANCH   2   3
ENDBRANCH   1   2
BRANCH   1  25
ATOM     25  C   UNL A   1      33.784  30.495  27.897  1.00  0.00     0.202 C 
BRANCH  25  26
ATOM     26  C   UNL A   1      35.284  30.635  28.181  1.00  0.00     0.261 C 
BRANCH  26  27
ATOM     27  O   UNL A   1      35.897  29.401  28.596  1.00  0.00    -0.460 OA
BRANCH  27  28
ATOM     28  C   UNL A   1      36.649  29.502  29.718  1.00  0.00     0.338 C 
ATOM     29  O   UNL A   1      36.259  29.405  30.875  1.00  0.00    -0.246 OA
BRANCH  28  30
ATOM     30  C   UNL A   1      38.084  29.589  29.387  1.00  0.00     0.060 A 
ATOM     31  C   UNL A   1      38.433  29.545  28.030  1.00  0.00     0.016 A 
ATOM     32  C   UNL A   1      39.072  29.587  30.375  1.00  0.00     0.016 A 
ATOM     33  C   UNL A   1      39.768  29.422  27.657  1.00  0.00     0.010 A 
ATOM     34  C   UNL A   1      40.414  29.456  29.996  1.00  0.00     0.010 A 
ATOM     35  C   UNL A   1      40.761  29.321  28.639  1.00  0.00    -0.014 A 
BRANCH  35  36
ATOM     36  C   UNL A   1      42.122  28.884  28.239  1.00  0.00     0.031 A 
ATOM     37  C   UNL A   1      43.223  29.909  28.167  1.00  0.00     0.074 A 
ATOM     38  C   UNL A   1      42.391  27.590  27.994  1.00  0.00     0.049 A 
ATOM     39  N   UNL A   1      44.491  29.746  27.888  1.00  0.00    -0.248 NA
ATOM     40  C   UNL A   1      42.841  31.303  28.443  1.00  0.00     0.031 C 
ATOM     41  C   UNL A   1      41.421  26.499  28.055  1.00  0.00     0.029 A 
ATOM     42  N   UNL A   1      43.569  26.979  27.646  1.00  0.00    -0.354 N 
ATOM     43  C   UNL A   1      45.056  31.014  27.945  1.00  0.00     0.074 A 
ATOM     44  C   UNL A   1      43.986  31.939  28.252  1.00  0.00     0.031 C 
ATOM     45  C   UNL A   1      42.041  25.348  27.745  1.00  0.00     0.029 A 
ATOM     46  C   UNL A   1      43.447  25.625  27.449  1.00  0.00     0.049 A 
ATOM     47  H   UNL A   1      44.420  27.464  27.546  1.00  0.00     0.167 HD
ATOM     48  C   UNL A   1      46.348  31.381  27.763  1.00  0.00     0.031 A 
ATOM     49  C   UNL A   1      44.361  24.712  27.067  1.00  0.00     0.031 A 
ATOM     50  C   UNL A   1      47.410  30.465  27.443  1.00  0.00     0.049 A 
ATOM     51  C   UNL A   1      45.788  25.138  26.845  1.00  0.00     0.074 A 
ATOM     52  C   UNL A   1      48.755  30.732  27.263  1.00  0.00     0.029 A 
ATOM     53  N   UNL A   1      47.243  29.102  27.243  1.00  0.00    -0.354 N 
ATOM     54  N   UNL A   1      46.315  26.336  26.943  1.00  0.00    -0.248 NA
ATOM     55  C   UNL A   1      46.746  24.085  26.482  1.00  0.00     0.031 C 
ATOM     56  C   UNL A   1      49.394  29.538  26.904  1.00  0.00     0.029 A 
ATOM     57  C   UNL A   1      48.456  28.518  26.917  1.00  0.00     0.049 A 
ATOM     58  H   UNL A   1      46.388  28.620  27.320  1.00  0.00     0.167 HD
ATOM     59  C   UNL A   1      47.672  26.177  26.678  1.00  0.00     0.074 A 
ATOM     60  C   UNL A   1      47.884  24.765  26.426  1.00  0.00     0.031 C 
ATOM     61  C   UNL A   1      48.653  27.114  26.655  1.00  0.00     0.031 A 
BRANCH  48  62
ATOM     62  C   UNL A   1      46.660  32.852  27.860  1.00  0.00    -0.014 A 
ATOM     63  C   UNL A   1      46.928  33.465  29.097  1.00  0.00     0.010 A 
ATOM     64  C   UNL A   1      46.662  33.637  26.693  1.00  0.00     0.010 A 
ATOM     65  C   UNL A   1      47.123  34.847  29.175  1.00  0.00     0.020 A 
ATOM     66  C   UNL A   1      46.885  35.014  26.763  1.00  0.00     0.020 A 
ATOM     67  C   UNL A   1      47.087  35.615  28.007  1.00  0.00     0.054 A 
BRANCH  67  68
ATOM     68  S   UNL A   1      47.309  37.410  28.133  1.00  0.00     0.124 S 
ATOM     69  O   UNL A   1      48.761  37.540  28.045  1.00  0.00    -0.237 OA
ATOM     70  O   UNL A   1      46.564  37.910  26.980  1.00  0.00    -0.237 OA
ATOM     71  O   UNL A   1      46.732  37.740  29.434  1.00  0.00    -0.744 OA
ENDBRANCH  67  68
ENDBRANCH  48  62
BRANCH  49  72
ATOM     72  C   UNL A   1      43.939  23.300  26.875  1.00  0.00    -0.014 A 
ATOM     73  C   UNL A   1      43.331  22.581  27.919  1.00  0.00     0.010 A 
ATOM     74  C   UNL A   1      44.090  22.686  25.618  1.00  0.00     0.010 A 
ATOM     75  C   UNL A   1      42.876  21.276  27.706  1.00  0.00     0.020 A 
ATOM     76  C   UNL A   1      43.617  21.391  25.395  1.00  0.00     0.020 A 
ATOM     77  C   UNL A   1      43.013  20.693  26.442  1.00  0.00     0.054 A 
BRANCH  77  78
ATOM     78  S   UNL A   1      42.325  19.037  26.161  1.00  0.00     0.124 S 
ATOM     79  O   UNL A   1      40.946  19.339  25.793  1.00  0.00    -0.237 OA
ATOM     80  O   UNL A   1      43.170  18.523  25.085  1.00  0.00    -0.237 OA
ATOM     81  O   UNL A   1      42.500  18.372  27.451  1.00  0.00    -0.744 OA
ENDBRANCH  77  78
ENDBRANCH  49  72
BRANCH  61  82
ATOM     82  C   UNL A   1      50.056  26.642  26.373  1.00  0.00    -0.014 A 
ATOM     83  C   UNL A   1      50.608  26.717  25.083  1.00  0.00     0.010 A 
ATOM     84  C   UNL A   1      50.848  26.156  27.430  1.00  0.00     0.010 A 
ATOM     85  C   UNL A   1      51.916  26.278  24.847  1.00  0.00     0.020 A 
ATOM     86  C   UNL A   1      52.162  25.742  27.203  1.00  0.00     0.020 A 
ATOM     87  C   UNL A   1      52.683  25.789  25.909  1.00  0.00     0.054 A 
BRANCH  87  88
ATOM     88  S   UNL A   1      54.384  25.250  25.586  1.00  0.00     0.124 S 
ATOM     89  O   UNL A   1      54.324  23.832  25.929  1.00  0.00    -0.237 OA
ATOM     90  O   UNL A   1      54.553  25.546  24.165  1.00  0.00    -0.237 OA
ATOM     91  O   UNL A   1      55.185  26.076  26.486  1.00  0.00    -0.744 OA
ENDBRANCH  87  88
ENDBRANCH  61  82
ENDBRANCH  35  36
ENDBRANCH  28  30
ENDBRANCH  27  28
ENDBRANCH  26  27
ENDBRANCH  25  26
ENDBRANCH   1  25
TORSDOF 20
ENDMDL
MODEL 3
REMARK VINA RESULT:      -9.8      6.142      8.283
REMARK SMILES COc1cccc(NC(=O)c2nccnc2C(=O)OCCOCCOC(=O)c2ccc(-c3c4nc(c(-c5ccc(S(=O)(=O)[O-])cc5)c5ccc([nH]5)c(-c5ccc(S(=O)(=O)[O-])cc5)c5nc(c(-c6ccc(S(=O)(=O)[O-])cc6)c6ccc3[nH]6)C=C5)C=C4)cc2)c1
REMARK SMILES IDX 22 1 21 2 20 3 19 4 17 5 18 6 16 7 11 8 12 9 13 10 15 11
REMARK SMILES IDX 14 12 9 13 8 14 10 16 7 17 3 18 4 19 88 20 5 21 6 22 2 23
REMARK SMILES IDX 1 24 23 25 24 26 25 27 26 28 27 29 28 30 29 31 87 32 30 33
REMARK SMILES IDX 86 34 31 35 32 36 33 37 80 38 34 39 85 40 79 41 81 42 35 43
REMARK SMILES IDX 84 44 78 45 77 46 36 48 66 49 47 50 65 51 48 52 51 53 64 54
REMARK SMILES IDX 82 55 49 56 50 57 63 59 83 60 52 61 37 62 38 63 46 64 39 65
REMARK SMILES IDX 45 66 40 67 41 68 42 69 43 70 44 71 67 72 68 73 76 74 69 75
REMARK SMILES IDX 75 76 70 77 71 78 72 79 73 80 74 81 53 82 54 83 62 84 55 85
REMARK SMILES IDX 61 86 56 87 57 88 58 89 59 90 60 91
REMARK H PARENT 8 15 81 47 51 58
REMARK Flexibility Score: inf
ROOT
ATOM      1  O   UNL A   1      38.735  21.823  25.367  1.00  0.00    -0.374 OA
ENDROOT
BRANCH   1   2
ATOM      2  C   UNL A   1      37.517  21.236  24.908  1.00  0.00     0.202 C 
BRANCH   2   3
ATOM      3  C   UNL A   1      36.585  22.160  24.122  1.00  0.00     0.261 C 
BRANCH   3   4
ATOM      4  O   UNL A   1      35.274  22.183  24.711  1.00  0.00    -0.458 OA
BRANCH   4   5
ATOM      5  C   UNL A   1      34.857  23.405  25.121  1.00  0.00     0.359 C 
ATOM      6  O   UNL A   1      35.570  24.380  25.322  1.00  0.00    -0.244 OA
BRANCH   5   7
ATOM      7  C   UNL A   1      33.378  23.502  25.117  1.00  0.00     0.179 A 
ATOM      8  C   UNL A   1      32.608  23.908  24.036  1.00  0.00     0.161 A 
ATOM      9  N   UNL A   1      31.243  23.783  24.053  1.00  0.00    -0.247 NA
ATOM     10  C   UNL A   1      30.686  23.347  25.204  1.00  0.00     0.132 A 
ATOM     11  N   UNL A   1      32.793  23.087  26.292  1.00  0.00    -0.245 NA
ATOM     12  C   UNL A   1      31.446  23.032  26.310  1.00  0.00     0.132 A 
BRANCH   8  13
ATOM     13  C   UNL A   1      33.195  24.441  22.784  1.00  0.00     0.276 C 
ATOM     14  N   UNL A   1      33.297  25.798  22.519  1.00  0.00    -0.320 N 
ATOM     15  H   UNL A   1      33.584  25.990  21.597  1.00  0.00     0.170 HD
ATOM     16  O   UNL A   1      33.534  23.643  21.909  1.00  0.00    -0.267 OA
BRANCH  14  17
ATOM     17  C   UNL A   1      33.076  26.964  23.286  1.00  0.00     0.045 A 
ATOM     18  C   UNL A   1      31.524  28.768  23.833  1.00  0.00     0.120 A 
ATOM     19  C   UNL A   1      32.398  29.217  24.821  1.00  0.00     0.046 A 
ATOM     20  C   UNL A   1      31.871  27.653  23.061  1.00  0.00     0.072 A 
ATOM     21  C   UNL A   1      33.619  28.580  25.016  1.00  0.00     0.006 A 
ATOM     22  C   UNL A   1      33.966  27.479  24.230  1.00  0.00     0.026 A 
BRANCH  18  23
ATOM     23  O   UNL A   1      30.380  29.508  23.716  1.00  0.00    -0.497 OA
ATOM     24  C   UNL A   1      29.567  29.260  22.576  1.00  0.00     0.278 C 
ENDBRANCH  18  23
ENDBRANCH  14  17
ENDBRANCH   8  13
ENDBRANCH   5   7
ENDBRANCH   4   5
ENDBRANCH   3   4
ENDBRANCH   2   3
ENDBRANCH   1   2
BRANCH   1  25
ATOM     25  C   UNL A   1      38.664  22.720  26.475  1.00  0.00     0.202 C 
BRANCH  25  26
ATOM     26  C   UNL A   1      38.958  24.197  26.187  1.00  0.00     0.261 C 
BRANCH  26  27
ATOM     27  O   UNL A   1      40.082  24.704  26.928  1.00  0.00    -0.460 OA
BRANCH  27  28
ATOM     28  C   UNL A   1      40.405  25.988  26.641  1.00  0.00     0.338 C 
ATOM     29  O   UNL A   1      40.827  26.419  25.575  1.00  0.00    -0.246 OA
BRANCH  28  30
ATOM     30  C   UNL A   1      40.029  26.888  27.749  1.00  0.00     0.060 A 
ATOM     31  C   UNL A   1      40.591  28.172  27.750  1.00  0.00     0.016 A 
ATOM     32  C   UNL A   1      39.249  26.452  28.823  1.00  0.00     0.016 A 
ATOM     33  C   UNL A   1      40.440  28.998  28.860  1.00  0.00     0.010 A 
ATOM     34  C   UNL A   1      39.105  27.284  29.941  1.00  0.00     0.010 A 
ATOM     35  C   UNL A   1      39.743  28.537  29.983  1.00  0.00    -0.014 A 
BRANCH  35  36
ATOM     36  C   UNL A   1      39.854  29.294  31.255  1.00  0.00     0.031 A 
ATOM     37  C   UNL A   1      40.994  28.985  32.189  1.00  0.00     0.074 A 
ATOM     38  C   UNL A   1      38.989  30.278  31.554  1.00  0.00     0.049 A 
ATOM     39  N   UNL A   1      41.313  29.551  33.325  1.00  0.00    -0.248 NA
ATOM     40  C   UNL A   1      41.890  27.888  31.790  1.00  0.00     0.031 C 
ATOM     41  C   UNL A   1      37.861  30.693  30.723  1.00  0.00     0.029 A 
ATOM     42  N   UNL A   1      38.932  31.110  32.644  1.00  0.00    -0.354 N 
ATOM     43  C   UNL A   1      42.438  28.874  33.781  1.00  0.00     0.074 A 
ATOM     44  C   UNL A   1      42.726  27.835  32.815  1.00  0.00     0.031 C 
ATOM     45  C   UNL A   1      37.214  31.697  31.338  1.00  0.00     0.029 A 
ATOM     46  C   UNL A   1      37.874  31.985  32.612  1.00  0.00     0.049 A 
ATOM     47  H   UNL A   1      39.586  31.081  33.379  1.00  0.00     0.167 HD
ATOM     48  C   UNL A   1      43.172  29.096  34.899  1.00  0.00     0.031 A 
ATOM     49  C   UNL A   1      37.476  32.908  33.509  1.00  0.00     0.031 A 
ATOM     50  C   UNL A   1      42.878  30.119  35.867  1.00  0.00     0.049 A 
ATOM     51  C   UNL A   1      38.287  33.128  34.757  1.00  0.00     0.074 A 
ATOM     52  C   UNL A   1      43.573  30.441  37.020  1.00  0.00     0.029 A 
ATOM     53  N   UNL A   1      41.791  30.979  35.802  1.00  0.00    -0.354 N 
ATOM     54  N   UNL A   1      39.374  32.508  35.153  1.00  0.00    -0.248 NA
ATOM     55  C   UNL A   1      37.830  34.187  35.668  1.00  0.00     0.031 C 
ATOM     56  C   UNL A   1      42.878  31.463  37.678  1.00  0.00     0.029 A 
ATOM     57  C   UNL A   1      41.781  31.816  36.906  1.00  0.00     0.049 A 
ATOM     58  H   UNL A   1      41.124  30.992  35.079  1.00  0.00     0.167 HD
ATOM     59  C   UNL A   1      39.745  33.117  36.348  1.00  0.00     0.074 A 
ATOM     60  C   UNL A   1      38.771  34.161  36.603  1.00  0.00     0.031 C 
ATOM     61  C   UNL A   1      40.800  32.842  37.156  1.00  0.00     0.031 A 
BRANCH  48  62
ATOM     62  C   UNL A   1      44.335  28.172  35.147  1.00  0.00    -0.014 A 
ATOM     63  C   UNL A   1      45.617  28.454  34.640  1.00  0.00     0.010 A 
ATOM     64  C   UNL A   1      44.134  26.988  35.879  1.00  0.00     0.010 A 
ATOM     65  C   UNL A   1      46.660  27.537  34.803  1.00  0.00     0.020 A 
ATOM     66  C   UNL A   1      45.181  26.083  36.069  1.00  0.00     0.020 A 
ATOM     67  C   UNL A   1      46.431  26.350  35.505  1.00  0.00     0.054 A 
BRANCH  67  68
ATOM     68  S   UNL A   1      47.787  25.158  35.676  1.00  0.00     0.124 S 
ATOM     69  O   UNL A   1      48.914  25.907  35.125  1.00  0.00    -0.237 OA
ATOM     70  O   UNL A   1      47.834  24.925  37.117  1.00  0.00    -0.237 OA
ATOM     71  O   UNL A   1      47.348  24.017  34.877  1.00  0.00    -0.744 OA
ENDBRANCH  67  68
ENDBRANCH  48  62
BRANCH  49  72
ATOM     72  C   UNL A   1      36.243  33.694  33.241  1.00  0.00    -0.014 A 
ATOM     73  C   UNL A   1      36.311  34.957  32.628  1.00  0.00     0.010 A 
ATOM     74  C   UNL A   1      34.983  33.148  33.547  1.00  0.00     0.010 A 
ATOM     75  C   UNL A   1      35.140  35.656  32.320  1.00  0.00     0.020 A 
ATOM     76  C   UNL A   1      33.810  33.834  33.221  1.00  0.00     0.020 A 
ATOM     77  C   UNL A   1      33.896  35.085  32.609  1.00  0.00     0.054 A 
BRANCH  77  78
ATOM     78  S   UNL A   1      32.389  35.964  32.109  1.00  0.00     0.124 S 
ATOM     79  O   UNL A   1      31.342  35.043  32.537  1.00  0.00    -0.237 OA
ATOM     80  O   UNL A   1      32.484  37.210  32.867  1.00  0.00    -0.237 OA
ATOM     81  O   UNL A   1      32.545  36.111  30.663  1.00  0.00    -0.744 OA
ENDBRANCH  77  78
ENDBRANCH  49  72
BRANCH  61  82
ATOM     82  C   UNL A   1      40.979  33.702  38.381  1.00  0.00    -0.014 A 
ATOM     83  C   UNL A   1      40.294  33.424  39.576  1.00  0.00     0.010 A 
ATOM     84  C   UNL A   1      41.882  34.780  38.344  1.00  0.00     0.010 A 
ATOM     85  C   UNL A   1      40.480  34.232  40.702  1.00  0.00     0.020 A 
ATOM     86  C   UNL A   1      42.091  35.573  39.474  1.00  0.00     0.020 A 
ATOM     87  C   UNL A   1      41.375  35.306  40.642  1.00  0.00     0.054 A 
BRANCH  87  88
ATOM     88  S   UNL A   1      41.622  36.325  42.122  1.00  0.00     0.124 S 
ATOM     89  O   UNL A   1      41.813  35.314  43.158  1.00  0.00    -0.237 OA
ATOM     90  O   UNL A   1      42.808  37.107  41.782  1.00  0.00    -0.237 OA
ATOM     91  O   UNL A   1      40.384  37.095  42.222  1.00  0.00    -0.744 OA
ENDBRANCH  87  88
ENDBRANCH  61  82
ENDBRANCH  35  36
ENDBRANCH  28  30
ENDBRANCH  27  28
ENDBRANCH  26  27
ENDBRANCH  25  26
ENDBRANCH   1  25
TORSDOF 20
ENDMDL
