MODEL 1
REMARK VINA RESULT:      -9.3      0.000      0.000
REMARK SMILES CCCN(c1cccc(Cl)c1/C=C/C(=O)OCCOCCOC(=O)c1ccc(-c2c3nc(c(-c4ccc(S(=O)(=O)[O-])cc4)c4ccc([nH]4)c(-c4ccc(S(=O)(=O)[O-])cc4)c4nc(c(-c5ccc(S(=O)(=O)[O-])cc5)c5ccc2[nH]5)C=C4)C=C3)cc1)C1CC1
REMARK SMILES IDX 18 1 17 2 16 3 14 4 15 5 13 6 12 7 11 8 5 9 6 10 7 11 9 12
REMARK SMILES IDX 8 13 10 14 4 15 3 16 2 17 1 18 85 19 86 20 87 21 19 22 20 23
REMARK SMILES IDX 21 24 22 25 23 26 24 27 25 28 26 29 84 30 27 31 83 32 28 33
REMARK SMILES IDX 29 34 30 35 77 36 31 37 82 38 76 39 78 40 32 41 81 42 75 43
REMARK SMILES IDX 74 44 33 46 63 47 44 48 62 49 45 50 48 51 61 52 79 53 46 54
REMARK SMILES IDX 47 55 60 57 80 58 49 59 34 60 35 61 43 62 36 63 42 64 37 65
REMARK SMILES IDX 38 66 39 67 40 68 41 69 64 70 65 71 73 72 66 73 72 74 67 75
REMARK SMILES IDX 68 76 69 77 70 78 71 79 50 80 51 81 59 82 52 83 58 84 53 85
REMARK SMILES IDX 54 86 55 87 56 88 57 89
REMARK H PARENT 78 45 48 56
REMARK Flexibility Score: inf
ROOT
ATOM      1  C   UNL A   1      41.092  21.081  26.575  1.00  0.00     0.202 C 
ENDROOT
BRANCH   1   2
ATOM      2  C   UNL A   1      39.674  21.226  26.013  1.00  0.00     0.261 C 
BRANCH   2   3
ATOM      3  O   UNL A   1      38.935  22.249  26.708  1.00  0.00    -0.460 OA
BRANCH   3   4
ATOM      4  C   UNL A   1      37.968  22.859  25.983  1.00  0.00     0.330 C 
ATOM      5  O   UNL A   1      38.053  23.950  25.435  1.00  0.00    -0.247 OA
BRANCH   4   6
ATOM      6  C   UNL A   1      36.736  22.057  25.869  1.00  0.00     0.094 C 
ATOM      7  C   UNL A   1      35.940  21.933  24.798  1.00  0.00     0.019 C 
BRANCH   7   8
ATOM      8  C   UNL A   1      34.692  21.131  24.833  1.00  0.00     0.017 A 
ATOM      9  C   UNL A   1      33.396  21.723  24.873  1.00  0.00     0.046 A 
ATOM     10  C   UNL A   1      32.263  20.875  24.872  1.00  0.00     0.026 A 
ATOM     11  C   UNL A   1      32.380  19.488  24.864  1.00  0.00     0.004 A 
ATOM     12  C   UNL A   1      34.783  19.719  24.800  1.00  0.00     0.050 A 
ATOM     13  C   UNL A   1      33.640  18.911  24.826  1.00  0.00     0.021 A 
ATOM     14  Cl  UNL A   1      36.307  18.892  24.732  1.00  0.00    -0.084 Cl
BRANCH   9  15
ATOM     15  N   UNL A   1      33.191  23.136  24.793  1.00  0.00    -0.368 N 
BRANCH  15  16
ATOM     16  C   UNL A   1      32.606  23.772  25.996  1.00  0.00     0.116 C 
BRANCH  16  17
ATOM     17  C   UNL A   1      31.086  23.629  26.086  1.00  0.00     0.018 C 
ATOM     18  C   UNL A   1      30.325  24.935  25.935  1.00  0.00     0.006 C 
ENDBRANCH  16  17
ENDBRANCH  15  16
BRANCH  15  19
ATOM     19  C   UNL A   1      32.626  23.606  23.503  1.00  0.00     0.082 C 
ATOM     20  C   UNL A   1      33.413  24.425  22.516  1.00  0.00     0.027 C 
ATOM     21  C   UNL A   1      33.058  23.007  22.200  1.00  0.00     0.027 C 
ENDBRANCH  15  19
ENDBRANCH   9  15
ENDBRANCH   7   8
ENDBRANCH   4   6
ENDBRANCH   3   4
ENDBRANCH   2   3
ENDBRANCH   1   2
BRANCH   1  22
ATOM     22  O   UNL A   1      42.155  21.214  25.627  1.00  0.00    -0.374 OA
BRANCH  22  23
ATOM     23  C   UNL A   1      42.668  22.531  25.444  1.00  0.00     0.202 C 
BRANCH  23  24
ATOM     24  C   UNL A   1      42.478  23.499  26.621  1.00  0.00     0.261 C 
BRANCH  24  25
ATOM     25  O   UNL A   1      41.318  24.327  26.456  1.00  0.00    -0.460 OA
BRANCH  25  26
ATOM     26  C   UNL A   1      41.590  25.637  26.229  1.00  0.00     0.338 C 
ATOM     27  O   UNL A   1      41.639  26.206  25.154  1.00  0.00    -0.246 OA
BRANCH  26  28
ATOM     28  C   UNL A   1      41.635  26.350  27.518  1.00  0.00     0.060 A 
ATOM     29  C   UNL A   1      40.599  26.101  28.427  1.00  0.00     0.016 A 
ATOM     30  C   UNL A   1      42.646  27.264  27.821  1.00  0.00     0.016 A 
ATOM     31  C   UNL A   1      40.548  26.798  29.629  1.00  0.00     0.010 A 
ATOM     32  C   UNL A   1      42.587  27.972  29.024  1.00  0.00     0.010 A 
ATOM     33  C   UNL A   1      41.520  27.764  29.916  1.00  0.00    -0.014 A 
BRANCH  33  34
ATOM     34  C   UNL A   1      41.327  28.667  31.075  1.00  0.00     0.031 A 
ATOM     35  C   UNL A   1      40.227  29.691  31.011  1.00  0.00     0.074 A 
ATOM     36  C   UNL A   1      42.090  28.542  32.175  1.00  0.00     0.049 A 
ATOM     37  N   UNL A   1      39.886  30.594  31.894  1.00  0.00    -0.248 NA
ATOM     38  C   UNL A   1      39.401  29.699  29.792  1.00  0.00     0.031 C 
ATOM     39  C   UNL A   1      43.150  27.552  32.362  1.00  0.00     0.029 A 
ATOM     40  N   UNL A   1      42.087  29.257  33.346  1.00  0.00    -0.354 N 
ATOM     41  C   UNL A   1      38.809  31.275  31.337  1.00  0.00     0.074 A 
ATOM     42  C   UNL A   1      38.575  30.707  30.028  1.00  0.00     0.031 C 
ATOM     43  C   UNL A   1      43.699  27.724  33.578  1.00  0.00     0.029 A 
ATOM     44  C   UNL A   1      43.052  28.855  34.239  1.00  0.00     0.049 A 
ATOM     45  H   UNL A   1      41.453  29.988  33.530  1.00  0.00     0.167 HD
ATOM     46  C   UNL A   1      38.075  32.277  31.875  1.00  0.00     0.031 A 
ATOM     47  C   UNL A   1      43.385  29.359  35.444  1.00  0.00     0.031 A 
ATOM     48  C   UNL A   1      38.326  32.845  33.172  1.00  0.00     0.049 A 
ATOM     49  C   UNL A   1      42.606  30.532  35.982  1.00  0.00     0.074 A 
ATOM     50  C   UNL A   1      37.646  33.867  33.811  1.00  0.00     0.029 A 
ATOM     51  N   UNL A   1      39.338  32.439  34.029  1.00  0.00    -0.354 N 
ATOM     52  N   UNL A   1      41.581  31.158  35.451  1.00  0.00    -0.248 NA
ATOM     53  C   UNL A   1      43.022  31.062  37.288  1.00  0.00     0.031 C 
ATOM     54  C   UNL A   1      38.281  34.114  35.032  1.00  0.00     0.029 A 
ATOM     55  C   UNL A   1      39.315  33.204  35.182  1.00  0.00     0.049 A 
ATOM     56  H   UNL A   1      39.978  31.714  33.845  1.00  0.00     0.167 HD
ATOM     57  C   UNL A   1      41.212  32.132  36.372  1.00  0.00     0.074 A 
ATOM     58  C   UNL A   1      42.112  32.003  37.500  1.00  0.00     0.031 C 
ATOM     59  C   UNL A   1      40.216  33.050  36.296  1.00  0.00     0.031 A 
BRANCH  46  60
ATOM     60  C   UNL A   1      36.946  32.839  31.052  1.00  0.00    -0.014 A 
ATOM     61  C   UNL A   1      35.607  32.512  31.336  1.00  0.00     0.010 A 
ATOM     62  C   UNL A   1      37.224  33.747  30.013  1.00  0.00     0.010 A 
ATOM     63  C   UNL A   1      34.569  33.065  30.581  1.00  0.00     0.020 A 
ATOM     64  C   UNL A   1      36.186  34.322  29.273  1.00  0.00     0.020 A 
ATOM     65  C   UNL A   1      34.865  33.968  29.556  1.00  0.00     0.054 A 
BRANCH  65  66
ATOM     66  S   UNL A   1      33.493  34.703  28.624  1.00  0.00     0.124 S 
ATOM     67  O   UNL A   1      33.081  33.595  27.767  1.00  0.00    -0.237 OA
ATOM     68  O   UNL A   1      32.549  35.067  29.678  1.00  0.00    -0.237 OA
ATOM     69  O   UNL A   1      34.110  35.830  27.928  1.00  0.00    -0.744 OA
ENDBRANCH  65  66
ENDBRANCH  46  60
BRANCH  47  70
ATOM     70  C   UNL A   1      44.518  28.779  36.217  1.00  0.00    -0.014 A 
ATOM     71  C   UNL A   1      45.827  29.266  36.053  1.00  0.00     0.010 A 
ATOM     72  C   UNL A   1      44.297  27.709  37.104  1.00  0.00     0.010 A 
ATOM     73  C   UNL A   1      46.895  28.674  36.736  1.00  0.00     0.020 A 
ATOM     74  C   UNL A   1      45.356  27.134  37.811  1.00  0.00     0.020 A 
ATOM     75  C   UNL A   1      46.653  27.609  37.608  1.00  0.00     0.054 A 
BRANCH  75  76
ATOM     76  S   UNL A   1      48.051  26.867  38.495  1.00  0.00     0.124 S 
ATOM     77  O   UNL A   1      49.193  27.510  37.853  1.00  0.00    -0.237 OA
ATOM     78  O   UNL A   1      47.795  27.264  39.877  1.00  0.00    -0.237 OA
ATOM     79  O   UNL A   1      47.905  25.437  38.228  1.00  0.00    -0.744 OA
ENDBRANCH  75  76
ENDBRANCH  47  70
BRANCH  59  80
ATOM     80  C   UNL A   1      40.017  33.957  37.481  1.00  0.00    -0.014 A 
ATOM     81  C   UNL A   1      39.129  33.623  38.518  1.00  0.00     0.010 A 
ATOM     82  C   UNL A   1      40.778  35.138  37.583  1.00  0.00     0.010 A 
ATOM     83  C   UNL A   1      38.983  34.469  39.621  1.00  0.00     0.020 A 
ATOM     84  C   UNL A   1      40.657  35.969  38.698  1.00  0.00     0.020 A 
ATOM     85  C   UNL A   1      39.748  35.636  39.704  1.00  0.00     0.054 A 
BRANCH  85  86
ATOM     86  S   UNL A   1      39.572  36.693  41.168  1.00  0.00     0.124 S 
ATOM     87  O   UNL A   1      40.961  37.018  41.477  1.00  0.00    -0.237 OA
ATOM     88  O   UNL A   1      38.763  37.800  40.667  1.00  0.00    -0.237 OA
ATOM     89  O   UNL A   1      38.903  35.831  42.140  1.00  0.00    -0.744 OA
ENDBRANCH  85  86
ENDBRANCH  59  80
ENDBRANCH  33  34
ENDBRANCH  26  28
ENDBRANCH  25  26
ENDBRANCH  24  25
ENDBRANCH  23  24
ENDBRANCH  22  23
ENDBRANCH   1  22
TORSDOF 22
ENDMDL
MODEL 2
REMARK VINA RESULT:      -8.8      6.892     12.187
REMARK SMILES CCCN(c1cccc(Cl)c1/C=C/C(=O)OCCOCCOC(=O)c1ccc(-c2c3nc(c(-c4ccc(S(=O)(=O)[O-])cc4)c4ccc([nH]4)c(-c4ccc(S(=O)(=O)[O-])cc4)c4nc(c(-c5ccc(S(=O)(=O)[O-])cc5)c5ccc2[nH]5)C=C4)C=C3)cc1)C1CC1
REMARK SMILES IDX 18 1 17 2 16 3 14 4 15 5 13 6 12 7 11 8 5 9 6 10 7 11 9 12
REMARK SMILES IDX 8 13 10 14 4 15 3 16 2 17 1 18 85 19 86 20 87 21 19 22 20 23
REMARK SMILES IDX 21 24 22 25 23 26 24 27 25 28 26 29 84 30 27 31 83 32 28 33
REMARK SMILES IDX 29 34 30 35 77 36 31 37 82 38 76 39 78 40 32 41 81 42 75 43
REMARK SMILES IDX 74 44 33 46 63 47 44 48 62 49 45 50 48 51 61 52 79 53 46 54
REMARK SMILES IDX 47 55 60 57 80 58 49 59 34 60 35 61 43 62 36 63 42 64 37 65
REMARK SMILES IDX 38 66 39 67 40 68 41 69 64 70 65 71 73 72 66 73 72 74 67 75
REMARK SMILES IDX 68 76 69 77 70 78 71 79 50 80 51 81 59 82 52 83 58 84 53 85
REMARK SMILES IDX 54 86 55 87 56 88 57 89
REMARK H PARENT 78 45 48 56
REMARK Flexibility Score: inf
ROOT
ATOM      1  C   UNL A   1      32.602  28.407  27.576  1.00  0.00     0.202 C 
ENDROOT
BRANCH   1   2
ATOM      2  C   UNL A   1      31.657  27.944  26.462  1.00  0.00     0.261 C 
BRANCH   2   3
ATOM      3  O   UNL A   1      30.894  26.790  26.866  1.00  0.00    -0.460 OA
BRANCH   3   4
ATOM      4  C   UNL A   1      30.639  25.891  25.887  1.00  0.00     0.330 C 
ATOM      5  O   UNL A   1      29.547  25.651  25.390  1.00  0.00    -0.247 OA
BRANCH   4   6
ATOM      6  C   UNL A   1      31.850  25.196  25.410  1.00  0.00     0.094 C 
ATOM      7  C   UNL A   1      32.538  24.233  26.039  1.00  0.00     0.019 C 
BRANCH   7   8
ATOM      8  C   UNL A   1      33.779  23.652  25.469  1.00  0.00     0.017 A 
ATOM      9  C   UNL A   1      33.864  22.301  25.025  1.00  0.00     0.046 A 
ATOM     10  C   UNL A   1      35.082  21.846  24.466  1.00  0.00     0.026 A 
ATOM     11  C   UNL A   1      36.200  22.669  24.367  1.00  0.00     0.004 A 
ATOM     12  C   UNL A   1      34.923  24.475  25.334  1.00  0.00     0.050 A 
ATOM     13  C   UNL A   1      36.119  23.984  24.799  1.00  0.00     0.021 A 
ATOM     14  Cl  UNL A   1      34.927  26.140  25.823  1.00  0.00    -0.084 Cl
BRANCH   9  15
ATOM     15  N   UNL A   1      32.736  21.422  25.011  1.00  0.00    -0.368 N 
BRANCH  15  16
ATOM     16  C   UNL A   1      32.942  20.097  25.641  1.00  0.00     0.116 C 
BRANCH  16  17
ATOM     17  C   UNL A   1      32.744  18.924  24.679  1.00  0.00     0.018 C 
ATOM     18  C   UNL A   1      34.020  18.177  24.332  1.00  0.00     0.006 C 
ENDBRANCH  16  17
ENDBRANCH  15  16
BRANCH  15  19
ATOM     19  C   UNL A   1      31.993  21.390  23.725  1.00  0.00     0.082 C 
ATOM     20  C   UNL A   1      31.387  22.619  23.103  1.00  0.00     0.027 C 
ATOM     21  C   UNL A   1      32.580  21.971  22.474  1.00  0.00     0.027 C 
ENDBRANCH  15  19
ENDBRANCH   9  15
ENDBRANCH   7   8
ENDBRANCH   4   6
ENDBRANCH   3   4
ENDBRANCH   2   3
ENDBRANCH   1   2
BRANCH   1  22
ATOM     22  O   UNL A   1      33.820  29.020  27.146  1.00  0.00    -0.374 OA
BRANCH  22  23
ATOM     23  C   UNL A   1      33.925  30.425  27.369  1.00  0.00     0.202 C 
BRANCH  23  24
ATOM     24  C   UNL A   1      35.284  30.926  27.877  1.00  0.00     0.261 C 
BRANCH  24  25
ATOM     25  O   UNL A   1      36.329  29.968  27.659  1.00  0.00    -0.460 OA
BRANCH  25  26
ATOM     26  C   UNL A   1      36.996  29.597  28.780  1.00  0.00     0.338 C 
ATOM     27  O   UNL A   1      36.531  29.410  29.889  1.00  0.00    -0.246 OA
BRANCH  26  28
ATOM     28  C   UNL A   1      38.385  29.254  28.423  1.00  0.00     0.060 A 
ATOM     29  C   UNL A   1      39.244  28.884  29.465  1.00  0.00     0.016 A 
ATOM     30  C   UNL A   1      38.847  29.322  27.107  1.00  0.00     0.016 A 
ATOM     31  C   UNL A   1      40.583  28.620  29.201  1.00  0.00     0.010 A 
ATOM     32  C   UNL A   1      40.196  29.068  26.844  1.00  0.00     0.010 A 
ATOM     33  C   UNL A   1      41.073  28.749  27.895  1.00  0.00    -0.014 A 
BRANCH  33  34
ATOM     34  C   UNL A   1      42.536  28.704  27.661  1.00  0.00     0.031 A 
ATOM     35  C   UNL A   1      43.142  27.428  27.145  1.00  0.00     0.074 A 
ATOM     36  C   UNL A   1      43.295  29.795  27.864  1.00  0.00     0.049 A 
ATOM     37  N   UNL A   1      44.393  27.153  26.886  1.00  0.00    -0.248 NA
ATOM     38  C   UNL A   1      42.214  26.313  26.887  1.00  0.00     0.031 C 
ATOM     39  C   UNL A   1      42.804  31.097  28.315  1.00  0.00     0.029 A 
ATOM     40  N   UNL A   1      44.647  29.980  27.715  1.00  0.00    -0.354 N 
ATOM     41  C   UNL A   1      44.404  25.837  26.435  1.00  0.00     0.074 A 
ATOM     42  C   UNL A   1      43.041  25.357  26.490  1.00  0.00     0.031 C 
ATOM     43  C   UNL A   1      43.842  31.948  28.407  1.00  0.00     0.029 A 
ATOM     44  C   UNL A   1      45.072  31.242  28.056  1.00  0.00     0.049 A 
ATOM     45  H   UNL A   1      45.254  29.275  27.393  1.00  0.00     0.167 HD
ATOM     46  C   UNL A   1      45.454  25.100  26.005  1.00  0.00     0.031 A 
ATOM     47  C   UNL A   1      46.316  31.757  28.099  1.00  0.00     0.031 A 
ATOM     48  C   UNL A   1      46.808  25.583  25.969  1.00  0.00     0.049 A 
ATOM     49  C   UNL A   1      47.479  30.887  27.696  1.00  0.00     0.074 A 
ATOM     50  C   UNL A   1      47.949  24.917  25.556  1.00  0.00     0.029 A 
ATOM     51  N   UNL A   1      47.205  26.853  26.363  1.00  0.00    -0.354 N 
ATOM     52  N   UNL A   1      47.472  29.649  27.259  1.00  0.00    -0.248 NA
ATOM     53  C   UNL A   1      48.818  31.487  27.782  1.00  0.00     0.031 C 
ATOM     54  C   UNL A   1      49.042  25.767  25.749  1.00  0.00     0.029 A 
ATOM     55  C   UNL A   1      48.575  26.984  26.222  1.00  0.00     0.049 A 
ATOM     56  H   UNL A   1      46.600  27.556  26.693  1.00  0.00     0.167 HD
ATOM     57  C   UNL A   1      48.799  29.334  26.989  1.00  0.00     0.074 A 
ATOM     58  C   UNL A   1      49.579  30.516  27.297  1.00  0.00     0.031 C 
ATOM     59  C   UNL A   1      49.328  28.174  26.526  1.00  0.00     0.031 A 
BRANCH  46  60
ATOM     60  C   UNL A   1      45.183  23.687  25.560  1.00  0.00    -0.014 A 
ATOM     61  C   UNL A   1      45.204  23.338  24.198  1.00  0.00     0.010 A 
ATOM     62  C   UNL A   1      44.957  22.684  26.521  1.00  0.00     0.010 A 
ATOM     63  C   UNL A   1      44.980  22.016  23.803  1.00  0.00     0.020 A 
ATOM     64  C   UNL A   1      44.759  21.356  26.131  1.00  0.00     0.020 A 
ATOM     65  C   UNL A   1      44.762  21.033  24.772  1.00  0.00     0.054 A 
BRANCH  65  66
ATOM     66  S   UNL A   1      44.519  19.318  24.232  1.00  0.00     0.124 S 
ATOM     67  O   UNL A   1      43.192  19.019  24.762  1.00  0.00    -0.237 OA
ATOM     68  O   UNL A   1      44.604  19.428  22.777  1.00  0.00    -0.237 OA
ATOM     69  O   UNL A   1      45.619  18.596  24.865  1.00  0.00    -0.744 OA
ENDBRANCH  65  66
ENDBRANCH  46  60
BRANCH  47  70
ATOM     70  C   UNL A   1      46.536  33.157  28.558  1.00  0.00    -0.014 A 
ATOM     71  C   UNL A   1      46.539  34.225  27.643  1.00  0.00     0.010 A 
ATOM     72  C   UNL A   1      46.775  33.427  29.919  1.00  0.00     0.010 A 
ATOM     73  C   UNL A   1      46.809  35.528  28.074  1.00  0.00     0.020 A 
ATOM     74  C   UNL A   1      47.015  34.732  30.359  1.00  0.00     0.020 A 
ATOM     75  C   UNL A   1      47.048  35.773  29.429  1.00  0.00     0.054 A 
BRANCH  75  76
ATOM     76  S   UNL A   1      47.379  37.474  29.968  1.00  0.00     0.124 S 
ATOM     77  O   UNL A   1      48.632  37.771  29.280  1.00  0.00    -0.237 OA
ATOM     78  O   UNL A   1      46.205  38.193  29.484  1.00  0.00    -0.237 OA
ATOM     79  O   UNL A   1      47.475  37.359  31.422  1.00  0.00    -0.744 OA
ENDBRANCH  75  76
ENDBRANCH  47  70
BRANCH  59  80
ATOM     80  C   UNL A   1      50.813  28.138  26.278  1.00  0.00    -0.014 A 
ATOM     81  C   UNL A   1      51.710  27.703  27.269  1.00  0.00     0.010 A 
ATOM     82  C   UNL A   1      51.310  28.492  25.009  1.00  0.00     0.010 A 
ATOM     83  C   UNL A   1      53.082  27.652  27.004  1.00  0.00     0.020 A 
ATOM     84  C   UNL A   1      52.676  28.413  24.732  1.00  0.00     0.020 A 
ATOM     85  C   UNL A   1      53.555  28.007  25.738  1.00  0.00     0.054 A 
BRANCH  85  86
ATOM     86  S   UNL A   1      55.335  27.889  25.407  1.00  0.00     0.124 S 
ATOM     87  O   UNL A   1      55.891  27.827  26.755  1.00  0.00    -0.237 OA
ATOM     88  O   UNL A   1      55.434  26.658  24.628  1.00  0.00    -0.237 OA
ATOM     89  O   UNL A   1      55.633  29.114  24.667  1.00  0.00    -0.744 OA
ENDBRANCH  85  86
ENDBRANCH  59  80
ENDBRANCH  33  34
ENDBRANCH  26  28
ENDBRANCH  25  26
ENDBRANCH  24  25
ENDBRANCH  23  24
ENDBRANCH  22  23
ENDBRANCH   1  22
TORSDOF 22
ENDMDL
MODEL 3
REMARK VINA RESULT:      -8.6      2.979      9.011
REMARK SMILES CCCN(c1cccc(Cl)c1/C=C/C(=O)OCCOCCOC(=O)c1ccc(-c2c3nc(c(-c4ccc(S(=O)(=O)[O-])cc4)c4ccc([nH]4)c(-c4ccc(S(=O)(=O)[O-])cc4)c4nc(c(-c5ccc(S(=O)(=O)[O-])cc5)c5ccc2[nH]5)C=C4)C=C3)cc1)C1CC1
REMARK SMILES IDX 18 1 17 2 16 3 14 4 15 5 13 6 12 7 11 8 5 9 6 10 7 11 9 12
REMARK SMILES IDX 8 13 10 14 4 15 3 16 2 17 1 18 85 19 86 20 87 21 19 22 20 23
REMARK SMILES IDX 21 24 22 25 23 26 24 27 25 28 26 29 84 30 27 31 83 32 28 33
REMARK SMILES IDX 29 34 30 35 77 36 31 37 82 38 76 39 78 40 32 41 81 42 75 43
REMARK SMILES IDX 74 44 33 46 63 47 44 48 62 49 45 50 48 51 61 52 79 53 46 54
REMARK SMILES IDX 47 55 60 57 80 58 49 59 34 60 35 61 43 62 36 63 42 64 37 65
REMARK SMILES IDX 38 66 39 67 40 68 41 69 64 70 65 71 73 72 66 73 72 74 67 75
REMARK SMILES IDX 68 76 69 77 70 78 71 79 50 80 51 81 59 82 52 83 58 84 53 85
REMARK SMILES IDX 54 86 55 87 56 88 57 89
REMARK H PARENT 78 45 48 56
REMARK Flexibility Score: inf
ROOT
ATOM      1  C   UNL A   1      31.317  27.032  27.067  1.00  0.00     0.202 C 
ENDROOT
BRANCH   1   2
ATOM      2  C   UNL A   1      31.374  25.784  26.182  1.00  0.00     0.261 C 
BRANCH   2   3
ATOM      3  O   UNL A   1      30.347  24.838  26.538  1.00  0.00    -0.460 OA
BRANCH   3   4
ATOM      4  C   UNL A   1      30.685  23.535  26.402  1.00  0.00     0.330 C 
ATOM      5  O   UNL A   1      29.953  22.573  26.593  1.00  0.00    -0.247 OA
BRANCH   4   6
ATOM      6  C   UNL A   1      32.076  23.341  25.952  1.00  0.00     0.094 C 
ATOM      7  C   UNL A   1      32.492  22.843  24.779  1.00  0.00     0.019 C 
BRANCH   7   8
ATOM      8  C   UNL A   1      33.930  22.649  24.471  1.00  0.00     0.017 A 
ATOM      9  C   UNL A   1      34.676  23.560  23.668  1.00  0.00     0.046 A 
ATOM     10  C   UNL A   1      36.052  23.307  23.455  1.00  0.00     0.026 A 
ATOM     11  C   UNL A   1      36.685  22.185  23.981  1.00  0.00     0.004 A 
ATOM     12  C   UNL A   1      34.603  21.529  25.014  1.00  0.00     0.050 A 
ATOM     13  C   UNL A   1      35.961  21.297  24.763  1.00  0.00     0.021 A 
ATOM     14  Cl  UNL A   1      33.800  20.367  26.022  1.00  0.00    -0.084 Cl
BRANCH   9  15
ATOM     15  N   UNL A   1      34.121  24.779  23.167  1.00  0.00    -0.368 N 
BRANCH  15  16
ATOM     16  C   UNL A   1      34.024  25.892  24.140  1.00  0.00     0.116 C 
BRANCH  16  17
ATOM     17  C   UNL A   1      33.247  27.099  23.614  1.00  0.00     0.018 C 
ATOM     18  C   UNL A   1      34.096  28.337  23.380  1.00  0.00     0.006 C 
ENDBRANCH  16  17
ENDBRANCH  15  16
BRANCH  15  19
ATOM     19  C   UNL A   1      32.927  24.604  22.301  1.00  0.00     0.082 C 
ATOM     20  C   UNL A   1      32.875  25.084  20.876  1.00  0.00     0.027 C 
ATOM     21  C   UNL A   1      32.923  23.619  21.172  1.00  0.00     0.027 C 
ENDBRANCH  15  19
ENDBRANCH   9  15
ENDBRANCH   7   8
ENDBRANCH   4   6
ENDBRANCH   3   4
ENDBRANCH   2   3
ENDBRANCH   1   2
BRANCH   1  22
ATOM     22  O   UNL A   1      32.334  28.009  26.834  1.00  0.00    -0.374 OA
BRANCH  22  23
ATOM     23  C   UNL A   1      31.892  29.258  26.306  1.00  0.00     0.202 C 
BRANCH  23  24
ATOM     24  C   UNL A   1      32.830  30.453  26.526  1.00  0.00     0.261 C 
BRANCH  24  25
ATOM     25  O   UNL A   1      33.820  30.185  27.530  1.00  0.00    -0.460 OA
BRANCH  25  26
ATOM     26  C   UNL A   1      34.513  31.275  27.941  1.00  0.00     0.338 C 
ATOM     27  O   UNL A   1      34.103  32.416  28.049  1.00  0.00    -0.246 OA
BRANCH  26  28
ATOM     28  C   UNL A   1      35.832  30.846  28.441  1.00  0.00     0.060 A 
ATOM     29  C   UNL A   1      35.877  29.689  29.228  1.00  0.00     0.016 A 
ATOM     30  C   UNL A   1      36.994  31.574  28.174  1.00  0.00     0.016 A 
ATOM     31  C   UNL A   1      37.081  29.276  29.788  1.00  0.00     0.010 A 
ATOM     32  C   UNL A   1      38.201  31.164  28.747  1.00  0.00     0.010 A 
ATOM     33  C   UNL A   1      38.240  30.033  29.582  1.00  0.00    -0.014 A 
BRANCH  33  34
ATOM     34  C   UNL A   1      39.457  29.728  30.371  1.00  0.00     0.031 A 
ATOM     35  C   UNL A   1      40.352  28.611  29.908  1.00  0.00     0.074 A 
ATOM     36  C   UNL A   1      39.775  30.463  31.451  1.00  0.00     0.049 A 
ATOM     37  N   UNL A   1      41.452  28.156  30.447  1.00  0.00    -0.248 NA
ATOM     38  C   UNL A   1      39.952  27.914  28.673  1.00  0.00     0.031 C 
ATOM     39  C   UNL A   1      39.006  31.599  31.959  1.00  0.00     0.029 A 
ATOM     40  N   UNL A   1      40.834  30.362  32.317  1.00  0.00    -0.354 N 
ATOM     41  C   UNL A   1      41.877  27.122  29.619  1.00  0.00     0.074 A 
ATOM     42  C   UNL A   1      40.898  26.992  28.563  1.00  0.00     0.031 C 
ATOM     43  C   UNL A   1      39.619  32.089  33.050  1.00  0.00     0.029 A 
ATOM     44  C   UNL A   1      40.803  31.282  33.338  1.00  0.00     0.049 A 
ATOM     45  H   UNL A   1      41.550  29.693  32.216  1.00  0.00     0.167 HD
ATOM     46  C   UNL A   1      42.988  26.357  29.726  1.00  0.00     0.031 A 
ATOM     47  C   UNL A   1      41.626  31.438  34.393  1.00  0.00     0.031 A 
ATOM     48  C   UNL A   1      43.948  26.485  30.790  1.00  0.00     0.049 A 
ATOM     49  C   UNL A   1      42.810  30.516  34.535  1.00  0.00     0.074 A 
ATOM     50  C   UNL A   1      45.106  25.757  30.996  1.00  0.00     0.029 A 
ATOM     51  N   UNL A   1      43.858  27.401  31.828  1.00  0.00    -0.354 N 
ATOM     52  N   UNL A   1      43.206  29.551  33.737  1.00  0.00    -0.248 NA
ATOM     53  C   UNL A   1      43.664  30.709  35.715  1.00  0.00     0.031 C 
ATOM     54  C   UNL A   1      45.690  26.198  32.187  1.00  0.00     0.029 A 
ATOM     55  C   UNL A   1      44.930  27.243  32.690  1.00  0.00     0.049 A 
ATOM     56  H   UNL A   1      43.139  28.065  31.936  1.00  0.00     0.167 HD
ATOM     57  C   UNL A   1      44.372  29.046  34.302  1.00  0.00     0.074 A 
ATOM     58  C   UNL A   1      44.625  29.821  35.500  1.00  0.00     0.031 C 
ATOM     59  C   UNL A   1      45.165  28.034  33.870  1.00  0.00     0.031 A 
BRANCH  46  60
ATOM     60  C   UNL A   1      43.214  25.300  28.678  1.00  0.00    -0.014 A 
ATOM     61  C   UNL A   1      42.552  24.060  28.742  1.00  0.00     0.010 A 
ATOM     62  C   UNL A   1      44.060  25.569  27.586  1.00  0.00     0.010 A 
ATOM     63  C   UNL A   1      42.751  23.101  27.745  1.00  0.00     0.020 A 
ATOM     64  C   UNL A   1      44.240  24.622  26.574  1.00  0.00     0.020 A 
ATOM     65  C   UNL A   1      43.591  23.389  26.666  1.00  0.00     0.054 A 
BRANCH  65  66
ATOM     66  S   UNL A   1      43.794  22.141  25.365  1.00  0.00     0.124 S 
ATOM     67  O   UNL A   1      42.992  21.034  25.880  1.00  0.00    -0.237 OA
ATOM     68  O   UNL A   1      43.250  22.815  24.188  1.00  0.00    -0.237 OA
ATOM     69  O   UNL A   1      45.234  21.903  25.332  1.00  0.00    -0.744 OA
ENDBRANCH  65  66
ENDBRANCH  46  60
BRANCH  47  70
ATOM     70  C   UNL A   1      41.354  32.490  35.412  1.00  0.00    -0.014 A 
ATOM     71  C   UNL A   1      40.447  32.261  36.460  1.00  0.00     0.010 A 
ATOM     72  C   UNL A   1      41.985  33.745  35.320  1.00  0.00     0.010 A 
ATOM     73  C   UNL A   1      40.149  33.276  37.377  1.00  0.00     0.020 A 
ATOM     74  C   UNL A   1      41.715  34.752  36.250  1.00  0.00     0.020 A 
ATOM     75  C   UNL A   1      40.784  34.516  37.263  1.00  0.00     0.054 A 
BRANCH  75  76
ATOM     76  S   UNL A   1      40.396  35.813  38.473  1.00  0.00     0.124 S 
ATOM     77  O   UNL A   1      39.564  36.720  37.688  1.00  0.00    -0.237 OA
ATOM     78  O   UNL A   1      39.706  35.069  39.522  1.00  0.00    -0.237 OA
ATOM     79  O   UNL A   1      41.709  36.334  38.848  1.00  0.00    -0.744 OA
ENDBRANCH  75  76
ENDBRANCH  47  70
BRANCH  59  80
ATOM     80  C   UNL A   1      46.407  27.735  34.669  1.00  0.00    -0.014 A 
ATOM     81  C   UNL A   1      46.399  26.788  35.708  1.00  0.00     0.010 A 
ATOM     82  C   UNL A   1      47.615  28.375  34.332  1.00  0.00     0.010 A 
ATOM     83  C   UNL A   1      47.572  26.509  36.416  1.00  0.00     0.020 A 
ATOM     84  C   UNL A   1      48.794  28.077  35.017  1.00  0.00     0.020 A 
ATOM     85  C   UNL A   1      48.761  27.155  36.065  1.00  0.00     0.054 A 
BRANCH  85  86
ATOM     86  S   UNL A   1      50.278  26.741  36.971  1.00  0.00     0.124 S 
ATOM     87  O   UNL A   1      49.797  26.655  38.346  1.00  0.00    -0.237 OA
ATOM     88  O   UNL A   1      50.677  25.474  36.363  1.00  0.00    -0.237 OA
ATOM     89  O   UNL A   1      51.167  27.866  36.691  1.00  0.00    -0.744 OA
ENDBRANCH  85  86
ENDBRANCH  59  80
ENDBRANCH  33  34
ENDBRANCH  26  28
ENDBRANCH  25  26
ENDBRANCH  24  25
ENDBRANCH  23  24
ENDBRANCH  22  23
ENDBRANCH   1  22
TORSDOF 22
ENDMDL
