MODEL 1
REMARK VINA RESULT:     -10.5      0.000      0.000
REMARK SMILES Cc1cc2c(c(C)c1Cl)C=C(C(=O)OCCOCCOC(=O)c1ccc(-c3c4nc(c(-c5ccc(S(=O)(=O)[O-])cc5)c5ccc([nH]5)c(-c5ccc(S(=O)(=O)[O-])cc5)c5nc(c(-c6ccc(S(=O)(=O)[O-])cc6)c6ccc3[nH]6)C=C5)C=C4)cc1)[C@@H](C(F)(F)F)O2
REMARK SMILES IDX 18 1 17 2 16 3 15 4 14 5 12 6 13 7 11 8 1 9 2 10 3 11 8 12
REMARK SMILES IDX 4 13 6 14 9 15 5 16 88 17 7 18 10 19 83 20 84 21 85 22 86 23
REMARK SMILES IDX 87 24 19 25 20 26 21 27 22 28 23 29 24 30 82 31 25 32 81 33
REMARK SMILES IDX 26 34 27 35 28 36 75 37 29 38 80 39 74 40 76 41 30 42 79 43
REMARK SMILES IDX 73 44 72 45 31 47 61 48 42 49 60 50 43 51 46 52 59 53 77 54
REMARK SMILES IDX 44 55 45 56 58 58 78 59 47 60 32 61 33 62 41 63 34 64 40 65
REMARK SMILES IDX 35 66 36 67 37 68 38 69 39 70 62 71 63 72 71 73 64 74 70 75
REMARK SMILES IDX 65 76 66 77 67 78 68 79 69 80 48 81 49 82 57 83 50 84 56 85
REMARK SMILES IDX 51 86 52 87 53 88 54 89 55 90
REMARK H PARENT 76 46 46 57
REMARK Flexibility Score: inf
ROOT
ATOM      1  C   UNL A   1      31.807  30.291  26.672  1.00  0.00     0.202 C 
ENDROOT
BRANCH   1   2
ATOM      2  O   UNL A   1      31.410  29.153  27.439  1.00  0.00    -0.374 OA
BRANCH   2   3
ATOM      3  C   UNL A   1      32.147  27.944  27.269  1.00  0.00     0.202 C 
BRANCH   3   4
ATOM      4  C   UNL A   1      32.964  27.803  25.981  1.00  0.00     0.261 C 
BRANCH   4   5
ATOM      5  O   UNL A   1      32.260  27.055  24.977  1.00  0.00    -0.460 OA
BRANCH   5   6
ATOM      6  C   UNL A   1      33.060  26.424  24.087  1.00  0.00     0.338 C 
ATOM      7  O   UNL A   1      33.748  26.942  23.220  1.00  0.00    -0.246 OA
BRANCH   6   8
ATOM      8  C   UNL A   1      33.112  24.982  24.394  1.00  0.00     0.087 C 
ATOM      9  C   UNL A   1      34.714  18.724  24.723  1.00  0.00     0.046 C 
ATOM     10  C   UNL A   1      34.670  20.227  24.781  1.00  0.00    -0.028 A 
ATOM     11  C   UNL A   1      33.424  20.867  24.792  1.00  0.00     0.052 A 
ATOM     12  C   UNL A   1      35.841  21.010  24.804  1.00  0.00     0.047 A 
ATOM     13  C   UNL A   1      33.336  22.257  24.759  1.00  0.00     0.128 A 
ATOM     14  C   UNL A   1      35.772  22.422  24.794  1.00  0.00    -0.021 A 
ATOM     15  Cl  UNL A   1      37.380  20.201  24.825  1.00  0.00    -0.084 Cl
ATOM     16  C   UNL A   1      34.496  23.037  24.724  1.00  0.00     0.022 A 
ATOM     17  O   UNL A   1      32.065  22.761  24.766  1.00  0.00    -0.475 OA
ATOM     18  C   UNL A   1      37.012  23.284  24.847  1.00  0.00     0.047 C 
ATOM     19  C   UNL A   1      34.341  24.477  24.547  1.00  0.00     0.027 C 
ATOM     20  C   UNL A   1      31.854  24.174  24.492  1.00  0.00     0.316 C 
BRANCH  20  21
ATOM     21  C   UNL A   1      30.967  24.296  23.243  1.00  0.00     0.430 C 
ATOM     22  F   UNL A   1      30.006  25.234  23.419  1.00  0.00    -0.167 F 
ATOM     23  F   UNL A   1      31.682  24.665  22.156  1.00  0.00    -0.167 F 
ATOM     24  F   UNL A   1      30.349  23.129  22.951  1.00  0.00    -0.167 F 
ENDBRANCH  20  21
ENDBRANCH   6   8
ENDBRANCH   5   6
ENDBRANCH   4   5
ENDBRANCH   3   4
ENDBRANCH   2   3
ENDBRANCH   1   2
BRANCH   1  25
ATOM     25  C   UNL A   1      32.877  31.215  27.266  1.00  0.00     0.261 C 
BRANCH  25  26
ATOM     26  O   UNL A   1      34.126  30.533  27.485  1.00  0.00    -0.460 OA
BRANCH  26  27
ATOM     27  C   UNL A   1      34.886  31.046  28.483  1.00  0.00     0.338 C 
ATOM     28  O   UNL A   1      34.541  31.860  29.329  1.00  0.00    -0.246 OA
BRANCH  27  29
ATOM     29  C   UNL A   1      36.174  30.336  28.548  1.00  0.00     0.060 A 
ATOM     30  C   UNL A   1      36.543  29.769  29.774  1.00  0.00     0.016 A 
ATOM     31  C   UNL A   1      37.042  30.300  27.455  1.00  0.00     0.016 A 
ATOM     32  C   UNL A   1      37.802  29.194  29.923  1.00  0.00     0.010 A 
ATOM     33  C   UNL A   1      38.312  29.734  27.612  1.00  0.00     0.010 A 
ATOM     34  C   UNL A   1      38.709  29.208  28.854  1.00  0.00    -0.014 A 
BRANCH  34  35
ATOM     35  C   UNL A   1      40.116  28.810  29.095  1.00  0.00     0.031 A 
ATOM     36  C   UNL A   1      41.037  29.776  29.790  1.00  0.00     0.074 A 
ATOM     37  C   UNL A   1      40.551  27.583  28.757  1.00  0.00     0.049 A 
ATOM     38  N   UNL A   1      42.291  29.624  30.127  1.00  0.00    -0.248 NA
ATOM     39  C   UNL A   1      40.467  31.083  30.160  1.00  0.00     0.031 C 
ATOM     40  C   UNL A   1      39.737  26.541  28.130  1.00  0.00     0.029 A 
ATOM     41  N   UNL A   1      41.784  27.002  28.907  1.00  0.00    -0.354 N 
ATOM     42  C   UNL A   1      42.659  30.809  30.756  1.00  0.00     0.074 A 
ATOM     43  C   UNL A   1      41.508  31.683  30.718  1.00  0.00     0.031 C 
ATOM     44  C   UNL A   1      40.492  25.443  27.958  1.00  0.00     0.029 A 
ATOM     45  C   UNL A   1      41.848  25.712  28.433  1.00  0.00     0.049 A 
ATOM     46  H   UNL A   1      42.552  27.465  29.314  1.00  0.00     0.167 HD
ATOM     47  C   UNL A   1      43.844  31.133  31.324  1.00  0.00     0.031 A 
ATOM     48  C   UNL A   1      42.884  24.852  28.384  1.00  0.00     0.031 A 
ATOM     49  C   UNL A   1      44.992  30.268  31.345  1.00  0.00     0.049 A 
ATOM     50  C   UNL A   1      44.223  25.274  28.930  1.00  0.00     0.074 A 
ATOM     51  C   UNL A   1      46.238  30.507  31.896  1.00  0.00     0.029 A 
ATOM     52  N   UNL A   1      45.038  28.999  30.785  1.00  0.00    -0.354 N 
ATOM     53  N   UNL A   1      44.551  26.393  29.532  1.00  0.00    -0.248 NA
ATOM     54  C   UNL A   1      45.331  24.318  28.792  1.00  0.00     0.031 C 
ATOM     55  C   UNL A   1      47.056  29.407  31.621  1.00  0.00     0.029 A 
ATOM     56  C   UNL A   1      46.301  28.457  30.951  1.00  0.00     0.049 A 
ATOM     57  H   UNL A   1      44.285  28.551  30.338  1.00  0.00     0.167 HD
ATOM     58  C   UNL A   1      45.896  26.267  29.862  1.00  0.00     0.074 A 
ATOM     59  C   UNL A   1      46.318  24.958  29.405  1.00  0.00     0.031 C 
ATOM     60  C   UNL A   1      46.709  27.155  30.486  1.00  0.00     0.031 A 
BRANCH  47  61
ATOM     61  C   UNL A   1      43.963  32.493  31.957  1.00  0.00    -0.014 A 
ATOM     62  C   UNL A   1      43.667  32.686  33.318  1.00  0.00     0.010 A 
ATOM     63  C   UNL A   1      44.424  33.581  31.194  1.00  0.00     0.010 A 
ATOM     64  C   UNL A   1      43.803  33.949  33.898  1.00  0.00     0.020 A 
ATOM     65  C   UNL A   1      44.584  34.841  31.777  1.00  0.00     0.020 A 
ATOM     66  C   UNL A   1      44.261  35.019  33.124  1.00  0.00     0.054 A 
BRANCH  66  67
ATOM     67  S   UNL A   1      44.454  36.641  33.913  1.00  0.00     0.124 S 
ATOM     68  O   UNL A   1      43.072  37.113  33.974  1.00  0.00    -0.237 OA
ATOM     69  O   UNL A   1      45.058  36.300  35.199  1.00  0.00    -0.237 OA
ATOM     70  O   UNL A   1      45.320  37.375  32.994  1.00  0.00    -0.744 OA
ENDBRANCH  66  67
ENDBRANCH  47  61
BRANCH  48  71
ATOM     71  C   UNL A   1      42.697  23.501  27.787  1.00  0.00    -0.014 A 
ATOM     72  C   UNL A   1      43.073  23.250  26.456  1.00  0.00     0.010 A 
ATOM     73  C   UNL A   1      42.152  22.454  28.552  1.00  0.00     0.010 A 
ATOM     74  C   UNL A   1      42.904  21.979  25.899  1.00  0.00     0.020 A 
ATOM     75  C   UNL A   1      42.004  21.175  28.008  1.00  0.00     0.020 A 
ATOM     76  C   UNL A   1      42.374  20.948  26.681  1.00  0.00     0.054 A 
BRANCH  76  77
ATOM     77  S   UNL A   1      42.220  19.292  25.954  1.00  0.00     0.124 S 
ATOM     78  O   UNL A   1      42.747  18.443  27.017  1.00  0.00    -0.237 OA
ATOM     79  O   UNL A   1      40.783  19.188  25.714  1.00  0.00    -0.237 OA
ATOM     80  O   UNL A   1      43.041  19.370  24.748  1.00  0.00    -0.744 OA
ENDBRANCH  76  77
ENDBRANCH  48  71
BRANCH  60  81
ATOM     81  C   UNL A   1      48.139  26.750  30.728  1.00  0.00    -0.014 A 
ATOM     82  C   UNL A   1      49.154  27.111  29.826  1.00  0.00     0.010 A 
ATOM     83  C   UNL A   1      48.483  26.086  31.921  1.00  0.00     0.010 A 
ATOM     84  C   UNL A   1      50.488  26.806  30.106  1.00  0.00     0.020 A 
ATOM     85  C   UNL A   1      49.819  25.802  32.216  1.00  0.00     0.020 A 
ATOM     86  C   UNL A   1      50.813  26.158  31.303  1.00  0.00     0.054 A 
BRANCH  86  87
ATOM     87  S   UNL A   1      52.560  25.840  31.673  1.00  0.00     0.124 S 
ATOM     88  O   UNL A   1      53.191  26.055  30.373  1.00  0.00    -0.237 OA
ATOM     89  O   UNL A   1      52.859  26.846  32.691  1.00  0.00    -0.237 OA
ATOM     90  O   UNL A   1      52.570  24.459  32.149  1.00  0.00    -0.744 OA
ENDBRANCH  86  87
ENDBRANCH  60  81
ENDBRANCH  34  35
ENDBRANCH  27  29
ENDBRANCH  26  27
ENDBRANCH  25  26
ENDBRANCH   1  25
TORSDOF 18
ENDMDL
MODEL 2
REMARK VINA RESULT:     -10.4      3.141      3.871
REMARK SMILES Cc1cc2c(c(C)c1Cl)C=C(C(=O)OCCOCCOC(=O)c1ccc(-c3c4nc(c(-c5ccc(S(=O)(=O)[O-])cc5)c5ccc([nH]5)c(-c5ccc(S(=O)(=O)[O-])cc5)c5nc(c(-c6ccc(S(=O)(=O)[O-])cc6)c6ccc3[nH]6)C=C5)C=C4)cc1)[C@@H](C(F)(F)F)O2
REMARK SMILES IDX 18 1 17 2 16 3 15 4 14 5 12 6 13 7 11 8 1 9 2 10 3 11 8 12
REMARK SMILES IDX 4 13 6 14 9 15 5 16 88 17 7 18 10 19 83 20 84 21 85 22 86 23
REMARK SMILES IDX 87 24 19 25 20 26 21 27 22 28 23 29 24 30 82 31 25 32 81 33
REMARK SMILES IDX 26 34 27 35 28 36 75 37 29 38 80 39 74 40 76 41 30 42 79 43
REMARK SMILES IDX 73 44 72 45 31 47 61 48 42 49 60 50 43 51 46 52 59 53 77 54
REMARK SMILES IDX 44 55 45 56 58 58 78 59 47 60 32 61 33 62 41 63 34 64 40 65
REMARK SMILES IDX 35 66 36 67 37 68 38 69 39 70 62 71 63 72 71 73 64 74 70 75
REMARK SMILES IDX 65 76 66 77 67 78 68 79 69 80 48 81 49 82 57 83 50 84 56 85
REMARK SMILES IDX 51 86 52 87 53 88 54 89 55 90
REMARK H PARENT 76 46 46 57
REMARK Flexibility Score: inf
ROOT
ATOM      1  C   UNL A   1      34.080  31.014  27.711  1.00  0.00     0.202 C 
ENDROOT
BRANCH   1   2
ATOM      2  O   UNL A   1      33.025  30.866  26.759  1.00  0.00    -0.374 OA
BRANCH   2   3
ATOM      3  C   UNL A   1      32.120  29.778  26.930  1.00  0.00     0.202 C 
BRANCH   3   4
ATOM      4  C   UNL A   1      32.031  28.761  25.788  1.00  0.00     0.261 C 
BRANCH   4   5
ATOM      5  O   UNL A   1      32.797  27.578  26.060  1.00  0.00    -0.460 OA
BRANCH   5   6
ATOM      6  C   UNL A   1      33.345  27.002  24.966  1.00  0.00     0.338 C 
ATOM      7  O   UNL A   1      33.943  27.564  24.060  1.00  0.00    -0.246 OA
BRANCH   6   8
ATOM      8  C   UNL A   1      33.251  25.534  25.071  1.00  0.00     0.087 C 
ATOM      9  C   UNL A   1      34.259  19.163  24.583  1.00  0.00     0.046 C 
ATOM     10  C   UNL A   1      34.350  20.642  24.846  1.00  0.00    -0.028 A 
ATOM     11  C   UNL A   1      33.168  21.391  24.905  1.00  0.00     0.052 A 
ATOM     12  C   UNL A   1      35.585  21.298  25.016  1.00  0.00     0.047 A 
ATOM     13  C   UNL A   1      33.208  22.776  25.062  1.00  0.00     0.128 A 
ATOM     14  C   UNL A   1      35.645  22.698  25.199  1.00  0.00    -0.021 A 
ATOM     15  Cl  UNL A   1      37.041  20.348  24.974  1.00  0.00    -0.084 Cl
ATOM     16  C   UNL A   1      34.436  23.437  25.174  1.00  0.00     0.022 A 
ATOM     17  O   UNL A   1      31.990  23.394  25.098  1.00  0.00    -0.475 OA
ATOM     18  C   UNL A   1      36.956  23.421  25.412  1.00  0.00     0.047 C 
ATOM     19  C   UNL A   1      34.420  24.896  25.193  1.00  0.00     0.027 C 
ATOM     20  C   UNL A   1      31.921  24.845  25.016  1.00  0.00     0.316 C 
BRANCH  20  21
ATOM     21  C   UNL A   1      31.108  25.220  23.767  1.00  0.00     0.430 C 
ATOM     22  F   UNL A   1      30.356  26.324  23.990  1.00  0.00    -0.167 F 
ATOM     23  F   UNL A   1      31.907  25.494  22.712  1.00  0.00    -0.167 F 
ATOM     24  F   UNL A   1      30.268  24.225  23.398  1.00  0.00    -0.167 F 
ENDBRANCH  20  21
ENDBRANCH   6   8
ENDBRANCH   5   6
ENDBRANCH   4   5
ENDBRANCH   3   4
ENDBRANCH   2   3
ENDBRANCH   1   2
BRANCH   1  25
ATOM     25  C   UNL A   1      35.063  29.848  27.873  1.00  0.00     0.261 C 
BRANCH  25  26
ATOM     26  O   UNL A   1      36.411  30.300  28.104  1.00  0.00    -0.460 OA
BRANCH  26  27
ATOM     27  C   UNL A   1      37.061  29.659  29.106  1.00  0.00     0.338 C 
ATOM     28  O   UNL A   1      36.608  29.352  30.201  1.00  0.00    -0.246 OA
BRANCH  27  29
ATOM     29  C   UNL A   1      38.371  29.186  28.631  1.00  0.00     0.060 A 
ATOM     30  C   UNL A   1      39.273  28.699  29.586  1.00  0.00     0.016 A 
ATOM     31  C   UNL A   1      38.744  29.299  27.291  1.00  0.00     0.016 A 
ATOM     32  C   UNL A   1      40.568  28.355  29.208  1.00  0.00     0.010 A 
ATOM     33  C   UNL A   1      40.051  28.966  26.917  1.00  0.00     0.010 A 
ATOM     34  C   UNL A   1      40.976  28.524  27.879  1.00  0.00    -0.014 A 
BRANCH  34  35
ATOM     35  C   UNL A   1      42.412  28.381  27.540  1.00  0.00     0.031 A 
ATOM     36  C   UNL A   1      43.337  29.542  27.787  1.00  0.00     0.074 A 
ATOM     37  C   UNL A   1      42.897  27.214  27.080  1.00  0.00     0.049 A 
ATOM     38  N   UNL A   1      44.628  29.625  27.594  1.00  0.00    -0.248 NA
ATOM     39  C   UNL A   1      42.728  30.768  28.329  1.00  0.00     0.031 C 
ATOM     40  C   UNL A   1      42.110  26.002  26.855  1.00  0.00     0.029 A 
ATOM     41  N   UNL A   1      44.175  26.855  26.732  1.00  0.00    -0.354 N 
ATOM     42  C   UNL A   1      44.988  30.906  27.998  1.00  0.00     0.074 A 
ATOM     43  C   UNL A   1      43.775  31.577  28.410  1.00  0.00     0.031 C 
ATOM     44  C   UNL A   1      42.925  25.028  26.414  1.00  0.00     0.029 A 
ATOM     45  C   UNL A   1      44.284  25.555  26.298  1.00  0.00     0.049 A 
ATOM     46  H   UNL A   1      44.941  27.471  26.787  1.00  0.00     0.167 HD
ATOM     47  C   UNL A   1      46.219  31.467  28.035  1.00  0.00     0.031 A 
ATOM     48  C   UNL A   1      45.357  24.871  25.853  1.00  0.00     0.031 A 
ATOM     49  C   UNL A   1      47.421  30.804  27.609  1.00  0.00     0.049 A 
ATOM     50  C   UNL A   1      46.700  25.551  25.806  1.00  0.00     0.074 A 
ATOM     51  C   UNL A   1      48.716  31.290  27.607  1.00  0.00     0.029 A 
ATOM     52  N   UNL A   1      47.477  29.513  27.103  1.00  0.00    -0.354 N 
ATOM     53  N   UNL A   1      47.025  26.759  26.203  1.00  0.00    -0.248 NA
ATOM     54  C   UNL A   1      47.820  24.777  25.253  1.00  0.00     0.031 C 
ATOM     55  C   UNL A   1      49.548  30.315  27.048  1.00  0.00     0.029 A 
ATOM     56  C   UNL A   1      48.780  29.199  26.757  1.00  0.00     0.049 A 
ATOM     57  H   UNL A   1      46.705  28.911  27.006  1.00  0.00     0.167 HD
ATOM     58  C   UNL A   1      48.391  26.882  25.966  1.00  0.00     0.074 A 
ATOM     59  C   UNL A   1      48.833  25.621  25.404  1.00  0.00     0.031 C 
ATOM     60  C   UNL A   1      49.204  27.942  26.193  1.00  0.00     0.031 A 
BRANCH  47  61
ATOM     61  C   UNL A   1      46.325  32.881  28.539  1.00  0.00    -0.014 A 
ATOM     62  C   UNL A   1      46.583  33.946  27.658  1.00  0.00     0.010 A 
ATOM     63  C   UNL A   1      46.115  33.154  29.903  1.00  0.00     0.010 A 
ATOM     64  C   UNL A   1      46.657  35.256  28.136  1.00  0.00     0.020 A 
ATOM     65  C   UNL A   1      46.165  34.467  30.381  1.00  0.00     0.020 A 
ATOM     66  C   UNL A   1      46.448  35.509  29.495  1.00  0.00     0.054 A 
BRANCH  66  67
ATOM     67  S   UNL A   1      46.523  37.223  30.080  1.00  0.00     0.124 S 
ATOM     68  O   UNL A   1      47.433  37.833  29.113  1.00  0.00    -0.237 OA
ATOM     69  O   UNL A   1      45.130  37.654  29.988  1.00  0.00    -0.237 OA
ATOM     70  O   UNL A   1      47.048  37.106  31.438  1.00  0.00    -0.744 OA
ENDBRANCH  66  67
ENDBRANCH  47  61
BRANCH  48  71
ATOM     71  C   UNL A   1      45.202  23.458  25.408  1.00  0.00    -0.014 A 
ATOM     72  C   UNL A   1      44.949  23.158  24.058  1.00  0.00     0.010 A 
ATOM     73  C   UNL A   1      45.321  22.404  26.332  1.00  0.00     0.010 A 
ATOM     74  C   UNL A   1      44.812  21.831  23.642  1.00  0.00     0.020 A 
ATOM     75  C   UNL A   1      45.210  21.075  25.915  1.00  0.00     0.020 A 
ATOM     76  C   UNL A   1      44.947  20.797  24.573  1.00  0.00     0.054 A 
BRANCH  76  77
ATOM     77  S   UNL A   1      44.824  19.081  23.995  1.00  0.00     0.124 S 
ATOM     78  O   UNL A   1      43.647  18.603  24.714  1.00  0.00    -0.237 OA
ATOM     79  O   UNL A   1      44.663  19.247  22.553  1.00  0.00    -0.237 OA
ATOM     80  O   UNL A   1      46.094  18.489  24.409  1.00  0.00    -0.744 OA
ENDBRANCH  76  77
ENDBRANCH  48  71
BRANCH  60  81
ATOM     81  C   UNL A   1      50.662  27.796  25.847  1.00  0.00    -0.014 A 
ATOM     82  C   UNL A   1      51.540  27.102  26.698  1.00  0.00     0.010 A 
ATOM     83  C   UNL A   1      51.137  28.272  24.611  1.00  0.00     0.010 A 
ATOM     84  C   UNL A   1      52.870  26.897  26.324  1.00  0.00     0.020 A 
ATOM     85  C   UNL A   1      52.461  28.047  24.223  1.00  0.00     0.020 A 
ATOM     86  C   UNL A   1      53.321  27.366  25.086  1.00  0.00     0.054 A 
BRANCH  86  87
ATOM     87  S   UNL A   1      55.034  27.021  24.597  1.00  0.00     0.124 S 
ATOM     88  O   UNL A   1      54.999  27.283  23.161  1.00  0.00    -0.237 OA
ATOM     89  O   UNL A   1      55.793  27.983  25.393  1.00  0.00    -0.237 OA
ATOM     90  O   UNL A   1      55.228  25.622  24.970  1.00  0.00    -0.744 OA
ENDBRANCH  86  87
ENDBRANCH  60  81
ENDBRANCH  34  35
ENDBRANCH  27  29
ENDBRANCH  26  27
ENDBRANCH  25  26
ENDBRANCH   1  25
TORSDOF 18
ENDMDL
MODEL 3
REMARK VINA RESULT:     -10.4      3.015      8.678
REMARK SMILES Cc1cc2c(c(C)c1Cl)C=C(C(=O)OCCOCCOC(=O)c1ccc(-c3c4nc(c(-c5ccc(S(=O)(=O)[O-])cc5)c5ccc([nH]5)c(-c5ccc(S(=O)(=O)[O-])cc5)c5nc(c(-c6ccc(S(=O)(=O)[O-])cc6)c6ccc3[nH]6)C=C5)C=C4)cc1)[C@@H](C(F)(F)F)O2
REMARK SMILES IDX 18 1 17 2 16 3 15 4 14 5 12 6 13 7 11 8 1 9 2 10 3 11 8 12
REMARK SMILES IDX 4 13 6 14 9 15 5 16 88 17 7 18 10 19 83 20 84 21 85 22 86 23
REMARK SMILES IDX 87 24 19 25 20 26 21 27 22 28 23 29 24 30 82 31 25 32 81 33
REMARK SMILES IDX 26 34 27 35 28 36 75 37 29 38 80 39 74 40 76 41 30 42 79 43
REMARK SMILES IDX 73 44 72 45 31 47 61 48 42 49 60 50 43 51 46 52 59 53 77 54
REMARK SMILES IDX 44 55 45 56 58 58 78 59 47 60 32 61 33 62 41 63 34 64 40 65
REMARK SMILES IDX 35 66 36 67 37 68 38 69 39 70 62 71 63 72 71 73 64 74 70 75
REMARK SMILES IDX 65 76 66 77 67 78 68 79 69 80 48 81 49 82 57 83 50 84 56 85
REMARK SMILES IDX 51 86 52 87 53 88 54 89 55 90
REMARK H PARENT 76 46 46 57
REMARK Flexibility Score: inf
ROOT
ATOM      1  C   UNL A   1      35.001  32.610  28.276  1.00  0.00     0.202 C 
ENDROOT
BRANCH   1   2
ATOM      2  O   UNL A   1      34.830  31.562  27.320  1.00  0.00    -0.374 OA
BRANCH   2   3
ATOM      3  C   UNL A   1      34.301  30.320  27.778  1.00  0.00     0.202 C 
BRANCH   3   4
ATOM      4  C   UNL A   1      34.794  29.052  27.076  1.00  0.00     0.261 C 
BRANCH   4   5
ATOM      5  O   UNL A   1      33.753  28.070  26.947  1.00  0.00    -0.460 OA
BRANCH   5   6
ATOM      6  C   UNL A   1      33.673  27.498  25.724  1.00  0.00     0.338 C 
ATOM      7  O   UNL A   1      33.899  28.030  24.647  1.00  0.00    -0.246 OA
BRANCH   6   8
ATOM      8  C   UNL A   1      33.403  26.055  25.861  1.00  0.00     0.087 C 
ATOM      9  C   UNL A   1      33.395  19.618  25.224  1.00  0.00     0.046 C 
ATOM     10  C   UNL A   1      33.744  21.065  25.447  1.00  0.00    -0.028 A 
ATOM     11  C   UNL A   1      32.718  21.967  25.757  1.00  0.00     0.052 A 
ATOM     12  C   UNL A   1      35.065  21.543  25.334  1.00  0.00     0.047 A 
ATOM     13  C   UNL A   1      32.982  23.329  25.888  1.00  0.00     0.128 A 
ATOM     14  C   UNL A   1      35.355  22.918  25.486  1.00  0.00    -0.021 A 
ATOM     15  Cl  UNL A   1      36.331  20.405  24.982  1.00  0.00    -0.084 Cl
ATOM     16  C   UNL A   1      34.283  23.815  25.721  1.00  0.00     0.022 A 
ATOM     17  O   UNL A   1      31.898  24.107  26.186  1.00  0.00    -0.475 OA
ATOM     18  C   UNL A   1      36.767  23.451  25.399  1.00  0.00     0.047 C 
ATOM     19  C   UNL A   1      34.473  25.261  25.729  1.00  0.00     0.027 C 
ATOM     20  C   UNL A   1      32.012  25.554  26.107  1.00  0.00     0.316 C 
BRANCH  20  21
ATOM     21  C   UNL A   1      31.004  26.063  25.064  1.00  0.00     0.430 C 
ATOM     22  F   UNL A   1      30.622  27.333  25.336  1.00  0.00    -0.167 F 
ATOM     23  F   UNL A   1      31.531  26.069  23.819  1.00  0.00    -0.167 F 
ATOM     24  F   UNL A   1      29.888  25.300  25.033  1.00  0.00    -0.167 F 
ENDBRANCH  20  21
ENDBRANCH   6   8
ENDBRANCH   5   6
ENDBRANCH   4   5
ENDBRANCH   3   4
ENDBRANCH   2   3
ENDBRANCH   1   2
BRANCH   1  25
ATOM     25  C   UNL A   1      35.238  32.210  29.738  1.00  0.00     0.261 C 
BRANCH  25  26
ATOM     26  O   UNL A   1      36.616  31.882  29.997  1.00  0.00    -0.460 OA
BRANCH  26  27
ATOM     27  C   UNL A   1      36.811  30.675  30.583  1.00  0.00     0.338 C 
ATOM     28  O   UNL A   1      36.034  30.074  31.312  1.00  0.00    -0.246 OA
BRANCH  27  29
ATOM     29  C   UNL A   1      38.044  30.060  30.062  1.00  0.00     0.060 A 
ATOM     30  C   UNL A   1      38.994  29.620  30.992  1.00  0.00     0.016 A 
ATOM     31  C   UNL A   1      38.303  29.996  28.692  1.00  0.00     0.016 A 
ATOM     32  C   UNL A   1      40.227  29.145  30.554  1.00  0.00     0.010 A 
ATOM     33  C   UNL A   1      39.549  29.531  28.256  1.00  0.00     0.010 A 
ATOM     34  C   UNL A   1      40.527  29.135  29.185  1.00  0.00    -0.014 A 
BRANCH  34  35
ATOM     35  C   UNL A   1      41.916  28.853  28.752  1.00  0.00     0.031 A 
ATOM     36  C   UNL A   1      42.274  27.457  28.320  1.00  0.00     0.074 A 
ATOM     37  C   UNL A   1      42.829  29.839  28.684  1.00  0.00     0.049 A 
ATOM     38  N   UNL A   1      43.414  26.996  27.876  1.00  0.00    -0.248 NA
ATOM     39  C   UNL A   1      41.203  26.448  28.390  1.00  0.00     0.031 C 
ATOM     40  C   UNL A   1      42.584  31.240  29.021  1.00  0.00     0.029 A 
ATOM     41  N   UNL A   1      44.143  29.810  28.293  1.00  0.00    -0.354 N 
ATOM     42  C   UNL A   1      43.198  25.649  27.606  1.00  0.00     0.074 A 
ATOM     43  C   UNL A   1      41.829  25.358  27.972  1.00  0.00     0.031 C 
ATOM     44  C   UNL A   1      43.712  31.942  28.813  1.00  0.00     0.029 A 
ATOM     45  C   UNL A   1      44.765  31.035  28.357  1.00  0.00     0.049 A 
ATOM     46  H   UNL A   1      44.599  28.989  27.995  1.00  0.00     0.167 HD
ATOM     47  C   UNL A   1      44.058  24.741  27.088  1.00  0.00     0.031 A 
ATOM     48  C   UNL A   1      46.038  31.382  28.086  1.00  0.00     0.031 A 
ATOM     49  C   UNL A   1      45.423  25.029  26.742  1.00  0.00     0.049 A 
ATOM     50  C   UNL A   1      47.006  30.330  27.608  1.00  0.00     0.074 A 
ATOM     51  C   UNL A   1      46.373  24.175  26.211  1.00  0.00     0.029 A 
ATOM     52  N   UNL A   1      46.036  26.264  26.896  1.00  0.00    -0.354 N 
ATOM     53  N   UNL A   1      46.782  29.064  27.347  1.00  0.00    -0.248 NA
ATOM     54  C   UNL A   1      48.396  30.754  27.388  1.00  0.00     0.031 C 
ATOM     55  C   UNL A   1      47.577  24.878  26.097  1.00  0.00     0.029 A 
ATOM     56  C   UNL A   1      47.360  26.186  26.500  1.00  0.00     0.049 A 
ATOM     57  H   UNL A   1      45.594  27.076  27.235  1.00  0.00     0.167 HD
ATOM     58  C   UNL A   1      47.998  28.546  26.913  1.00  0.00     0.074 A 
ATOM     59  C   UNL A   1      48.950  29.638  26.934  1.00  0.00     0.031 C 
ATOM     60  C   UNL A   1      48.298  27.280  26.532  1.00  0.00     0.031 A 
BRANCH  47  61
ATOM     61  C   UNL A   1      43.549  23.340  26.881  1.00  0.00    -0.014 A 
ATOM     62  C   UNL A   1      43.511  22.767  25.598  1.00  0.00     0.010 A 
ATOM     63  C   UNL A   1      43.151  22.571  27.989  1.00  0.00     0.010 A 
ATOM     64  C   UNL A   1      43.058  21.458  25.423  1.00  0.00     0.020 A 
ATOM     65  C   UNL A   1      42.719  21.252  27.820  1.00  0.00     0.020 A 
ATOM     66  C   UNL A   1      42.664  20.708  26.534  1.00  0.00     0.054 A 
BRANCH  66  67
ATOM     67  S   UNL A   1      42.106  19.002  26.278  1.00  0.00     0.124 S 
ATOM     68  O   UNL A   1      40.721  19.198  25.855  1.00  0.00    -0.237 OA
ATOM     69  O   UNL A   1      43.016  18.521  25.241  1.00  0.00    -0.237 OA
ATOM     70  O   UNL A   1      42.273  18.379  27.588  1.00  0.00    -0.744 OA
ENDBRANCH  66  67
ENDBRANCH  47  61
BRANCH  48  71
ATOM     71  C   UNL A   1      46.476  32.794  28.266  1.00  0.00    -0.014 A 
ATOM     72  C   UNL A   1      46.981  33.233  29.502  1.00  0.00     0.010 A 
ATOM     73  C   UNL A   1      46.400  33.704  27.196  1.00  0.00     0.010 A 
ATOM     74  C   UNL A   1      47.398  34.557  29.666  1.00  0.00     0.020 A 
ATOM     75  C   UNL A   1      46.839  35.022  27.348  1.00  0.00     0.020 A 
ATOM     76  C   UNL A   1      47.329  35.442  28.586  1.00  0.00     0.054 A 
BRANCH  76  77
ATOM     77  S   UNL A   1      47.932  37.139  28.809  1.00  0.00     0.124 S 
ATOM     78  O   UNL A   1      48.230  37.171  30.238  1.00  0.00    -0.237 OA
ATOM     79  O   UNL A   1      49.090  37.179  27.919  1.00  0.00    -0.237 OA
ATOM     80  O   UNL A   1      46.802  37.963  28.387  1.00  0.00    -0.744 OA
ENDBRANCH  76  77
ENDBRANCH  48  71
BRANCH  60  81
ATOM     81  C   UNL A   1      49.710  26.994  26.093  1.00  0.00    -0.014 A 
ATOM     82  C   UNL A   1      50.576  26.236  26.899  1.00  0.00     0.010 A 
ATOM     83  C   UNL A   1      50.141  27.405  24.818  1.00  0.00     0.010 A 
ATOM     84  C   UNL A   1      51.854  25.903  26.442  1.00  0.00     0.020 A 
ATOM     85  C   UNL A   1      51.409  27.053  24.348  1.00  0.00     0.020 A 
ATOM     86  C   UNL A   1      52.260  26.308  25.166  1.00  0.00     0.054 A 
BRANCH  86  87
ATOM     87  S   UNL A   1      53.897  25.799  24.572  1.00  0.00     0.124 S 
ATOM     88  O   UNL A   1      53.803  26.082  23.143  1.00  0.00    -0.237 OA
ATOM     89  O   UNL A   1      54.796  26.670  25.327  1.00  0.00    -0.237 OA
ATOM     90  O   UNL A   1      53.970  24.383  24.924  1.00  0.00    -0.744 OA
ENDBRANCH  86  87
ENDBRANCH  60  81
ENDBRANCH  34  35
ENDBRANCH  27  29
ENDBRANCH  26  27
ENDBRANCH  25  26
ENDBRANCH   1  25
TORSDOF 18
ENDMDL
