MODEL 1
REMARK VINA RESULT:     -10.9      0.000      0.000
REMARK SMILES O=C(NC1(C(=O)OCCOCCOC(=O)c2ccc(-c3c4nc(c(-c5ccc(S(=O)(=O)[O-])cc5)c5ccc([nH]5)c(-c5ccc(S(=O)(=O)[O-])cc5)c5nc(c(-c6ccc(S(=O)(=O)[O-])cc6)c6ccc3[nH]6)C=C5)C=C4)cc2)CC[NH2+]CC1)OCC1c2ccccc2-c2ccccc21
REMARK SMILES IDX 9 1 8 2 7 3 5 4 6 5 4 6 76 7 80 8 77 9 79 10 78 11 3 14 1 15
REMARK SMILES IDX 2 16 81 18 82 19 83 20 84 21 95 22 85 23 89 24 90 25 94 26
REMARK SMILES IDX 86 27 88 28 91 29 93 30 87 31 92 32 10 33 11 34 12 35 13 36
REMARK SMILES IDX 14 37 15 38 16 39 17 40 75 41 18 42 74 43 19 44 20 45 21 46
REMARK SMILES IDX 68 47 22 48 73 49 67 50 69 51 23 52 72 53 66 54 65 55 24 57
REMARK SMILES IDX 54 58 35 59 53 60 36 61 39 62 52 63 70 64 37 65 38 66 51 68
REMARK SMILES IDX 71 69 40 70 25 71 26 72 34 73 27 74 33 75 28 76 29 77 30 78
REMARK SMILES IDX 31 79 32 80 55 81 56 82 64 83 57 84 63 85 58 86 59 87 60 88
REMARK SMILES IDX 61 89 62 90 41 91 42 92 50 93 43 94 49 95 44 96 45 97 46 98
REMARK SMILES IDX 47 99 48 100
REMARK H PARENT 78 12 78 13 3 17 69 56 39 67
REMARK Flexibility Score: inf
ROOT
ATOM      1  C   UNL A   1      30.438  30.423  24.272  1.00  0.00     0.202 C 
ENDROOT
BRANCH   1   2
ATOM      2  C   UNL A   1      29.752  29.462  23.293  1.00  0.00     0.261 C 
BRANCH   2   3
ATOM      3  O   UNL A   1      30.660  28.693  22.421  1.00  0.00    -0.461 OA
BRANCH   3   4
ATOM      4  C   UNL A   1      31.713  27.932  22.811  1.00  0.00     0.332 C 
ATOM      5  O   UNL A   1      32.867  28.356  22.751  1.00  0.00    -0.249 OA
BRANCH   4   6
ATOM      6  C   UNL A   1      31.386  26.347  23.228  1.00  0.00     0.151 C 
ATOM      7  C   UNL A   1      31.522  26.338  24.790  1.00  0.00     0.102 C 
ATOM      8  C   UNL A   1      30.232  25.342  22.971  1.00  0.00     0.102 C 
ATOM      9  C   UNL A   1      31.254  25.027  25.566  1.00  0.00     0.263 C 
ATOM     10  C   UNL A   1      30.415  23.980  23.627  1.00  0.00     0.263 C 
ATOM     11  N   UNL A   1      30.186  24.197  25.034  1.00  0.00    -0.346 N 
ATOM     12  H   UNL A   1      29.290  24.665  25.167  1.00  0.00     0.346 HD
ATOM     13  H   UNL A   1      30.171  23.301  25.522  1.00  0.00     0.346 HD
BRANCH   6  14
ATOM     14  N   UNL A   1      32.484  25.881  22.396  1.00  0.00    -0.305 N 
ATOM     15  O   UNL A   1      34.356  24.605  22.301  1.00  0.00    -0.225 OA
ATOM     16  C   UNL A   1      33.587  25.274  22.992  1.00  0.00     0.408 C 
ATOM     17  H   UNL A   1      32.448  25.993  21.419  1.00  0.00     0.168 HD
BRANCH  16  18
ATOM     18  O   UNL A   1      33.877  25.647  24.279  1.00  0.00    -0.449 OA
BRANCH  18  19
ATOM     19  C   UNL A   1      34.714  25.015  25.361  1.00  0.00     0.248 C 
BRANCH  19  20
ATOM     20  C   UNL A   1      34.921  23.378  25.412  1.00  0.00     0.088 C 
ATOM     21  C   UNL A   1      36.381  22.900  25.490  1.00  0.00    -0.029 A 
ATOM     22  C   UNL A   1      34.258  22.077  24.720  1.00  0.00    -0.029 A 
ATOM     23  C   UNL A   1      37.520  23.582  25.877  1.00  0.00     0.005 A 
ATOM     24  C   UNL A   1      36.428  21.500  25.292  1.00  0.00    -0.014 A 
ATOM     25  C   UNL A   1      35.131  20.996  24.933  1.00  0.00    -0.014 A 
ATOM     26  C   UNL A   1      33.042  21.709  24.129  1.00  0.00     0.005 A 
ATOM     27  C   UNL A   1      38.707  22.860  26.016  1.00  0.00     0.000 A 
ATOM     28  C   UNL A   1      37.606  20.789  25.410  1.00  0.00     0.009 A 
ATOM     29  C   UNL A   1      34.734  19.655  24.802  1.00  0.00     0.009 A 
ATOM     30  C   UNL A   1      32.635  20.375  23.956  1.00  0.00     0.000 A 
ATOM     31  C   UNL A   1      38.753  21.480  25.773  1.00  0.00     0.001 A 
ATOM     32  C   UNL A   1      33.458  19.345  24.355  1.00  0.00     0.001 A 
ENDBRANCH  19  20
ENDBRANCH  18  19
ENDBRANCH  16  18
ENDBRANCH   6  14
ENDBRANCH   4   6
ENDBRANCH   3   4
ENDBRANCH   2   3
ENDBRANCH   1   2
BRANCH   1  33
ATOM     33  O   UNL A   1      31.215  29.731  25.246  1.00  0.00    -0.374 OA
BRANCH  33  34
ATOM     34  C   UNL A   1      32.001  30.593  26.057  1.00  0.00     0.202 C 
BRANCH  34  35
ATOM     35  C   UNL A   1      33.188  29.894  26.723  1.00  0.00     0.261 C 
BRANCH  35  36
ATOM     36  O   UNL A   1      33.465  30.392  28.048  1.00  0.00    -0.460 OA
BRANCH  36  37
ATOM     37  C   UNL A   1      34.604  31.119  28.140  1.00  0.00     0.338 C 
ATOM     38  O   UNL A   1      34.679  32.341  28.212  1.00  0.00    -0.246 OA
BRANCH  37  39
ATOM     39  C   UNL A   1      35.816  30.273  28.211  1.00  0.00     0.060 A 
ATOM     40  C   UNL A   1      36.135  29.718  29.455  1.00  0.00     0.016 A 
ATOM     41  C   UNL A   1      36.716  30.158  27.149  1.00  0.00     0.016 A 
ATOM     42  C   UNL A   1      37.386  29.135  29.668  1.00  0.00     0.010 A 
ATOM     43  C   UNL A   1      37.964  29.543  27.357  1.00  0.00     0.010 A 
ATOM     44  C   UNL A   1      38.334  29.086  28.635  1.00  0.00    -0.014 A 
BRANCH  44  45
ATOM     45  C   UNL A   1      39.747  28.722  28.957  1.00  0.00     0.031 A 
ATOM     46  C   UNL A   1      40.610  29.698  29.725  1.00  0.00     0.074 A 
ATOM     47  C   UNL A   1      40.242  27.505  28.658  1.00  0.00     0.049 A 
ATOM     48  N   UNL A   1      41.839  29.558  30.157  1.00  0.00    -0.248 NA
ATOM     49  C   UNL A   1      40.008  31.001  30.056  1.00  0.00     0.031 C 
ATOM     50  C   UNL A   1      39.510  26.438  27.979  1.00  0.00     0.029 A 
ATOM     51  N   UNL A   1      41.478  26.955  28.907  1.00  0.00    -0.354 N 
ATOM     52  C   UNL A   1      42.158  30.750  30.800  1.00  0.00     0.074 A 
ATOM     53  C   UNL A   1      41.009  31.618  30.667  1.00  0.00     0.031 C 
ATOM     54  C   UNL A   1      40.305  25.359  27.875  1.00  0.00     0.029 A 
ATOM     55  C   UNL A   1      41.614  25.664  28.452  1.00  0.00     0.049 A 
ATOM     56  H   UNL A   1      42.200  27.441  29.368  1.00  0.00     0.167 HD
ATOM     57  C   UNL A   1      43.294  31.093  31.455  1.00  0.00     0.031 A 
ATOM     58  C   UNL A   1      42.667  24.821  28.486  1.00  0.00     0.031 A 
ATOM     59  C   UNL A   1      44.442  30.235  31.599  1.00  0.00     0.049 A 
ATOM     60  C   UNL A   1      43.950  25.254  29.148  1.00  0.00     0.074 A 
ATOM     61  C   UNL A   1      45.626  30.491  32.271  1.00  0.00     0.029 A 
ATOM     62  N   UNL A   1      44.557  28.963  31.060  1.00  0.00    -0.354 N 
ATOM     63  N   UNL A   1      44.218  26.375  29.773  1.00  0.00    -0.248 NA
ATOM     64  C   UNL A   1      45.069  24.301  29.119  1.00  0.00     0.031 C 
ATOM     65  C   UNL A   1      46.484  29.406  32.077  1.00  0.00     0.029 A 
ATOM     66  C   UNL A   1      45.807  28.439  31.350  1.00  0.00     0.049 A 
ATOM     67  H   UNL A   1      43.856  28.501  30.547  1.00  0.00     0.167 HD
ATOM     68  C   UNL A   1      45.524  26.246  30.241  1.00  0.00     0.074 A 
ATOM     69  C   UNL A   1      45.985  24.935  29.838  1.00  0.00     0.031 C 
ATOM     70  C   UNL A   1      46.269  27.134  30.946  1.00  0.00     0.031 A 
BRANCH  57  71
ATOM     71  C   UNL A   1      43.374  32.479  32.046  1.00  0.00    -0.014 A 
ATOM     72  C   UNL A   1      43.789  33.584  31.281  1.00  0.00     0.010 A 
ATOM     73  C   UNL A   1      42.965  32.687  33.377  1.00  0.00     0.010 A 
ATOM     74  C   UNL A   1      43.831  34.862  31.847  1.00  0.00     0.020 A 
ATOM     75  C   UNL A   1      42.975  33.967  33.937  1.00  0.00     0.020 A 
ATOM     76  C   UNL A   1      43.423  35.045  33.172  1.00  0.00     0.054 A 
BRANCH  76  77
ATOM     77  S   UNL A   1      43.462  36.718  33.873  1.00  0.00     0.124 S 
ATOM     78  O   UNL A   1      44.582  36.629  34.807  1.00  0.00    -0.237 OA
ATOM     79  O   UNL A   1      43.692  37.552  32.695  1.00  0.00    -0.237 OA
ATOM     80  O   UNL A   1      42.147  36.867  34.491  1.00  0.00    -0.744 OA
ENDBRANCH  76  77
ENDBRANCH  57  71
BRANCH  58  81
ATOM     81  C   UNL A   1      42.560  23.470  27.864  1.00  0.00    -0.014 A 
ATOM     82  C   UNL A   1      43.110  23.212  26.596  1.00  0.00     0.010 A 
ATOM     83  C   UNL A   1      41.889  22.433  28.541  1.00  0.00     0.010 A 
ATOM     84  C   UNL A   1      42.980  21.948  26.011  1.00  0.00     0.020 A 
ATOM     85  C   UNL A   1      41.785  21.161  27.972  1.00  0.00     0.020 A 
ATOM     86  C   UNL A   1      42.322  20.929  26.706  1.00  0.00     0.054 A 
BRANCH  86  87
ATOM     87  S   UNL A   1      42.215  19.283  25.952  1.00  0.00     0.124 S 
ATOM     88  O   UNL A   1      43.010  19.449  24.739  1.00  0.00    -0.237 OA
ATOM     89  O   UNL A   1      42.800  18.428  26.982  1.00  0.00    -0.237 OA
ATOM     90  O   UNL A   1      40.781  19.097  25.741  1.00  0.00    -0.744 OA
ENDBRANCH  86  87
ENDBRANCH  58  81
BRANCH  70  91
ATOM     91  C   UNL A   1      47.655  26.714  31.368  1.00  0.00    -0.014 A 
ATOM     92  C   UNL A   1      47.882  26.043  32.582  1.00  0.00     0.010 A 
ATOM     93  C   UNL A   1      48.742  26.946  30.505  1.00  0.00     0.010 A 
ATOM     94  C   UNL A   1      49.174  25.642  32.940  1.00  0.00     0.020 A 
ATOM     95  C   UNL A   1      50.029  26.518  30.844  1.00  0.00     0.020 A 
ATOM     96  C   UNL A   1      50.239  25.881  32.067  1.00  0.00     0.054 A 
BRANCH  96  97
ATOM     97  S   UNL A   1      51.897  25.313  32.538  1.00  0.00     0.124 S 
ATOM     98  O   UNL A   1      52.753  26.124  31.677  1.00  0.00    -0.237 OA
ATOM     99  O   UNL A   1      51.952  25.634  33.961  1.00  0.00    -0.237 OA
ATOM    100  O   UNL A   1      51.876  23.885  32.228  1.00  0.00    -0.744 OA
ENDBRANCH  96  97
ENDBRANCH  70  91
ENDBRANCH  44  45
ENDBRANCH  37  39
ENDBRANCH  36  37
ENDBRANCH  35  36
ENDBRANCH  34  35
ENDBRANCH  33  34
ENDBRANCH   1  33
TORSDOF 21
ENDMDL
MODEL 2
REMARK VINA RESULT:     -10.9      3.581      4.923
REMARK SMILES O=C(NC1(C(=O)OCCOCCOC(=O)c2ccc(-c3c4nc(c(-c5ccc(S(=O)(=O)[O-])cc5)c5ccc([nH]5)c(-c5ccc(S(=O)(=O)[O-])cc5)c5nc(c(-c6ccc(S(=O)(=O)[O-])cc6)c6ccc3[nH]6)C=C5)C=C4)cc2)CC[NH2+]CC1)OCC1c2ccccc2-c2ccccc21
REMARK SMILES IDX 9 1 8 2 7 3 5 4 6 5 4 6 76 7 80 8 77 9 79 10 78 11 3 14 1 15
REMARK SMILES IDX 2 16 81 18 82 19 83 20 84 21 95 22 85 23 89 24 90 25 94 26
REMARK SMILES IDX 86 27 88 28 91 29 93 30 87 31 92 32 10 33 11 34 12 35 13 36
REMARK SMILES IDX 14 37 15 38 16 39 17 40 75 41 18 42 74 43 19 44 20 45 21 46
REMARK SMILES IDX 68 47 22 48 73 49 67 50 69 51 23 52 72 53 66 54 65 55 24 57
REMARK SMILES IDX 54 58 35 59 53 60 36 61 39 62 52 63 70 64 37 65 38 66 51 68
REMARK SMILES IDX 71 69 40 70 25 71 26 72 34 73 27 74 33 75 28 76 29 77 30 78
REMARK SMILES IDX 31 79 32 80 55 81 56 82 64 83 57 84 63 85 58 86 59 87 60 88
REMARK SMILES IDX 61 89 62 90 41 91 42 92 50 93 43 94 49 95 44 96 45 97 46 98
REMARK SMILES IDX 47 99 48 100
REMARK H PARENT 78 12 78 13 3 17 69 56 39 67
REMARK Flexibility Score: inf
ROOT
ATOM      1  C   UNL A   1      35.112  29.537  27.627  1.00  0.00     0.202 C 
ENDROOT
BRANCH   1   2
ATOM      2  C   UNL A   1      34.411  28.750  26.514  1.00  0.00     0.261 C 
BRANCH   2   3
ATOM      3  O   UNL A   1      33.087  29.264  26.112  1.00  0.00    -0.461 OA
BRANCH   3   4
ATOM      4  C   UNL A   1      31.991  28.529  25.797  1.00  0.00     0.332 C 
ATOM      5  O   UNL A   1      31.684  27.527  26.443  1.00  0.00    -0.249 OA
BRANCH   4   6
ATOM      6  C   UNL A   1      31.172  28.956  24.405  1.00  0.00     0.151 C 
ATOM      7  C   UNL A   1      30.326  27.680  24.066  1.00  0.00     0.102 C 
ATOM      8  C   UNL A   1      30.240  30.119  23.971  1.00  0.00     0.102 C 
ATOM      9  C   UNL A   1      29.389  27.698  22.836  1.00  0.00     0.263 C 
ATOM     10  C   UNL A   1      29.713  30.015  22.546  1.00  0.00     0.263 C 
ATOM     11  N   UNL A   1      28.726  28.965  22.577  1.00  0.00    -0.346 N 
ATOM     12  H   UNL A   1      28.049  29.153  23.316  1.00  0.00     0.346 HD
ATOM     13  H   UNL A   1      28.240  28.922  21.681  1.00  0.00     0.346 HD
BRANCH   6  14
ATOM     14  N   UNL A   1      32.429  29.203  23.717  1.00  0.00    -0.305 N 
ATOM     15  O   UNL A   1      33.870  28.481  22.122  1.00  0.00    -0.225 OA
ATOM     16  C   UNL A   1      32.999  28.194  22.944  1.00  0.00     0.408 C 
ATOM     17  H   UNL A   1      32.874  30.078  23.797  1.00  0.00     0.168 HD
BRANCH  16  18
ATOM     18  O   UNL A   1      32.715  26.903  23.307  1.00  0.00    -0.449 OA
BRANCH  18  19
ATOM     19  C   UNL A   1      32.881  25.584  22.599  1.00  0.00     0.248 C 
BRANCH  19  20
ATOM     20  C   UNL A   1      33.273  24.221  23.444  1.00  0.00     0.088 C 
ATOM     21  C   UNL A   1      32.402  23.937  24.679  1.00  0.00    -0.029 A 
ATOM     22  C   UNL A   1      34.621  23.454  23.895  1.00  0.00    -0.029 A 
ATOM     23  C   UNL A   1      31.145  24.410  25.007  1.00  0.00     0.005 A 
ATOM     24  C   UNL A   1      32.983  22.891  25.433  1.00  0.00    -0.014 A 
ATOM     25  C   UNL A   1      34.267  22.533  24.897  1.00  0.00    -0.014 A 
ATOM     26  C   UNL A   1      35.955  23.345  23.479  1.00  0.00     0.005 A 
ATOM     27  C   UNL A   1      30.501  23.862  26.119  1.00  0.00     0.000 A 
ATOM     28  C   UNL A   1      32.356  22.362  26.545  1.00  0.00     0.009 A 
ATOM     29  C   UNL A   1      35.083  21.452  25.266  1.00  0.00     0.009 A 
ATOM     30  C   UNL A   1      36.804  22.291  23.860  1.00  0.00     0.000 A 
ATOM     31  C   UNL A   1      31.105  22.857  26.887  1.00  0.00     0.001 A 
ATOM     32  C   UNL A   1      36.344  21.305  24.705  1.00  0.00     0.001 A 
ENDBRANCH  19  20
ENDBRANCH  18  19
ENDBRANCH  16  18
ENDBRANCH   6  14
ENDBRANCH   4   6
ENDBRANCH   3   4
ENDBRANCH   2   3
ENDBRANCH   1   2
BRANCH   1  33
ATOM     33  O   UNL A   1      34.793  30.925  27.585  1.00  0.00    -0.374 OA
BRANCH  33  34
ATOM     34  C   UNL A   1      35.804  31.754  28.139  1.00  0.00     0.202 C 
BRANCH  34  35
ATOM     35  C   UNL A   1      35.965  31.597  29.652  1.00  0.00     0.261 C 
BRANCH  35  36
ATOM     36  O   UNL A   1      37.291  31.178  30.037  1.00  0.00    -0.460 OA
BRANCH  36  37
ATOM     37  C   UNL A   1      37.408  29.847  30.265  1.00  0.00     0.338 C 
ATOM     38  O   UNL A   1      36.633  29.153  30.914  1.00  0.00    -0.246 OA
BRANCH  37  39
ATOM     39  C   UNL A   1      38.578  29.253  29.581  1.00  0.00     0.060 A 
ATOM     40  C   UNL A   1      39.559  28.666  30.388  1.00  0.00     0.016 A 
ATOM     41  C   UNL A   1      38.808  29.408  28.212  1.00  0.00     0.016 A 
ATOM     42  C   UNL A   1      40.802  28.324  29.851  1.00  0.00     0.010 A 
ATOM     43  C   UNL A   1      40.049  29.035  27.667  1.00  0.00     0.010 A 
ATOM     44  C   UNL A   1      41.080  28.551  28.495  1.00  0.00    -0.014 A 
BRANCH  44  45
ATOM     45  C   UNL A   1      42.489  28.446  28.010  1.00  0.00     0.031 A 
ATOM     46  C   UNL A   1      43.433  29.609  28.211  1.00  0.00     0.074 A 
ATOM     47  C   UNL A   1      42.963  27.302  27.479  1.00  0.00     0.049 A 
ATOM     48  N   UNL A   1      44.707  29.704  27.919  1.00  0.00    -0.248 NA
ATOM     49  C   UNL A   1      42.873  30.823  28.827  1.00  0.00     0.031 C 
ATOM     50  C   UNL A   1      42.190  26.077  27.282  1.00  0.00     0.029 A 
ATOM     51  N   UNL A   1      44.220  26.978  27.024  1.00  0.00    -0.354 N 
ATOM     52  C   UNL A   1      45.095  30.983  28.308  1.00  0.00     0.074 A 
ATOM     53  C   UNL A   1      43.914  31.642  28.818  1.00  0.00     0.031 C 
ATOM     54  C   UNL A   1      42.990  25.133  26.758  1.00  0.00     0.029 A 
ATOM     55  C   UNL A   1      44.326  25.691  26.551  1.00  0.00     0.049 A 
ATOM     56  H   UNL A   1      44.975  27.611  27.035  1.00  0.00     0.167 HD
ATOM     57  C   UNL A   1      46.323  31.557  28.261  1.00  0.00     0.031 A 
ATOM     58  C   UNL A   1      45.372  25.032  26.009  1.00  0.00     0.031 A 
ATOM     59  C   UNL A   1      47.507  30.908  27.760  1.00  0.00     0.049 A 
ATOM     60  C   UNL A   1      46.708  25.719  25.891  1.00  0.00     0.074 A 
ATOM     61  C   UNL A   1      48.798  31.406  27.701  1.00  0.00     0.029 A 
ATOM     62  N   UNL A   1      47.549  29.629  27.228  1.00  0.00    -0.354 N 
ATOM     63  N   UNL A   1      47.057  26.919  26.290  1.00  0.00    -0.248 NA
ATOM     64  C   UNL A   1      47.795  24.957  25.258  1.00  0.00     0.031 C 
ATOM     65  C   UNL A   1      49.605  30.458  27.066  1.00  0.00     0.029 A 
ATOM     66  C   UNL A   1      48.835  29.337  26.801  1.00  0.00     0.049 A 
ATOM     67  H   UNL A   1      46.780  29.019  27.163  1.00  0.00     0.167 HD
ATOM     68  C   UNL A   1      48.412  27.040  25.988  1.00  0.00     0.074 A 
ATOM     69  C   UNL A   1      48.820  25.789  25.386  1.00  0.00     0.031 C 
ATOM     70  C   UNL A   1      49.242  28.092  26.198  1.00  0.00     0.031 A 
BRANCH  57  71
ATOM     71  C   UNL A   1      46.449  32.984  28.734  1.00  0.00    -0.014 A 
ATOM     72  C   UNL A   1      46.833  33.293  30.052  1.00  0.00     0.010 A 
ATOM     73  C   UNL A   1      46.238  34.035  27.822  1.00  0.00     0.010 A 
ATOM     74  C   UNL A   1      46.965  34.625  30.457  1.00  0.00     0.020 A 
ATOM     75  C   UNL A   1      46.400  35.367  28.214  1.00  0.00     0.020 A 
ATOM     76  C   UNL A   1      46.747  35.653  29.535  1.00  0.00     0.054 A 
BRANCH  76  77
ATOM     77  S   UNL A   1      46.952  37.371  30.082  1.00  0.00     0.124 S 
ATOM     78  O   UNL A   1      45.712  37.987  29.614  1.00  0.00    -0.237 OA
ATOM     79  O   UNL A   1      47.075  37.232  31.531  1.00  0.00    -0.237 OA
ATOM     80  O   UNL A   1      48.163  37.813  29.395  1.00  0.00    -0.744 OA
ENDBRANCH  76  77
ENDBRANCH  57  71
BRANCH  58  81
ATOM     81  C   UNL A   1      45.199  23.633  25.524  1.00  0.00    -0.014 A 
ATOM     82  C   UNL A   1      45.618  22.540  26.303  1.00  0.00     0.010 A 
ATOM     83  C   UNL A   1      44.619  23.390  24.264  1.00  0.00     0.010 A 
ATOM     84  C   UNL A   1      45.476  21.233  25.825  1.00  0.00     0.020 A 
ATOM     85  C   UNL A   1      44.446  22.085  23.798  1.00  0.00     0.020 A 
ATOM     86  C   UNL A   1      44.885  21.013  24.577  1.00  0.00     0.054 A 
BRANCH  86  87
ATOM     87  S   UNL A   1      44.658  19.308  24.003  1.00  0.00     0.124 S 
ATOM     88  O   UNL A   1      43.436  18.913  24.695  1.00  0.00    -0.237 OA
ATOM     89  O   UNL A   1      44.542  19.478  22.557  1.00  0.00    -0.237 OA
ATOM     90  O   UNL A   1      45.876  18.634  24.447  1.00  0.00    -0.744 OA
ENDBRANCH  86  87
ENDBRANCH  58  81
BRANCH  70  91
ATOM     91  C   UNL A   1      50.691  27.936  25.811  1.00  0.00    -0.014 A 
ATOM     92  C   UNL A   1      51.161  28.328  24.545  1.00  0.00     0.010 A 
ATOM     93  C   UNL A   1      51.611  27.440  26.754  1.00  0.00     0.010 A 
ATOM     94  C   UNL A   1      52.514  28.196  24.218  1.00  0.00     0.020 A 
ATOM     95  C   UNL A   1      52.970  27.336  26.442  1.00  0.00     0.020 A 
ATOM     96  C   UNL A   1      53.411  27.702  25.170  1.00  0.00     0.054 A 
BRANCH  96  97
ATOM     97  S   UNL A   1      55.168  27.580  24.733  1.00  0.00     0.124 S 
ATOM     98  O   UNL A   1      55.314  26.155  24.451  1.00  0.00    -0.237 OA
ATOM     99  O   UNL A   1      55.271  28.464  23.576  1.00  0.00    -0.237 OA
ATOM    100  O   UNL A   1      55.858  28.051  25.933  1.00  0.00    -0.744 OA
ENDBRANCH  96  97
ENDBRANCH  70  91
ENDBRANCH  44  45
ENDBRANCH  37  39
ENDBRANCH  36  37
ENDBRANCH  35  36
ENDBRANCH  34  35
ENDBRANCH  33  34
ENDBRANCH   1  33
TORSDOF 21
ENDMDL
MODEL 3
REMARK VINA RESULT:     -10.8      1.095      2.307
REMARK SMILES O=C(NC1(C(=O)OCCOCCOC(=O)c2ccc(-c3c4nc(c(-c5ccc(S(=O)(=O)[O-])cc5)c5ccc([nH]5)c(-c5ccc(S(=O)(=O)[O-])cc5)c5nc(c(-c6ccc(S(=O)(=O)[O-])cc6)c6ccc3[nH]6)C=C5)C=C4)cc2)CC[NH2+]CC1)OCC1c2ccccc2-c2ccccc21
REMARK SMILES IDX 9 1 8 2 7 3 5 4 6 5 4 6 76 7 80 8 77 9 79 10 78 11 3 14 1 15
REMARK SMILES IDX 2 16 81 18 82 19 83 20 84 21 95 22 85 23 89 24 90 25 94 26
REMARK SMILES IDX 86 27 88 28 91 29 93 30 87 31 92 32 10 33 11 34 12 35 13 36
REMARK SMILES IDX 14 37 15 38 16 39 17 40 75 41 18 42 74 43 19 44 20 45 21 46
REMARK SMILES IDX 68 47 22 48 73 49 67 50 69 51 23 52 72 53 66 54 65 55 24 57
REMARK SMILES IDX 54 58 35 59 53 60 36 61 39 62 52 63 70 64 37 65 38 66 51 68
REMARK SMILES IDX 71 69 40 70 25 71 26 72 34 73 27 74 33 75 28 76 29 77 30 78
REMARK SMILES IDX 31 79 32 80 55 81 56 82 64 83 57 84 63 85 58 86 59 87 60 88
REMARK SMILES IDX 61 89 62 90 41 91 42 92 50 93 43 94 49 95 44 96 45 97 46 98
REMARK SMILES IDX 47 99 48 100
REMARK H PARENT 78 12 78 13 3 17 69 56 39 67
REMARK Flexibility Score: inf
ROOT
ATOM      1  C   UNL A   1      33.478  28.658  27.595  1.00  0.00     0.202 C 
ENDROOT
BRANCH   1   2
ATOM      2  C   UNL A   1      34.294  28.054  26.447  1.00  0.00     0.261 C 
BRANCH   2   3
ATOM      3  O   UNL A   1      33.506  27.555  25.304  1.00  0.00    -0.461 OA
BRANCH   3   4
ATOM      4  C   UNL A   1      33.507  28.045  24.039  1.00  0.00     0.332 C 
ATOM      5  O   UNL A   1      34.513  28.565  23.554  1.00  0.00    -0.249 OA
BRANCH   4   6
ATOM      6  C   UNL A   1      32.045  28.053  23.232  1.00  0.00     0.151 C 
ATOM      7  C   UNL A   1      31.138  27.113  24.099  1.00  0.00     0.102 C 
ATOM      8  C   UNL A   1      31.052  29.135  22.732  1.00  0.00     0.102 C 
ATOM      9  C   UNL A   1      29.664  26.889  23.683  1.00  0.00     0.263 C 
ATOM     10  C   UNL A   1      29.801  28.589  22.056  1.00  0.00     0.263 C 
ATOM     11  N   UNL A   1      28.993  28.049  23.121  1.00  0.00    -0.346 N 
ATOM     12  H   UNL A   1      28.865  28.755  23.846  1.00  0.00     0.346 HD
ATOM     13  H   UNL A   1      28.081  27.775  22.756  1.00  0.00     0.346 HD
BRANCH   6  14
ATOM     14  N   UNL A   1      32.684  27.544  22.028  1.00  0.00    -0.305 N 
ATOM     15  O   UNL A   1      33.136  25.709  20.776  1.00  0.00    -0.225 OA
ATOM     16  C   UNL A   1      32.896  26.174  21.890  1.00  0.00     0.408 C 
ATOM     17  H   UNL A   1      32.964  28.163  21.316  1.00  0.00     0.168 HD
BRANCH  16  18
ATOM     18  O   UNL A   1      33.050  25.453  23.046  1.00  0.00    -0.449 OA
BRANCH  18  19
ATOM     19  C   UNL A   1      32.763  24.016  23.399  1.00  0.00     0.248 C 
BRANCH  19  20
ATOM     20  C   UNL A   1      33.992  22.990  23.800  1.00  0.00     0.088 C 
ATOM     21  C   UNL A   1      33.577  21.530  24.049  1.00  0.00    -0.029 A 
ATOM     22  C   UNL A   1      35.328  23.039  24.708  1.00  0.00    -0.029 A 
ATOM     23  C   UNL A   1      32.438  20.851  23.659  1.00  0.00     0.005 A 
ATOM     24  C   UNL A   1      34.666  20.820  24.606  1.00  0.00    -0.014 A 
ATOM     25  C   UNL A   1      35.753  21.713  24.902  1.00  0.00    -0.014 A 
ATOM     26  C   UNL A   1      36.225  23.995  25.201  1.00  0.00     0.005 A 
ATOM     27  C   UNL A   1      32.383  19.472  23.875  1.00  0.00     0.000 A 
ATOM     28  C   UNL A   1      34.605  19.460  24.839  1.00  0.00     0.009 A 
ATOM     29  C   UNL A   1      37.052  21.380  25.319  1.00  0.00     0.009 A 
ATOM     30  C   UNL A   1      37.519  23.685  25.656  1.00  0.00     0.000 A 
ATOM     31  C   UNL A   1      33.450  18.786  24.470  1.00  0.00     0.001 A 
ATOM     32  C   UNL A   1      37.957  22.378  25.652  1.00  0.00     0.001 A 
ENDBRANCH  19  20
ENDBRANCH  18  19
ENDBRANCH  16  18
ENDBRANCH   6  14
ENDBRANCH   4   6
ENDBRANCH   3   4
ENDBRANCH   2   3
ENDBRANCH   1   2
BRANCH   1  33
ATOM     33  O   UNL A   1      32.330  29.361  27.126  1.00  0.00    -0.374 OA
BRANCH  33  34
ATOM     34  C   UNL A   1      32.646  30.558  26.430  1.00  0.00     0.202 C 
BRANCH  34  35
ATOM     35  C   UNL A   1      32.968  31.736  27.352  1.00  0.00     0.261 C 
BRANCH  35  36
ATOM     36  O   UNL A   1      34.385  31.956  27.510  1.00  0.00    -0.460 OA
BRANCH  36  37
ATOM     37  C   UNL A   1      34.849  31.707  28.759  1.00  0.00     0.338 C 
ATOM     38  O   UNL A   1      34.358  32.111  29.807  1.00  0.00    -0.246 OA
BRANCH  37  39
ATOM     39  C   UNL A   1      36.025  30.810  28.761  1.00  0.00     0.060 A 
ATOM     40  C   UNL A   1      36.395  30.243  29.985  1.00  0.00     0.016 A 
ATOM     41  C   UNL A   1      36.855  30.655  27.647  1.00  0.00     0.016 A 
ATOM     42  C   UNL A   1      37.630  29.607  30.125  1.00  0.00     0.010 A 
ATOM     43  C   UNL A   1      38.086  29.988  27.782  1.00  0.00     0.010 A 
ATOM     44  C   UNL A   1      38.512  29.517  29.038  1.00  0.00    -0.014 A 
BRANCH  44  45
ATOM     45  C   UNL A   1      39.924  29.093  29.277  1.00  0.00     0.031 A 
ATOM     46  C   UNL A   1      40.872  30.032  29.989  1.00  0.00     0.074 A 
ATOM     47  C   UNL A   1      40.349  27.856  28.952  1.00  0.00     0.049 A 
ATOM     48  N   UNL A   1      42.118  29.840  30.347  1.00  0.00    -0.248 NA
ATOM     49  C   UNL A   1      40.347  31.359  30.351  1.00  0.00     0.031 C 
ATOM     50  C   UNL A   1      39.533  26.821  28.320  1.00  0.00     0.029 A 
ATOM     51  N   UNL A   1      41.573  27.253  29.128  1.00  0.00    -0.354 N 
ATOM     52  C   UNL A   1      42.524  31.017  30.967  1.00  0.00     0.074 A 
ATOM     53  C   UNL A   1      41.407  31.933  30.901  1.00  0.00     0.031 C 
ATOM     54  C   UNL A   1      40.273  25.709  28.172  1.00  0.00     0.029 A 
ATOM     55  C   UNL A   1      41.626  25.958  28.670  1.00  0.00     0.049 A 
ATOM     56  H   UNL A   1      42.341  27.708  29.544  1.00  0.00     0.167 HD
ATOM     57  C   UNL A   1      43.712  31.311  31.553  1.00  0.00     0.031 A 
ATOM     58  C   UNL A   1      42.643  25.071  28.644  1.00  0.00     0.031 A 
ATOM     59  C   UNL A   1      44.828  30.405  31.631  1.00  0.00     0.049 A 
ATOM     60  C   UNL A   1      43.980  25.449  29.228  1.00  0.00     0.074 A 
ATOM     61  C   UNL A   1      46.060  30.611  32.230  1.00  0.00     0.029 A 
ATOM     62  N   UNL A   1      44.857  29.129  31.089  1.00  0.00    -0.354 N 
ATOM     63  N   UNL A   1      44.332  26.558  29.832  1.00  0.00    -0.248 NA
ATOM     64  C   UNL A   1      45.055  24.449  29.134  1.00  0.00     0.031 C 
ATOM     65  C   UNL A   1      46.858  29.490  31.988  1.00  0.00     0.029 A 
ATOM     66  C   UNL A   1      46.099  28.553  31.306  1.00  0.00     0.049 A 
ATOM     67  H   UNL A   1      44.108  28.698  30.621  1.00  0.00     0.167 HD
ATOM     68  C   UNL A   1      45.657  26.374  30.222  1.00  0.00     0.074 A 
ATOM     69  C   UNL A   1      46.038  25.044  29.796  1.00  0.00     0.031 C 
ATOM     70  C   UNL A   1      46.479  27.230  30.879  1.00  0.00     0.031 A 
BRANCH  57  71
ATOM     71  C   UNL A   1      43.885  32.693  32.134  1.00  0.00    -0.014 A 
ATOM     72  C   UNL A   1      44.361  33.765  31.357  1.00  0.00     0.010 A 
ATOM     73  C   UNL A   1      43.504  32.934  33.468  1.00  0.00     0.010 A 
ATOM     74  C   UNL A   1      44.489  35.041  31.915  1.00  0.00     0.020 A 
ATOM     75  C   UNL A   1      43.601  34.214  34.019  1.00  0.00     0.020 A 
ATOM     76  C   UNL A   1      44.108  35.257  33.243  1.00  0.00     0.054 A 
BRANCH  76  77
ATOM     77  S   UNL A   1      44.260  36.928  33.933  1.00  0.00     0.124 S 
ATOM     78  O   UNL A   1      44.341  37.747  32.725  1.00  0.00    -0.237 OA
ATOM     79  O   UNL A   1      43.028  37.069  34.705  1.00  0.00    -0.237 OA
ATOM     80  O   UNL A   1      45.485  36.867  34.726  1.00  0.00    -0.744 OA
ENDBRANCH  76  77
ENDBRANCH  57  71
BRANCH  58  81
ATOM     81  C   UNL A   1      42.442  23.726  28.033  1.00  0.00    -0.014 A 
ATOM     82  C   UNL A   1      43.103  23.364  26.846  1.00  0.00     0.010 A 
ATOM     83  C   UNL A   1      41.570  22.800  28.637  1.00  0.00     0.010 A 
ATOM     84  C   UNL A   1      42.885  22.109  26.267  1.00  0.00     0.020 A 
ATOM     85  C   UNL A   1      41.375  21.534  28.079  1.00  0.00     0.020 A 
ATOM     86  C   UNL A   1      42.026  21.200  26.891  1.00  0.00     0.054 A 
BRANCH  86  87
ATOM     87  S   UNL A   1      41.803  19.558  26.154  1.00  0.00     0.124 S 
ATOM     88  O   UNL A   1      40.357  19.497  25.973  1.00  0.00    -0.237 OA
ATOM     89  O   UNL A   1      42.592  19.656  24.929  1.00  0.00    -0.237 OA
ATOM     90  O   UNL A   1      42.347  18.654  27.164  1.00  0.00    -0.744 OA
ENDBRANCH  86  87
ENDBRANCH  58  81
BRANCH  70  91
ATOM     91  C   UNL A   1      47.869  26.751  31.219  1.00  0.00    -0.014 A 
ATOM     92  C   UNL A   1      48.157  26.148  32.456  1.00  0.00     0.010 A 
ATOM     93  C   UNL A   1      48.893  26.856  30.259  1.00  0.00     0.010 A 
ATOM     94  C   UNL A   1      49.449  25.690  32.738  1.00  0.00     0.020 A 
ATOM     95  C   UNL A   1      50.176  26.371  30.524  1.00  0.00     0.020 A 
ATOM     96  C   UNL A   1      50.450  25.803  31.769  1.00  0.00     0.054 A 
BRANCH  96  97
ATOM     97  S   UNL A   1      52.106  25.163  32.147  1.00  0.00     0.124 S 
ATOM     98  O   UNL A   1      52.892  25.670  31.026  1.00  0.00    -0.237 OA
ATOM     99  O   UNL A   1      52.395  25.772  33.443  1.00  0.00    -0.237 OA
ATOM    100  O   UNL A   1      51.920  23.714  32.174  1.00  0.00    -0.744 OA
ENDBRANCH  96  97
ENDBRANCH  70  91
ENDBRANCH  44  45
ENDBRANCH  37  39
ENDBRANCH  36  37
ENDBRANCH  35  36
ENDBRANCH  34  35
ENDBRANCH  33  34
ENDBRANCH   1  33
TORSDOF 21
ENDMDL
