MODEL 1
REMARK VINA RESULT:     -11.9      0.000      0.000
REMARK SMILES Cc1ccc(NC(=O)COc2ccc(Cl)cc2/C=C2\SC(=S)N(CC(=O)OCCOCCOC(=O)c3ccc(-c4c5nc(c(-c6ccc(S(=O)(=O)[O-])cc6)c6ccc([nH]6)c(-c6ccc(S(=O)(=O)[O-])cc6)c6nc(c(-c7ccc(S(=O)(=O)[O-])cc7)c7ccc4[nH]7)C=C6)C=C5)cc3)C2=O)cc1
REMARK SMILES IDX 28 1 27 2 25 3 26 4 24 5 23 6 18 7 19 8 20 9 96 10 21 11
REMARK SMILES IDX 97 12 22 13 17 14 11 15 12 16 13 17 16 18 14 19 15 20 10 21
REMARK SMILES IDX 9 22 7 23 6 24 8 26 5 27 1 28 2 29 3 30 99 31 4 32 98 33
REMARK SMILES IDX 29 34 30 35 31 36 32 37 33 38 34 39 35 40 36 41 37 42 95 43
REMARK SMILES IDX 38 44 94 45 39 46 40 47 41 48 88 49 42 50 93 51 87 52 89 53
REMARK SMILES IDX 43 54 92 55 86 56 85 57 44 59 74 60 55 61 73 62 56 63 59 64
REMARK SMILES IDX 72 65 90 66 57 67 58 68 71 70 91 71 60 72 45 73 46 74 54 75
REMARK SMILES IDX 47 76 53 77 48 78 49 79 50 80 51 81 52 82 75 83 76 84 84 85
REMARK SMILES IDX 77 86 83 87 78 88 79 89 80 90 81 91 82 92 61 93 62 94 70 95
REMARK SMILES IDX 63 96 69 97 64 98 65 99 66 100 67 101 68 102
REMARK H PARENT 6 25 89 58 59 69
REMARK Flexibility Score: inf
ROOT
ATOM      1  C   UNL A   1      33.003  26.379  25.652  1.00  0.00     0.261 C 
ENDROOT
BRANCH   1   2
ATOM      2  O   UNL A   1      31.564  26.425  25.734  1.00  0.00    -0.462 OA
BRANCH   2   3
ATOM      3  C   UNL A   1      30.936  26.663  24.541  1.00  0.00     0.326 C 
ATOM      4  O   UNL A   1      30.945  27.722  23.924  1.00  0.00    -0.250 OA
BRANCH   3   5
ATOM      5  C   UNL A   1      30.316  25.407  23.938  1.00  0.00     0.250 C 
BRANCH   5   6
ATOM      6  N   UNL A   1      31.291  24.369  23.602  1.00  0.00    -0.282 N 
ATOM      7  C   UNL A   1      32.183  20.998  24.409  1.00  0.00     0.033 C 
ATOM      8  C   UNL A   1      32.169  22.201  23.824  1.00  0.00     0.081 C 
ATOM      9  S   UNL A   1      33.106  22.844  22.556  1.00  0.00    -0.054 SA
ATOM     10  C   UNL A   1      31.371  23.298  24.444  1.00  0.00     0.266 C 
ATOM     11  C   UNL A   1      32.264  24.408  22.638  1.00  0.00     0.148 C 
ATOM     12  O   UNL A   1      30.982  23.304  25.605  1.00  0.00    -0.268 OA
ATOM     13  S   UNL A   1      32.710  25.701  21.690  1.00  0.00    -0.052 S 
BRANCH   7  14
ATOM     14  C   UNL A   1      33.215  19.998  24.535  1.00  0.00     0.019 A 
ATOM     15  C   UNL A   1      34.344  20.476  25.159  1.00  0.00     0.127 A 
ATOM     16  C   UNL A   1      35.542  19.838  24.896  1.00  0.00     0.048 A 
ATOM     17  C   UNL A   1      35.501  18.507  24.483  1.00  0.00     0.024 A 
ATOM     18  C   UNL A   1      33.094  18.623  24.397  1.00  0.00     0.032 A 
ATOM     19  C   UNL A   1      34.264  17.866  24.410  1.00  0.00     0.041 A 
ATOM     20  Cl  UNL A   1      34.195  16.149  24.377  1.00  0.00    -0.084 Cl
BRANCH  15  21
ATOM     21  O   UNL A   1      34.290  21.561  25.978  1.00  0.00    -0.483 OA
BRANCH  21  22
ATOM     22  C   UNL A   1      35.453  22.390  26.186  1.00  0.00     0.329 C 
BRANCH  22  23
ATOM     23  C   UNL A   1      36.902  22.985  25.611  1.00  0.00     0.262 C 
ATOM     24  N   UNL A   1      38.220  22.619  25.602  1.00  0.00    -0.323 N 
ATOM     25  H   UNL A   1      38.680  23.228  24.981  1.00  0.00     0.170 HD
ATOM     26  O   UNL A   1      36.775  24.087  25.018  1.00  0.00    -0.271 OA
BRANCH  24  27
ATOM     27  C   UNL A   1      39.214  21.729  26.112  1.00  0.00     0.041 A 
ATOM     28  C   UNL A   1      42.593  19.279  27.395  1.00  0.00     0.044 C 
ATOM     29  C   UNL A   1      41.413  20.129  27.032  1.00  0.00    -0.051 A 
ATOM     30  C   UNL A   1      40.490  19.630  26.138  1.00  0.00     0.005 A 
ATOM     31  C   UNL A   1      41.158  21.389  27.577  1.00  0.00     0.005 A 
ATOM     32  C   UNL A   1      39.359  20.387  25.815  1.00  0.00     0.026 A 
ATOM     33  C   UNL A   1      40.080  22.182  27.113  1.00  0.00     0.026 A 
ENDBRANCH  24  27
ENDBRANCH  22  23
ENDBRANCH  21  22
ENDBRANCH  15  21
ENDBRANCH   7  14
ENDBRANCH   5   6
ENDBRANCH   3   5
ENDBRANCH   2   3
ENDBRANCH   1   2
BRANCH   1  34
ATOM     34  C   UNL A   1      33.643  27.505  26.470  1.00  0.00     0.202 C 
BRANCH  34  35
ATOM     35  O   UNL A   1      34.013  28.585  25.628  1.00  0.00    -0.374 OA
BRANCH  35  36
ATOM     36  C   UNL A   1      33.225  29.773  25.631  1.00  0.00     0.202 C 
BRANCH  36  37
ATOM     37  C   UNL A   1      32.922  30.603  26.905  1.00  0.00     0.261 C 
BRANCH  37  38
ATOM     38  O   UNL A   1      33.926  30.537  27.925  1.00  0.00    -0.460 OA
BRANCH  38  39
ATOM     39  C   UNL A   1      35.130  31.112  27.633  1.00  0.00     0.338 C 
ATOM     40  O   UNL A   1      35.376  32.282  27.492  1.00  0.00    -0.246 OA
BRANCH  39  41
ATOM     41  C   UNL A   1      36.076  30.090  28.119  1.00  0.00     0.060 A 
ATOM     42  C   UNL A   1      36.060  29.579  29.425  1.00  0.00     0.016 A 
ATOM     43  C   UNL A   1      37.227  30.072  27.344  1.00  0.00     0.016 A 
ATOM     44  C   UNL A   1      37.254  29.108  29.992  1.00  0.00     0.010 A 
ATOM     45  C   UNL A   1      38.410  29.792  27.976  1.00  0.00     0.010 A 
ATOM     46  C   UNL A   1      38.443  29.268  29.286  1.00  0.00    -0.014 A 
BRANCH  46  47
ATOM     47  C   UNL A   1      39.808  28.958  29.718  1.00  0.00     0.031 A 
ATOM     48  C   UNL A   1      40.303  27.582  29.406  1.00  0.00     0.074 A 
ATOM     49  C   UNL A   1      40.694  29.941  30.005  1.00  0.00     0.049 A 
ATOM     50  N   UNL A   1      41.515  27.186  29.559  1.00  0.00    -0.248 NA
ATOM     51  C   UNL A   1      39.436  26.516  28.882  1.00  0.00     0.031 C 
ATOM     52  C   UNL A   1      42.135  29.924  29.735  1.00  0.00     0.029 A 
ATOM     53  N   UNL A   1      40.520  31.121  30.728  1.00  0.00    -0.354 N 
ATOM     54  C   UNL A   1      41.658  26.005  28.870  1.00  0.00     0.074 A 
ATOM     55  C   UNL A   1      40.327  25.592  28.516  1.00  0.00     0.031 C 
ATOM     56  C   UNL A   1      42.739  30.866  30.475  1.00  0.00     0.029 A 
ATOM     57  C   UNL A   1      41.737  31.392  31.382  1.00  0.00     0.049 A 
ATOM     58  H   UNL A   1      39.700  31.663  30.773  1.00  0.00     0.167 HD
ATOM     59  C   UNL A   1      42.913  25.565  28.595  1.00  0.00     0.031 A 
ATOM     60  C   UNL A   1      41.878  31.463  32.739  1.00  0.00     0.031 A 
ATOM     61  C   UNL A   1      43.894  26.262  29.420  1.00  0.00     0.049 A 
ATOM     62  C   UNL A   1      42.824  30.398  33.270  1.00  0.00     0.074 A 
ATOM     63  C   UNL A   1      44.851  27.230  29.183  1.00  0.00     0.029 A 
ATOM     64  N   UNL A   1      43.738  26.189  30.802  1.00  0.00    -0.354 N 
ATOM     65  N   UNL A   1      43.277  29.406  32.554  1.00  0.00    -0.248 NA
ATOM     66  C   UNL A   1      43.281  30.329  34.655  1.00  0.00     0.031 C 
ATOM     67  C   UNL A   1      45.180  27.821  30.439  1.00  0.00     0.029 A 
ATOM     68  C   UNL A   1      44.465  27.175  31.435  1.00  0.00     0.049 A 
ATOM     69  H   UNL A   1      43.182  25.522  31.265  1.00  0.00     0.167 HD
ATOM     70  C   UNL A   1      43.954  28.527  33.351  1.00  0.00     0.074 A 
ATOM     71  C   UNL A   1      43.968  29.173  34.651  1.00  0.00     0.031 C 
ATOM     72  C   UNL A   1      44.381  27.316  32.886  1.00  0.00     0.031 A 
BRANCH  59  73
ATOM     73  C   UNL A   1      43.265  24.583  27.505  1.00  0.00    -0.014 A 
ATOM     74  C   UNL A   1      44.221  23.581  27.767  1.00  0.00     0.010 A 
ATOM     75  C   UNL A   1      42.787  24.659  26.179  1.00  0.00     0.010 A 
ATOM     76  C   UNL A   1      44.666  22.700  26.768  1.00  0.00     0.020 A 
ATOM     77  C   UNL A   1      43.198  23.763  25.180  1.00  0.00     0.020 A 
ATOM     78  C   UNL A   1      44.147  22.793  25.479  1.00  0.00     0.054 A 
BRANCH  78  79
ATOM     79  S   UNL A   1      44.739  21.656  24.199  1.00  0.00     0.124 S 
ATOM     80  O   UNL A   1      44.049  20.415  24.541  1.00  0.00    -0.237 OA
ATOM     81  O   UNL A   1      44.297  22.304  22.967  1.00  0.00    -0.237 OA
ATOM     82  O   UNL A   1      46.187  21.632  24.397  1.00  0.00    -0.744 OA
ENDBRANCH  78  79
ENDBRANCH  59  73
BRANCH  60  83
ATOM     83  C   UNL A   1      40.638  31.929  33.428  1.00  0.00    -0.014 A 
ATOM     84  C   UNL A   1      40.341  33.307  33.329  1.00  0.00     0.010 A 
ATOM     85  C   UNL A   1      39.588  31.011  33.624  1.00  0.00     0.010 A 
ATOM     86  C   UNL A   1      39.018  33.728  33.175  1.00  0.00     0.020 A 
ATOM     87  C   UNL A   1      38.262  31.435  33.474  1.00  0.00     0.020 A 
ATOM     88  C   UNL A   1      38.000  32.773  33.163  1.00  0.00     0.054 A 
BRANCH  88  89
ATOM     89  S   UNL A   1      36.391  33.244  32.461  1.00  0.00     0.124 S 
ATOM     90  O   UNL A   1      36.505  34.691  32.322  1.00  0.00    -0.237 OA
ATOM     91  O   UNL A   1      36.401  32.488  31.211  1.00  0.00    -0.237 OA
ATOM     92  O   UNL A   1      35.431  32.775  33.454  1.00  0.00    -0.744 OA
ENDBRANCH  88  89
ENDBRANCH  60  83
BRANCH  72  93
ATOM     93  C   UNL A   1      44.770  26.149  33.767  1.00  0.00    -0.014 A 
ATOM     94  C   UNL A   1      43.847  25.377  34.493  1.00  0.00     0.010 A 
ATOM     95  C   UNL A   1      46.114  25.704  33.772  1.00  0.00     0.010 A 
ATOM     96  C   UNL A   1      44.256  24.282  35.263  1.00  0.00     0.020 A 
ATOM     97  C   UNL A   1      46.524  24.576  34.489  1.00  0.00     0.020 A 
ATOM     98  C   UNL A   1      45.595  23.896  35.268  1.00  0.00     0.054 A 
BRANCH  98  99
ATOM     99  S   UNL A   1      46.106  22.479  36.269  1.00  0.00     0.124 S 
ATOM    100  O   UNL A   1      47.562  22.573  36.196  1.00  0.00    -0.237 OA
ATOM    101  O   UNL A   1      45.526  22.775  37.577  1.00  0.00    -0.237 OA
ATOM    102  O   UNL A   1      45.514  21.338  35.577  1.00  0.00    -0.744 OA
ENDBRANCH  98  99
ENDBRANCH  72  93
ENDBRANCH  46  47
ENDBRANCH  39  41
ENDBRANCH  38  39
ENDBRANCH  37  38
ENDBRANCH  36  37
ENDBRANCH  35  36
ENDBRANCH  34  35
ENDBRANCH   1  34
TORSDOF 23
ENDMDL
MODEL 2
REMARK VINA RESULT:     -11.1      1.550      1.988
REMARK SMILES Cc1ccc(NC(=O)COc2ccc(Cl)cc2/C=C2\SC(=S)N(CC(=O)OCCOCCOC(=O)c3ccc(-c4c5nc(c(-c6ccc(S(=O)(=O)[O-])cc6)c6ccc([nH]6)c(-c6ccc(S(=O)(=O)[O-])cc6)c6nc(c(-c7ccc(S(=O)(=O)[O-])cc7)c7ccc4[nH]7)C=C6)C=C5)cc3)C2=O)cc1
REMARK SMILES IDX 28 1 27 2 25 3 26 4 24 5 23 6 18 7 19 8 20 9 96 10 21 11
REMARK SMILES IDX 97 12 22 13 17 14 11 15 12 16 13 17 16 18 14 19 15 20 10 21
REMARK SMILES IDX 9 22 7 23 6 24 8 26 5 27 1 28 2 29 3 30 99 31 4 32 98 33
REMARK SMILES IDX 29 34 30 35 31 36 32 37 33 38 34 39 35 40 36 41 37 42 95 43
REMARK SMILES IDX 38 44 94 45 39 46 40 47 41 48 88 49 42 50 93 51 87 52 89 53
REMARK SMILES IDX 43 54 92 55 86 56 85 57 44 59 74 60 55 61 73 62 56 63 59 64
REMARK SMILES IDX 72 65 90 66 57 67 58 68 71 70 91 71 60 72 45 73 46 74 54 75
REMARK SMILES IDX 47 76 53 77 48 78 49 79 50 80 51 81 52 82 75 83 76 84 84 85
REMARK SMILES IDX 77 86 83 87 78 88 79 89 80 90 81 91 82 92 61 93 62 94 70 95
REMARK SMILES IDX 63 96 69 97 64 98 65 99 66 100 67 101 68 102
REMARK H PARENT 6 25 89 58 59 69
REMARK Flexibility Score: inf
ROOT
ATOM      1  C   UNL A   1      33.019  27.059  24.634  1.00  0.00     0.261 C 
ENDROOT
BRANCH   1   2
ATOM      2  O   UNL A   1      31.778  26.485  25.092  1.00  0.00    -0.462 OA
BRANCH   2   3
ATOM      3  C   UNL A   1      30.704  26.737  24.282  1.00  0.00     0.326 C 
ATOM      4  O   UNL A   1      30.317  27.845  23.929  1.00  0.00    -0.250 OA
BRANCH   3   5
ATOM      5  C   UNL A   1      30.083  25.467  23.710  1.00  0.00     0.250 C 
BRANCH   5   6
ATOM      6  N   UNL A   1      31.060  24.426  23.387  1.00  0.00    -0.282 N 
ATOM      7  C   UNL A   1      32.006  21.096  24.296  1.00  0.00     0.033 C 
ATOM      8  C   UNL A   1      31.964  22.276  23.666  1.00  0.00     0.081 C 
ATOM      9  S   UNL A   1      32.862  22.879  22.351  1.00  0.00    -0.054 SA
ATOM     10  C   UNL A   1      31.173  23.388  24.266  1.00  0.00     0.266 C 
ATOM     11  C   UNL A   1      32.007  24.437  22.396  1.00  0.00     0.148 C 
ATOM     12  O   UNL A   1      30.814  23.435  25.436  1.00  0.00    -0.268 OA
ATOM     13  S   UNL A   1      32.415  25.698  21.389  1.00  0.00    -0.052 S 
BRANCH   7  14
ATOM     14  C   UNL A   1      33.051  20.111  24.432  1.00  0.00     0.019 A 
ATOM     15  C   UNL A   1      34.032  20.496  25.317  1.00  0.00     0.127 A 
ATOM     16  C   UNL A   1      35.287  19.938  25.166  1.00  0.00     0.048 A 
ATOM     17  C   UNL A   1      35.385  18.699  24.534  1.00  0.00     0.024 A 
ATOM     18  C   UNL A   1      33.025  18.779  24.045  1.00  0.00     0.032 A 
ATOM     19  C   UNL A   1      34.212  18.056  24.137  1.00  0.00     0.041 A 
ATOM     20  Cl  UNL A   1      34.238  16.370  23.804  1.00  0.00    -0.084 Cl
BRANCH  15  21
ATOM     21  O   UNL A   1      33.784  21.420  26.284  1.00  0.00    -0.483 OA
BRANCH  21  22
ATOM     22  C   UNL A   1      34.438  22.706  26.264  1.00  0.00     0.329 C 
BRANCH  22  23
ATOM     23  C   UNL A   1      35.656  23.678  25.668  1.00  0.00     0.262 C 
ATOM     24  N   UNL A   1      37.022  23.671  25.599  1.00  0.00    -0.323 N 
ATOM     25  H   UNL A   1      37.280  24.399  24.990  1.00  0.00     0.170 HD
ATOM     26  O   UNL A   1      35.221  24.727  25.126  1.00  0.00    -0.271 OA
BRANCH  24  27
ATOM     27  C   UNL A   1      38.234  23.056  26.037  1.00  0.00     0.041 A 
ATOM     28  C   UNL A   1      41.649  20.906  27.706  1.00  0.00     0.044 C 
ATOM     29  C   UNL A   1      40.502  21.623  27.060  1.00  0.00    -0.051 A 
ATOM     30  C   UNL A   1      40.303  22.954  27.358  1.00  0.00     0.005 A 
ATOM     31  C   UNL A   1      39.638  21.040  26.131  1.00  0.00     0.005 A 
ATOM     32  C   UNL A   1      39.265  23.655  26.737  1.00  0.00     0.026 A 
ATOM     33  C   UNL A   1      38.512  21.745  25.638  1.00  0.00     0.026 A 
ENDBRANCH  24  27
ENDBRANCH  22  23
ENDBRANCH  21  22
ENDBRANCH  15  21
ENDBRANCH   7  14
ENDBRANCH   5   6
ENDBRANCH   3   5
ENDBRANCH   2   3
ENDBRANCH   1   2
BRANCH   1  34
ATOM     34  C   UNL A   1      33.494  28.176  25.568  1.00  0.00     0.202 C 
BRANCH  34  35
ATOM     35  O   UNL A   1      33.120  29.445  25.057  1.00  0.00    -0.374 OA
BRANCH  35  36
ATOM     36  C   UNL A   1      32.237  30.269  25.815  1.00  0.00     0.202 C 
BRANCH  36  37
ATOM     37  C   UNL A   1      32.664  31.052  27.083  1.00  0.00     0.261 C 
BRANCH  37  38
ATOM     38  O   UNL A   1      33.807  30.525  27.766  1.00  0.00    -0.460 OA
BRANCH  38  39
ATOM     39  C   UNL A   1      34.976  31.215  27.621  1.00  0.00     0.338 C 
ATOM     40  O   UNL A   1      35.125  32.407  27.542  1.00  0.00    -0.246 OA
BRANCH  39  41
ATOM     41  C   UNL A   1      35.958  30.264  28.175  1.00  0.00     0.060 A 
ATOM     42  C   UNL A   1      35.843  29.688  29.448  1.00  0.00     0.016 A 
ATOM     43  C   UNL A   1      37.186  30.395  27.542  1.00  0.00     0.016 A 
ATOM     44  C   UNL A   1      37.005  29.303  30.134  1.00  0.00     0.010 A 
ATOM     45  C   UNL A   1      38.310  30.196  28.299  1.00  0.00     0.010 A 
ATOM     46  C   UNL A   1      38.245  29.611  29.581  1.00  0.00    -0.014 A 
BRANCH  46  47
ATOM     47  C   UNL A   1      39.576  29.410  30.161  1.00  0.00     0.031 A 
ATOM     48  C   UNL A   1      40.270  28.137  29.795  1.00  0.00     0.074 A 
ATOM     49  C   UNL A   1      40.294  30.449  30.648  1.00  0.00     0.049 A 
ATOM     50  N   UNL A   1      41.493  27.862  30.070  1.00  0.00    -0.248 NA
ATOM     51  C   UNL A   1      39.609  27.041  29.068  1.00  0.00     0.031 C 
ATOM     52  C   UNL A   1      41.749  30.618  30.570  1.00  0.00     0.029 A 
ATOM     53  N   UNL A   1      39.892  31.521  31.444  1.00  0.00    -0.354 N 
ATOM     54  C   UNL A   1      41.862  26.782  29.304  1.00  0.00     0.074 A 
ATOM     55  C   UNL A   1      40.644  26.265  28.742  1.00  0.00     0.031 C 
ATOM     56  C   UNL A   1      42.139  31.539  31.464  1.00  0.00     0.029 A 
ATOM     57  C   UNL A   1      40.979  31.855  32.274  1.00  0.00     0.049 A 
ATOM     58  H   UNL A   1      39.012  31.962  31.429  1.00  0.00     0.167 HD
ATOM     59  C   UNL A   1      43.186  26.514  29.157  1.00  0.00     0.031 A 
ATOM     60  C   UNL A   1      40.946  31.799  33.639  1.00  0.00     0.031 A 
ATOM     61  C   UNL A   1      43.967  27.225  30.164  1.00  0.00     0.049 A 
ATOM     62  C   UNL A   1      41.943  30.796  34.192  1.00  0.00     0.074 A 
ATOM     63  C   UNL A   1      44.820  28.312  30.142  1.00  0.00     0.029 A 
ATOM     64  N   UNL A   1      43.655  26.992  31.501  1.00  0.00    -0.354 N 
ATOM     65  N   UNL A   1      42.598  29.939  33.457  1.00  0.00    -0.248 NA
ATOM     66  C   UNL A   1      42.236  30.633  35.614  1.00  0.00     0.031 C 
ATOM     67  C   UNL A   1      44.921  28.801  31.478  1.00  0.00     0.029 A 
ATOM     68  C   UNL A   1      44.176  27.981  32.310  1.00  0.00     0.049 A 
ATOM     69  H   UNL A   1      43.134  26.224  31.825  1.00  0.00     0.167 HD
ATOM     70  C   UNL A   1      43.276  29.062  34.254  1.00  0.00     0.074 A 
ATOM     71  C   UNL A   1      43.055  29.566  35.598  1.00  0.00     0.031 C 
ATOM     72  C   UNL A   1      43.901  27.960  33.744  1.00  0.00     0.031 A 
BRANCH  59  73
ATOM     73  C   UNL A   1      43.783  25.695  28.041  1.00  0.00    -0.014 A 
ATOM     74  C   UNL A   1      42.972  25.332  26.947  1.00  0.00     0.010 A 
ATOM     75  C   UNL A   1      45.086  25.154  28.058  1.00  0.00     0.010 A 
ATOM     76  C   UNL A   1      43.437  24.488  25.925  1.00  0.00     0.020 A 
ATOM     77  C   UNL A   1      45.574  24.336  27.027  1.00  0.00     0.020 A 
ATOM     78  C   UNL A   1      44.740  23.998  25.969  1.00  0.00     0.054 A 
BRANCH  78  79
ATOM     79  S   UNL A   1      45.322  22.902  24.648  1.00  0.00     0.124 S 
ATOM     80  O   UNL A   1      44.073  22.494  24.010  1.00  0.00    -0.237 OA
ATOM     81  O   UNL A   1      46.176  23.783  23.857  1.00  0.00    -0.237 OA
ATOM     82  O   UNL A   1      46.026  21.840  25.363  1.00  0.00    -0.744 OA
ENDBRANCH  78  79
ENDBRANCH  59  73
BRANCH  60  83
ATOM     83  C   UNL A   1      39.584  32.052  34.197  1.00  0.00    -0.014 A 
ATOM     84  C   UNL A   1      38.959  30.966  34.851  1.00  0.00     0.010 A 
ATOM     85  C   UNL A   1      39.235  33.367  34.559  1.00  0.00     0.010 A 
ATOM     86  C   UNL A   1      38.200  31.187  36.003  1.00  0.00     0.020 A 
ATOM     87  C   UNL A   1      38.471  33.587  35.712  1.00  0.00     0.020 A 
ATOM     88  C   UNL A   1      38.039  32.493  36.468  1.00  0.00     0.054 A 
BRANCH  88  89
ATOM     89  S   UNL A   1      37.518  32.731  38.193  1.00  0.00     0.124 S 
ATOM     90  O   UNL A   1      36.075  32.910  38.078  1.00  0.00    -0.237 OA
ATOM     91  O   UNL A   1      37.951  31.471  38.792  1.00  0.00    -0.237 OA
ATOM     92  O   UNL A   1      38.271  33.904  38.622  1.00  0.00    -0.744 OA
ENDBRANCH  88  89
ENDBRANCH  60  83
BRANCH  72  93
ATOM     93  C   UNL A   1      44.320  26.758  34.560  1.00  0.00    -0.014 A 
ATOM     94  C   UNL A   1      43.457  25.701  34.896  1.00  0.00     0.010 A 
ATOM     95  C   UNL A   1      45.685  26.596  34.904  1.00  0.00     0.010 A 
ATOM     96  C   UNL A   1      43.906  24.591  35.621  1.00  0.00     0.020 A 
ATOM     97  C   UNL A   1      46.156  25.465  35.576  1.00  0.00     0.020 A 
ATOM     98  C   UNL A   1      45.252  24.487  35.969  1.00  0.00     0.054 A 
BRANCH  98  99
ATOM     99  S   UNL A   1      45.815  23.047  36.907  1.00  0.00     0.124 S 
ATOM    100  O   UNL A   1      45.260  23.317  38.230  1.00  0.00    -0.237 OA
ATOM    101  O   UNL A   1      45.206  21.929  36.190  1.00  0.00    -0.237 OA
ATOM    102  O   UNL A   1      47.270  23.120  36.809  1.00  0.00    -0.744 OA
ENDBRANCH  98  99
ENDBRANCH  72  93
ENDBRANCH  46  47
ENDBRANCH  39  41
ENDBRANCH  38  39
ENDBRANCH  37  38
ENDBRANCH  36  37
ENDBRANCH  35  36
ENDBRANCH  34  35
ENDBRANCH   1  34
TORSDOF 23
ENDMDL
MODEL 3
REMARK VINA RESULT:     -10.1      3.822     10.223
REMARK SMILES Cc1ccc(NC(=O)COc2ccc(Cl)cc2/C=C2\SC(=S)N(CC(=O)OCCOCCOC(=O)c3ccc(-c4c5nc(c(-c6ccc(S(=O)(=O)[O-])cc6)c6ccc([nH]6)c(-c6ccc(S(=O)(=O)[O-])cc6)c6nc(c(-c7ccc(S(=O)(=O)[O-])cc7)c7ccc4[nH]7)C=C6)C=C5)cc3)C2=O)cc1
REMARK SMILES IDX 28 1 27 2 25 3 26 4 24 5 23 6 18 7 19 8 20 9 96 10 21 11
REMARK SMILES IDX 97 12 22 13 17 14 11 15 12 16 13 17 16 18 14 19 15 20 10 21
REMARK SMILES IDX 9 22 7 23 6 24 8 26 5 27 1 28 2 29 3 30 99 31 4 32 98 33
REMARK SMILES IDX 29 34 30 35 31 36 32 37 33 38 34 39 35 40 36 41 37 42 95 43
REMARK SMILES IDX 38 44 94 45 39 46 40 47 41 48 88 49 42 50 93 51 87 52 89 53
REMARK SMILES IDX 43 54 92 55 86 56 85 57 44 59 74 60 55 61 73 62 56 63 59 64
REMARK SMILES IDX 72 65 90 66 57 67 58 68 71 70 91 71 60 72 45 73 46 74 54 75
REMARK SMILES IDX 47 76 53 77 48 78 49 79 50 80 51 81 52 82 75 83 76 84 84 85
REMARK SMILES IDX 77 86 83 87 78 88 79 89 80 90 81 91 82 92 61 93 62 94 70 95
REMARK SMILES IDX 63 96 69 97 64 98 65 99 66 100 67 101 68 102
REMARK H PARENT 6 25 89 58 59 69
REMARK Flexibility Score: inf
ROOT
ATOM      1  C   UNL A   1      36.158  17.601  25.078  1.00  0.00     0.261 C 
ENDROOT
BRANCH   1   2
ATOM      2  O   UNL A   1      35.180  17.086  24.151  1.00  0.00    -0.462 OA
BRANCH   2   3
ATOM      3  C   UNL A   1      34.284  16.209  24.702  1.00  0.00     0.326 C 
ATOM      4  O   UNL A   1      34.566  15.226  25.378  1.00  0.00    -0.250 OA
BRANCH   3   5
ATOM      5  C   UNL A   1      32.836  16.652  24.522  1.00  0.00     0.250 C 
BRANCH   5   6
ATOM      6  N   UNL A   1      32.683  18.085  24.264  1.00  0.00    -0.282 N 
ATOM      7  C   UNL A   1      33.004  21.268  25.867  1.00  0.00     0.033 C 
ATOM      8  C   UNL A   1      32.802  20.334  24.931  1.00  0.00     0.081 C 
ATOM      9  S   UNL A   1      32.434  20.466  23.274  1.00  0.00    -0.054 SA
ATOM     10  C   UNL A   1      32.656  18.910  25.350  1.00  0.00     0.266 C 
ATOM     11  C   UNL A   1      32.390  18.700  23.075  1.00  0.00     0.148 C 
ATOM     12  O   UNL A   1      32.384  18.544  26.487  1.00  0.00    -0.268 OA
ATOM     13  S   UNL A   1      31.974  17.984  21.630  1.00  0.00    -0.052 S 
BRANCH   7  14
ATOM     14  C   UNL A   1      32.566  22.639  25.974  1.00  0.00     0.019 A 
ATOM     15  C   UNL A   1      33.493  23.532  25.489  1.00  0.00     0.127 A 
ATOM     16  C   UNL A   1      33.455  24.825  25.975  1.00  0.00     0.048 A 
ATOM     17  C   UNL A   1      32.246  25.302  26.482  1.00  0.00     0.024 A 
ATOM     18  C   UNL A   1      31.281  23.110  26.201  1.00  0.00     0.032 A 
ATOM     19  C   UNL A   1      31.123  24.476  26.421  1.00  0.00     0.041 A 
ATOM     20  Cl  UNL A   1      29.554  25.161  26.579  1.00  0.00    -0.084 Cl
BRANCH  15  21
ATOM     21  O   UNL A   1      34.437  23.147  24.588  1.00  0.00    -0.483 OA
BRANCH  21  22
ATOM     22  C   UNL A   1      34.402  23.629  23.228  1.00  0.00     0.329 C 
BRANCH  22  23
ATOM     23  C   UNL A   1      33.518  24.250  21.957  1.00  0.00     0.262 C 
ATOM     24  N   UNL A   1      32.801  25.380  21.673  1.00  0.00    -0.323 N 
ATOM     25  H   UNL A   1      32.601  25.354  20.710  1.00  0.00     0.170 HD
ATOM     26  O   UNL A   1      33.479  23.476  20.967  1.00  0.00    -0.271 OA
BRANCH  24  27
ATOM     27  C   UNL A   1      32.218  26.581  22.180  1.00  0.00     0.041 A 
ATOM     28  C   UNL A   1      30.564  30.082  24.198  1.00  0.00     0.044 C 
ATOM     29  C   UNL A   1      31.173  28.930  23.457  1.00  0.00    -0.051 A 
ATOM     30  C   UNL A   1      30.336  27.983  22.906  1.00  0.00     0.005 A 
ATOM     31  C   UNL A   1      32.544  28.772  23.246  1.00  0.00     0.005 A 
ATOM     32  C   UNL A   1      30.878  26.922  22.176  1.00  0.00     0.026 A 
ATOM     33  C   UNL A   1      33.059  27.606  22.627  1.00  0.00     0.026 A 
ENDBRANCH  24  27
ENDBRANCH  22  23
ENDBRANCH  21  22
ENDBRANCH  15  21
ENDBRANCH   7  14
ENDBRANCH   5   6
ENDBRANCH   3   5
ENDBRANCH   2   3
ENDBRANCH   1   2
BRANCH   1  34
ATOM     34  C   UNL A   1      36.311  19.118  24.939  1.00  0.00     0.202 C 
BRANCH  34  35
ATOM     35  O   UNL A   1      37.683  19.478  24.889  1.00  0.00    -0.374 OA
BRANCH  35  36
ATOM     36  C   UNL A   1      38.044  20.856  24.930  1.00  0.00     0.202 C 
BRANCH  36  37
ATOM     37  C   UNL A   1      37.434  21.878  25.924  1.00  0.00     0.261 C 
BRANCH  37  38
ATOM     38  O   UNL A   1      38.106  23.142  25.984  1.00  0.00    -0.460 OA
BRANCH  38  39
ATOM     39  C   UNL A   1      39.181  23.221  26.822  1.00  0.00     0.338 C 
ATOM     40  O   UNL A   1      39.982  22.361  27.081  1.00  0.00    -0.246 OA
BRANCH  39  41
ATOM     41  C   UNL A   1      39.449  24.672  26.830  1.00  0.00     0.060 A 
ATOM     42  C   UNL A   1      40.353  25.296  25.959  1.00  0.00     0.016 A 
ATOM     43  C   UNL A   1      39.113  25.231  28.055  1.00  0.00     0.016 A 
ATOM     44  C   UNL A   1      40.994  26.476  26.365  1.00  0.00     0.010 A 
ATOM     45  C   UNL A   1      39.887  26.265  28.510  1.00  0.00     0.010 A 
ATOM     46  C   UNL A   1      40.804  26.930  27.667  1.00  0.00    -0.014 A 
BRANCH  46  47
ATOM     47  C   UNL A   1      41.447  28.061  28.341  1.00  0.00     0.031 A 
ATOM     48  C   UNL A   1      40.572  29.238  28.636  1.00  0.00     0.074 A 
ATOM     49  C   UNL A   1      42.615  27.909  29.008  1.00  0.00     0.049 A 
ATOM     50  N   UNL A   1      40.914  30.243  29.358  1.00  0.00    -0.248 NA
ATOM     51  C   UNL A   1      39.201  29.371  28.119  1.00  0.00     0.031 C 
ATOM     52  C   UNL A   1      43.009  28.590  30.246  1.00  0.00     0.029 A 
ATOM     53  N   UNL A   1      43.768  27.212  28.648  1.00  0.00    -0.354 N 
ATOM     54  C   UNL A   1      39.771  30.939  29.673  1.00  0.00     0.074 A 
ATOM     55  C   UNL A   1      38.738  30.399  28.832  1.00  0.00     0.031 C 
ATOM     56  C   UNL A   1      44.338  28.493  30.404  1.00  0.00     0.029 A 
ATOM     57  C   UNL A   1      44.864  27.913  29.184  1.00  0.00     0.049 A 
ATOM     58  H   UNL A   1      43.808  26.383  28.118  1.00  0.00     0.167 HD
ATOM     59  C   UNL A   1      39.819  31.835  30.693  1.00  0.00     0.031 A 
ATOM     60  C   UNL A   1      45.864  28.462  28.432  1.00  0.00     0.031 A 
ATOM     61  C   UNL A   1      41.202  32.156  31.028  1.00  0.00     0.049 A 
ATOM     62  C   UNL A   1      45.927  29.973  28.582  1.00  0.00     0.074 A 
ATOM     63  C   UNL A   1      42.043  31.851  32.081  1.00  0.00     0.029 A 
ATOM     64  N   UNL A   1      42.007  32.663  30.012  1.00  0.00    -0.354 N 
ATOM     65  N   UNL A   1      45.010  30.683  29.182  1.00  0.00    -0.248 NA
ATOM     66  C   UNL A   1      46.985  30.807  28.019  1.00  0.00     0.031 C 
ATOM     67  C   UNL A   1      43.380  32.071  31.636  1.00  0.00     0.029 A 
ATOM     68  C   UNL A   1      43.343  32.559  30.340  1.00  0.00     0.049 A 
ATOM     69  H   UNL A   1      41.668  33.046  29.171  1.00  0.00     0.167 HD
ATOM     70  C   UNL A   1      45.257  32.013  28.998  1.00  0.00     0.074 A 
ATOM     71  C   UNL A   1      46.531  32.041  28.302  1.00  0.00     0.031 C 
ATOM     72  C   UNL A   1      44.359  32.971  29.374  1.00  0.00     0.031 A 
BRANCH  59  73
ATOM     73  C   UNL A   1      38.620  32.337  31.459  1.00  0.00    -0.014 A 
ATOM     74  C   UNL A   1      38.471  33.723  31.665  1.00  0.00     0.010 A 
ATOM     75  C   UNL A   1      37.676  31.505  32.097  1.00  0.00     0.010 A 
ATOM     76  C   UNL A   1      37.434  34.248  32.454  1.00  0.00     0.020 A 
ATOM     77  C   UNL A   1      36.616  32.019  32.860  1.00  0.00     0.020 A 
ATOM     78  C   UNL A   1      36.507  33.391  33.043  1.00  0.00     0.054 A 
BRANCH  78  79
ATOM     79  S   UNL A   1      35.181  34.084  34.066  1.00  0.00     0.124 S 
ATOM     80  O   UNL A   1      34.007  33.360  33.585  1.00  0.00    -0.237 OA
ATOM     81  O   UNL A   1      35.616  33.752  35.419  1.00  0.00    -0.237 OA
ATOM     82  O   UNL A   1      35.202  35.509  33.744  1.00  0.00    -0.744 OA
ENDBRANCH  78  79
ENDBRANCH  59  73
BRANCH  60  83
ATOM     83  C   UNL A   1      46.112  27.716  27.163  1.00  0.00    -0.014 A 
ATOM     84  C   UNL A   1      46.948  26.580  27.252  1.00  0.00     0.010 A 
ATOM     85  C   UNL A   1      45.146  27.780  26.141  1.00  0.00     0.010 A 
ATOM     86  C   UNL A   1      46.658  25.437  26.504  1.00  0.00     0.020 A 
ATOM     87  C   UNL A   1      44.858  26.634  25.388  1.00  0.00     0.020 A 
ATOM     88  C   UNL A   1      45.559  25.452  25.643  1.00  0.00     0.054 A 
BRANCH  88  89
ATOM     89  S   UNL A   1      44.885  23.859  25.084  1.00  0.00     0.124 S 
ATOM     90  O   UNL A   1      43.487  24.173  24.811  1.00  0.00    -0.237 OA
ATOM     91  O   UNL A   1      45.714  23.602  23.909  1.00  0.00    -0.237 OA
ATOM     92  O   UNL A   1      45.127  22.968  26.213  1.00  0.00    -0.744 OA
ENDBRANCH  88  89
ENDBRANCH  60  83
BRANCH  72  93
ATOM     93  C   UNL A   1      44.362  34.396  28.867  1.00  0.00    -0.014 A 
ATOM     94  C   UNL A   1      44.468  34.741  27.509  1.00  0.00     0.010 A 
ATOM     95  C   UNL A   1      44.111  35.454  29.774  1.00  0.00     0.010 A 
ATOM     96  C   UNL A   1      44.427  36.077  27.089  1.00  0.00     0.020 A 
ATOM     97  C   UNL A   1      44.008  36.784  29.358  1.00  0.00     0.020 A 
ATOM     98  C   UNL A   1      44.211  37.092  28.019  1.00  0.00     0.054 A 
BRANCH  98  99
ATOM     99  S   UNL A   1      44.161  38.811  27.459  1.00  0.00     0.124 S 
ATOM    100  O   UNL A   1      42.813  38.905  26.906  1.00  0.00    -0.237 OA
ATOM    101  O   UNL A   1      44.385  39.563  28.692  1.00  0.00    -0.237 OA
ATOM    102  O   UNL A   1      45.247  38.887  26.486  1.00  0.00    -0.744 OA
ENDBRANCH  98  99
ENDBRANCH  72  93
ENDBRANCH  46  47
ENDBRANCH  39  41
ENDBRANCH  38  39
ENDBRANCH  37  38
ENDBRANCH  36  37
ENDBRANCH  35  36
ENDBRANCH  34  35
ENDBRANCH   1  34
TORSDOF 23
ENDMDL
