MODEL 1
REMARK VINA RESULT:      -9.7      0.000      0.000
REMARK SMILES CC(C)(O)C#Cc1ccc(C(=O)N[C@@H](CCC(N)=O)C(=O)OCCOCCOC(=O)c2ccc(-c3c4nc(c(-c5ccc(S(=O)(=O)[O-])cc5)c5ccc([nH]5)c(-c5ccc(S(=O)(=O)[O-])cc5)c5nc(c(-c6ccc(S(=O)(=O)[O-])cc6)c6ccc3[nH]6)C=C5)C=C4)cc2)s1
REMARK SMILES IDX 24 1 23 2 22 3 20 4 21 5 14 6 13 7 11 8 12 9 10 11 7 12 8 13
REMARK SMILES IDX 91 14 9 15 6 16 5 17 2 18 1 19 3 20 4 21 15 23 16 24 17 25
REMARK SMILES IDX 18 26 19 27 25 30 26 31 27 32 28 33 29 34 30 35 31 36 32 37
REMARK SMILES IDX 90 38 33 39 89 40 34 41 35 42 36 43 83 44 37 45 88 46 82 47
REMARK SMILES IDX 84 48 38 49 87 50 81 51 80 52 39 54 69 55 50 56 68 57 51 58
REMARK SMILES IDX 54 59 67 60 85 61 52 62 53 63 66 65 86 66 55 67 40 68 41 69
REMARK SMILES IDX 49 70 42 71 48 72 43 73 44 74 45 75 46 76 47 77 70 78 71 79
REMARK SMILES IDX 79 80 72 81 78 82 73 83 74 84 75 85 76 86 77 87 56 88 57 89
REMARK SMILES IDX 65 90 58 91 64 92 59 93 60 94 61 95 62 96 63 97
REMARK H PARENT 13 10 4 22 18 28 18 29 84 53 54 64
REMARK Flexibility Score: inf
ROOT
ATOM      1  C   UNL A   1      38.659  23.016  26.621  1.00  0.00     0.202 C 
ENDROOT
BRANCH   1   2
ATOM      2  C   UNL A   1      38.027  24.085  25.732  1.00  0.00     0.261 C 
BRANCH   2   3
ATOM      3  O   UNL A   1      36.597  23.979  25.641  1.00  0.00    -0.462 OA
BRANCH   3   4
ATOM      4  C   UNL A   1      36.131  23.418  24.495  1.00  0.00     0.328 C 
ATOM      5  O   UNL A   1      36.813  22.771  23.702  1.00  0.00    -0.250 OA
BRANCH   4   6
ATOM      6  C   UNL A   1      34.668  23.777  24.193  1.00  0.00     0.193 C 
BRANCH   6   7
ATOM      7  N   UNL A   1      34.201  23.697  22.803  1.00  0.00    -0.338 N 
ATOM      8  C   UNL A   1      33.390  24.501  22.022  1.00  0.00     0.262 C 
ATOM      9  O   UNL A   1      33.085  24.017  20.928  1.00  0.00    -0.268 OA
ATOM     10  H   UNL A   1      34.535  22.902  22.327  1.00  0.00     0.164 HD
BRANCH   8  11
ATOM     11  C   UNL A   1      32.918  25.835  22.401  1.00  0.00     0.093 A 
ATOM     12  C   UNL A   1      31.691  27.984  22.669  1.00  0.00     0.078 A 
ATOM     13  C   UNL A   1      32.661  27.845  23.630  1.00  0.00     0.030 A 
ATOM     14  S   UNL A   1      31.611  26.627  21.661  1.00  0.00    -0.121 S 
ATOM     15  C   UNL A   1      33.369  26.602  23.474  1.00  0.00     0.027 A 
BRANCH  12  16
ATOM     16  C   UNL A   1      30.760  29.043  22.454  1.00  0.00    -0.053 C 
ATOM     17  C   UNL A   1      29.940  29.894  22.593  1.00  0.00    -0.063 C 
BRANCH  17  18
ATOM     18  C   UNL A   1      28.939  30.899  22.995  1.00  0.00     0.120 C 
ATOM     19  C   UNL A   1      27.640  30.211  23.423  1.00  0.00     0.056 C 
ATOM     20  C   UNL A   1      28.696  31.889  21.864  1.00  0.00     0.056 C 
BRANCH  18  21
ATOM     21  O   UNL A   1      29.456  31.614  24.115  1.00  0.00    -0.378 OA
ATOM     22  H   UNL A   1      28.737  32.100  24.548  1.00  0.00     0.212 HD
ENDBRANCH  18  21
ENDBRANCH  17  18
ENDBRANCH  12  16
ENDBRANCH   8  11
ENDBRANCH   6   7
BRANCH   6  23
ATOM     23  C   UNL A   1      33.739  23.040  25.171  1.00  0.00     0.047 C 
BRANCH  23  24
ATOM     24  C   UNL A   1      33.300  21.633  24.780  1.00  0.00     0.102 C 
BRANCH  24  25
ATOM     25  C   UNL A   1      33.418  20.606  25.880  1.00  0.00     0.217 C 
ATOM     26  N   UNL A   1      33.525  19.310  25.481  1.00  0.00    -0.370 N 
ATOM     27  O   UNL A   1      33.406  20.903  27.068  1.00  0.00    -0.275 OA
ATOM     28  H   UNL A   1      33.533  19.090  24.522  1.00  0.00     0.159 HD
ATOM     29  H   UNL A   1      33.593  18.593  26.151  1.00  0.00     0.159 HD
ENDBRANCH  24  25
ENDBRANCH  23  24
ENDBRANCH   6  23
ENDBRANCH   4   6
ENDBRANCH   3   4
ENDBRANCH   2   3
ENDBRANCH   1   2
BRANCH   1  30
ATOM     30  O   UNL A   1      38.535  21.649  26.235  1.00  0.00    -0.374 OA
BRANCH  30  31
ATOM     31  C   UNL A   1      39.685  20.923  25.811  1.00  0.00     0.202 C 
BRANCH  31  32
ATOM     32  C   UNL A   1      41.040  21.253  26.427  1.00  0.00     0.261 C 
BRANCH  32  33
ATOM     33  O   UNL A   1      41.810  22.153  25.646  1.00  0.00    -0.460 OA
BRANCH  33  34
ATOM     34  C   UNL A   1      43.142  22.005  25.830  1.00  0.00     0.338 C 
ATOM     35  O   UNL A   1      43.759  20.952  25.896  1.00  0.00    -0.246 OA
BRANCH  34  36
ATOM     36  C   UNL A   1      43.746  23.300  26.144  1.00  0.00     0.060 A 
ATOM     37  C   UNL A   1      44.325  23.391  27.413  1.00  0.00     0.016 A 
ATOM     38  C   UNL A   1      43.316  24.424  25.431  1.00  0.00     0.016 A 
ATOM     39  C   UNL A   1      44.197  24.578  28.091  1.00  0.00     0.010 A 
ATOM     40  C   UNL A   1      43.169  25.600  26.118  1.00  0.00     0.010 A 
ATOM     41  C   UNL A   1      43.517  25.629  27.467  1.00  0.00    -0.014 A 
BRANCH  41  42
ATOM     42  C   UNL A   1      43.321  26.849  28.214  1.00  0.00     0.031 A 
ATOM     43  C   UNL A   1      44.510  27.716  28.095  1.00  0.00     0.074 A 
ATOM     44  C   UNL A   1      42.158  27.169  28.813  1.00  0.00     0.049 A 
ATOM     45  N   UNL A   1      45.457  27.862  28.963  1.00  0.00    -0.248 NA
ATOM     46  C   UNL A   1      44.836  28.241  26.754  1.00  0.00     0.031 C 
ATOM     47  C   UNL A   1      40.873  26.469  28.737  1.00  0.00     0.029 A 
ATOM     48  N   UNL A   1      41.851  28.272  29.542  1.00  0.00    -0.354 N 
ATOM     49  C   UNL A   1      46.339  28.749  28.365  1.00  0.00     0.074 A 
ATOM     50  C   UNL A   1      46.081  28.674  26.951  1.00  0.00     0.031 C 
ATOM     51  C   UNL A   1      39.891  27.297  29.165  1.00  0.00     0.029 A 
ATOM     52  C   UNL A   1      40.487  28.528  29.657  1.00  0.00     0.049 A 
ATOM     53  H   UNL A   1      42.537  28.844  29.957  1.00  0.00     0.167 HD
ATOM     54  C   UNL A   1      46.887  29.766  29.086  1.00  0.00     0.031 A 
ATOM     55  C   UNL A   1      39.915  29.701  30.048  1.00  0.00     0.031 A 
ATOM     56  C   UNL A   1      46.762  29.530  30.504  1.00  0.00     0.049 A 
ATOM     57  C   UNL A   1      40.967  30.481  30.753  1.00  0.00     0.074 A 
ATOM     58  C   UNL A   1      47.136  28.516  31.365  1.00  0.00     0.029 A 
ATOM     59  N   UNL A   1      45.788  30.248  31.159  1.00  0.00    -0.354 N 
ATOM     60  N   UNL A   1      41.482  30.116  31.894  1.00  0.00    -0.248 NA
ATOM     61  C   UNL A   1      41.788  31.383  29.959  1.00  0.00     0.031 C 
ATOM     62  C   UNL A   1      46.069  28.411  32.305  1.00  0.00     0.029 A 
ATOM     63  C   UNL A   1      45.137  29.414  32.025  1.00  0.00     0.049 A 
ATOM     64  H   UNL A   1      45.593  31.204  31.026  1.00  0.00     0.167 HD
ATOM     65  C   UNL A   1      42.842  30.355  31.759  1.00  0.00     0.074 A 
ATOM     66  C   UNL A   1      42.960  31.218  30.582  1.00  0.00     0.031 C 
ATOM     67  C   UNL A   1      43.758  29.593  32.427  1.00  0.00     0.031 A 
BRANCH  54  68
ATOM     68  C   UNL A   1      47.030  31.166  28.524  1.00  0.00    -0.014 A 
ATOM     69  C   UNL A   1      45.857  31.899  28.261  1.00  0.00     0.010 A 
ATOM     70  C   UNL A   1      48.229  31.667  27.970  1.00  0.00     0.010 A 
ATOM     71  C   UNL A   1      45.875  33.014  27.414  1.00  0.00     0.020 A 
ATOM     72  C   UNL A   1      48.266  32.802  27.163  1.00  0.00     0.020 A 
ATOM     73  C   UNL A   1      47.080  33.448  26.862  1.00  0.00     0.054 A 
BRANCH  73  74
ATOM     74  S   UNL A   1      47.083  34.835  25.706  1.00  0.00     0.124 S 
ATOM     75  O   UNL A   1      47.003  35.976  26.610  1.00  0.00    -0.237 OA
ATOM     76  O   UNL A   1      48.358  34.654  25.018  1.00  0.00    -0.237 OA
ATOM     77  O   UNL A   1      45.898  34.597  24.884  1.00  0.00    -0.744 OA
ENDBRANCH  73  74
ENDBRANCH  54  68
BRANCH  55  78
ATOM     78  C   UNL A   1      38.665  30.337  29.540  1.00  0.00    -0.014 A 
ATOM     79  C   UNL A   1      37.407  29.725  29.720  1.00  0.00     0.010 A 
ATOM     80  C   UNL A   1      38.672  31.687  29.135  1.00  0.00     0.010 A 
ATOM     81  C   UNL A   1      36.211  30.453  29.566  1.00  0.00     0.020 A 
ATOM     82  C   UNL A   1      37.486  32.416  28.972  1.00  0.00     0.020 A 
ATOM     83  C   UNL A   1      36.259  31.803  29.213  1.00  0.00     0.054 A 
BRANCH  83  84
ATOM     84  S   UNL A   1      34.729  32.790  29.191  1.00  0.00     0.124 S 
ATOM     85  O   UNL A   1      33.917  32.089  28.202  1.00  0.00    -0.237 OA
ATOM     86  O   UNL A   1      34.265  32.693  30.572  1.00  0.00    -0.237 OA
ATOM     87  O   UNL A   1      35.183  34.121  28.788  1.00  0.00    -0.744 OA
ENDBRANCH  83  84
ENDBRANCH  55  78
BRANCH  67  88
ATOM     88  C   UNL A   1      43.277  28.721  33.564  1.00  0.00    -0.014 A 
ATOM     89  C   UNL A   1      42.506  27.553  33.407  1.00  0.00     0.010 A 
ATOM     90  C   UNL A   1      43.757  29.042  34.846  1.00  0.00     0.010 A 
ATOM     91  C   UNL A   1      42.198  26.747  34.516  1.00  0.00     0.020 A 
ATOM     92  C   UNL A   1      43.471  28.237  35.947  1.00  0.00     0.020 A 
ATOM     93  C   UNL A   1      42.682  27.099  35.782  1.00  0.00     0.054 A 
BRANCH  93  94
ATOM     94  S   UNL A   1      42.301  26.054  37.216  1.00  0.00     0.124 S 
ATOM     95  O   UNL A   1      43.172  26.604  38.251  1.00  0.00    -0.237 OA
ATOM     96  O   UNL A   1      40.870  26.278  37.411  1.00  0.00    -0.237 OA
ATOM     97  O   UNL A   1      42.652  24.706  36.767  1.00  0.00    -0.744 OA
ENDBRANCH  93  94
ENDBRANCH  67  88
ENDBRANCH  41  42
ENDBRANCH  34  36
ENDBRANCH  33  34
ENDBRANCH  32  33
ENDBRANCH  31  32
ENDBRANCH  30  31
ENDBRANCH   1  30
TORSDOF 25
ENDMDL
MODEL 2
REMARK VINA RESULT:      -9.3      3.475      8.563
REMARK SMILES CC(C)(O)C#Cc1ccc(C(=O)N[C@@H](CCC(N)=O)C(=O)OCCOCCOC(=O)c2ccc(-c3c4nc(c(-c5ccc(S(=O)(=O)[O-])cc5)c5ccc([nH]5)c(-c5ccc(S(=O)(=O)[O-])cc5)c5nc(c(-c6ccc(S(=O)(=O)[O-])cc6)c6ccc3[nH]6)C=C5)C=C4)cc2)s1
REMARK SMILES IDX 24 1 23 2 22 3 20 4 21 5 14 6 13 7 11 8 12 9 10 11 7 12 8 13
REMARK SMILES IDX 91 14 9 15 6 16 5 17 2 18 1 19 3 20 4 21 15 23 16 24 17 25
REMARK SMILES IDX 18 26 19 27 25 30 26 31 27 32 28 33 29 34 30 35 31 36 32 37
REMARK SMILES IDX 90 38 33 39 89 40 34 41 35 42 36 43 83 44 37 45 88 46 82 47
REMARK SMILES IDX 84 48 38 49 87 50 81 51 80 52 39 54 69 55 50 56 68 57 51 58
REMARK SMILES IDX 54 59 67 60 85 61 52 62 53 63 66 65 86 66 55 67 40 68 41 69
REMARK SMILES IDX 49 70 42 71 48 72 43 73 44 74 45 75 46 76 47 77 70 78 71 79
REMARK SMILES IDX 79 80 72 81 78 82 73 83 74 84 75 85 76 86 77 87 56 88 57 89
REMARK SMILES IDX 65 90 58 91 64 92 59 93 60 94 61 95 62 96 63 97
REMARK H PARENT 13 10 4 22 18 28 18 29 84 53 54 64
REMARK Flexibility Score: inf
ROOT
ATOM      1  C   UNL A   1      35.125  24.191  24.258  1.00  0.00     0.202 C 
ENDROOT
BRANCH   1   2
ATOM      2  C   UNL A   1      34.380  25.299  23.515  1.00  0.00     0.261 C 
BRANCH   2   3
ATOM      3  O   UNL A   1      33.336  25.906  24.293  1.00  0.00    -0.462 OA
BRANCH   3   4
ATOM      4  C   UNL A   1      32.270  26.354  23.580  1.00  0.00     0.328 C 
ATOM      5  O   UNL A   1      32.226  26.425  22.354  1.00  0.00    -0.250 OA
BRANCH   4   6
ATOM      6  C   UNL A   1      31.136  26.902  24.460  1.00  0.00     0.193 C 
BRANCH   6   7
ATOM      7  N   UNL A   1      30.645  28.262  24.201  1.00  0.00    -0.338 N 
ATOM      8  C   UNL A   1      30.924  29.498  24.756  1.00  0.00     0.262 C 
ATOM      9  O   UNL A   1      30.182  30.410  24.381  1.00  0.00    -0.268 OA
ATOM     10  H   UNL A   1      29.976  28.301  23.480  1.00  0.00     0.164 HD
BRANCH   8  11
ATOM     11  C   UNL A   1      32.012  29.767  25.700  1.00  0.00     0.093 A 
ATOM     12  C   UNL A   1      33.595  30.735  27.358  1.00  0.00     0.078 A 
ATOM     13  C   UNL A   1      33.819  29.392  27.187  1.00  0.00     0.030 A 
ATOM     14  S   UNL A   1      32.284  31.274  26.434  1.00  0.00    -0.121 S 
ATOM     15  C   UNL A   1      32.903  28.834  26.229  1.00  0.00     0.027 A 
BRANCH  12  16
ATOM     16  C   UNL A   1      34.256  31.673  28.206  1.00  0.00    -0.053 C 
ATOM     17  C   UNL A   1      34.544  32.412  29.092  1.00  0.00    -0.063 C 
BRANCH  17  18
ATOM     18  C   UNL A   1      34.701  33.253  30.294  1.00  0.00     0.120 C 
ATOM     19  C   UNL A   1      33.756  34.455  30.226  1.00  0.00     0.056 C 
ATOM     20  C   UNL A   1      36.150  33.694  30.448  1.00  0.00     0.056 C 
BRANCH  18  21
ATOM     21  O   UNL A   1      34.345  32.470  31.431  1.00  0.00    -0.378 OA
ATOM     22  H   UNL A   1      34.349  33.029  32.223  1.00  0.00     0.212 HD
ENDBRANCH  18  21
ENDBRANCH  17  18
ENDBRANCH  12  16
ENDBRANCH   8  11
ENDBRANCH   6   7
BRANCH   6  23
ATOM     23  C   UNL A   1      29.999  25.871  24.547  1.00  0.00     0.047 C 
BRANCH  23  24
ATOM     24  C   UNL A   1      30.401  24.413  24.737  1.00  0.00     0.102 C 
BRANCH  24  25
ATOM     25  C   UNL A   1      30.867  24.062  26.129  1.00  0.00     0.217 C 
ATOM     26  N   UNL A   1      32.142  23.602  26.235  1.00  0.00    -0.370 N 
ATOM     27  O   UNL A   1      30.147  24.167  27.115  1.00  0.00    -0.275 OA
ATOM     28  H   UNL A   1      32.707  23.525  25.433  1.00  0.00     0.159 HD
ATOM     29  H   UNL A   1      32.501  23.345  27.116  1.00  0.00     0.159 HD
ENDBRANCH  24  25
ENDBRANCH  23  24
ENDBRANCH   6  23
ENDBRANCH   4   6
ENDBRANCH   3   4
ENDBRANCH   2   3
ENDBRANCH   1   2
BRANCH   1  30
ATOM     30  O   UNL A   1      34.470  22.939  24.445  1.00  0.00    -0.374 OA
BRANCH  30  31
ATOM     31  C   UNL A   1      35.204  21.726  24.316  1.00  0.00     0.202 C 
BRANCH  31  32
ATOM     32  C   UNL A   1      36.665  21.785  23.881  1.00  0.00     0.261 C 
BRANCH  32  33
ATOM     33  O   UNL A   1      37.563  21.272  24.853  1.00  0.00    -0.460 OA
BRANCH  33  34
ATOM     34  C   UNL A   1      37.628  22.038  25.967  1.00  0.00     0.338 C 
ATOM     35  O   UNL A   1      36.705  22.320  26.716  1.00  0.00    -0.246 OA
BRANCH  34  36
ATOM     36  C   UNL A   1      38.946  22.665  26.060  1.00  0.00     0.060 A 
ATOM     37  C   UNL A   1      39.859  22.006  26.888  1.00  0.00     0.016 A 
ATOM     38  C   UNL A   1      39.058  24.026  25.751  1.00  0.00     0.016 A 
ATOM     39  C   UNL A   1      40.707  22.774  27.645  1.00  0.00     0.010 A 
ATOM     40  C   UNL A   1      39.890  24.792  26.525  1.00  0.00     0.010 A 
ATOM     41  C   UNL A   1      40.625  24.165  27.529  1.00  0.00    -0.014 A 
BRANCH  41  42
ATOM     42  C   UNL A   1      41.469  24.969  28.382  1.00  0.00     0.031 A 
ATOM     43  C   UNL A   1      40.888  26.315  28.553  1.00  0.00     0.074 A 
ATOM     44  C   UNL A   1      42.555  24.483  29.013  1.00  0.00     0.049 A 
ATOM     45  N   UNL A   1      41.237  27.397  27.939  1.00  0.00    -0.248 NA
ATOM     46  C   UNL A   1      39.590  26.410  29.251  1.00  0.00     0.031 C 
ATOM     47  C   UNL A   1      43.020  23.096  29.087  1.00  0.00     0.029 A 
ATOM     48  N   UNL A   1      43.426  25.129  29.830  1.00  0.00    -0.354 N 
ATOM     49  C   UNL A   1      40.372  28.365  28.428  1.00  0.00     0.074 A 
ATOM     50  C   UNL A   1      39.230  27.655  28.940  1.00  0.00     0.031 C 
ATOM     51  C   UNL A   1      43.910  22.979  30.100  1.00  0.00     0.029 A 
ATOM     52  C   UNL A   1      44.168  24.295  30.661  1.00  0.00     0.049 A 
ATOM     53  H   UNL A   1      43.524  26.110  29.835  1.00  0.00     0.167 HD
ATOM     54  C   UNL A   1      40.839  29.599  28.764  1.00  0.00     0.031 A 
ATOM     55  C   UNL A   1      44.865  24.671  31.770  1.00  0.00     0.031 A 
ATOM     56  C   UNL A   1      42.136  29.846  28.180  1.00  0.00     0.049 A 
ATOM     57  C   UNL A   1      45.071  26.140  31.675  1.00  0.00     0.074 A 
ATOM     58  C   UNL A   1      42.652  29.834  26.899  1.00  0.00     0.029 A 
ATOM     59  N   UNL A   1      43.215  29.749  29.029  1.00  0.00    -0.354 N 
ATOM     60  N   UNL A   1      45.819  26.699  30.765  1.00  0.00    -0.248 NA
ATOM     61  C   UNL A   1      44.061  27.005  32.267  1.00  0.00     0.031 C 
ATOM     62  C   UNL A   1      43.964  29.290  27.030  1.00  0.00     0.029 A 
ATOM     63  C   UNL A   1      44.217  29.074  28.387  1.00  0.00     0.049 A 
ATOM     64  H   UNL A   1      43.259  30.106  29.945  1.00  0.00     0.167 HD
ATOM     65  C   UNL A   1      45.098  27.808  30.347  1.00  0.00     0.074 A 
ATOM     66  C   UNL A   1      44.066  27.996  31.369  1.00  0.00     0.031 C 
ATOM     67  C   UNL A   1      45.215  28.280  29.070  1.00  0.00     0.031 A 
BRANCH  54  68
ATOM     68  C   UNL A   1      40.382  30.320  30.016  1.00  0.00    -0.014 A 
ATOM     69  C   UNL A   1      40.819  29.831  31.261  1.00  0.00     0.010 A 
ATOM     70  C   UNL A   1      39.320  31.251  30.038  1.00  0.00     0.010 A 
ATOM     71  C   UNL A   1      40.166  30.183  32.448  1.00  0.00     0.020 A 
ATOM     72  C   UNL A   1      38.692  31.645  31.217  1.00  0.00     0.020 A 
ATOM     73  C   UNL A   1      39.098  31.080  32.413  1.00  0.00     0.054 A 
BRANCH  73  74
ATOM     74  S   UNL A   1      38.208  31.466  33.935  1.00  0.00     0.124 S 
ATOM     75  O   UNL A   1      36.894  31.843  33.425  1.00  0.00    -0.237 OA
ATOM     76  O   UNL A   1      38.272  30.196  34.654  1.00  0.00    -0.237 OA
ATOM     77  O   UNL A   1      38.991  32.550  34.524  1.00  0.00    -0.744 OA
ENDBRANCH  73  74
ENDBRANCH  54  68
BRANCH  55  78
ATOM     78  C   UNL A   1      45.032  23.930  33.054  1.00  0.00    -0.014 A 
ATOM     79  C   UNL A   1      44.085  22.973  33.476  1.00  0.00     0.010 A 
ATOM     80  C   UNL A   1      46.270  23.949  33.726  1.00  0.00     0.010 A 
ATOM     81  C   UNL A   1      44.391  22.034  34.481  1.00  0.00     0.020 A 
ATOM     82  C   UNL A   1      46.580  23.023  34.732  1.00  0.00     0.020 A 
ATOM     83  C   UNL A   1      45.648  22.052  35.088  1.00  0.00     0.054 A 
BRANCH  83  84
ATOM     84  S   UNL A   1      46.110  20.731  36.253  1.00  0.00     0.124 S 
ATOM     85  O   UNL A   1      47.567  20.729  36.164  1.00  0.00    -0.237 OA
ATOM     86  O   UNL A   1      45.555  21.208  37.516  1.00  0.00    -0.237 OA
ATOM     87  O   UNL A   1      45.457  19.543  35.704  1.00  0.00    -0.744 OA
ENDBRANCH  83  84
ENDBRANCH  55  78
BRANCH  67  88
ATOM     88  C   UNL A   1      46.376  27.802  28.229  1.00  0.00    -0.014 A 
ATOM     89  C   UNL A   1      46.404  26.586  27.518  1.00  0.00     0.010 A 
ATOM     90  C   UNL A   1      47.436  28.708  28.050  1.00  0.00     0.010 A 
ATOM     91  C   UNL A   1      47.484  26.277  26.675  1.00  0.00     0.020 A 
ATOM     92  C   UNL A   1      48.502  28.416  27.201  1.00  0.00     0.020 A 
ATOM     93  C   UNL A   1      48.530  27.197  26.526  1.00  0.00     0.054 A 
BRANCH  93  94
ATOM     94  S   UNL A   1      49.921  26.810  25.427  1.00  0.00     0.124 S 
ATOM     95  O   UNL A   1      50.422  25.553  25.977  1.00  0.00    -0.237 OA
ATOM     96  O   UNL A   1      49.283  26.716  24.116  1.00  0.00    -0.237 OA
ATOM     97  O   UNL A   1      50.820  27.954  25.587  1.00  0.00    -0.744 OA
ENDBRANCH  93  94
ENDBRANCH  67  88
ENDBRANCH  41  42
ENDBRANCH  34  36
ENDBRANCH  33  34
ENDBRANCH  32  33
ENDBRANCH  31  32
ENDBRANCH  30  31
ENDBRANCH   1  30
TORSDOF 25
ENDMDL
MODEL 3
REMARK VINA RESULT:      -9.3      3.903      9.352
REMARK SMILES CC(C)(O)C#Cc1ccc(C(=O)N[C@@H](CCC(N)=O)C(=O)OCCOCCOC(=O)c2ccc(-c3c4nc(c(-c5ccc(S(=O)(=O)[O-])cc5)c5ccc([nH]5)c(-c5ccc(S(=O)(=O)[O-])cc5)c5nc(c(-c6ccc(S(=O)(=O)[O-])cc6)c6ccc3[nH]6)C=C5)C=C4)cc2)s1
REMARK SMILES IDX 24 1 23 2 22 3 20 4 21 5 14 6 13 7 11 8 12 9 10 11 7 12 8 13
REMARK SMILES IDX 91 14 9 15 6 16 5 17 2 18 1 19 3 20 4 21 15 23 16 24 17 25
REMARK SMILES IDX 18 26 19 27 25 30 26 31 27 32 28 33 29 34 30 35 31 36 32 37
REMARK SMILES IDX 90 38 33 39 89 40 34 41 35 42 36 43 83 44 37 45 88 46 82 47
REMARK SMILES IDX 84 48 38 49 87 50 81 51 80 52 39 54 69 55 50 56 68 57 51 58
REMARK SMILES IDX 54 59 67 60 85 61 52 62 53 63 66 65 86 66 55 67 40 68 41 69
REMARK SMILES IDX 49 70 42 71 48 72 43 73 44 74 45 75 46 76 47 77 70 78 71 79
REMARK SMILES IDX 79 80 72 81 78 82 73 83 74 84 75 85 76 86 77 87 56 88 57 89
REMARK SMILES IDX 65 90 58 91 64 92 59 93 60 94 61 95 62 96 63 97
REMARK H PARENT 13 10 4 22 18 28 18 29 84 53 54 64
REMARK Flexibility Score: inf
ROOT
ATOM      1  C   UNL A   1      36.427  22.962  23.902  1.00  0.00     0.202 C 
ENDROOT
BRANCH   1   2
ATOM      2  C   UNL A   1      35.220  23.408  23.078  1.00  0.00     0.261 C 
BRANCH   2   3
ATOM      3  O   UNL A   1      34.362  24.325  23.774  1.00  0.00    -0.462 OA
BRANCH   3   4
ATOM      4  C   UNL A   1      33.210  24.641  23.128  1.00  0.00     0.328 C 
ATOM      5  O   UNL A   1      33.088  24.720  21.907  1.00  0.00    -0.250 OA
BRANCH   4   6
ATOM      6  C   UNL A   1      32.067  25.032  24.078  1.00  0.00     0.193 C 
BRANCH   6   7
ATOM      7  N   UNL A   1      31.186  26.141  23.692  1.00  0.00    -0.338 N 
ATOM      8  C   UNL A   1      30.953  27.400  24.217  1.00  0.00     0.262 C 
ATOM      9  O   UNL A   1      30.004  28.003  23.707  1.00  0.00    -0.268 OA
ATOM     10  H   UNL A   1      30.646  25.948  22.892  1.00  0.00     0.164 HD
BRANCH   8  11
ATOM     11  C   UNL A   1      31.747  28.027  25.277  1.00  0.00     0.093 A 
ATOM     12  C   UNL A   1      33.270  29.439  26.647  1.00  0.00     0.078 A 
ATOM     13  C   UNL A   1      32.497  28.631  27.442  1.00  0.00     0.030 A 
ATOM     14  S   UNL A   1      32.892  29.252  25.009  1.00  0.00    -0.121 S 
ATOM     15  C   UNL A   1      31.617  27.815  26.648  1.00  0.00     0.027 A 
BRANCH  12  16
ATOM     16  C   UNL A   1      34.261  30.400  27.008  1.00  0.00    -0.053 C 
ATOM     17  C   UNL A   1      34.885  31.252  27.555  1.00  0.00    -0.063 C 
BRANCH  17  18
ATOM     18  C   UNL A   1      35.493  32.297  28.400  1.00  0.00     0.120 C 
ATOM     19  C   UNL A   1      36.808  31.793  29.001  1.00  0.00     0.056 C 
ATOM     20  C   UNL A   1      34.519  32.737  29.483  1.00  0.00     0.056 C 
BRANCH  18  21
ATOM     21  O   UNL A   1      35.784  33.421  27.571  1.00  0.00    -0.378 OA
ATOM     22  H   UNL A   1      36.719  33.400  27.315  1.00  0.00     0.212 HD
ENDBRANCH  18  21
ENDBRANCH  17  18
ENDBRANCH  12  16
ENDBRANCH   8  11
ENDBRANCH   6   7
BRANCH   6  23
ATOM     23  C   UNL A   1      31.285  23.775  24.495  1.00  0.00     0.047 C 
BRANCH  23  24
ATOM     24  C   UNL A   1      31.312  23.403  25.974  1.00  0.00     0.102 C 
BRANCH  24  25
ATOM     25  C   UNL A   1      32.586  22.742  26.436  1.00  0.00     0.217 C 
ATOM     26  N   UNL A   1      32.572  21.383  26.483  1.00  0.00    -0.370 N 
ATOM     27  O   UNL A   1      33.580  23.376  26.766  1.00  0.00    -0.275 OA
ATOM     28  H   UNL A   1      31.765  20.889  26.213  1.00  0.00     0.159 HD
ATOM     29  H   UNL A   1      33.370  20.892  26.788  1.00  0.00     0.159 HD
ENDBRANCH  24  25
ENDBRANCH  23  24
ENDBRANCH   6  23
ENDBRANCH   4   6
ENDBRANCH   3   4
ENDBRANCH   2   3
ENDBRANCH   1   2
BRANCH   1  30
ATOM     30  O   UNL A   1      36.407  21.665  24.491  1.00  0.00    -0.374 OA
BRANCH  30  31
ATOM     31  C   UNL A   1      37.619  20.932  24.641  1.00  0.00     0.202 C 
BRANCH  31  32
ATOM     32  C   UNL A   1      38.333  20.944  25.989  1.00  0.00     0.261 C 
BRANCH  32  33
ATOM     33  O   UNL A   1      39.338  21.941  26.085  1.00  0.00    -0.460 OA
BRANCH  33  34
ATOM     34  C   UNL A   1      40.569  21.428  26.311  1.00  0.00     0.338 C 
ATOM     35  O   UNL A   1      40.831  20.368  26.857  1.00  0.00    -0.246 OA
BRANCH  34  36
ATOM     36  C   UNL A   1      41.589  22.423  25.979  1.00  0.00     0.060 A 
ATOM     37  C   UNL A   1      42.901  21.942  25.956  1.00  0.00     0.016 A 
ATOM     38  C   UNL A   1      41.287  23.775  26.177  1.00  0.00     0.016 A 
ATOM     39  C   UNL A   1      43.893  22.763  26.431  1.00  0.00     0.010 A 
ATOM     40  C   UNL A   1      42.275  24.586  26.672  1.00  0.00     0.010 A 
ATOM     41  C   UNL A   1      43.538  24.037  26.888  1.00  0.00    -0.014 A 
BRANCH  41  42
ATOM     42  C   UNL A   1      44.574  24.868  27.454  1.00  0.00     0.031 A 
ATOM     43  C   UNL A   1      44.470  24.883  28.926  1.00  0.00     0.074 A 
ATOM     44  C   UNL A   1      45.553  25.429  26.718  1.00  0.00     0.049 A 
ATOM     45  N   UNL A   1      43.946  25.808  29.660  1.00  0.00    -0.248 NA
ATOM     46  C   UNL A   1      44.697  23.607  29.635  1.00  0.00     0.031 C 
ATOM     47  C   UNL A   1      45.852  25.230  25.298  1.00  0.00     0.029 A 
ATOM     48  N   UNL A   1      46.573  26.228  27.125  1.00  0.00    -0.354 N 
ATOM     49  C   UNL A   1      44.068  25.330  30.957  1.00  0.00     0.074 A 
ATOM     50  C   UNL A   1      44.217  23.903  30.843  1.00  0.00     0.031 C 
ATOM     51  C   UNL A   1      47.107  25.671  25.042  1.00  0.00     0.029 A 
ATOM     52  C   UNL A   1      47.646  26.291  26.241  1.00  0.00     0.049 A 
ATOM     53  H   UNL A   1      46.555  26.723  27.977  1.00  0.00     0.167 HD
ATOM     54  C   UNL A   1      44.469  26.159  31.959  1.00  0.00     0.031 A 
ATOM     55  C   UNL A   1      48.900  26.745  26.523  1.00  0.00     0.031 A 
ATOM     56  C   UNL A   1      44.331  27.545  31.582  1.00  0.00     0.049 A 
ATOM     57  C   UNL A   1      48.796  27.565  27.759  1.00  0.00     0.074 A 
ATOM     58  C   UNL A   1      43.292  28.340  31.137  1.00  0.00     0.029 A 
ATOM     59  N   UNL A   1      45.490  28.204  31.242  1.00  0.00    -0.354 N 
ATOM     60  N   UNL A   1      48.152  28.698  27.811  1.00  0.00    -0.248 NA
ATOM     61  C   UNL A   1      48.974  26.891  29.036  1.00  0.00     0.031 C 
ATOM     62  C   UNL A   1      43.876  29.210  30.171  1.00  0.00     0.029 A 
ATOM     63  C   UNL A   1      45.251  28.964  30.131  1.00  0.00     0.049 A 
ATOM     64  H   UNL A   1      46.348  28.138  31.719  1.00  0.00     0.167 HD
ATOM     65  C   UNL A   1      47.459  28.655  29.013  1.00  0.00     0.074 A 
ATOM     66  C   UNL A   1      48.074  27.559  29.765  1.00  0.00     0.031 C 
ATOM     67  C   UNL A   1      46.267  29.307  29.159  1.00  0.00     0.031 A 
BRANCH  54  68
ATOM     68  C   UNL A   1      45.461  25.720  33.019  1.00  0.00    -0.014 A 
ATOM     69  C   UNL A   1      46.822  25.652  32.668  1.00  0.00     0.010 A 
ATOM     70  C   UNL A   1      45.085  25.093  34.228  1.00  0.00     0.010 A 
ATOM     71  C   UNL A   1      47.732  24.917  33.437  1.00  0.00     0.020 A 
ATOM     72  C   UNL A   1      45.991  24.398  35.026  1.00  0.00     0.020 A 
ATOM     73  C   UNL A   1      47.304  24.285  34.605  1.00  0.00     0.054 A 
BRANCH  73  74
ATOM     74  S   UNL A   1      48.464  23.272  35.546  1.00  0.00     0.124 S 
ATOM     75  O   UNL A   1      47.808  21.970  35.524  1.00  0.00    -0.237 OA
ATOM     76  O   UNL A   1      49.683  23.385  34.749  1.00  0.00    -0.237 OA
ATOM     77  O   UNL A   1      48.514  23.931  36.849  1.00  0.00    -0.744 OA
ENDBRANCH  73  74
ENDBRANCH  54  68
BRANCH  55  78
ATOM     78  C   UNL A   1      50.207  26.225  26.027  1.00  0.00    -0.014 A 
ATOM     79  C   UNL A   1      50.764  26.683  24.814  1.00  0.00     0.010 A 
ATOM     80  C   UNL A   1      51.050  25.494  26.886  1.00  0.00     0.010 A 
ATOM     81  C   UNL A   1      52.124  26.475  24.509  1.00  0.00     0.020 A 
ATOM     82  C   UNL A   1      52.402  25.276  26.587  1.00  0.00     0.020 A 
ATOM     83  C   UNL A   1      52.941  25.789  25.410  1.00  0.00     0.054 A 
BRANCH  83  84
ATOM     84  S   UNL A   1      54.732  25.678  25.105  1.00  0.00     0.124 S 
ATOM     85  O   UNL A   1      54.868  26.313  23.798  1.00  0.00    -0.237 OA
ATOM     86  O   UNL A   1      55.297  26.420  26.229  1.00  0.00    -0.237 OA
ATOM     87  O   UNL A   1      54.996  24.239  25.124  1.00  0.00    -0.744 OA
ENDBRANCH  83  84
ENDBRANCH  55  78
BRANCH  67  88
ATOM     88  C   UNL A   1      45.882  30.343  28.129  1.00  0.00    -0.014 A 
ATOM     89  C   UNL A   1      44.936  30.140  27.104  1.00  0.00     0.010 A 
ATOM     90  C   UNL A   1      46.416  31.630  28.304  1.00  0.00     0.010 A 
ATOM     91  C   UNL A   1      44.563  31.199  26.259  1.00  0.00     0.020 A 
ATOM     92  C   UNL A   1      46.037  32.690  27.482  1.00  0.00     0.020 A 
ATOM     93  C   UNL A   1      45.121  32.469  26.454  1.00  0.00     0.054 A 
BRANCH  93  94
ATOM     94  S   UNL A   1      44.631  33.844  25.376  1.00  0.00     0.124 S 
ATOM     95  O   UNL A   1      43.644  34.549  26.188  1.00  0.00    -0.237 OA
ATOM     96  O   UNL A   1      45.891  34.551  25.158  1.00  0.00    -0.237 OA
ATOM     97  O   UNL A   1      44.092  33.180  24.188  1.00  0.00    -0.744 OA
ENDBRANCH  93  94
ENDBRANCH  67  88
ENDBRANCH  41  42
ENDBRANCH  34  36
ENDBRANCH  33  34
ENDBRANCH  32  33
ENDBRANCH  31  32
ENDBRANCH  30  31
ENDBRANCH   1  30
TORSDOF 25
ENDMDL
