MODEL 1
REMARK VINA RESULT:     -10.0      0.000      0.000
REMARK SMILES O=C(OCCOCCOC(=O)[C@H]1C[C@@H](O)CN1C(=O)C[C@@H]1CSCC[NH2+]1)c1ccc(-c2c3nc(c(-c4ccc(S(=O)(=O)[O-])cc4)c4ccc([nH]4)c(-c4ccc(S(=O)(=O)[O-])cc4)c4nc(c(-c5ccc(S(=O)(=O)[O-])cc5)c5ccc2[nH]5)C=C4)C=C3)cc1
REMARK SMILES IDX 6 1 5 2 4 3 3 4 2 5 1 6 27 7 28 8 86 9 29 10 85 11 30 12
REMARK SMILES IDX 31 13 32 14 79 15 33 16 84 17 78 18 80 19 34 20 83 21 77 22
REMARK SMILES IDX 76 23 35 25 65 26 46 27 64 28 47 29 50 30 63 31 81 32 48 33
REMARK SMILES IDX 49 34 62 36 82 37 51 38 36 39 37 40 45 41 38 42 44 43 39 44
REMARK SMILES IDX 40 45 41 46 42 47 43 48 66 49 67 50 75 51 68 52 74 53 69 54
REMARK SMILES IDX 70 55 71 56 72 57 73 58 52 59 53 60 61 61 54 62 60 63 55 64
REMARK SMILES IDX 56 65 57 66 58 67 59 68 7 69 8 70 9 71 10 72 11 73 12 74
REMARK SMILES IDX 13 75 17 76 14 77 16 78 18 79 19 80 20 81 21 82 22 83 26 84
REMARK SMILES IDX 23 85 25 86 24 89 15 90
REMARK H PARENT 80 24 50 35 26 87 26 88 15 91
REMARK Flexibility Score: inf
ROOT
ATOM      1  O   UNL A   1      36.505  21.367  24.598  1.00  0.00    -0.374 OA
ENDROOT
BRANCH   1   2
ATOM      2  C   UNL A   1      37.662  20.622  24.959  1.00  0.00     0.202 C 
BRANCH   2   3
ATOM      3  C   UNL A   1      38.717  21.335  25.821  1.00  0.00     0.261 C 
BRANCH   3   4
ATOM      4  O   UNL A   1      39.924  20.535  25.984  1.00  0.00    -0.460 OA
BRANCH   4   5
ATOM      5  C   UNL A   1      40.835  20.663  27.003  1.00  0.00     0.338 C 
ATOM      6  O   UNL A   1      40.834  19.920  27.962  1.00  0.00    -0.246 OA
BRANCH   5   7
ATOM      7  C   UNL A   1      41.826  21.756  26.884  1.00  0.00     0.060 A 
ATOM      8  C   UNL A   1      42.536  22.090  28.012  1.00  0.00     0.016 A 
ATOM      9  C   UNL A   1      41.995  22.522  25.738  1.00  0.00     0.016 A 
ATOM     10  C   UNL A   1      42.988  23.366  28.184  1.00  0.00     0.010 A 
ATOM     11  C   UNL A   1      42.768  23.694  25.820  1.00  0.00     0.010 A 
ATOM     12  C   UNL A   1      43.205  24.164  27.074  1.00  0.00    -0.014 A 
BRANCH  12  13
ATOM     13  C   UNL A   1      43.841  25.478  27.325  1.00  0.00     0.031 A 
ATOM     14  C   UNL A   1      43.065  26.537  28.048  1.00  0.00     0.074 A 
ATOM     15  C   UNL A   1      45.159  25.636  27.057  1.00  0.00     0.049 A 
ATOM     16  N   UNL A   1      43.379  27.787  28.244  1.00  0.00    -0.248 NA
ATOM     17  C   UNL A   1      41.758  26.153  28.612  1.00  0.00     0.031 C 
ATOM     18  C   UNL A   1      46.041  24.613  26.466  1.00  0.00     0.029 A 
ATOM     19  N   UNL A   1      46.016  26.673  27.311  1.00  0.00    -0.354 N 
ATOM     20  C   UNL A   1      42.283  28.355  28.881  1.00  0.00     0.074 A 
ATOM     21  C   UNL A   1      41.295  27.315  29.047  1.00  0.00     0.031 C 
ATOM     22  C   UNL A   1      47.313  25.020  26.534  1.00  0.00     0.029 A 
ATOM     23  C   UNL A   1      47.324  26.402  26.973  1.00  0.00     0.049 A 
ATOM     24  H   UNL A   1      45.726  27.530  27.698  1.00  0.00     0.167 HD
ATOM     25  C   UNL A   1      42.125  29.640  29.271  1.00  0.00     0.031 A 
ATOM     26  C   UNL A   1      48.405  27.203  26.939  1.00  0.00     0.031 A 
ATOM     27  C   UNL A   1      43.155  30.630  29.105  1.00  0.00     0.049 A 
ATOM     28  C   UNL A   1      48.181  28.640  27.302  1.00  0.00     0.074 A 
ATOM     29  C   UNL A   1      43.105  31.988  29.351  1.00  0.00     0.029 A 
ATOM     30  N   UNL A   1      44.444  30.345  28.668  1.00  0.00    -0.354 N 
ATOM     31  N   UNL A   1      47.084  29.211  27.745  1.00  0.00    -0.248 NA
ATOM     32  C   UNL A   1      49.315  29.550  27.124  1.00  0.00     0.031 C 
ATOM     33  C   UNL A   1      44.355  32.529  29.028  1.00  0.00     0.029 A 
ATOM     34  C   UNL A   1      45.200  31.500  28.636  1.00  0.00     0.049 A 
ATOM     35  H   UNL A   1      44.770  29.450  28.418  1.00  0.00     0.167 HD
ATOM     36  C   UNL A   1      47.391  30.553  27.893  1.00  0.00     0.074 A 
ATOM     37  C   UNL A   1      48.791  30.697  27.533  1.00  0.00     0.031 C 
ATOM     38  C   UNL A   1      46.592  31.581  28.270  1.00  0.00     0.031 A 
BRANCH  25  39
ATOM     39  C   UNL A   1      40.782  30.035  29.820  1.00  0.00    -0.014 A 
ATOM     40  C   UNL A   1      40.547  30.134  31.203  1.00  0.00     0.010 A 
ATOM     41  C   UNL A   1      39.720  30.279  28.929  1.00  0.00     0.010 A 
ATOM     42  C   UNL A   1      39.267  30.431  31.684  1.00  0.00     0.020 A 
ATOM     43  C   UNL A   1      38.445  30.602  29.404  1.00  0.00     0.020 A 
ATOM     44  C   UNL A   1      38.223  30.658  30.781  1.00  0.00     0.054 A 
BRANCH  44  45
ATOM     45  S   UNL A   1      36.573  31.044  31.432  1.00  0.00     0.124 S 
ATOM     46  O   UNL A   1      35.865  31.467  30.226  1.00  0.00    -0.237 OA
ATOM     47  O   UNL A   1      36.145  29.766  31.996  1.00  0.00    -0.237 OA
ATOM     48  O   UNL A   1      36.825  32.101  32.409  1.00  0.00    -0.744 OA
ENDBRANCH  44  45
ENDBRANCH  25  39
BRANCH  26  49
ATOM     49  C   UNL A   1      49.710  26.705  26.413  1.00  0.00    -0.014 A 
ATOM     50  C   UNL A   1      50.558  25.900  27.192  1.00  0.00     0.010 A 
ATOM     51  C   UNL A   1      50.117  27.042  25.105  1.00  0.00     0.010 A 
ATOM     52  C   UNL A   1      51.791  25.466  26.685  1.00  0.00     0.020 A 
ATOM     53  C   UNL A   1      51.324  26.577  24.579  1.00  0.00     0.020 A 
ATOM     54  C   UNL A   1      52.166  25.811  25.382  1.00  0.00     0.054 A 
BRANCH  54  55
ATOM     55  S   UNL A   1      53.761  25.232  24.735  1.00  0.00     0.124 S 
ATOM     56  O   UNL A   1      53.624  23.783  24.850  1.00  0.00    -0.237 OA
ATOM     57  O   UNL A   1      53.764  25.762  23.373  1.00  0.00    -0.237 OA
ATOM     58  O   UNL A   1      54.736  25.843  25.635  1.00  0.00    -0.744 OA
ENDBRANCH  54  55
ENDBRANCH  26  49
BRANCH  38  59
ATOM     59  C   UNL A   1      47.244  32.929  28.343  1.00  0.00    -0.014 A 
ATOM     60  C   UNL A   1      47.868  33.369  29.522  1.00  0.00     0.010 A 
ATOM     61  C   UNL A   1      47.249  33.749  27.201  1.00  0.00     0.010 A 
ATOM     62  C   UNL A   1      48.455  34.632  29.570  1.00  0.00     0.020 A 
ATOM     63  C   UNL A   1      47.861  34.999  27.238  1.00  0.00     0.020 A 
ATOM     64  C   UNL A   1      48.445  35.440  28.427  1.00  0.00     0.054 A 
BRANCH  64  65
ATOM     65  S   UNL A   1      49.241  37.064  28.503  1.00  0.00     0.124 S 
ATOM     66  O   UNL A   1      48.187  37.891  29.085  1.00  0.00    -0.237 OA
ATOM     67  O   UNL A   1      50.396  36.816  29.363  1.00  0.00    -0.237 OA
ATOM     68  O   UNL A   1      49.564  37.356  27.108  1.00  0.00    -0.744 OA
ENDBRANCH  64  65
ENDBRANCH  38  59
ENDBRANCH  12  13
ENDBRANCH   5   7
ENDBRANCH   4   5
ENDBRANCH   3   4
ENDBRANCH   2   3
ENDBRANCH   1   2
BRANCH   1  69
ATOM     69  C   UNL A   1      36.754  22.599  23.906  1.00  0.00     0.202 C 
BRANCH  69  70
ATOM     70  C   UNL A   1      36.174  23.750  24.713  1.00  0.00     0.261 C 
BRANCH  70  71
ATOM     71  O   UNL A   1      35.369  23.187  25.752  1.00  0.00    -0.462 OA
BRANCH  71  72
ATOM     72  C   UNL A   1      34.092  23.649  25.891  1.00  0.00     0.329 C 
ATOM     73  O   UNL A   1      33.726  24.799  25.694  1.00  0.00    -0.250 OA
BRANCH  72  74
ATOM     74  C   UNL A   1      33.141  22.494  26.261  1.00  0.00     0.197 C 
ATOM     75  C   UNL A   1      32.168  22.861  27.390  1.00  0.00     0.070 C 
ATOM     76  N   UNL A   1      32.272  22.156  25.140  1.00  0.00    -0.326 N 
ATOM     77  C   UNL A   1      30.782  23.033  26.736  1.00  0.00     0.136 C 
ATOM     78  C   UNL A   1      31.016  22.876  25.237  1.00  0.00     0.152 C 
BRANCH  76  79
ATOM     79  C   UNL A   1      32.751  21.380  24.112  1.00  0.00     0.229 C 
ATOM     80  O   UNL A   1      33.428  21.855  23.200  1.00  0.00    -0.275 OA
BRANCH  79  81
ATOM     81  C   UNL A   1      32.496  19.900  24.178  1.00  0.00     0.166 C 
BRANCH  81  82
ATOM     82  C   UNL A   1      33.458  19.180  25.151  1.00  0.00     0.201 C 
ATOM     83  C   UNL A   1      34.588  18.470  24.386  1.00  0.00     0.135 C 
ATOM     84  N   UNL A   1      32.894  18.296  26.192  1.00  0.00    -0.342 N 
ATOM     85  S   UNL A   1      33.992  17.036  23.432  1.00  0.00    -0.150 SA
ATOM     86  C   UNL A   1      32.295  17.052  25.713  1.00  0.00     0.271 C 
ATOM     87  H   UNL A   1      32.175  18.819  26.691  1.00  0.00     0.346 HD
ATOM     88  H   UNL A   1      33.684  18.017  26.774  1.00  0.00     0.346 HD
ATOM     89  C   UNL A   1      33.135  16.168  24.784  1.00  0.00     0.131 C 
ENDBRANCH  81  82
ENDBRANCH  79  81
ENDBRANCH  76  79
BRANCH  77  90
ATOM     90  O   UNL A   1      30.186  24.269  27.096  1.00  0.00    -0.391 OA
ATOM     91  H   UNL A   1      29.221  24.167  27.124  1.00  0.00     0.211 HD
ENDBRANCH  77  90
ENDBRANCH  72  74
ENDBRANCH  71  72
ENDBRANCH  70  71
ENDBRANCH  69  70
ENDBRANCH   1  69
TORSDOF 21
ENDMDL
MODEL 2
REMARK VINA RESULT:      -9.9      3.273      8.795
REMARK SMILES O=C(OCCOCCOC(=O)[C@H]1C[C@@H](O)CN1C(=O)C[C@@H]1CSCC[NH2+]1)c1ccc(-c2c3nc(c(-c4ccc(S(=O)(=O)[O-])cc4)c4ccc([nH]4)c(-c4ccc(S(=O)(=O)[O-])cc4)c4nc(c(-c5ccc(S(=O)(=O)[O-])cc5)c5ccc2[nH]5)C=C4)C=C3)cc1
REMARK SMILES IDX 6 1 5 2 4 3 3 4 2 5 1 6 27 7 28 8 86 9 29 10 85 11 30 12
REMARK SMILES IDX 31 13 32 14 79 15 33 16 84 17 78 18 80 19 34 20 83 21 77 22
REMARK SMILES IDX 76 23 35 25 65 26 46 27 64 28 47 29 50 30 63 31 81 32 48 33
REMARK SMILES IDX 49 34 62 36 82 37 51 38 36 39 37 40 45 41 38 42 44 43 39 44
REMARK SMILES IDX 40 45 41 46 42 47 43 48 66 49 67 50 75 51 68 52 74 53 69 54
REMARK SMILES IDX 70 55 71 56 72 57 73 58 52 59 53 60 61 61 54 62 60 63 55 64
REMARK SMILES IDX 56 65 57 66 58 67 59 68 7 69 8 70 9 71 10 72 11 73 12 74
REMARK SMILES IDX 13 75 17 76 14 77 16 78 18 79 19 80 20 81 21 82 22 83 26 84
REMARK SMILES IDX 23 85 25 86 24 89 15 90
REMARK H PARENT 80 24 50 35 26 87 26 88 15 91
REMARK Flexibility Score: inf
ROOT
ATOM      1  O   UNL A   1      34.405  30.516  27.177  1.00  0.00    -0.374 OA
ENDROOT
BRANCH   1   2
ATOM      2  C   UNL A   1      34.974  31.552  27.968  1.00  0.00     0.202 C 
BRANCH   2   3
ATOM      3  C   UNL A   1      35.779  31.129  29.208  1.00  0.00     0.261 C 
BRANCH   3   4
ATOM      4  O   UNL A   1      36.204  29.737  29.137  1.00  0.00    -0.460 OA
BRANCH   4   5
ATOM      5  C   UNL A   1      37.208  29.170  29.883  1.00  0.00     0.338 C 
ATOM      6  O   UNL A   1      37.090  28.971  31.073  1.00  0.00    -0.246 OA
BRANCH   5   7
ATOM      7  C   UNL A   1      38.453  28.811  29.167  1.00  0.00     0.060 A 
ATOM      8  C   UNL A   1      39.401  28.103  29.867  1.00  0.00     0.016 A 
ATOM      9  C   UNL A   1      38.755  29.239  27.881  1.00  0.00     0.016 A 
ATOM     10  C   UNL A   1      40.723  28.234  29.554  1.00  0.00     0.010 A 
ATOM     11  C   UNL A   1      40.066  29.062  27.403  1.00  0.00     0.010 A 
ATOM     12  C   UNL A   1      41.081  28.627  28.276  1.00  0.00    -0.014 A 
BRANCH  12  13
ATOM     13  C   UNL A   1      42.529  28.597  27.963  1.00  0.00     0.031 A 
ATOM     14  C   UNL A   1      43.104  27.391  27.284  1.00  0.00     0.074 A 
ATOM     15  C   UNL A   1      43.265  29.721  28.133  1.00  0.00     0.049 A 
ATOM     16  N   UNL A   1      44.354  27.105  27.050  1.00  0.00    -0.248 NA
ATOM     17  C   UNL A   1      42.158  26.359  26.820  1.00  0.00     0.031 C 
ATOM     18  C   UNL A   1      42.764  30.999  28.673  1.00  0.00     0.029 A 
ATOM     19  N   UNL A   1      44.562  30.012  27.805  1.00  0.00    -0.354 N 
ATOM     20  C   UNL A   1      44.350  25.835  26.486  1.00  0.00     0.074 A 
ATOM     21  C   UNL A   1      42.975  25.404  26.405  1.00  0.00     0.031 C 
ATOM     22  C   UNL A   1      43.688  31.952  28.508  1.00  0.00     0.029 A 
ATOM     23  C   UNL A   1      44.912  31.322  28.051  1.00  0.00     0.049 A 
ATOM     24  H   UNL A   1      45.184  29.350  27.428  1.00  0.00     0.167 HD
ATOM     25  C   UNL A   1      45.415  25.101  26.092  1.00  0.00     0.031 A 
ATOM     26  C   UNL A   1      46.108  31.935  27.997  1.00  0.00     0.031 A 
ATOM     27  C   UNL A   1      46.764  25.592  26.171  1.00  0.00     0.049 A 
ATOM     28  C   UNL A   1      47.281  31.075  27.633  1.00  0.00     0.074 A 
ATOM     29  C   UNL A   1      47.948  24.930  25.912  1.00  0.00     0.029 A 
ATOM     30  N   UNL A   1      47.098  26.897  26.517  1.00  0.00    -0.354 N 
ATOM     31  N   UNL A   1      47.289  29.815  27.263  1.00  0.00    -0.248 NA
ATOM     32  C   UNL A   1      48.606  31.696  27.718  1.00  0.00     0.031 C 
ATOM     33  C   UNL A   1      49.000  25.826  26.137  1.00  0.00     0.029 A 
ATOM     34  C   UNL A   1      48.469  27.062  26.480  1.00  0.00     0.049 A 
ATOM     35  H   UNL A   1      46.451  27.601  26.755  1.00  0.00     0.167 HD
ATOM     36  C   UNL A   1      48.621  29.485  27.076  1.00  0.00     0.074 A 
ATOM     37  C   UNL A   1      49.384  30.694  27.332  1.00  0.00     0.031 C 
ATOM     38  C   UNL A   1      49.173  28.292  26.744  1.00  0.00     0.031 A 
BRANCH  25  39
ATOM     39  C   UNL A   1      45.151  23.692  25.636  1.00  0.00    -0.014 A 
ATOM     40  C   UNL A   1      44.925  22.648  26.550  1.00  0.00     0.010 A 
ATOM     41  C   UNL A   1      45.164  23.402  24.258  1.00  0.00     0.010 A 
ATOM     42  C   UNL A   1      44.756  21.335  26.097  1.00  0.00     0.020 A 
ATOM     43  C   UNL A   1      44.971  22.096  23.800  1.00  0.00     0.020 A 
ATOM     44  C   UNL A   1      44.786  21.067  24.724  1.00  0.00     0.054 A 
BRANCH  44  45
ATOM     45  S   UNL A   1      44.561  19.355  24.164  1.00  0.00     0.124 S 
ATOM     46  O   UNL A   1      43.262  19.017  24.741  1.00  0.00    -0.237 OA
ATOM     47  O   UNL A   1      44.586  19.489  22.710  1.00  0.00    -0.237 OA
ATOM     48  O   UNL A   1      45.701  18.649  24.742  1.00  0.00    -0.744 OA
ENDBRANCH  44  45
ENDBRANCH  25  39
BRANCH  26  49
ATOM     49  C   UNL A   1      46.263  33.354  28.434  1.00  0.00    -0.014 A 
ATOM     50  C   UNL A   1      46.467  33.690  29.782  1.00  0.00     0.010 A 
ATOM     51  C   UNL A   1      46.204  34.395  27.484  1.00  0.00     0.010 A 
ATOM     52  C   UNL A   1      46.583  35.032  30.172  1.00  0.00     0.020 A 
ATOM     53  C   UNL A   1      46.362  35.730  27.859  1.00  0.00     0.020 A 
ATOM     54  C   UNL A   1      46.527  36.043  29.207  1.00  0.00     0.054 A 
BRANCH  54  55
ATOM     55  S   UNL A   1      46.691  37.775  29.725  1.00  0.00     0.124 S 
ATOM     56  O   UNL A   1      48.062  38.080  29.326  1.00  0.00    -0.237 OA
ATOM     57  O   UNL A   1      45.645  38.439  28.952  1.00  0.00    -0.237 OA
ATOM     58  O   UNL A   1      46.454  37.724  31.165  1.00  0.00    -0.744 OA
ENDBRANCH  54  55
ENDBRANCH  26  49
BRANCH  38  59
ATOM     59  C   UNL A   1      50.665  28.273  26.607  1.00  0.00    -0.014 A 
ATOM     60  C   UNL A   1      51.489  27.983  27.707  1.00  0.00     0.010 A 
ATOM     61  C   UNL A   1      51.240  28.525  25.350  1.00  0.00     0.010 A 
ATOM     62  C   UNL A   1      52.875  27.985  27.559  1.00  0.00     0.020 A 
ATOM     63  C   UNL A   1      52.624  28.498  25.193  1.00  0.00     0.020 A 
ATOM     64  C   UNL A   1      53.433  28.245  26.302  1.00  0.00     0.054 A 
BRANCH  64  65
ATOM     65  S   UNL A   1      55.234  28.211  26.126  1.00  0.00     0.124 S 
ATOM     66  O   UNL A   1      55.653  29.215  27.102  1.00  0.00    -0.237 OA
ATOM     67  O   UNL A   1      55.564  26.829  26.463  1.00  0.00    -0.237 OA
ATOM     68  O   UNL A   1      55.451  28.574  24.727  1.00  0.00    -0.744 OA
ENDBRANCH  64  65
ENDBRANCH  38  59
ENDBRANCH  12  13
ENDBRANCH   5   7
ENDBRANCH   4   5
ENDBRANCH   3   4
ENDBRANCH   2   3
ENDBRANCH   1   2
BRANCH   1  69
ATOM     69  C   UNL A   1      32.983  30.586  26.995  1.00  0.00     0.202 C 
BRANCH  69  70
ATOM     70  C   UNL A   1      32.415  29.176  26.957  1.00  0.00     0.261 C 
BRANCH  70  71
ATOM     71  O   UNL A   1      33.048  28.484  25.877  1.00  0.00    -0.462 OA
BRANCH  71  72
ATOM     72  C   UNL A   1      32.627  28.763  24.608  1.00  0.00     0.329 C 
ATOM     73  O   UNL A   1      33.344  29.109  23.681  1.00  0.00    -0.250 OA
BRANCH  72  74
ATOM     74  C   UNL A   1      31.113  28.505  24.477  1.00  0.00     0.197 C 
ATOM     75  C   UNL A   1      30.368  29.658  23.792  1.00  0.00     0.070 C 
ATOM     76  N   UNL A   1      30.854  27.354  23.619  1.00  0.00    -0.326 N 
ATOM     77  C   UNL A   1      29.995  29.162  22.380  1.00  0.00     0.136 C 
ATOM     78  C   UNL A   1      30.636  27.783  22.249  1.00  0.00     0.152 C 
BRANCH  76  79
ATOM     79  C   UNL A   1      30.988  26.082  24.119  1.00  0.00     0.229 C 
ATOM     80  O   UNL A   1      30.296  25.674  25.051  1.00  0.00    -0.275 OA
BRANCH  79  81
ATOM     81  C   UNL A   1      31.958  25.162  23.432  1.00  0.00     0.166 C 
BRANCH  81  82
ATOM     82  C   UNL A   1      33.381  25.255  24.030  1.00  0.00     0.201 C 
ATOM     83  C   UNL A   1      34.290  24.149  23.468  1.00  0.00     0.135 C 
ATOM     84  N   UNL A   1      33.537  25.367  25.496  1.00  0.00    -0.342 N 
ATOM     85  S   UNL A   1      33.820  22.490  24.061  1.00  0.00    -0.150 SA
ATOM     86  C   UNL A   1      33.189  24.174  26.264  1.00  0.00     0.271 C 
ATOM     87  H   UNL A   1      32.942  26.131  25.816  1.00  0.00     0.346 HD
ATOM     88  H   UNL A   1      34.532  25.520  25.657  1.00  0.00     0.346 HD
ATOM     89  C   UNL A   1      33.832  22.845  25.848  1.00  0.00     0.131 C 
ENDBRANCH  81  82
ENDBRANCH  79  81
ENDBRANCH  76  79
BRANCH  77  90
ATOM     90  O   UNL A   1      30.406  30.080  21.379  1.00  0.00    -0.391 OA
ATOM     91  H   UNL A   1      29.747  30.099  20.667  1.00  0.00     0.211 HD
ENDBRANCH  77  90
ENDBRANCH  72  74
ENDBRANCH  71  72
ENDBRANCH  70  71
ENDBRANCH  69  70
ENDBRANCH   1  69
TORSDOF 21
ENDMDL
MODEL 3
REMARK VINA RESULT:      -9.8      6.256     10.689
REMARK SMILES O=C(OCCOCCOC(=O)[C@H]1C[C@@H](O)CN1C(=O)C[C@@H]1CSCC[NH2+]1)c1ccc(-c2c3nc(c(-c4ccc(S(=O)(=O)[O-])cc4)c4ccc([nH]4)c(-c4ccc(S(=O)(=O)[O-])cc4)c4nc(c(-c5ccc(S(=O)(=O)[O-])cc5)c5ccc2[nH]5)C=C4)C=C3)cc1
REMARK SMILES IDX 6 1 5 2 4 3 3 4 2 5 1 6 27 7 28 8 86 9 29 10 85 11 30 12
REMARK SMILES IDX 31 13 32 14 79 15 33 16 84 17 78 18 80 19 34 20 83 21 77 22
REMARK SMILES IDX 76 23 35 25 65 26 46 27 64 28 47 29 50 30 63 31 81 32 48 33
REMARK SMILES IDX 49 34 62 36 82 37 51 38 36 39 37 40 45 41 38 42 44 43 39 44
REMARK SMILES IDX 40 45 41 46 42 47 43 48 66 49 67 50 75 51 68 52 74 53 69 54
REMARK SMILES IDX 70 55 71 56 72 57 73 58 52 59 53 60 61 61 54 62 60 63 55 64
REMARK SMILES IDX 56 65 57 66 58 67 59 68 7 69 8 70 9 71 10 72 11 73 12 74
REMARK SMILES IDX 13 75 17 76 14 77 16 78 18 79 19 80 20 81 21 82 22 83 26 84
REMARK SMILES IDX 23 85 25 86 24 89 15 90
REMARK H PARENT 80 24 50 35 26 87 26 88 15 91
REMARK Flexibility Score: inf
ROOT
ATOM      1  O   UNL A   1      38.622  21.825  25.378  1.00  0.00    -0.374 OA
ENDROOT
BRANCH   1   2
ATOM      2  C   UNL A   1      39.620  21.333  26.265  1.00  0.00     0.202 C 
BRANCH   2   3
ATOM      3  C   UNL A   1      40.637  22.348  26.812  1.00  0.00     0.261 C 
BRANCH   3   4
ATOM      4  O   UNL A   1      40.349  23.706  26.369  1.00  0.00    -0.460 OA
BRANCH   4   5
ATOM      5  C   UNL A   1      41.133  24.808  26.610  1.00  0.00     0.338 C 
ATOM      6  O   UNL A   1      42.227  24.941  26.103  1.00  0.00    -0.246 OA
BRANCH   5   7
ATOM      7  C   UNL A   1      40.584  25.833  27.525  1.00  0.00     0.060 A 
ATOM      8  C   UNL A   1      41.137  27.090  27.468  1.00  0.00     0.016 A 
ATOM      9  C   UNL A   1      39.630  25.568  28.499  1.00  0.00     0.016 A 
ATOM     10  C   UNL A   1      41.150  27.884  28.579  1.00  0.00     0.010 A 
ATOM     11  C   UNL A   1      39.377  26.546  29.477  1.00  0.00     0.010 A 
ATOM     12  C   UNL A   1      40.201  27.684  29.566  1.00  0.00    -0.014 A 
BRANCH  12  13
ATOM     13  C   UNL A   1      40.178  28.677  30.664  1.00  0.00     0.031 A 
ATOM     14  C   UNL A   1      41.259  28.642  31.702  1.00  0.00     0.074 A 
ATOM     15  C   UNL A   1      39.292  29.699  30.612  1.00  0.00     0.049 A 
ATOM     16  N   UNL A   1      41.349  29.322  32.810  1.00  0.00    -0.248 NA
ATOM     17  C   UNL A   1      42.382  27.712  31.479  1.00  0.00     0.031 C 
ATOM     18  C   UNL A   1      38.272  29.897  29.565  1.00  0.00     0.029 A 
ATOM     19  N   UNL A   1      39.142  30.809  31.401  1.00  0.00    -0.354 N 
ATOM     20  C   UNL A   1      42.487  28.850  33.451  1.00  0.00     0.074 A 
ATOM     21  C   UNL A   1      43.064  27.829  32.608  1.00  0.00     0.031 C 
ATOM     22  C   UNL A   1      37.713  31.104  29.701  1.00  0.00     0.029 A 
ATOM     23  C   UNL A   1      38.173  31.679  30.950  1.00  0.00     0.049 A 
ATOM     24  H   UNL A   1      39.677  30.970  32.211  1.00  0.00     0.167 HD
ATOM     25  C   UNL A   1      42.983  29.234  34.649  1.00  0.00     0.031 A 
ATOM     26  C   UNL A   1      37.648  32.779  31.520  1.00  0.00     0.031 A 
ATOM     27  C   UNL A   1      42.382  30.277  35.436  1.00  0.00     0.049 A 
ATOM     28  C   UNL A   1      38.164  33.134  32.882  1.00  0.00     0.074 A 
ATOM     29  C   UNL A   1      42.705  30.703  36.709  1.00  0.00     0.029 A 
ATOM     30  N   UNL A   1      41.336  31.081  34.994  1.00  0.00    -0.354 N 
ATOM     31  N   UNL A   1      39.136  32.569  33.562  1.00  0.00    -0.248 NA
ATOM     32  C   UNL A   1      37.495  34.238  33.574  1.00  0.00     0.031 C 
ATOM     33  C   UNL A   1      41.829  31.740  37.050  1.00  0.00     0.029 A 
ATOM     34  C   UNL A   1      41.000  31.999  35.968  1.00  0.00     0.049 A 
ATOM     35  H   UNL A   1      40.900  31.005  34.114  1.00  0.00     0.167 HD
ATOM     36  C   UNL A   1      39.193  33.245  34.770  1.00  0.00     0.074 A 
ATOM     37  C   UNL A   1      38.184  34.288  34.705  1.00  0.00     0.031 C 
ATOM     38  C   UNL A   1      39.986  33.018  35.846  1.00  0.00     0.031 A 
BRANCH  25  39
ATOM     39  C   UNL A   1      44.160  28.467  35.187  1.00  0.00    -0.014 A 
ATOM     40  C   UNL A   1      43.995  27.295  35.945  1.00  0.00     0.010 A 
ATOM     41  C   UNL A   1      45.460  28.953  34.955  1.00  0.00     0.010 A 
ATOM     42  C   UNL A   1      45.106  26.645  36.495  1.00  0.00     0.020 A 
ATOM     43  C   UNL A   1      46.575  28.293  35.480  1.00  0.00     0.020 A 
ATOM     44  C   UNL A   1      46.389  27.152  36.263  1.00  0.00     0.054 A 
BRANCH  44  45
ATOM     45  S   UNL A   1      47.813  26.288  36.984  1.00  0.00     0.124 S 
ATOM     46  O   UNL A   1      47.687  24.957  36.396  1.00  0.00    -0.237 OA
ATOM     47  O   UNL A   1      48.944  27.081  36.506  1.00  0.00    -0.237 OA
ATOM     48  O   UNL A   1      47.569  26.358  38.422  1.00  0.00    -0.744 OA
ENDBRANCH  44  45
ENDBRANCH  25  39
BRANCH  26  49
ATOM     49  C   UNL A   1      36.504  33.498  30.886  1.00  0.00    -0.014 A 
ATOM     50  C   UNL A   1      36.548  33.912  29.545  1.00  0.00     0.010 A 
ATOM     51  C   UNL A   1      35.343  33.777  31.638  1.00  0.00     0.010 A 
ATOM     52  C   UNL A   1      35.472  34.610  28.979  1.00  0.00     0.020 A 
ATOM     53  C   UNL A   1      34.251  34.433  31.068  1.00  0.00     0.020 A 
ATOM     54  C   UNL A   1      34.331  34.867  29.747  1.00  0.00     0.054 A 
BRANCH  54  55
ATOM     55  S   UNL A   1      32.939  35.760  28.997  1.00  0.00     0.124 S 
ATOM     56  O   UNL A   1      32.138  36.106  30.168  1.00  0.00    -0.237 OA
ATOM     57  O   UNL A   1      33.601  36.878  28.329  1.00  0.00    -0.237 OA
ATOM     58  O   UNL A   1      32.344  34.772  28.100  1.00  0.00    -0.744 OA
ENDBRANCH  54  55
ENDBRANCH  26  49
BRANCH  38  59
ATOM     59  C   UNL A   1      39.804  33.948  37.006  1.00  0.00    -0.014 A 
ATOM     60  C   UNL A   1      39.015  33.584  38.110  1.00  0.00     0.010 A 
ATOM     61  C   UNL A   1      40.456  35.194  36.993  1.00  0.00     0.010 A 
ATOM     62  C   UNL A   1      38.849  34.473  39.170  1.00  0.00     0.020 A 
ATOM     63  C   UNL A   1      40.316  36.071  38.065  1.00  0.00     0.020 A 
ATOM     64  C   UNL A   1      39.499  35.712  39.139  1.00  0.00     0.054 A 
BRANCH  64  65
ATOM     65  S   UNL A   1      39.294  36.837  40.543  1.00  0.00     0.124 S 
ATOM     66  O   UNL A   1      40.651  36.904  41.077  1.00  0.00    -0.237 OA
ATOM     67  O   UNL A   1      38.806  38.059  39.907  1.00  0.00    -0.237 OA
ATOM     68  O   UNL A   1      38.321  36.155  41.393  1.00  0.00    -0.744 OA
ENDBRANCH  64  65
ENDBRANCH  38  59
ENDBRANCH  12  13
ENDBRANCH   5   7
ENDBRANCH   4   5
ENDBRANCH   3   4
ENDBRANCH   2   3
ENDBRANCH   1   2
BRANCH   1  69
ATOM     69  C   UNL A   1      37.698  22.765  25.946  1.00  0.00     0.202 C 
BRANCH  69  70
ATOM     70  C   UNL A   1      36.466  22.851  25.059  1.00  0.00     0.261 C 
BRANCH  70  71
ATOM     71  O   UNL A   1      35.371  22.285  25.783  1.00  0.00    -0.462 OA
BRANCH  71  72
ATOM     72  C   UNL A   1      34.239  23.035  25.915  1.00  0.00     0.329 C 
ATOM     73  O   UNL A   1      34.115  24.204  25.578  1.00  0.00    -0.250 OA
BRANCH  72  74
ATOM     74  C   UNL A   1      33.092  22.177  26.486  1.00  0.00     0.197 C 
ATOM     75  C   UNL A   1      32.201  22.949  27.469  1.00  0.00     0.070 C 
ATOM     76  N   UNL A   1      32.177  21.762  25.429  1.00  0.00    -0.326 N 
ATOM     77  C   UNL A   1      30.871  23.219  26.738  1.00  0.00     0.136 C 
ATOM     78  C   UNL A   1      31.073  22.698  25.317  1.00  0.00     0.152 C 
BRANCH  76  79
ATOM     79  C   UNL A   1      32.507  20.708  24.612  1.00  0.00     0.229 C 
ATOM     80  O   UNL A   1      32.406  20.778  23.387  1.00  0.00    -0.275 OA
BRANCH  79  81
ATOM     81  C   UNL A   1      33.083  19.479  25.259  1.00  0.00     0.166 C 
BRANCH  81  82
ATOM     82  C   UNL A   1      32.295  18.200  24.894  1.00  0.00     0.201 C 
ATOM     83  C   UNL A   1      32.816  16.987  25.685  1.00  0.00     0.135 C 
ATOM     84  N   UNL A   1      32.107  17.854  23.469  1.00  0.00    -0.342 N 
ATOM     85  S   UNL A   1      34.485  16.475  25.160  1.00  0.00    -0.150 SA
ATOM     86  C   UNL A   1      33.310  17.433  22.754  1.00  0.00     0.271 C 
ATOM     87  H   UNL A   1      31.732  18.676  22.996  1.00  0.00     0.346 HD
ATOM     88  H   UNL A   1      31.483  17.049  23.460  1.00  0.00     0.346 HD
ATOM     89  C   UNL A   1      34.153  16.314  23.376  1.00  0.00     0.131 C 
ENDBRANCH  81  82
ENDBRANCH  79  81
ENDBRANCH  76  79
BRANCH  77  90
ATOM     90  O   UNL A   1      30.510  24.590  26.798  1.00  0.00    -0.391 OA
ATOM     91  H   UNL A   1      29.938  24.807  26.046  1.00  0.00     0.211 HD
ENDBRANCH  77  90
ENDBRANCH  72  74
ENDBRANCH  71  72
ENDBRANCH  70  71
ENDBRANCH  69  70
ENDBRANCH   1  69
TORSDOF 21
ENDMDL
