MODEL 1
REMARK VINA RESULT:     -11.0      0.000      0.000
REMARK SMILES Cc1cc(N2N=C(C(=O)OCCOCCOC(=O)c3ccc(-c4c5nc(c(-c6ccc(S(=O)(=O)[O-])cc6)c6ccc([nH]6)c(-c6ccc(S(=O)(=O)[O-])cc6)c6nc(c(-c7ccc(S(=O)(=O)[O-])cc7)c7ccc4[nH]7)C=C6)C=C5)cc3)C[C@H]2c2ccccc2)c([N+](=O)[O-])cc1C
REMARK SMILES IDX 14 1 13 2 12 3 11 4 10 5 8 6 9 7 7 8 5 9 6 10 80 11 79 12
REMARK SMILES IDX 4 13 1 14 2 15 3 16 92 17 91 18 93 19 87 20 88 21 89 22
REMARK SMILES IDX 90 23 81 24 82 25 86 26 83 27 85 28 84 29 15 30 16 31 17 32
REMARK SMILES IDX 18 33 19 34 20 35 78 36 21 37 77 38 22 39 23 40 24 41 71 42
REMARK SMILES IDX 25 43 76 44 70 45 72 46 26 47 75 48 69 49 68 50 27 52 57 53
REMARK SMILES IDX 38 54 56 55 39 56 42 57 55 58 73 59 40 60 41 61 54 63 74 64
REMARK SMILES IDX 43 65 28 66 29 67 37 68 30 69 36 70 31 71 32 72 33 73 34 74
REMARK SMILES IDX 35 75 58 76 59 77 67 78 60 79 66 80 61 81 62 82 63 83 64 84
REMARK SMILES IDX 65 85 44 86 45 87 53 88 46 89 52 90 47 91 48 92 49 93 50 94
REMARK SMILES IDX 51 95
REMARK H PARENT 72 51 42 62
REMARK Flexibility Score: inf
ROOT
ATOM      1  C   UNL A   1      31.723  30.774  25.989  1.00  0.00     0.202 C 
ENDROOT
BRANCH   1   2
ATOM      2  O   UNL A   1      31.200  29.884  24.997  1.00  0.00    -0.374 OA
BRANCH   2   3
ATOM      3  C   UNL A   1      31.476  28.492  25.175  1.00  0.00     0.202 C 
BRANCH   3   4
ATOM      4  C   UNL A   1      32.230  27.854  24.007  1.00  0.00     0.261 C 
BRANCH   4   5
ATOM      5  O   UNL A   1      32.489  26.477  24.316  1.00  0.00    -0.459 OA
BRANCH   5   6
ATOM      6  C   UNL A   1      31.705  25.591  23.677  1.00  0.00     0.354 C 
ATOM      7  O   UNL A   1      30.595  25.768  23.213  1.00  0.00    -0.245 OA
BRANCH   6   8
ATOM      8  C   UNL A   1      32.461  24.297  23.504  1.00  0.00     0.148 C 
ATOM      9  N   UNL A   1      33.069  22.298  23.775  1.00  0.00    -0.250 N 
ATOM     10  N   UNL A   1      32.127  23.209  24.129  1.00  0.00    -0.169 NA
ATOM     11  C   UNL A   1      34.226  22.890  23.084  1.00  0.00     0.144 C 
ATOM     12  C   UNL A   1      33.590  24.170  22.524  1.00  0.00     0.098 C 
BRANCH   9  13
ATOM     13  C   UNL A   1      32.929  20.983  24.170  1.00  0.00     0.138 A 
ATOM     14  C   UNL A   1      32.162  17.686  22.405  1.00  0.00     0.045 C 
ATOM     15  C   UNL A   1      32.494  18.641  23.518  1.00  0.00    -0.046 A 
ATOM     16  C   UNL A   1      32.654  20.004  23.202  1.00  0.00     0.039 A 
ATOM     17  C   UNL A   1      32.659  18.220  24.849  1.00  0.00    -0.041 A 
ATOM     18  C   UNL A   1      32.976  19.178  25.826  1.00  0.00     0.091 A 
ATOM     19  C   UNL A   1      32.562  16.780  25.272  1.00  0.00     0.045 C 
ATOM     20  C   UNL A   1      33.102  20.536  25.483  1.00  0.00     0.294 A 
BRANCH  20  21
ATOM     21  N   UNL A   1      33.446  21.472  26.549  1.00  0.00     0.065 N 
ATOM     22  O   UNL A   1      34.609  21.435  26.981  1.00  0.00    -0.258 OA
ATOM     23  O   UNL A   1      32.548  22.191  27.013  1.00  0.00    -0.258 OA
ENDBRANCH  20  21
ENDBRANCH   9  13
BRANCH  11  24
ATOM     24  C   UNL A   1      35.395  23.109  24.044  1.00  0.00    -0.023 A 
ATOM     25  C   UNL A   1      35.432  24.141  24.997  1.00  0.00     0.006 A 
ATOM     26  C   UNL A   1      36.482  22.216  24.007  1.00  0.00     0.006 A 
ATOM     27  C   UNL A   1      36.506  24.271  25.879  1.00  0.00     0.000 A 
ATOM     28  C   UNL A   1      37.542  22.328  24.910  1.00  0.00     0.000 A 
ATOM     29  C   UNL A   1      37.554  23.358  25.845  1.00  0.00     0.000 A 
ENDBRANCH  11  24
ENDBRANCH   6   8
ENDBRANCH   5   6
ENDBRANCH   4   5
ENDBRANCH   3   4
ENDBRANCH   2   3
ENDBRANCH   1   2
BRANCH   1  30
ATOM     30  C   UNL A   1      32.399  30.089  27.183  1.00  0.00     0.261 C 
BRANCH  30  31
ATOM     31  O   UNL A   1      33.825  29.993  26.995  1.00  0.00    -0.460 OA
BRANCH  31  32
ATOM     32  C   UNL A   1      34.565  30.825  27.770  1.00  0.00     0.338 C 
ATOM     33  O   UNL A   1      34.195  31.860  28.299  1.00  0.00    -0.246 OA
BRANCH  32  34
ATOM     34  C   UNL A   1      35.877  30.209  28.057  1.00  0.00     0.060 A 
ATOM     35  C   UNL A   1      36.086  29.708  29.348  1.00  0.00     0.016 A 
ATOM     36  C   UNL A   1      36.899  30.155  27.105  1.00  0.00     0.016 A 
ATOM     37  C   UNL A   1      37.327  29.179  29.702  1.00  0.00     0.010 A 
ATOM     38  C   UNL A   1      38.148  29.634  27.465  1.00  0.00     0.010 A 
ATOM     39  C   UNL A   1      38.375  29.164  28.772  1.00  0.00    -0.014 A 
BRANCH  39  40
ATOM     40  C   UNL A   1      39.732  28.744  29.198  1.00  0.00     0.031 A 
ATOM     41  C   UNL A   1      40.600  29.707  29.960  1.00  0.00     0.074 A 
ATOM     42  C   UNL A   1      40.184  27.508  28.919  1.00  0.00     0.049 A 
ATOM     43  N   UNL A   1      41.818  29.543  30.409  1.00  0.00    -0.248 NA
ATOM     44  C   UNL A   1      40.020  31.028  30.255  1.00  0.00     0.031 C 
ATOM     45  C   UNL A   1      39.431  26.472  28.212  1.00  0.00     0.029 A 
ATOM     46  N   UNL A   1      41.393  26.918  29.192  1.00  0.00    -0.354 N 
ATOM     47  C   UNL A   1      42.155  30.738  31.035  1.00  0.00     0.074 A 
ATOM     48  C   UNL A   1      41.020  31.624  30.890  1.00  0.00     0.031 C 
ATOM     49  C   UNL A   1      40.204  25.378  28.092  1.00  0.00     0.029 A 
ATOM     50  C   UNL A   1      41.510  25.644  28.690  1.00  0.00     0.049 A 
ATOM     51  H   UNL A   1      42.109  27.366  29.699  1.00  0.00     0.167 HD
ATOM     52  C   UNL A   1      43.302  31.065  31.675  1.00  0.00     0.031 A 
ATOM     53  C   UNL A   1      42.559  24.797  28.691  1.00  0.00     0.031 A 
ATOM     54  C   UNL A   1      44.435  30.191  31.810  1.00  0.00     0.049 A 
ATOM     55  C   UNL A   1      43.847  25.209  29.349  1.00  0.00     0.074 A 
ATOM     56  C   UNL A   1      45.627  30.424  32.476  1.00  0.00     0.029 A 
ATOM     57  N   UNL A   1      44.527  28.923  31.259  1.00  0.00    -0.354 N 
ATOM     58  N   UNL A   1      44.130  26.324  29.978  1.00  0.00    -0.248 NA
ATOM     59  C   UNL A   1      44.958  24.246  29.300  1.00  0.00     0.031 C 
ATOM     60  C   UNL A   1      46.460  29.316  32.281  1.00  0.00     0.029 A 
ATOM     61  C   UNL A   1      45.768  28.375  31.536  1.00  0.00     0.049 A 
ATOM     62  H   UNL A   1      43.815  28.477  30.745  1.00  0.00     0.167 HD
ATOM     63  C   UNL A   1      45.446  26.192  30.410  1.00  0.00     0.074 A 
ATOM     64  C   UNL A   1      45.898  24.883  29.986  1.00  0.00     0.031 C 
ATOM     65  C   UNL A   1      46.211  27.076  31.097  1.00  0.00     0.031 A 
BRANCH  52  66
ATOM     66  C   UNL A   1      43.401  32.450  32.255  1.00  0.00    -0.014 A 
ATOM     67  C   UNL A   1      43.700  33.558  31.441  1.00  0.00     0.010 A 
ATOM     68  C   UNL A   1      43.149  32.651  33.624  1.00  0.00     0.010 A 
ATOM     69  C   UNL A   1      43.777  34.839  31.995  1.00  0.00     0.020 A 
ATOM     70  C   UNL A   1      43.205  33.932  34.177  1.00  0.00     0.020 A 
ATOM     71  C   UNL A   1      43.534  35.017  33.361  1.00  0.00     0.054 A 
BRANCH  71  72
ATOM     72  S   UNL A   1      43.619  36.693  34.052  1.00  0.00     0.124 S 
ATOM     73  O   UNL A   1      43.967  37.484  32.874  1.00  0.00    -0.237 OA
ATOM     74  O   UNL A   1      42.268  36.897  34.568  1.00  0.00    -0.237 OA
ATOM     75  O   UNL A   1      44.663  36.595  35.068  1.00  0.00    -0.744 OA
ENDBRANCH  71  72
ENDBRANCH  52  66
BRANCH  53  76
ATOM     76  C   UNL A   1      42.443  23.480  28.010  1.00  0.00    -0.014 A 
ATOM     77  C   UNL A   1      43.030  23.264  26.752  1.00  0.00     0.010 A 
ATOM     78  C   UNL A   1      41.740  22.429  28.629  1.00  0.00     0.010 A 
ATOM     79  C   UNL A   1      42.908  22.023  26.120  1.00  0.00     0.020 A 
ATOM     80  C   UNL A   1      41.636  21.181  28.010  1.00  0.00     0.020 A 
ATOM     81  C   UNL A   1      42.212  20.989  26.753  1.00  0.00     0.054 A 
BRANCH  81  82
ATOM     82  S   UNL A   1      42.119  19.366  25.948  1.00  0.00     0.124 S 
ATOM     83  O   UNL A   1      42.680  18.488  26.970  1.00  0.00    -0.237 OA
ATOM     84  O   UNL A   1      40.687  19.216  25.698  1.00  0.00    -0.237 OA
ATOM     85  O   UNL A   1      42.936  19.537  24.748  1.00  0.00    -0.744 OA
ENDBRANCH  81  82
ENDBRANCH  53  76
BRANCH  65  86
ATOM     86  C   UNL A   1      47.615  26.658  31.440  1.00  0.00    -0.014 A 
ATOM     87  C   UNL A   1      47.908  26.066  32.681  1.00  0.00     0.010 A 
ATOM     88  C   UNL A   1      48.641  26.807  30.489  1.00  0.00     0.010 A 
ATOM     89  C   UNL A   1      49.211  25.651  32.975  1.00  0.00     0.020 A 
ATOM     90  C   UNL A   1      49.939  26.372  30.772  1.00  0.00     0.020 A 
ATOM     91  C   UNL A   1      50.219  25.809  32.018  1.00  0.00     0.054 A 
BRANCH  91  92
ATOM     92  S   UNL A   1      51.891  25.220  32.403  1.00  0.00     0.124 S 
ATOM     93  O   UNL A   1      52.026  25.588  33.810  1.00  0.00    -0.237 OA
ATOM     94  O   UNL A   1      51.799  23.787  32.135  1.00  0.00    -0.237 OA
ATOM     95  O   UNL A   1      52.741  25.966  31.478  1.00  0.00    -0.744 OA
ENDBRANCH  91  92
ENDBRANCH  65  86
ENDBRANCH  39  40
ENDBRANCH  32  34
ENDBRANCH  31  32
ENDBRANCH  30  31
ENDBRANCH   1  30
TORSDOF 20
ENDMDL
MODEL 2
REMARK VINA RESULT:     -10.9      2.699      9.578
REMARK SMILES Cc1cc(N2N=C(C(=O)OCCOCCOC(=O)c3ccc(-c4c5nc(c(-c6ccc(S(=O)(=O)[O-])cc6)c6ccc([nH]6)c(-c6ccc(S(=O)(=O)[O-])cc6)c6nc(c(-c7ccc(S(=O)(=O)[O-])cc7)c7ccc4[nH]7)C=C6)C=C5)cc3)C[C@H]2c2ccccc2)c([N+](=O)[O-])cc1C
REMARK SMILES IDX 14 1 13 2 12 3 11 4 10 5 8 6 9 7 7 8 5 9 6 10 80 11 79 12
REMARK SMILES IDX 4 13 1 14 2 15 3 16 92 17 91 18 93 19 87 20 88 21 89 22
REMARK SMILES IDX 90 23 81 24 82 25 86 26 83 27 85 28 84 29 15 30 16 31 17 32
REMARK SMILES IDX 18 33 19 34 20 35 78 36 21 37 77 38 22 39 23 40 24 41 71 42
REMARK SMILES IDX 25 43 76 44 70 45 72 46 26 47 75 48 69 49 68 50 27 52 57 53
REMARK SMILES IDX 38 54 56 55 39 56 42 57 55 58 73 59 40 60 41 61 54 63 74 64
REMARK SMILES IDX 43 65 28 66 29 67 37 68 30 69 36 70 31 71 32 72 33 73 34 74
REMARK SMILES IDX 35 75 58 76 59 77 67 78 60 79 66 80 61 81 62 82 63 83 64 84
REMARK SMILES IDX 65 85 44 86 45 87 53 88 46 89 52 90 47 91 48 92 49 93 50 94
REMARK SMILES IDX 51 95
REMARK H PARENT 72 51 42 62
REMARK Flexibility Score: inf
ROOT
ATOM      1  C   UNL A   1      36.305  21.212  24.863  1.00  0.00     0.202 C 
ENDROOT
BRANCH   1   2
ATOM      2  O   UNL A   1      35.171  20.447  25.284  1.00  0.00    -0.374 OA
BRANCH   2   3
ATOM      3  C   UNL A   1      33.892  20.890  24.821  1.00  0.00     0.202 C 
BRANCH   3   4
ATOM      4  C   UNL A   1      33.214  21.905  25.743  1.00  0.00     0.261 C 
BRANCH   4   5
ATOM      5  O   UNL A   1      32.701  22.985  24.951  1.00  0.00    -0.459 OA
BRANCH   5   6
ATOM      6  C   UNL A   1      33.417  24.122  25.002  1.00  0.00     0.354 C 
ATOM      7  O   UNL A   1      34.620  24.257  24.881  1.00  0.00    -0.245 OA
BRANCH   6   8
ATOM      8  C   UNL A   1      32.476  25.293  25.131  1.00  0.00     0.148 C 
ATOM      9  N   UNL A   1      31.318  26.978  24.624  1.00  0.00    -0.250 N 
ATOM     10  N   UNL A   1      32.085  25.987  24.105  1.00  0.00    -0.169 NA
ATOM     11  C   UNL A   1      31.418  27.093  26.088  1.00  0.00     0.144 C 
ATOM     12  C   UNL A   1      31.860  25.667  26.448  1.00  0.00     0.098 C 
BRANCH   9  13
ATOM     13  C   UNL A   1      30.633  27.826  23.776  1.00  0.00     0.138 A 
ATOM     14  C   UNL A   1      26.957  28.634  23.133  1.00  0.00     0.045 C 
ATOM     15  C   UNL A   1      28.455  28.700  23.008  1.00  0.00    -0.046 A 
ATOM     16  C   UNL A   1      29.231  27.867  23.838  1.00  0.00     0.039 A 
ATOM     17  C   UNL A   1      29.098  29.566  22.107  1.00  0.00    -0.041 A 
ATOM     18  C   UNL A   1      30.503  29.570  22.060  1.00  0.00     0.091 A 
ATOM     19  C   UNL A   1      28.356  30.529  21.222  1.00  0.00     0.045 C 
ATOM     20  C   UNL A   1      31.249  28.706  22.882  1.00  0.00     0.294 A 
BRANCH  20  21
ATOM     21  N   UNL A   1      32.703  28.775  22.788  1.00  0.00     0.065 N 
ATOM     22  O   UNL A   1      33.280  29.593  23.522  1.00  0.00    -0.258 OA
ATOM     23  O   UNL A   1      33.272  28.077  21.934  1.00  0.00    -0.258 OA
ENDBRANCH  20  21
ENDBRANCH   9  13
BRANCH  11  24
ATOM     24  C   UNL A   1      32.390  28.200  26.495  1.00  0.00    -0.023 A 
ATOM     25  C   UNL A   1      31.979  29.495  26.856  1.00  0.00     0.006 A 
ATOM     26  C   UNL A   1      33.766  27.912  26.548  1.00  0.00     0.006 A 
ATOM     27  C   UNL A   1      32.906  30.458  27.261  1.00  0.00     0.000 A 
ATOM     28  C   UNL A   1      34.688  28.866  26.983  1.00  0.00     0.000 A 
ATOM     29  C   UNL A   1      34.258  30.141  27.337  1.00  0.00     0.000 A 
ENDBRANCH  11  24
ENDBRANCH   6   8
ENDBRANCH   5   6
ENDBRANCH   4   5
ENDBRANCH   3   4
ENDBRANCH   2   3
ENDBRANCH   1   2
BRANCH   1  30
ATOM     30  C   UNL A   1      36.800  22.250  25.875  1.00  0.00     0.261 C 
BRANCH  30  31
ATOM     31  O   UNL A   1      38.046  22.841  25.456  1.00  0.00    -0.460 OA
BRANCH  31  32
ATOM     32  C   UNL A   1      39.060  22.744  26.352  1.00  0.00     0.338 C 
ATOM     33  O   UNL A   1      39.767  21.772  26.559  1.00  0.00    -0.246 OA
BRANCH  32  34
ATOM     34  C   UNL A   1      39.336  24.070  26.943  1.00  0.00     0.060 A 
ATOM     35  C   UNL A   1      40.046  24.990  26.163  1.00  0.00     0.016 A 
ATOM     36  C   UNL A   1      38.948  24.400  28.245  1.00  0.00     0.016 A 
ATOM     37  C   UNL A   1      40.399  26.233  26.690  1.00  0.00     0.010 A 
ATOM     38  C   UNL A   1      39.313  25.643  28.777  1.00  0.00     0.010 A 
ATOM     39  C   UNL A   1      40.060  26.556  28.010  1.00  0.00    -0.014 A 
BRANCH  39  40
ATOM     40  C   UNL A   1      40.568  27.811  28.615  1.00  0.00     0.031 A 
ATOM     41  C   UNL A   1      41.997  27.883  29.081  1.00  0.00     0.074 A 
ATOM     42  C   UNL A   1      39.767  28.885  28.736  1.00  0.00     0.049 A 
ATOM     43  N   UNL A   1      42.632  28.876  29.648  1.00  0.00    -0.248 NA
ATOM     44  C   UNL A   1      42.818  26.677  28.881  1.00  0.00     0.031 C 
ATOM     45  C   UNL A   1      38.373  28.954  28.300  1.00  0.00     0.029 A 
ATOM     46  N   UNL A   1      40.013  30.124  29.275  1.00  0.00    -0.354 N 
ATOM     47  C   UNL A   1      43.923  28.417  29.879  1.00  0.00     0.074 A 
ATOM     48  C   UNL A   1      43.976  27.050  29.408  1.00  0.00     0.031 C 
ATOM     49  C   UNL A   1      37.881  30.168  28.603  1.00  0.00     0.029 A 
ATOM     50  C   UNL A   1      38.916  30.951  29.276  1.00  0.00     0.049 A 
ATOM     51  H   UNL A   1      40.892  30.394  29.627  1.00  0.00     0.167 HD
ATOM     52  C   UNL A   1      44.971  29.076  30.428  1.00  0.00     0.031 A 
ATOM     53  C   UNL A   1      38.755  32.190  29.783  1.00  0.00     0.031 A 
ATOM     54  C   UNL A   1      44.919  30.431  30.907  1.00  0.00     0.049 A 
ATOM     55  C   UNL A   1      39.916  32.876  30.451  1.00  0.00     0.074 A 
ATOM     56  C   UNL A   1      45.942  31.194  31.445  1.00  0.00     0.029 A 
ATOM     57  N   UNL A   1      43.781  31.222  30.922  1.00  0.00    -0.354 N 
ATOM     58  N   UNL A   1      41.143  32.445  30.616  1.00  0.00    -0.248 NA
ATOM     59  C   UNL A   1      39.669  34.219  30.998  1.00  0.00     0.031 C 
ATOM     60  C   UNL A   1      45.409  32.428  31.834  1.00  0.00     0.029 A 
ATOM     61  C   UNL A   1      44.066  32.450  31.493  1.00  0.00     0.049 A 
ATOM     62  H   UNL A   1      42.899  30.950  30.578  1.00  0.00     0.167 HD
ATOM     63  C   UNL A   1      41.818  33.467  31.275  1.00  0.00     0.074 A 
ATOM     64  C   UNL A   1      40.868  34.544  31.463  1.00  0.00     0.031 C 
ATOM     65  C   UNL A   1      43.109  33.510  31.687  1.00  0.00     0.031 A 
BRANCH  52  66
ATOM     66  C   UNL A   1      46.265  28.322  30.571  1.00  0.00    -0.014 A 
ATOM     67  C   UNL A   1      47.189  28.258  29.512  1.00  0.00     0.010 A 
ATOM     68  C   UNL A   1      46.580  27.707  31.796  1.00  0.00     0.010 A 
ATOM     69  C   UNL A   1      48.391  27.563  29.666  1.00  0.00     0.020 A 
ATOM     70  C   UNL A   1      47.790  27.028  31.961  1.00  0.00     0.020 A 
ATOM     71  C   UNL A   1      48.682  26.948  30.889  1.00  0.00     0.054 A 
BRANCH  71  72
ATOM     72  S   UNL A   1      50.259  26.069  31.071  1.00  0.00     0.124 S 
ATOM     73  O   UNL A   1      50.937  26.877  32.081  1.00  0.00    -0.237 OA
ATOM     74  O   UNL A   1      49.838  24.740  31.508  1.00  0.00    -0.237 OA
ATOM     75  O   UNL A   1      50.843  26.126  29.733  1.00  0.00    -0.744 OA
ENDBRANCH  71  72
ENDBRANCH  52  66
BRANCH  53  76
ATOM     76  C   UNL A   1      37.424  32.850  29.710  1.00  0.00    -0.014 A 
ATOM     77  C   UNL A   1      36.912  33.307  28.484  1.00  0.00     0.010 A 
ATOM     78  C   UNL A   1      36.660  33.019  30.879  1.00  0.00     0.010 A 
ATOM     79  C   UNL A   1      35.662  33.930  28.430  1.00  0.00     0.020 A 
ATOM     80  C   UNL A   1      35.401  33.622  30.825  1.00  0.00     0.020 A 
ATOM     81  C   UNL A   1      34.913  34.083  29.601  1.00  0.00     0.054 A 
BRANCH  81  82
ATOM     82  S   UNL A   1      33.266  34.837  29.502  1.00  0.00     0.124 S 
ATOM     83  O   UNL A   1      32.831  34.796  30.894  1.00  0.00    -0.237 OA
ATOM     84  O   UNL A   1      33.556  36.166  28.966  1.00  0.00    -0.237 OA
ATOM     85  O   UNL A   1      32.544  33.952  28.590  1.00  0.00    -0.744 OA
ENDBRANCH  81  82
ENDBRANCH  53  76
BRANCH  65  86
ATOM     86  C   UNL A   1      43.576  34.762  32.377  1.00  0.00    -0.014 A 
ATOM     87  C   UNL A   1      44.079  35.848  31.639  1.00  0.00     0.010 A 
ATOM     88  C   UNL A   1      43.458  34.877  33.774  1.00  0.00     0.010 A 
ATOM     89  C   UNL A   1      44.478  37.020  32.289  1.00  0.00     0.020 A 
ATOM     90  C   UNL A   1      43.835  36.055  34.424  1.00  0.00     0.020 A 
ATOM     91  C   UNL A   1      44.355  37.114  33.679  1.00  0.00     0.054 A 
BRANCH  91  92
ATOM     92  S   UNL A   1      44.835  38.662  34.496  1.00  0.00     0.124 S 
ATOM     93  O   UNL A   1      45.339  38.182  35.781  1.00  0.00    -0.237 OA
ATOM     94  O   UNL A   1      45.843  39.207  33.590  1.00  0.00    -0.237 OA
ATOM     95  O   UNL A   1      43.587  39.420  34.559  1.00  0.00    -0.744 OA
ENDBRANCH  91  92
ENDBRANCH  65  86
ENDBRANCH  39  40
ENDBRANCH  32  34
ENDBRANCH  31  32
ENDBRANCH  30  31
ENDBRANCH   1  30
TORSDOF 20
ENDMDL
MODEL 3
REMARK VINA RESULT:     -10.7      0.991      7.953
REMARK SMILES Cc1cc(N2N=C(C(=O)OCCOCCOC(=O)c3ccc(-c4c5nc(c(-c6ccc(S(=O)(=O)[O-])cc6)c6ccc([nH]6)c(-c6ccc(S(=O)(=O)[O-])cc6)c6nc(c(-c7ccc(S(=O)(=O)[O-])cc7)c7ccc4[nH]7)C=C6)C=C5)cc3)C[C@H]2c2ccccc2)c([N+](=O)[O-])cc1C
REMARK SMILES IDX 14 1 13 2 12 3 11 4 10 5 8 6 9 7 7 8 5 9 6 10 80 11 79 12
REMARK SMILES IDX 4 13 1 14 2 15 3 16 92 17 91 18 93 19 87 20 88 21 89 22
REMARK SMILES IDX 90 23 81 24 82 25 86 26 83 27 85 28 84 29 15 30 16 31 17 32
REMARK SMILES IDX 18 33 19 34 20 35 78 36 21 37 77 38 22 39 23 40 24 41 71 42
REMARK SMILES IDX 25 43 76 44 70 45 72 46 26 47 75 48 69 49 68 50 27 52 57 53
REMARK SMILES IDX 38 54 56 55 39 56 42 57 55 58 73 59 40 60 41 61 54 63 74 64
REMARK SMILES IDX 43 65 28 66 29 67 37 68 30 69 36 70 31 71 32 72 33 73 34 74
REMARK SMILES IDX 35 75 58 76 59 77 67 78 60 79 66 80 61 81 62 82 63 83 64 84
REMARK SMILES IDX 65 85 44 86 45 87 53 88 46 89 52 90 47 91 48 92 49 93 50 94
REMARK SMILES IDX 51 95
REMARK H PARENT 72 51 42 62
REMARK Flexibility Score: inf
ROOT
ATOM      1  C   UNL A   1      31.489  30.479  25.732  1.00  0.00     0.202 C 
ENDROOT
BRANCH   1   2
ATOM      2  O   UNL A   1      32.061  29.597  24.760  1.00  0.00    -0.374 OA
BRANCH   2   3
ATOM      3  C   UNL A   1      31.194  28.599  24.213  1.00  0.00     0.202 C 
BRANCH   3   4
ATOM      4  C   UNL A   1      31.102  27.326  25.056  1.00  0.00     0.261 C 
BRANCH   4   5
ATOM      5  O   UNL A   1      31.794  26.267  24.379  1.00  0.00    -0.459 OA
BRANCH   5   6
ATOM      6  C   UNL A   1      33.089  26.127  24.712  1.00  0.00     0.354 C 
ATOM      7  O   UNL A   1      33.804  26.919  25.295  1.00  0.00    -0.245 OA
BRANCH   6   8
ATOM      8  C   UNL A   1      33.547  24.739  24.341  1.00  0.00     0.148 C 
ATOM      9  N   UNL A   1      33.755  22.642  24.362  1.00  0.00    -0.250 N 
ATOM     10  N   UNL A   1      33.054  23.673  24.897  1.00  0.00    -0.169 NA
ATOM     11  C   UNL A   1      34.943  23.070  23.606  1.00  0.00     0.144 C 
ATOM     12  C   UNL A   1      34.535  24.503  23.236  1.00  0.00     0.098 C 
BRANCH   9  13
ATOM     13  C   UNL A   1      33.385  21.344  24.649  1.00  0.00     0.138 A 
ATOM     14  C   UNL A   1      32.302  18.312  22.596  1.00  0.00     0.045 C 
ATOM     15  C   UNL A   1      32.668  19.139  23.798  1.00  0.00    -0.046 A 
ATOM     16  C   UNL A   1      33.058  20.477  23.594  1.00  0.00     0.039 A 
ATOM     17  C   UNL A   1      32.644  18.621  25.104  1.00  0.00    -0.041 A 
ATOM     18  C   UNL A   1      33.008  19.460  26.171  1.00  0.00     0.091 A 
ATOM     19  C   UNL A   1      32.295  17.191  25.414  1.00  0.00     0.045 C 
ATOM     20  C   UNL A   1      33.367  20.800  25.937  1.00  0.00     0.294 A 
BRANCH  20  21
ATOM     21  N   UNL A   1      33.745  21.608  27.092  1.00  0.00     0.065 N 
ATOM     22  O   UNL A   1      34.949  21.638  27.391  1.00  0.00    -0.258 OA
ATOM     23  O   UNL A   1      32.845  22.152  27.750  1.00  0.00    -0.258 OA
ENDBRANCH  20  21
ENDBRANCH   9  13
BRANCH  11  24
ATOM     24  C   UNL A   1      36.213  22.950  24.449  1.00  0.00    -0.023 A 
ATOM     25  C   UNL A   1      36.659  23.957  25.323  1.00  0.00     0.006 A 
ATOM     26  C   UNL A   1      36.963  21.762  24.383  1.00  0.00     0.006 A 
ATOM     27  C   UNL A   1      37.804  23.779  26.103  1.00  0.00     0.000 A 
ATOM     28  C   UNL A   1      38.090  21.573  25.187  1.00  0.00     0.000 A 
ATOM     29  C   UNL A   1      38.511  22.583  26.045  1.00  0.00     0.000 A 
ENDBRANCH  11  24
ENDBRANCH   6   8
ENDBRANCH   5   6
ENDBRANCH   4   5
ENDBRANCH   3   4
ENDBRANCH   2   3
ENDBRANCH   1   2
BRANCH   1  30
ATOM     30  C   UNL A   1      32.488  31.088  26.723  1.00  0.00     0.261 C 
BRANCH  30  31
ATOM     31  O   UNL A   1      33.769  30.433  26.648  1.00  0.00    -0.460 OA
BRANCH  31  32
ATOM     32  C   UNL A   1      33.985  29.481  27.590  1.00  0.00     0.338 C 
ATOM     33  O   UNL A   1      33.213  28.604  27.940  1.00  0.00    -0.246 OA
BRANCH  32  34
ATOM     34  C   UNL A   1      35.395  29.525  28.033  1.00  0.00     0.060 A 
ATOM     35  C   UNL A   1      36.376  29.677  27.046  1.00  0.00     0.016 A 
ATOM     36  C   UNL A   1      35.759  29.379  29.374  1.00  0.00     0.016 A 
ATOM     37  C   UNL A   1      37.727  29.654  27.391  1.00  0.00     0.010 A 
ATOM     38  C   UNL A   1      37.116  29.345  29.718  1.00  0.00     0.010 A 
ATOM     39  C   UNL A   1      38.107  29.459  28.726  1.00  0.00    -0.014 A 
BRANCH  39  40
ATOM     40  C   UNL A   1      39.540  29.282  29.066  1.00  0.00     0.031 A 
ATOM     41  C   UNL A   1      40.215  27.971  28.769  1.00  0.00     0.074 A 
ATOM     42  C   UNL A   1      40.239  30.287  29.623  1.00  0.00     0.049 A 
ATOM     43  N   UNL A   1      41.450  27.607  29.000  1.00  0.00    -0.248 NA
ATOM     44  C   UNL A   1      39.389  26.934  28.127  1.00  0.00     0.031 C 
ATOM     45  C   UNL A   1      39.710  31.614  29.936  1.00  0.00     0.029 A 
ATOM     46  N   UNL A   1      41.548  30.341  30.034  1.00  0.00    -0.354 N 
ATOM     47  C   UNL A   1      41.552  26.300  28.539  1.00  0.00     0.074 A 
ATOM     48  C   UNL A   1      40.248  25.928  28.032  1.00  0.00     0.031 C 
ATOM     49  C   UNL A   1      40.683  32.348  30.506  1.00  0.00     0.029 A 
ATOM     50  C   UNL A   1      41.892  31.535  30.621  1.00  0.00     0.049 A 
ATOM     51  H   UNL A   1      42.181  29.594  29.921  1.00  0.00     0.167 HD
ATOM     52  C   UNL A   1      42.633  25.485  28.533  1.00  0.00     0.031 A 
ATOM     53  C   UNL A   1      43.043  31.922  31.205  1.00  0.00     0.031 A 
ATOM     54  C   UNL A   1      43.927  25.848  29.046  1.00  0.00     0.049 A 
ATOM     55  C   UNL A   1      44.211  30.975  31.248  1.00  0.00     0.074 A 
ATOM     56  C   UNL A   1      45.092  25.100  29.048  1.00  0.00     0.029 A 
ATOM     57  N   UNL A   1      44.225  27.053  29.662  1.00  0.00    -0.354 N 
ATOM     58  N   UNL A   1      44.304  29.760  30.763  1.00  0.00    -0.248 NA
ATOM     59  C   UNL A   1      45.432  31.453  31.916  1.00  0.00     0.031 C 
ATOM     60  C   UNL A   1      46.081  25.833  29.714  1.00  0.00     0.029 A 
ATOM     61  C   UNL A   1      45.544  27.056  30.082  1.00  0.00     0.049 A 
ATOM     62  H   UNL A   1      43.591  27.796  29.784  1.00  0.00     0.167 HD
ATOM     63  C   UNL A   1      45.595  29.333  31.056  1.00  0.00     0.074 A 
ATOM     64  C   UNL A   1      46.252  30.424  31.745  1.00  0.00     0.031 C 
ATOM     65  C   UNL A   1      46.183  28.143  30.779  1.00  0.00     0.031 A 
BRANCH  52  66
ATOM     66  C   UNL A   1      42.453  24.099  27.979  1.00  0.00    -0.014 A 
ATOM     67  C   UNL A   1      42.757  23.808  26.636  1.00  0.00     0.010 A 
ATOM     68  C   UNL A   1      42.015  23.063  28.824  1.00  0.00     0.010 A 
ATOM     69  C   UNL A   1      42.594  22.511  26.141  1.00  0.00     0.020 A 
ATOM     70  C   UNL A   1      41.870  21.761  28.338  1.00  0.00     0.020 A 
ATOM     71  C   UNL A   1      42.147  21.497  26.995  1.00  0.00     0.054 A 
BRANCH  71  72
ATOM     72  S   UNL A   1      41.964  19.817  26.333  1.00  0.00     0.124 S 
ATOM     73  O   UNL A   1      40.519  19.729  26.135  1.00  0.00    -0.237 OA
ATOM     74  O   UNL A   1      42.764  19.863  25.112  1.00  0.00    -0.237 OA
ATOM     75  O   UNL A   1      42.500  18.968  27.394  1.00  0.00    -0.744 OA
ENDBRANCH  71  72
ENDBRANCH  52  66
BRANCH  53  76
ATOM     76  C   UNL A   1      43.135  33.268  31.834  1.00  0.00    -0.014 A 
ATOM     77  C   UNL A   1      42.861  33.446  33.200  1.00  0.00     0.010 A 
ATOM     78  C   UNL A   1      43.503  34.381  31.056  1.00  0.00     0.010 A 
ATOM     79  C   UNL A   1      42.945  34.716  33.777  1.00  0.00     0.020 A 
ATOM     80  C   UNL A   1      43.609  35.648  31.635  1.00  0.00     0.020 A 
ATOM     81  C   UNL A   1      43.320  35.810  32.991  1.00  0.00     0.054 A 
BRANCH  81  82
ATOM     82  S   UNL A   1      43.486  37.440  33.769  1.00  0.00     0.124 S 
ATOM     83  O   UNL A   1      42.219  37.565  34.483  1.00  0.00    -0.237 OA
ATOM     84  O   UNL A   1      44.672  37.274  34.606  1.00  0.00    -0.237 OA
ATOM     85  O   UNL A   1      43.659  38.342  32.632  1.00  0.00    -0.744 OA
ENDBRANCH  81  82
ENDBRANCH  53  76
BRANCH  65  86
ATOM     86  C   UNL A   1      47.611  27.957  31.213  1.00  0.00    -0.014 A 
ATOM     87  C   UNL A   1      47.918  27.381  32.458  1.00  0.00     0.010 A 
ATOM     88  C   UNL A   1      48.658  28.310  30.341  1.00  0.00     0.010 A 
ATOM     89  C   UNL A   1      49.251  27.183  32.835  1.00  0.00     0.020 A 
ATOM     90  C   UNL A   1      49.989  28.093  30.706  1.00  0.00     0.020 A 
ATOM     91  C   UNL A   1      50.278  27.543  31.957  1.00  0.00     0.054 A 
BRANCH  91  92
ATOM     92  S   UNL A   1      51.997  27.233  32.447  1.00  0.00     0.124 S 
ATOM     93  O   UNL A   1      52.733  28.113  31.544  1.00  0.00    -0.237 OA
ATOM     94  O   UNL A   1      52.008  27.625  33.854  1.00  0.00    -0.237 OA
ATOM     95  O   UNL A   1      52.172  25.802  32.205  1.00  0.00    -0.744 OA
ENDBRANCH  91  92
ENDBRANCH  65  86
ENDBRANCH  39  40
ENDBRANCH  32  34
ENDBRANCH  31  32
ENDBRANCH  30  31
ENDBRANCH   1  30
TORSDOF 20
ENDMDL
