MODEL 1
REMARK VINA RESULT:     -10.5      0.000      0.000
REMARK SMILES Cc1cc([C@H](C)NC(=O)N2CC[C@H](C(=O)OCCOCCOC(=O)c3ccc(-c4c5nc(c(-c6ccc(S(=O)(=O)[O-])cc6)c6ccc([nH]6)c(-c6ccc(S(=O)(=O)[O-])cc6)c6nc(c(-c7ccc(S(=O)(=O)[O-])cc7)c7ccc4[nH]7)C=C6)C=C5)cc3)[C@@H]2C)c(C)s1
REMARK SMILES IDX 19 1 18 2 17 3 16 4 14 5 15 6 13 7 10 8 11 9 85 10 12 11
REMARK SMILES IDX 86 12 8 13 7 14 9 16 5 17 6 18 4 19 1 20 2 21 3 22 89 23
REMARK SMILES IDX 87 24 88 25 20 26 21 27 22 28 23 29 24 30 25 31 26 32 84 33
REMARK SMILES IDX 27 34 83 35 28 36 29 37 30 38 77 39 31 40 82 41 76 42 78 43
REMARK SMILES IDX 32 44 81 45 75 46 74 47 33 49 63 50 44 51 62 52 45 53 48 54
REMARK SMILES IDX 61 55 79 56 46 57 47 58 60 60 80 61 49 62 34 63 35 64 43 65
REMARK SMILES IDX 36 66 42 67 37 68 38 69 39 70 40 71 41 72 64 73 65 74 73 75
REMARK SMILES IDX 66 76 72 77 67 78 68 79 69 80 70 81 71 82 50 83 51 84 59 85
REMARK SMILES IDX 52 86 58 87 53 88 54 89 55 90 56 91 57 92
REMARK H PARENT 7 15 78 48 48 59
REMARK Flexibility Score: inf
ROOT
ATOM      1  O   UNL A   1      38.913  21.374  25.747  1.00  0.00    -0.374 OA
ENDROOT
BRANCH   1   2
ATOM      2  C   UNL A   1      37.839  20.765  25.029  1.00  0.00     0.202 C 
BRANCH   2   3
ATOM      3  C   UNL A   1      36.434  21.302  25.351  1.00  0.00     0.261 C 
BRANCH   3   4
ATOM      4  O   UNL A   1      35.599  21.362  24.185  1.00  0.00    -0.463 OA
BRANCH   4   5
ATOM      5  C   UNL A   1      35.456  22.588  23.600  1.00  0.00     0.311 C 
ATOM      6  O   UNL A   1      36.355  23.233  23.083  1.00  0.00    -0.252 OA
BRANCH   5   7
ATOM      7  C   UNL A   1      34.001  23.023  23.676  1.00  0.00     0.123 C 
ATOM      8  N   UNL A   1      32.583  23.255  25.593  1.00  0.00    -0.321 N 
ATOM      9  C   UNL A   1      32.650  21.844  25.266  1.00  0.00     0.122 C 
ATOM     10  C   UNL A   1      33.627  23.969  24.852  1.00  0.00     0.098 C 
ATOM     11  C   UNL A   1      33.055  21.829  23.805  1.00  0.00     0.039 C 
ATOM     12  C   UNL A   1      34.764  24.381  25.790  1.00  0.00     0.032 C 
BRANCH   8  13
ATOM     13  C   UNL A   1      31.933  23.680  26.721  1.00  0.00     0.318 C 
ATOM     14  N   UNL A   1      31.408  24.936  26.775  1.00  0.00    -0.331 N 
ATOM     15  H   UNL A   1      31.644  25.482  27.559  1.00  0.00     0.165 HD
ATOM     16  O   UNL A   1      31.813  22.962  27.713  1.00  0.00    -0.249 OA
BRANCH  14  17
ATOM     17  C   UNL A   1      30.531  25.552  25.783  1.00  0.00     0.112 C 
ATOM     18  C   UNL A   1      29.065  25.399  26.205  1.00  0.00     0.036 C 
BRANCH  17  19
ATOM     19  C   UNL A   1      30.952  27.010  25.573  1.00  0.00    -0.012 A 
ATOM     20  C   UNL A   1      32.257  30.368  26.849  1.00  0.00     0.056 C 
ATOM     21  C   UNL A   1      31.754  29.171  26.122  1.00  0.00     0.002 A 
ATOM     22  C   UNL A   1      31.596  27.867  26.549  1.00  0.00     0.021 A 
ATOM     23  S   UNL A   1      31.257  29.365  24.513  1.00  0.00    -0.146 S 
ATOM     24  C   UNL A   1      30.720  27.749  24.421  1.00  0.00     0.007 A 
ATOM     25  C   UNL A   1      30.053  27.360  23.162  1.00  0.00     0.057 C 
ENDBRANCH  17  19
ENDBRANCH  14  17
ENDBRANCH   8  13
ENDBRANCH   5   7
ENDBRANCH   4   5
ENDBRANCH   3   4
ENDBRANCH   2   3
ENDBRANCH   1   2
BRANCH   1  26
ATOM     26  C   UNL A   1      38.702  22.755  26.044  1.00  0.00     0.202 C 
BRANCH  26  27
ATOM     27  C   UNL A   1      39.898  23.340  26.782  1.00  0.00     0.261 C 
BRANCH  27  28
ATOM     28  O   UNL A   1      39.513  24.509  27.485  1.00  0.00    -0.460 OA
BRANCH  28  29
ATOM     29  C   UNL A   1      40.242  25.586  27.128  1.00  0.00     0.338 C 
ATOM     30  O   UNL A   1      40.755  25.804  26.042  1.00  0.00    -0.246 OA
BRANCH  29  31
ATOM     31  C   UNL A   1      40.062  26.573  28.201  1.00  0.00     0.060 A 
ATOM     32  C   UNL A   1      40.735  27.790  28.075  1.00  0.00     0.016 A 
ATOM     33  C   UNL A   1      39.186  26.332  29.270  1.00  0.00     0.016 A 
ATOM     34  C   UNL A   1      40.609  28.741  29.075  1.00  0.00     0.010 A 
ATOM     35  C   UNL A   1      39.037  27.292  30.255  1.00  0.00     0.010 A 
ATOM     36  C   UNL A   1      39.799  28.466  30.185  1.00  0.00    -0.014 A 
BRANCH  36  37
ATOM     37  C   UNL A   1      39.912  29.302  31.386  1.00  0.00     0.031 A 
ATOM     38  C   UNL A   1      41.063  29.037  32.311  1.00  0.00     0.074 A 
ATOM     39  C   UNL A   1      39.002  30.260  31.617  1.00  0.00     0.049 A 
ATOM     40  N   UNL A   1      41.350  29.603  33.450  1.00  0.00    -0.248 NA
ATOM     41  C   UNL A   1      42.011  27.981  31.906  1.00  0.00     0.031 C 
ATOM     42  C   UNL A   1      37.871  30.582  30.747  1.00  0.00     0.029 A 
ATOM     43  N   UNL A   1      38.887  31.133  32.661  1.00  0.00    -0.354 N 
ATOM     44  C   UNL A   1      42.500  28.967  33.901  1.00  0.00     0.074 A 
ATOM     45  C   UNL A   1      42.838  27.945  32.939  1.00  0.00     0.031 C 
ATOM     46  C   UNL A   1      37.172  31.588  31.298  1.00  0.00     0.029 A 
ATOM     47  C   UNL A   1      37.787  31.948  32.571  1.00  0.00     0.049 A 
ATOM     48  H   UNL A   1      39.531  31.175  33.405  1.00  0.00     0.167 HD
ATOM     49  C   UNL A   1      43.212  29.226  35.020  1.00  0.00     0.031 A 
ATOM     50  C   UNL A   1      37.328  32.866  33.441  1.00  0.00     0.031 A 
ATOM     51  C   UNL A   1      42.842  30.246  35.961  1.00  0.00     0.049 A 
ATOM     52  C   UNL A   1      38.113  33.103  34.702  1.00  0.00     0.074 A 
ATOM     53  C   UNL A   1      43.490  30.624  37.121  1.00  0.00     0.029 A 
ATOM     54  N   UNL A   1      41.715  31.049  35.845  1.00  0.00    -0.354 N 
ATOM     55  N   UNL A   1      39.220  32.521  35.105  1.00  0.00    -0.248 NA
ATOM     56  C   UNL A   1      37.598  34.126  35.619  1.00  0.00     0.031 C 
ATOM     57  C   UNL A   1      42.719  31.613  37.740  1.00  0.00     0.029 A 
ATOM     58  C   UNL A   1      41.632  31.904  36.927  1.00  0.00     0.049 A 
ATOM     59  H   UNL A   1      41.069  31.014  35.102  1.00  0.00     0.167 HD
ATOM     60  C   UNL A   1      39.553  33.131  36.309  1.00  0.00     0.074 A 
ATOM     61  C   UNL A   1      38.535  34.134  36.559  1.00  0.00     0.031 C 
ATOM     62  C   UNL A   1      40.601  32.891  37.135  1.00  0.00     0.031 A 
BRANCH  49  63
ATOM     63  C   UNL A   1      44.426  28.380  35.293  1.00  0.00    -0.014 A 
ATOM     64  C   UNL A   1      44.335  27.174  36.014  1.00  0.00     0.010 A 
ATOM     65  C   UNL A   1      45.678  28.781  34.792  1.00  0.00     0.010 A 
ATOM     66  C   UNL A   1      45.475  26.401  36.249  1.00  0.00     0.020 A 
ATOM     67  C   UNL A   1      46.816  27.996  35.000  1.00  0.00     0.020 A 
ATOM     68  C   UNL A   1      46.708  26.815  35.738  1.00  0.00     0.054 A 
BRANCH  68  69
ATOM     69  S   UNL A   1      48.163  25.769  36.020  1.00  0.00     0.124 S 
ATOM     70  O   UNL A   1      48.678  26.301  37.279  1.00  0.00    -0.237 OA
ATOM     71  O   UNL A   1      47.581  24.431  36.096  1.00  0.00    -0.237 OA
ATOM     72  O   UNL A   1      49.001  26.016  34.851  1.00  0.00    -0.744 OA
ENDBRANCH  68  69
ENDBRANCH  49  63
BRANCH  50  73
ATOM     73  C   UNL A   1      36.073  33.607  33.145  1.00  0.00    -0.014 A 
ATOM     74  C   UNL A   1      36.106  34.972  32.814  1.00  0.00     0.010 A 
ATOM     75  C   UNL A   1      34.835  32.940  33.175  1.00  0.00     0.010 A 
ATOM     76  C   UNL A   1      34.921  35.662  32.541  1.00  0.00     0.020 A 
ATOM     77  C   UNL A   1      33.651  33.618  32.872  1.00  0.00     0.020 A 
ATOM     78  C   UNL A   1      33.701  34.980  32.570  1.00  0.00     0.054 A 
BRANCH  78  79
ATOM     79  S   UNL A   1      32.182  35.888  32.176  1.00  0.00     0.124 S 
ATOM     80  O   UNL A   1      31.181  35.149  32.939  1.00  0.00    -0.237 OA
ATOM     81  O   UNL A   1      32.484  37.232  32.661  1.00  0.00    -0.237 OA
ATOM     82  O   UNL A   1      32.078  35.766  30.724  1.00  0.00    -0.744 OA
ENDBRANCH  78  79
ENDBRANCH  50  73
BRANCH  62  83
ATOM     83  C   UNL A   1      40.723  33.757  38.358  1.00  0.00    -0.014 A 
ATOM     84  C   UNL A   1      41.356  35.010  38.305  1.00  0.00     0.010 A 
ATOM     85  C   UNL A   1      40.131  33.333  39.562  1.00  0.00     0.010 A 
ATOM     86  C   UNL A   1      41.424  35.811  39.447  1.00  0.00     0.020 A 
ATOM     87  C   UNL A   1      40.166  34.145  40.695  1.00  0.00     0.020 A 
ATOM     88  C   UNL A   1      40.825  35.375  40.633  1.00  0.00     0.054 A 
BRANCH  88  89
ATOM     89  S   UNL A   1      40.884  36.456  42.086  1.00  0.00     0.124 S 
ATOM     90  O   UNL A   1      42.073  37.260  41.818  1.00  0.00    -0.237 OA
ATOM     91  O   UNL A   1      39.611  37.169  42.003  1.00  0.00    -0.237 OA
ATOM     92  O   UNL A   1      40.999  35.526  43.207  1.00  0.00    -0.744 OA
ENDBRANCH  88  89
ENDBRANCH  62  83
ENDBRANCH  36  37
ENDBRANCH  29  31
ENDBRANCH  28  29
ENDBRANCH  27  28
ENDBRANCH  26  27
ENDBRANCH   1  26
TORSDOF 20
ENDMDL
MODEL 2
REMARK VINA RESULT:     -10.2      0.893      8.147
REMARK SMILES Cc1cc([C@H](C)NC(=O)N2CC[C@H](C(=O)OCCOCCOC(=O)c3ccc(-c4c5nc(c(-c6ccc(S(=O)(=O)[O-])cc6)c6ccc([nH]6)c(-c6ccc(S(=O)(=O)[O-])cc6)c6nc(c(-c7ccc(S(=O)(=O)[O-])cc7)c7ccc4[nH]7)C=C6)C=C5)cc3)[C@@H]2C)c(C)s1
REMARK SMILES IDX 19 1 18 2 17 3 16 4 14 5 15 6 13 7 10 8 11 9 85 10 12 11
REMARK SMILES IDX 86 12 8 13 7 14 9 16 5 17 6 18 4 19 1 20 2 21 3 22 89 23
REMARK SMILES IDX 87 24 88 25 20 26 21 27 22 28 23 29 24 30 25 31 26 32 84 33
REMARK SMILES IDX 27 34 83 35 28 36 29 37 30 38 77 39 31 40 82 41 76 42 78 43
REMARK SMILES IDX 32 44 81 45 75 46 74 47 33 49 63 50 44 51 62 52 45 53 48 54
REMARK SMILES IDX 61 55 79 56 46 57 47 58 60 60 80 61 49 62 34 63 35 64 43 65
REMARK SMILES IDX 36 66 42 67 37 68 38 69 39 70 40 71 41 72 64 73 65 74 73 75
REMARK SMILES IDX 66 76 72 77 67 78 68 79 69 80 70 81 71 82 50 83 51 84 59 85
REMARK SMILES IDX 52 86 58 87 53 88 54 89 55 90 56 91 57 92
REMARK H PARENT 7 15 78 48 48 59
REMARK Flexibility Score: inf
ROOT
ATOM      1  O   UNL A   1      37.589  23.303  25.849  1.00  0.00    -0.374 OA
ENDROOT
BRANCH   1   2
ATOM      2  C   UNL A   1      38.209  22.023  25.727  1.00  0.00     0.202 C 
BRANCH   2   3
ATOM      3  C   UNL A   1      37.379  20.947  25.007  1.00  0.00     0.261 C 
BRANCH   3   4
ATOM      4  O   UNL A   1      36.262  21.508  24.302  1.00  0.00    -0.463 OA
BRANCH   4   5
ATOM      5  C   UNL A   1      35.021  21.111  24.712  1.00  0.00     0.311 C 
ATOM      6  O   UNL A   1      34.763  20.048  25.257  1.00  0.00    -0.252 OA
BRANCH   5   7
ATOM      7  C   UNL A   1      34.006  22.200  24.400  1.00  0.00     0.123 C 
ATOM      8  N   UNL A   1      32.215  23.037  25.752  1.00  0.00    -0.321 N 
ATOM      9  C   UNL A   1      31.775  21.784  25.169  1.00  0.00     0.122 C 
ATOM     10  C   UNL A   1      33.662  23.171  25.564  1.00  0.00     0.098 C 
ATOM     11  C   UNL A   1      32.665  21.618  23.953  1.00  0.00     0.039 C 
ATOM     12  C   UNL A   1      34.398  22.946  26.888  1.00  0.00     0.032 C 
BRANCH   8  13
ATOM     13  C   UNL A   1      31.436  23.691  26.669  1.00  0.00     0.318 C 
ATOM     14  N   UNL A   1      31.279  25.042  26.592  1.00  0.00    -0.331 N 
ATOM     15  H   UNL A   1      31.443  25.555  27.415  1.00  0.00     0.165 HD
ATOM     16  O   UNL A   1      30.872  23.096  27.587  1.00  0.00    -0.249 OA
BRANCH  14  17
ATOM     17  C   UNL A   1      30.892  25.803  25.408  1.00  0.00     0.112 C 
ATOM     18  C   UNL A   1      29.364  25.909  25.323  1.00  0.00     0.036 C 
BRANCH  17  19
ATOM     19  C   UNL A   1      31.592  27.165  25.433  1.00  0.00    -0.012 A 
ATOM     20  C   UNL A   1      32.519  30.460  27.134  1.00  0.00     0.056 C 
ATOM     21  C   UNL A   1      32.307  29.260  26.280  1.00  0.00     0.002 A 
ATOM     22  C   UNL A   1      31.729  28.041  26.580  1.00  0.00     0.021 A 
ATOM     23  S   UNL A   1      32.812  29.331  24.664  1.00  0.00    -0.146 S 
ATOM     24  C   UNL A   1      32.155  27.793  24.328  1.00  0.00     0.007 A 
ATOM     25  C   UNL A   1      32.232  27.350  22.922  1.00  0.00     0.057 C 
ENDBRANCH  17  19
ENDBRANCH  14  17
ENDBRANCH   8  13
ENDBRANCH   5   7
ENDBRANCH   4   5
ENDBRANCH   3   4
ENDBRANCH   2   3
ENDBRANCH   1   2
BRANCH   1  26
ATOM     26  C   UNL A   1      38.243  24.180  26.768  1.00  0.00     0.202 C 
BRANCH  26  27
ATOM     27  C   UNL A   1      39.747  23.950  26.759  1.00  0.00     0.261 C 
BRANCH  27  28
ATOM     28  O   UNL A   1      40.376  24.806  27.697  1.00  0.00    -0.460 OA
BRANCH  28  29
ATOM     29  C   UNL A   1      40.522  26.063  27.229  1.00  0.00     0.338 C 
ATOM     30  O   UNL A   1      40.533  26.419  26.062  1.00  0.00    -0.246 OA
BRANCH  29  31
ATOM     31  C   UNL A   1      40.379  26.950  28.391  1.00  0.00     0.060 A 
ATOM     32  C   UNL A   1      41.125  28.131  28.395  1.00  0.00     0.016 A 
ATOM     33  C   UNL A   1      39.470  26.659  29.420  1.00  0.00     0.016 A 
ATOM     34  C   UNL A   1      41.035  28.985  29.482  1.00  0.00     0.010 A 
ATOM     35  C   UNL A   1      39.360  27.525  30.492  1.00  0.00     0.010 A 
ATOM     36  C   UNL A   1      40.190  28.652  30.548  1.00  0.00    -0.014 A 
BRANCH  36  37
ATOM     37  C   UNL A   1      40.329  29.360  31.827  1.00  0.00     0.031 A 
ATOM     38  C   UNL A   1      39.292  30.390  32.165  1.00  0.00     0.074 A 
ATOM     39  C   UNL A   1      41.355  29.071  32.640  1.00  0.00     0.049 A 
ATOM     40  N   UNL A   1      39.222  31.176  33.204  1.00  0.00    -0.248 NA
ATOM     41  C   UNL A   1      38.193  30.570  31.196  1.00  0.00     0.031 C 
ATOM     42  C   UNL A   1      42.386  28.066  32.377  1.00  0.00     0.029 A 
ATOM     43  N   UNL A   1      41.700  29.606  33.848  1.00  0.00    -0.354 N 
ATOM     44  C   UNL A   1      38.083  31.949  33.008  1.00  0.00     0.074 A 
ATOM     45  C   UNL A   1      37.514  31.571  31.736  1.00  0.00     0.031 C 
ATOM     46  C   UNL A   1      43.254  28.057  33.403  1.00  0.00     0.029 A 
ATOM     47  C   UNL A   1      42.857  29.079  34.366  1.00  0.00     0.049 A 
ATOM     48  H   UNL A   1      41.171  30.299  34.304  1.00  0.00     0.167 HD
ATOM     49  C   UNL A   1      37.559  32.885  33.829  1.00  0.00     0.031 A 
ATOM     50  C   UNL A   1      43.523  29.413  35.487  1.00  0.00     0.031 A 
ATOM     51  C   UNL A   1      38.157  33.243  35.086  1.00  0.00     0.049 A 
ATOM     52  C   UNL A   1      42.944  30.491  36.362  1.00  0.00     0.074 A 
ATOM     53  C   UNL A   1      37.715  34.159  36.020  1.00  0.00     0.029 A 
ATOM     54  N   UNL A   1      39.335  32.697  35.577  1.00  0.00    -0.354 N 
ATOM     55  N   UNL A   1      41.847  31.193  36.187  1.00  0.00    -0.248 NA
ATOM     56  C   UNL A   1      43.681  30.815  37.587  1.00  0.00     0.031 C 
ATOM     57  C   UNL A   1      38.660  34.212  37.049  1.00  0.00     0.029 A 
ATOM     58  C   UNL A   1      39.652  33.276  36.791  1.00  0.00     0.049 A 
ATOM     59  H   UNL A   1      39.868  32.001  35.127  1.00  0.00     0.167 HD
ATOM     60  C   UNL A   1      41.745  32.020  37.299  1.00  0.00     0.074 A 
ATOM     61  C   UNL A   1      42.885  31.720  38.143  1.00  0.00     0.031 C 
ATOM     62  C   UNL A   1      40.798  32.944  37.601  1.00  0.00     0.031 A 
BRANCH  49  63
ATOM     63  C   UNL A   1      36.312  33.597  33.380  1.00  0.00    -0.014 A 
ATOM     64  C   UNL A   1      35.038  33.021  33.546  1.00  0.00     0.010 A 
ATOM     65  C   UNL A   1      36.412  34.880  32.811  1.00  0.00     0.010 A 
ATOM     66  C   UNL A   1      33.892  33.704  33.128  1.00  0.00     0.020 A 
ATOM     67  C   UNL A   1      35.266  35.578  32.419  1.00  0.00     0.020 A 
ATOM     68  C   UNL A   1      34.013  34.980  32.569  1.00  0.00     0.054 A 
BRANCH  68  69
ATOM     69  S   UNL A   1      32.506  35.861  32.078  1.00  0.00     0.124 S 
ATOM     70  O   UNL A   1      32.641  35.902  30.624  1.00  0.00    -0.237 OA
ATOM     71  O   UNL A   1      31.449  34.990  32.586  1.00  0.00    -0.237 OA
ATOM     72  O   UNL A   1      32.623  37.152  32.750  1.00  0.00    -0.744 OA
ENDBRANCH  68  69
ENDBRANCH  49  63
BRANCH  50  73
ATOM     73  C   UNL A   1      44.796  28.724  35.827  1.00  0.00    -0.014 A 
ATOM     74  C   UNL A   1      46.034  29.338  35.578  1.00  0.00     0.010 A 
ATOM     75  C   UNL A   1      44.773  27.450  36.424  1.00  0.00     0.010 A 
ATOM     76  C   UNL A   1      47.227  28.682  35.897  1.00  0.00     0.020 A 
ATOM     77  C   UNL A   1      45.961  26.803  36.773  1.00  0.00     0.020 A 
ATOM     78  C   UNL A   1      47.182  27.419  36.494  1.00  0.00     0.054 A 
BRANCH  78  79
ATOM     79  S   UNL A   1      48.741  26.603  36.933  1.00  0.00     0.124 S 
ATOM     80  O   UNL A   1      49.687  27.712  36.885  1.00  0.00    -0.237 OA
ATOM     81  O   UNL A   1      48.453  26.070  38.262  1.00  0.00    -0.237 OA
ATOM     82  O   UNL A   1      48.904  25.594  35.888  1.00  0.00    -0.744 OA
ENDBRANCH  78  79
ENDBRANCH  50  73
BRANCH  62  83
ATOM     83  C   UNL A   1      40.933  33.659  38.917  1.00  0.00    -0.014 A 
ATOM     84  C   UNL A   1      40.378  33.130  40.095  1.00  0.00     0.010 A 
ATOM     85  C   UNL A   1      41.688  34.844  38.981  1.00  0.00     0.010 A 
ATOM     86  C   UNL A   1      40.550  33.796  41.310  1.00  0.00     0.020 A 
ATOM     87  C   UNL A   1      41.891  35.492  40.198  1.00  0.00     0.020 A 
ATOM     88  C   UNL A   1      41.307  34.970  41.355  1.00  0.00     0.054 A 
BRANCH  88  89
ATOM     89  S   UNL A   1      41.556  35.785  42.954  1.00  0.00     0.124 S 
ATOM     90  O   UNL A   1      41.635  34.647  43.865  1.00  0.00    -0.237 OA
ATOM     91  O   UNL A   1      42.806  36.515  42.748  1.00  0.00    -0.237 OA
ATOM     92  O   UNL A   1      40.369  36.624  43.105  1.00  0.00    -0.744 OA
ENDBRANCH  88  89
ENDBRANCH  62  83
ENDBRANCH  36  37
ENDBRANCH  29  31
ENDBRANCH  28  29
ENDBRANCH  27  28
ENDBRANCH  26  27
ENDBRANCH   1  26
TORSDOF 20
ENDMDL
MODEL 3
REMARK VINA RESULT:     -10.1      6.101      8.182
REMARK SMILES Cc1cc([C@H](C)NC(=O)N2CC[C@H](C(=O)OCCOCCOC(=O)c3ccc(-c4c5nc(c(-c6ccc(S(=O)(=O)[O-])cc6)c6ccc([nH]6)c(-c6ccc(S(=O)(=O)[O-])cc6)c6nc(c(-c7ccc(S(=O)(=O)[O-])cc7)c7ccc4[nH]7)C=C6)C=C5)cc3)[C@@H]2C)c(C)s1
REMARK SMILES IDX 19 1 18 2 17 3 16 4 14 5 15 6 13 7 10 8 11 9 85 10 12 11
REMARK SMILES IDX 86 12 8 13 7 14 9 16 5 17 6 18 4 19 1 20 2 21 3 22 89 23
REMARK SMILES IDX 87 24 88 25 20 26 21 27 22 28 23 29 24 30 25 31 26 32 84 33
REMARK SMILES IDX 27 34 83 35 28 36 29 37 30 38 77 39 31 40 82 41 76 42 78 43
REMARK SMILES IDX 32 44 81 45 75 46 74 47 33 49 63 50 44 51 62 52 45 53 48 54
REMARK SMILES IDX 61 55 79 56 46 57 47 58 60 60 80 61 49 62 34 63 35 64 43 65
REMARK SMILES IDX 36 66 42 67 37 68 38 69 39 70 40 71 41 72 64 73 65 74 73 75
REMARK SMILES IDX 66 76 72 77 67 78 68 79 69 80 70 81 71 82 50 83 51 84 59 85
REMARK SMILES IDX 52 86 58 87 53 88 54 89 55 90 56 91 57 92
REMARK H PARENT 7 15 78 48 48 59
REMARK Flexibility Score: inf
ROOT
ATOM      1  O   UNL A   1      39.783  21.301  26.043  1.00  0.00    -0.374 OA
ENDROOT
BRANCH   1   2
ATOM      2  C   UNL A   1      38.586  22.015  25.731  1.00  0.00     0.202 C 
BRANCH   2   3
ATOM      3  C   UNL A   1      37.591  21.280  24.816  1.00  0.00     0.261 C 
BRANCH   3   4
ATOM      4  O   UNL A   1      36.276  21.853  24.878  1.00  0.00    -0.463 OA
BRANCH   4   5
ATOM      5  C   UNL A   1      35.914  22.658  23.836  1.00  0.00     0.311 C 
ATOM      6  O   UNL A   1      36.679  23.133  23.010  1.00  0.00    -0.252 OA
BRANCH   5   7
ATOM      7  C   UNL A   1      34.407  22.861  23.848  1.00  0.00     0.123 C 
ATOM      8  N   UNL A   1      32.932  23.171  25.709  1.00  0.00    -0.321 N 
ATOM      9  C   UNL A   1      33.229  21.755  25.618  1.00  0.00     0.122 C 
ATOM     10  C   UNL A   1      33.863  23.913  24.855  1.00  0.00     0.098 C 
ATOM     11  C   UNL A   1      33.660  21.568  24.176  1.00  0.00     0.039 C 
ATOM     12  C   UNL A   1      34.902  24.649  25.707  1.00  0.00     0.032 C 
BRANCH   8  13
ATOM     13  C   UNL A   1      32.199  23.664  26.756  1.00  0.00     0.318 C 
ATOM     14  N   UNL A   1      31.743  24.947  26.728  1.00  0.00    -0.331 N 
ATOM     15  H   UNL A   1      31.932  25.503  27.517  1.00  0.00     0.165 HD
ATOM     16  O   UNL A   1      31.943  22.983  27.749  1.00  0.00    -0.249 OA
BRANCH  14  17
ATOM     17  C   UNL A   1      31.003  25.580  25.639  1.00  0.00     0.112 C 
ATOM     18  C   UNL A   1      29.500  25.325  25.803  1.00  0.00     0.036 C 
BRANCH  17  19
ATOM     19  C   UNL A   1      31.363  27.068  25.582  1.00  0.00    -0.012 A 
ATOM     20  C   UNL A   1      32.576  30.316  27.191  1.00  0.00     0.056 C 
ATOM     21  C   UNL A   1      32.098  29.187  26.348  1.00  0.00     0.002 A 
ATOM     22  C   UNL A   1      32.002  27.838  26.632  1.00  0.00     0.021 A 
ATOM     23  S   UNL A   1      31.549  29.536  24.783  1.00  0.00    -0.146 S 
ATOM     24  C   UNL A   1      31.071  27.920  24.525  1.00  0.00     0.007 A 
ATOM     25  C   UNL A   1      30.384  27.645  23.247  1.00  0.00     0.057 C 
ENDBRANCH  17  19
ENDBRANCH  14  17
ENDBRANCH   8  13
ENDBRANCH   5   7
ENDBRANCH   4   5
ENDBRANCH   3   4
ENDBRANCH   2   3
ENDBRANCH   1   2
BRANCH   1  26
ATOM     26  C   UNL A   1      39.677  19.887  25.868  1.00  0.00     0.202 C 
BRANCH  26  27
ATOM     27  C   UNL A   1      40.993  19.200  26.198  1.00  0.00     0.261 C 
BRANCH  27  28
ATOM     28  O   UNL A   1      41.955  19.484  25.197  1.00  0.00    -0.460 OA
BRANCH  28  29
ATOM     29  C   UNL A   1      43.192  19.659  25.707  1.00  0.00     0.338 C 
ATOM     30  O   UNL A   1      44.126  18.875  25.665  1.00  0.00    -0.246 OA
BRANCH  29  31
ATOM     31  C   UNL A   1      43.284  21.079  26.071  1.00  0.00     0.060 A 
ATOM     32  C   UNL A   1      43.293  22.011  25.030  1.00  0.00     0.016 A 
ATOM     33  C   UNL A   1      43.285  21.486  27.414  1.00  0.00     0.016 A 
ATOM     34  C   UNL A   1      43.399  23.360  25.330  1.00  0.00     0.010 A 
ATOM     35  C   UNL A   1      43.363  22.834  27.714  1.00  0.00     0.010 A 
ATOM     36  C   UNL A   1      43.484  23.760  26.669  1.00  0.00    -0.014 A 
BRANCH  36  37
ATOM     37  C   UNL A   1      43.922  25.125  26.988  1.00  0.00     0.031 A 
ATOM     38  C   UNL A   1      45.379  25.442  26.825  1.00  0.00     0.074 A 
ATOM     39  C   UNL A   1      43.026  26.030  27.408  1.00  0.00     0.049 A 
ATOM     40  N   UNL A   1      46.014  26.551  27.086  1.00  0.00    -0.248 NA
ATOM     41  C   UNL A   1      46.241  24.359  26.313  1.00  0.00     0.031 C 
ATOM     42  C   UNL A   1      41.591  25.791  27.568  1.00  0.00     0.029 A 
ATOM     43  N   UNL A   1      43.197  27.333  27.780  1.00  0.00    -0.354 N 
ATOM     44  C   UNL A   1      47.346  26.296  26.781  1.00  0.00     0.074 A 
ATOM     45  C   UNL A   1      47.440  24.920  26.356  1.00  0.00     0.031 C 
ATOM     46  C   UNL A   1      41.010  26.918  28.010  1.00  0.00     0.029 A 
ATOM     47  C   UNL A   1      42.038  27.937  28.197  1.00  0.00     0.049 A 
ATOM     48  H   UNL A   1      44.067  27.794  27.752  1.00  0.00     0.167 HD
ATOM     49  C   UNL A   1      48.394  27.147  26.846  1.00  0.00     0.031 A 
ATOM     50  C   UNL A   1      41.847  29.174  28.693  1.00  0.00     0.031 A 
ATOM     51  C   UNL A   1      48.265  28.510  27.282  1.00  0.00     0.049 A 
ATOM     52  C   UNL A   1      43.037  30.087  28.798  1.00  0.00     0.074 A 
ATOM     53  C   UNL A   1      49.243  29.482  27.372  1.00  0.00     0.029 A 
ATOM     54  N   UNL A   1      47.076  29.089  27.707  1.00  0.00    -0.354 N 
ATOM     55  N   UNL A   1      44.289  29.850  28.475  1.00  0.00    -0.248 NA
ATOM     56  C   UNL A   1      42.792  31.435  29.322  1.00  0.00     0.031 C 
ATOM     57  C   UNL A   1      48.657  30.631  27.911  1.00  0.00     0.029 A 
ATOM     58  C   UNL A   1      47.300  30.399  28.087  1.00  0.00     0.049 A 
ATOM     59  H   UNL A   1      46.204  28.634  27.735  1.00  0.00     0.167 HD
ATOM     60  C   UNL A   1      44.976  31.032  28.726  1.00  0.00     0.074 A 
ATOM     61  C   UNL A   1      43.996  31.983  29.215  1.00  0.00     0.031 C 
ATOM     62  C   UNL A   1      46.293  31.313  28.567  1.00  0.00     0.031 A 
BRANCH  49  63
ATOM     63  C   UNL A   1      49.752  26.622  26.469  1.00  0.00    -0.014 A 
ATOM     64  C   UNL A   1      50.577  25.977  27.410  1.00  0.00     0.010 A 
ATOM     65  C   UNL A   1      50.200  26.745  25.141  1.00  0.00     0.010 A 
ATOM     66  C   UNL A   1      51.832  25.490  27.036  1.00  0.00     0.020 A 
ATOM     67  C   UNL A   1      51.442  26.232  24.756  1.00  0.00     0.020 A 
ATOM     68  C   UNL A   1      52.256  25.618  25.710  1.00  0.00     0.054 A 
BRANCH  68  69
ATOM     69  S   UNL A   1      53.870  24.936  25.243  1.00  0.00     0.124 S 
ATOM     70  O   UNL A   1      54.681  25.248  26.417  1.00  0.00    -0.237 OA
ATOM     71  O   UNL A   1      53.571  23.520  25.045  1.00  0.00    -0.237 OA
ATOM     72  O   UNL A   1      54.221  25.671  24.031  1.00  0.00    -0.744 OA
ENDBRANCH  68  69
ENDBRANCH  49  63
BRANCH  50  73
ATOM     73  C   UNL A   1      40.489  29.599  29.124  1.00  0.00    -0.014 A 
ATOM     74  C   UNL A   1      40.189  29.773  30.485  1.00  0.00     0.010 A 
ATOM     75  C   UNL A   1      39.490  29.852  28.166  1.00  0.00     0.010 A 
ATOM     76  C   UNL A   1      38.908  30.169  30.882  1.00  0.00     0.020 A 
ATOM     77  C   UNL A   1      38.218  30.278  28.556  1.00  0.00     0.020 A 
ATOM     78  C   UNL A   1      37.931  30.421  29.914  1.00  0.00     0.054 A 
BRANCH  78  79
ATOM     79  S   UNL A   1      36.289  30.970  30.451  1.00  0.00     0.124 S 
ATOM     80  O   UNL A   1      35.942  29.959  31.446  1.00  0.00    -0.237 OA
ATOM     81  O   UNL A   1      36.559  32.307  30.972  1.00  0.00    -0.237 OA
ATOM     82  O   UNL A   1      35.498  30.936  29.222  1.00  0.00    -0.744 OA
ENDBRANCH  78  79
ENDBRANCH  50  73
BRANCH  62  83
ATOM     83  C   UNL A   1      46.738  32.714  28.881  1.00  0.00    -0.014 A 
ATOM     84  C   UNL A   1      46.953  33.132  30.206  1.00  0.00     0.010 A 
ATOM     85  C   UNL A   1      47.011  33.602  27.824  1.00  0.00     0.010 A 
ATOM     86  C   UNL A   1      47.402  34.428  30.468  1.00  0.00     0.020 A 
ATOM     87  C   UNL A   1      47.492  34.885  28.082  1.00  0.00     0.020 A 
ATOM     88  C   UNL A   1      47.672  35.294  29.405  1.00  0.00     0.054 A 
BRANCH  88  89
ATOM     89  S   UNL A   1      48.301  36.953  29.772  1.00  0.00     0.124 S 
ATOM     90  O   UNL A   1      47.446  37.793  28.939  1.00  0.00    -0.237 OA
ATOM     91  O   UNL A   1      48.082  37.065  31.213  1.00  0.00    -0.237 OA
ATOM     92  O   UNL A   1      49.703  36.892  29.364  1.00  0.00    -0.744 OA
ENDBRANCH  88  89
ENDBRANCH  62  83
ENDBRANCH  36  37
ENDBRANCH  29  31
ENDBRANCH  28  29
ENDBRANCH  27  28
ENDBRANCH  26  27
ENDBRANCH   1  26
TORSDOF 20
ENDMDL
