MODEL 1
REMARK VINA RESULT:     -10.4      0.000      0.000
REMARK SMILES Cc1ccc(S(=O)(=O)N2C[C@@H](CC(=O)OCCOCCOC(=O)c3ccc(-c4c5nc(c(-c6ccc(S(=O)(=O)[O-])cc6)c6ccc([nH]6)c(-c6ccc(S(=O)(=O)[O-])cc6)c6nc(c(-c7ccc(S(=O)(=O)[O-])cc7)c7ccc4[nH]7)C=C6)C=C5)cc3)c3ccccc32)c(C)c1
REMARK SMILES IDX 18 1 17 2 16 3 15 4 13 5 14 6 12 7 11 8 9 9 10 10 89 11
REMARK SMILES IDX 84 12 88 13 85 14 87 15 86 16 6 17 7 18 8 19 5 20 1 21 2 22
REMARK SMILES IDX 3 23 92 24 4 25 90 26 91 27 19 28 20 29 21 30 22 31 23 32
REMARK SMILES IDX 24 33 25 34 83 35 26 36 82 37 27 38 28 39 29 40 76 41 30 42
REMARK SMILES IDX 81 43 75 44 77 45 31 46 80 47 74 48 73 49 32 51 62 52 43 53
REMARK SMILES IDX 61 54 44 55 47 56 60 57 78 58 45 59 46 60 59 62 79 63 48 64
REMARK SMILES IDX 33 65 34 66 42 67 35 68 41 69 36 70 37 71 38 72 39 73 40 74
REMARK SMILES IDX 63 75 64 76 72 77 65 78 71 79 66 80 67 81 68 82 69 83 70 84
REMARK SMILES IDX 49 85 50 86 58 87 51 88 57 89 52 90 53 91 54 92 55 93 56 94
REMARK H PARENT 77 50 47 61
REMARK Flexibility Score: inf
ROOT
ATOM      1  O   UNL A   1      31.651  30.136  26.988  1.00  0.00    -0.374 OA
ENDROOT
BRANCH   1   2
ATOM      2  C   UNL A   1      31.879  29.265  25.878  1.00  0.00     0.202 C 
BRANCH   2   3
ATOM      3  C   UNL A   1      31.028  29.549  24.634  1.00  0.00     0.261 C 
BRANCH   3   4
ATOM      4  O   UNL A   1      31.697  29.097  23.438  1.00  0.00    -0.463 OA
BRANCH   4   5
ATOM      5  C   UNL A   1      31.016  28.302  22.586  1.00  0.00     0.306 C 
ATOM      6  O   UNL A   1      30.033  28.640  21.939  1.00  0.00    -0.252 OA
BRANCH   5   7
ATOM      7  C   UNL A   1      31.613  26.913  22.518  1.00  0.00     0.133 C 
BRANCH   7   8
ATOM      8  C   UNL A   1      32.453  26.460  23.723  1.00  0.00     0.053 C 
ATOM      9  N   UNL A   1      33.723  24.467  24.209  1.00  0.00    -0.265 N 
ATOM     10  C   UNL A   1      33.617  25.550  23.223  1.00  0.00     0.144 C 
ATOM     11  C   UNL A   1      32.585  24.457  25.044  1.00  0.00     0.055 A 
ATOM     12  C   UNL A   1      31.802  25.582  24.773  1.00  0.00    -0.018 A 
ATOM     13  C   UNL A   1      32.223  23.518  25.998  1.00  0.00     0.027 A 
ATOM     14  C   UNL A   1      30.644  25.788  25.508  1.00  0.00     0.006 A 
ATOM     15  C   UNL A   1      31.021  23.695  26.680  1.00  0.00     0.002 A 
ATOM     16  C   UNL A   1      30.238  24.826  26.436  1.00  0.00     0.000 A 
BRANCH   9  17
ATOM     17  S   UNL A   1      34.852  23.252  24.065  1.00  0.00     0.264 S 
ATOM     18  O   UNL A   1      35.742  23.350  25.204  1.00  0.00    -0.201 OA
ATOM     19  O   UNL A   1      35.367  23.295  22.709  1.00  0.00    -0.201 OA
BRANCH  17  20
ATOM     20  C   UNL A   1      34.007  21.679  24.224  1.00  0.00     0.090 A 
ATOM     21  C   UNL A   1      32.283  17.722  24.289  1.00  0.00     0.044 C 
ATOM     22  C   UNL A   1      32.874  19.101  24.292  1.00  0.00    -0.051 A 
ATOM     23  C   UNL A   1      33.869  19.457  25.202  1.00  0.00     0.005 A 
ATOM     24  C   UNL A   1      32.416  20.057  23.377  1.00  0.00     0.008 A 
ATOM     25  C   UNL A   1      34.422  20.741  25.179  1.00  0.00     0.023 A 
ATOM     26  C   UNL A   1      32.969  21.352  23.325  1.00  0.00    -0.030 A 
ATOM     27  C   UNL A   1      32.381  22.298  22.312  1.00  0.00     0.046 C 
ENDBRANCH  17  20
ENDBRANCH   9  17
ENDBRANCH   7   8
ENDBRANCH   5   7
ENDBRANCH   4   5
ENDBRANCH   3   4
ENDBRANCH   2   3
ENDBRANCH   1   2
BRANCH   1  28
ATOM     28  C   UNL A   1      32.113  31.476  26.844  1.00  0.00     0.202 C 
BRANCH  28  29
ATOM     29  C   UNL A   1      33.448  31.808  27.522  1.00  0.00     0.261 C 
BRANCH  29  30
ATOM     30  O   UNL A   1      33.791  33.198  27.381  1.00  0.00    -0.460 OA
BRANCH  30  31
ATOM     31  C   UNL A   1      33.681  33.920  28.521  1.00  0.00     0.338 C 
ATOM     32  O   UNL A   1      32.724  34.596  28.873  1.00  0.00    -0.246 OA
BRANCH  31  33
ATOM     33  C   UNL A   1      34.822  33.641  29.413  1.00  0.00     0.060 A 
ATOM     34  C   UNL A   1      36.057  34.205  29.069  1.00  0.00     0.016 A 
ATOM     35  C   UNL A   1      34.714  32.802  30.525  1.00  0.00     0.016 A 
ATOM     36  C   UNL A   1      37.199  33.889  29.801  1.00  0.00     0.010 A 
ATOM     37  C   UNL A   1      35.863  32.491  31.262  1.00  0.00     0.010 A 
ATOM     38  C   UNL A   1      37.119  33.001  30.883  1.00  0.00    -0.014 A 
BRANCH  38  39
ATOM     39  C   UNL A   1      38.369  32.500  31.514  1.00  0.00     0.031 A 
ATOM     40  C   UNL A   1      38.772  33.037  32.864  1.00  0.00     0.074 A 
ATOM     41  C   UNL A   1      39.113  31.547  30.923  1.00  0.00     0.049 A 
ATOM     42  N   UNL A   1      39.819  32.744  33.593  1.00  0.00    -0.248 NA
ATOM     43  C   UNL A   1      37.878  34.038  33.472  1.00  0.00     0.031 C 
ATOM     44  C   UNL A   1      38.814  30.911  29.640  1.00  0.00     0.029 A 
ATOM     45  N   UNL A   1      40.277  30.942  31.332  1.00  0.00    -0.354 N 
ATOM     46  C   UNL A   1      39.717  33.533  34.735  1.00  0.00     0.074 A 
ATOM     47  C   UNL A   1      38.528  34.343  34.584  1.00  0.00     0.031 C 
ATOM     48  C   UNL A   1      39.766  30.002  29.370  1.00  0.00     0.029 A 
ATOM     49  C   UNL A   1      40.763  30.016  30.438  1.00  0.00     0.049 A 
ATOM     50  H   UNL A   1      40.721  31.152  32.184  1.00  0.00     0.167 HD
ATOM     51  C   UNL A   1      40.532  33.573  35.816  1.00  0.00     0.031 A 
ATOM     52  C   UNL A   1      41.890  29.277  30.468  1.00  0.00     0.031 A 
ATOM     53  C   UNL A   1      41.717  32.771  35.966  1.00  0.00     0.049 A 
ATOM     54  C   UNL A   1      42.821  29.391  31.649  1.00  0.00     0.074 A 
ATOM     55  C   UNL A   1      42.595  32.726  37.034  1.00  0.00     0.029 A 
ATOM     56  N   UNL A   1      42.196  31.878  35.018  1.00  0.00    -0.354 N 
ATOM     57  N   UNL A   1      42.694  30.121  32.732  1.00  0.00    -0.248 NA
ATOM     58  C   UNL A   1      44.042  28.573  31.616  1.00  0.00     0.031 C 
ATOM     59  C   UNL A   1      43.640  31.858  36.705  1.00  0.00     0.029 A 
ATOM     60  C   UNL A   1      43.374  31.303  35.464  1.00  0.00     0.049 A 
ATOM     61  H   UNL A   1      41.763  31.683  34.156  1.00  0.00     0.167 HD
ATOM     62  C   UNL A   1      43.802  29.825  33.522  1.00  0.00     0.074 A 
ATOM     63  C   UNL A   1      44.578  28.840  32.799  1.00  0.00     0.031 C 
ATOM     64  C   UNL A   1      44.142  30.323  34.737  1.00  0.00     0.031 A 
BRANCH  51  65
ATOM     65  C   UNL A   1      40.186  34.547  36.913  1.00  0.00    -0.014 A 
ATOM     66  C   UNL A   1      39.294  34.203  37.946  1.00  0.00     0.010 A 
ATOM     67  C   UNL A   1      40.797  35.814  36.934  1.00  0.00     0.010 A 
ATOM     68  C   UNL A   1      38.990  35.123  38.954  1.00  0.00     0.020 A 
ATOM     69  C   UNL A   1      40.521  36.725  37.957  1.00  0.00     0.020 A 
ATOM     70  C   UNL A   1      39.605  36.379  38.952  1.00  0.00     0.054 A 
BRANCH  70  71
ATOM     71  S   UNL A   1      39.209  37.542  40.287  1.00  0.00     0.124 S 
ATOM     72  O   UNL A   1      38.806  36.640  41.362  1.00  0.00    -0.237 OA
ATOM     73  O   UNL A   1      40.479  38.235  40.491  1.00  0.00    -0.237 OA
ATOM     74  O   UNL A   1      38.137  38.361  39.726  1.00  0.00    -0.744 OA
ENDBRANCH  70  71
ENDBRANCH  51  65
BRANCH  52  75
ATOM     75  C   UNL A   1      42.217  28.370  29.331  1.00  0.00    -0.014 A 
ATOM     76  C   UNL A   1      43.007  28.814  28.257  1.00  0.00     0.010 A 
ATOM     77  C   UNL A   1      41.729  27.050  29.317  1.00  0.00     0.010 A 
ATOM     78  C   UNL A   1      43.290  27.963  27.184  1.00  0.00     0.020 A 
ATOM     79  C   UNL A   1      42.036  26.185  28.263  1.00  0.00     0.020 A 
ATOM     80  C   UNL A   1      42.806  26.652  27.197  1.00  0.00     0.054 A 
BRANCH  80  81
ATOM     81  S   UNL A   1      43.232  25.547  25.821  1.00  0.00     0.124 S 
ATOM     82  O   UNL A   1      43.225  24.239  26.468  1.00  0.00    -0.237 OA
ATOM     83  O   UNL A   1      42.147  25.792  24.875  1.00  0.00    -0.237 OA
ATOM     84  O   UNL A   1      44.544  26.026  25.392  1.00  0.00    -0.744 OA
ENDBRANCH  80  81
ENDBRANCH  52  75
BRANCH  64  85
ATOM     85  C   UNL A   1      45.389  29.782  35.391  1.00  0.00    -0.014 A 
ATOM     86  C   UNL A   1      46.643  30.390  35.200  1.00  0.00     0.010 A 
ATOM     87  C   UNL A   1      45.291  28.679  36.260  1.00  0.00     0.010 A 
ATOM     88  C   UNL A   1      47.780  29.882  35.837  1.00  0.00     0.020 A 
ATOM     89  C   UNL A   1      46.418  28.189  36.925  1.00  0.00     0.020 A 
ATOM     90  C   UNL A   1      47.659  28.785  36.696  1.00  0.00     0.054 A 
BRANCH  90  91
ATOM     91  S   UNL A   1      49.143  28.172  37.542  1.00  0.00     0.124 S 
ATOM     92  O   UNL A   1      50.212  28.804  36.774  1.00  0.00    -0.237 OA
ATOM     93  O   UNL A   1      48.965  28.674  38.902  1.00  0.00    -0.237 OA
ATOM     94  O   UNL A   1      49.049  26.722  37.401  1.00  0.00    -0.744 OA
ENDBRANCH  90  91
ENDBRANCH  64  85
ENDBRANCH  38  39
ENDBRANCH  31  33
ENDBRANCH  30  31
ENDBRANCH  29  30
ENDBRANCH  28  29
ENDBRANCH   1  28
TORSDOF 20
ENDMDL
MODEL 2
REMARK VINA RESULT:     -10.3      5.153     10.570
REMARK SMILES Cc1ccc(S(=O)(=O)N2C[C@@H](CC(=O)OCCOCCOC(=O)c3ccc(-c4c5nc(c(-c6ccc(S(=O)(=O)[O-])cc6)c6ccc([nH]6)c(-c6ccc(S(=O)(=O)[O-])cc6)c6nc(c(-c7ccc(S(=O)(=O)[O-])cc7)c7ccc4[nH]7)C=C6)C=C5)cc3)c3ccccc32)c(C)c1
REMARK SMILES IDX 18 1 17 2 16 3 15 4 13 5 14 6 12 7 11 8 9 9 10 10 89 11
REMARK SMILES IDX 84 12 88 13 85 14 87 15 86 16 6 17 7 18 8 19 5 20 1 21 2 22
REMARK SMILES IDX 3 23 92 24 4 25 90 26 91 27 19 28 20 29 21 30 22 31 23 32
REMARK SMILES IDX 24 33 25 34 83 35 26 36 82 37 27 38 28 39 29 40 76 41 30 42
REMARK SMILES IDX 81 43 75 44 77 45 31 46 80 47 74 48 73 49 32 51 62 52 43 53
REMARK SMILES IDX 61 54 44 55 47 56 60 57 78 58 45 59 46 60 59 62 79 63 48 64
REMARK SMILES IDX 33 65 34 66 42 67 35 68 41 69 36 70 37 71 38 72 39 73 40 74
REMARK SMILES IDX 63 75 64 76 72 77 65 78 71 79 66 80 67 81 68 82 69 83 70 84
REMARK SMILES IDX 49 85 50 86 58 87 51 88 57 89 52 90 53 91 54 92 55 93 56 94
REMARK H PARENT 77 50 47 61
REMARK Flexibility Score: inf
ROOT
ATOM      1  O   UNL A   1      36.805  18.906  24.991  1.00  0.00    -0.374 OA
ENDROOT
BRANCH   1   2
ATOM      2  C   UNL A   1      35.704  18.104  24.558  1.00  0.00     0.202 C 
BRANCH   2   3
ATOM      3  C   UNL A   1      35.575  16.740  25.248  1.00  0.00     0.261 C 
BRANCH   3   4
ATOM      4  O   UNL A   1      34.192  16.428  25.517  1.00  0.00    -0.463 OA
BRANCH   4   5
ATOM      5  C   UNL A   1      33.245  16.994  24.740  1.00  0.00     0.306 C 
ATOM      6  O   UNL A   1      32.977  16.655  23.594  1.00  0.00    -0.252 OA
BRANCH   5   7
ATOM      7  C   UNL A   1      32.536  18.123  25.456  1.00  0.00     0.133 C 
BRANCH   7   8
ATOM      8  C   UNL A   1      33.132  19.530  25.294  1.00  0.00     0.053 C 
ATOM      9  N   UNL A   1      32.504  21.708  26.122  1.00  0.00    -0.265 N 
ATOM     10  C   UNL A   1      32.849  20.358  26.587  1.00  0.00     0.144 C 
ATOM     11  C   UNL A   1      32.252  21.695  24.733  1.00  0.00     0.055 A 
ATOM     12  C   UNL A   1      32.573  20.437  24.217  1.00  0.00    -0.018 A 
ATOM     13  C   UNL A   1      31.757  22.716  23.936  1.00  0.00     0.027 A 
ATOM     14  C   UNL A   1      32.431  20.213  22.855  1.00  0.00     0.006 A 
ATOM     15  C   UNL A   1      31.548  22.459  22.583  1.00  0.00     0.002 A 
ATOM     16  C   UNL A   1      31.885  21.214  22.047  1.00  0.00     0.000 A 
BRANCH   9  17
ATOM     17  S   UNL A   1      32.122  22.933  27.183  1.00  0.00     0.264 S 
ATOM     18  O   UNL A   1      32.929  22.744  28.371  1.00  0.00    -0.201 OA
ATOM     19  O   UNL A   1      30.674  23.000  27.266  1.00  0.00    -0.201 OA
BRANCH  17  20
ATOM     20  C   UNL A   1      32.649  24.486  26.460  1.00  0.00     0.090 A 
ATOM     21  C   UNL A   1      33.795  28.044  24.300  1.00  0.00     0.044 C 
ATOM     22  C   UNL A   1      33.392  26.822  25.073  1.00  0.00    -0.051 A 
ATOM     23  C   UNL A   1      32.108  26.696  25.603  1.00  0.00     0.005 A 
ATOM     24  C   UNL A   1      34.317  25.792  25.281  1.00  0.00     0.008 A 
ATOM     25  C   UNL A   1      31.742  25.543  26.305  1.00  0.00     0.023 A 
ATOM     26  C   UNL A   1      33.966  24.615  25.971  1.00  0.00    -0.030 A 
ATOM     27  C   UNL A   1      35.052  23.586  26.147  1.00  0.00     0.046 C 
ENDBRANCH  17  20
ENDBRANCH   9  17
ENDBRANCH   7   8
ENDBRANCH   5   7
ENDBRANCH   4   5
ENDBRANCH   3   4
ENDBRANCH   2   3
ENDBRANCH   1   2
BRANCH   1  28
ATOM     28  C   UNL A   1      36.588  20.315  25.017  1.00  0.00     0.202 C 
BRANCH  28  29
ATOM     29  C   UNL A   1      37.819  21.194  24.767  1.00  0.00     0.261 C 
BRANCH  29  30
ATOM     30  O   UNL A   1      38.123  22.027  25.900  1.00  0.00    -0.460 OA
BRANCH  30  31
ATOM     31  C   UNL A   1      39.402  21.935  26.335  1.00  0.00     0.338 C 
ATOM     32  O   UNL A   1      40.187  21.022  26.121  1.00  0.00    -0.246 OA
BRANCH  31  33
ATOM     33  C   UNL A   1      39.816  23.199  26.972  1.00  0.00     0.060 A 
ATOM     34  C   UNL A   1      39.240  24.380  26.488  1.00  0.00     0.016 A 
ATOM     35  C   UNL A   1      40.787  23.248  27.975  1.00  0.00     0.016 A 
ATOM     36  C   UNL A   1      39.671  25.615  26.964  1.00  0.00     0.010 A 
ATOM     37  C   UNL A   1      41.215  24.491  28.455  1.00  0.00     0.010 A 
ATOM     38  C   UNL A   1      40.687  25.685  27.926  1.00  0.00    -0.014 A 
BRANCH  38  39
ATOM     39  C   UNL A   1      41.291  27.001  28.263  1.00  0.00     0.031 A 
ATOM     40  C   UNL A   1      42.771  27.201  28.057  1.00  0.00     0.074 A 
ATOM     41  C   UNL A   1      40.532  28.023  28.701  1.00  0.00     0.049 A 
ATOM     42  N   UNL A   1      43.503  28.261  28.285  1.00  0.00    -0.248 NA
ATOM     43  C   UNL A   1      43.525  26.054  27.523  1.00  0.00     0.031 C 
ATOM     44  C   UNL A   1      39.084  27.978  28.903  1.00  0.00     0.029 A 
ATOM     45  N   UNL A   1      40.878  29.306  29.051  1.00  0.00    -0.354 N 
ATOM     46  C   UNL A   1      44.803  27.905  27.939  1.00  0.00     0.074 A 
ATOM     47  C   UNL A   1      44.764  26.521  27.520  1.00  0.00     0.031 C 
ATOM     48  C   UNL A   1      38.665  29.179  29.336  1.00  0.00     0.029 A 
ATOM     49  C   UNL A   1      39.816  30.068  29.479  1.00  0.00     0.049 A 
ATOM     50  H   UNL A   1      41.800  29.646  29.001  1.00  0.00     0.167 HD
ATOM     51  C   UNL A   1      45.926  28.662  27.956  1.00  0.00     0.031 A 
ATOM     52  C   UNL A   1      39.778  31.331  29.949  1.00  0.00     0.031 A 
ATOM     53  C   UNL A   1      45.967  30.038  28.375  1.00  0.00     0.049 A 
ATOM     54  C   UNL A   1      41.053  32.132  30.028  1.00  0.00     0.074 A 
ATOM     55  C   UNL A   1      47.053  30.894  28.408  1.00  0.00     0.029 A 
ATOM     56  N   UNL A   1      44.878  30.758  28.843  1.00  0.00    -0.354 N 
ATOM     57  N   UNL A   1      42.267  31.788  29.670  1.00  0.00    -0.248 NA
ATOM     58  C   UNL A   1      40.948  33.497  30.566  1.00  0.00     0.031 C 
ATOM     59  C   UNL A   1      46.636  32.109  28.958  1.00  0.00     0.029 A 
ATOM     60  C   UNL A   1      45.273  32.037  29.196  1.00  0.00     0.049 A 
ATOM     61  H   UNL A   1      43.959  30.411  28.913  1.00  0.00     0.167 HD
ATOM     62  C   UNL A   1      43.064  32.905  29.909  1.00  0.00     0.074 A 
ATOM     63  C   UNL A   1      42.192  33.937  30.427  1.00  0.00     0.031 C 
ATOM     64  C   UNL A   1      44.398  33.060  29.713  1.00  0.00     0.031 A 
BRANCH  51  65
ATOM     65  C   UNL A   1      47.216  28.004  27.539  1.00  0.00    -0.014 A 
ATOM     66  C   UNL A   1      47.740  28.169  26.243  1.00  0.00     0.010 A 
ATOM     67  C   UNL A   1      47.939  27.241  28.474  1.00  0.00     0.010 A 
ATOM     68  C   UNL A   1      48.939  27.550  25.880  1.00  0.00     0.020 A 
ATOM     69  C   UNL A   1      49.155  26.647  28.126  1.00  0.00     0.020 A 
ATOM     70  C   UNL A   1      49.639  26.792  26.824  1.00  0.00     0.054 A 
BRANCH  70  71
ATOM     71  S   UNL A   1      51.206  26.022  26.331  1.00  0.00     0.124 S 
ATOM     72  O   UNL A   1      51.147  24.744  27.036  1.00  0.00    -0.237 OA
ATOM     73  O   UNL A   1      51.078  25.943  24.878  1.00  0.00    -0.237 OA
ATOM     74  O   UNL A   1      52.219  26.954  26.817  1.00  0.00    -0.744 OA
ENDBRANCH  70  71
ENDBRANCH  51  65
BRANCH  52  75
ATOM     75  C   UNL A   1      38.485  31.918  30.404  1.00  0.00    -0.014 A 
ATOM     76  C   UNL A   1      38.048  31.763  31.731  1.00  0.00     0.010 A 
ATOM     77  C   UNL A   1      37.678  32.634  29.500  1.00  0.00     0.010 A 
ATOM     78  C   UNL A   1      36.823  32.299  32.141  1.00  0.00     0.020 A 
ATOM     79  C   UNL A   1      36.468  33.198  29.914  1.00  0.00     0.020 A 
ATOM     80  C   UNL A   1      36.043  33.018  31.231  1.00  0.00     0.054 A 
BRANCH  80  81
ATOM     81  S   UNL A   1      34.484  33.751  31.800  1.00  0.00     0.124 S 
ATOM     82  O   UNL A   1      33.811  34.051  30.540  1.00  0.00    -0.237 OA
ATOM     83  O   UNL A   1      33.899  32.671  32.590  1.00  0.00    -0.237 OA
ATOM     84  O   UNL A   1      34.916  34.914  32.572  1.00  0.00    -0.744 OA
ENDBRANCH  80  81
ENDBRANCH  52  75
BRANCH  64  85
ATOM     85  C   UNL A   1      44.998  34.409  30.017  1.00  0.00    -0.014 A 
ATOM     86  C   UNL A   1      45.152  35.388  29.019  1.00  0.00     0.010 A 
ATOM     87  C   UNL A   1      45.362  34.722  31.340  1.00  0.00     0.010 A 
ATOM     88  C   UNL A   1      45.691  36.640  29.333  1.00  0.00     0.020 A 
ATOM     89  C   UNL A   1      45.869  35.983  31.665  1.00  0.00     0.020 A 
ATOM     90  C   UNL A   1      46.045  36.929  30.654  1.00  0.00     0.054 A 
BRANCH  90  91
ATOM     91  S   UNL A   1      46.703  38.575  31.041  1.00  0.00     0.124 S 
ATOM     92  O   UNL A   1      47.693  38.272  32.070  1.00  0.00    -0.237 OA
ATOM     93  O   UNL A   1      47.244  39.013  29.757  1.00  0.00    -0.237 OA
ATOM     94  O   UNL A   1      45.533  39.317  31.503  1.00  0.00    -0.744 OA
ENDBRANCH  90  91
ENDBRANCH  64  85
ENDBRANCH  38  39
ENDBRANCH  31  33
ENDBRANCH  30  31
ENDBRANCH  29  30
ENDBRANCH  28  29
ENDBRANCH   1  28
TORSDOF 20
ENDMDL
MODEL 3
REMARK VINA RESULT:     -10.3      0.368      7.940
REMARK SMILES Cc1ccc(S(=O)(=O)N2C[C@@H](CC(=O)OCCOCCOC(=O)c3ccc(-c4c5nc(c(-c6ccc(S(=O)(=O)[O-])cc6)c6ccc([nH]6)c(-c6ccc(S(=O)(=O)[O-])cc6)c6nc(c(-c7ccc(S(=O)(=O)[O-])cc7)c7ccc4[nH]7)C=C6)C=C5)cc3)c3ccccc32)c(C)c1
REMARK SMILES IDX 18 1 17 2 16 3 15 4 13 5 14 6 12 7 11 8 9 9 10 10 89 11
REMARK SMILES IDX 84 12 88 13 85 14 87 15 86 16 6 17 7 18 8 19 5 20 1 21 2 22
REMARK SMILES IDX 3 23 92 24 4 25 90 26 91 27 19 28 20 29 21 30 22 31 23 32
REMARK SMILES IDX 24 33 25 34 83 35 26 36 82 37 27 38 28 39 29 40 76 41 30 42
REMARK SMILES IDX 81 43 75 44 77 45 31 46 80 47 74 48 73 49 32 51 62 52 43 53
REMARK SMILES IDX 61 54 44 55 47 56 60 57 78 58 45 59 46 60 59 62 79 63 48 64
REMARK SMILES IDX 33 65 34 66 42 67 35 68 41 69 36 70 37 71 38 72 39 73 40 74
REMARK SMILES IDX 63 75 64 76 72 77 65 78 71 79 66 80 67 81 68 82 69 83 70 84
REMARK SMILES IDX 49 85 50 86 58 87 51 88 57 89 52 90 53 91 54 92 55 93 56 94
REMARK H PARENT 77 50 47 61
REMARK Flexibility Score: inf
ROOT
ATOM      1  O   UNL A   1      31.489  30.113  26.823  1.00  0.00    -0.374 OA
ENDROOT
BRANCH   1   2
ATOM      2  C   UNL A   1      31.796  29.309  25.682  1.00  0.00     0.202 C 
BRANCH   2   3
ATOM      3  C   UNL A   1      30.978  29.617  24.422  1.00  0.00     0.261 C 
BRANCH   3   4
ATOM      4  O   UNL A   1      31.616  29.072  23.248  1.00  0.00    -0.463 OA
BRANCH   4   5
ATOM      5  C   UNL A   1      30.896  28.255  22.449  1.00  0.00     0.306 C 
ATOM      6  O   UNL A   1      29.902  28.584  21.816  1.00  0.00    -0.252 OA
BRANCH   5   7
ATOM      7  C   UNL A   1      31.466  26.853  22.426  1.00  0.00     0.133 C 
BRANCH   7   8
ATOM      8  C   UNL A   1      32.337  26.438  23.622  1.00  0.00     0.053 C 
ATOM      9  N   UNL A   1      33.636  24.468  24.129  1.00  0.00    -0.265 N 
ATOM     10  C   UNL A   1      33.497  25.525  23.118  1.00  0.00     0.144 C 
ATOM     11  C   UNL A   1      32.517  24.470  24.990  1.00  0.00     0.055 A 
ATOM     12  C   UNL A   1      31.718  25.581  24.708  1.00  0.00    -0.018 A 
ATOM     13  C   UNL A   1      32.186  23.553  25.976  1.00  0.00     0.027 A 
ATOM     14  C   UNL A   1      30.576  25.797  25.465  1.00  0.00     0.006 A 
ATOM     15  C   UNL A   1      30.999  23.737  26.681  1.00  0.00     0.002 A 
ATOM     16  C   UNL A   1      30.200  24.855  26.427  1.00  0.00     0.000 A 
BRANCH   9  17
ATOM     17  S   UNL A   1      34.772  23.259  23.989  1.00  0.00     0.264 S 
ATOM     18  O   UNL A   1      35.698  23.407  25.094  1.00  0.00    -0.201 OA
ATOM     19  O   UNL A   1      35.241  23.260  22.616  1.00  0.00    -0.201 OA
BRANCH  17  20
ATOM     20  C   UNL A   1      33.949  21.685  24.232  1.00  0.00     0.090 A 
ATOM     21  C   UNL A   1      32.290  17.710  24.519  1.00  0.00     0.044 C 
ATOM     22  C   UNL A   1      32.857  19.097  24.444  1.00  0.00    -0.051 A 
ATOM     23  C   UNL A   1      33.822  19.532  25.353  1.00  0.00     0.005 A 
ATOM     24  C   UNL A   1      32.408  19.982  23.456  1.00  0.00     0.008 A 
ATOM     25  C   UNL A   1      34.355  20.821  25.258  1.00  0.00     0.023 A 
ATOM     26  C   UNL A   1      32.941  21.280  23.332  1.00  0.00    -0.030 A 
ATOM     27  C   UNL A   1      32.365  22.145  22.242  1.00  0.00     0.046 C 
ENDBRANCH  17  20
ENDBRANCH   9  17
ENDBRANCH   7   8
ENDBRANCH   5   7
ENDBRANCH   4   5
ENDBRANCH   3   4
ENDBRANCH   2   3
ENDBRANCH   1   2
BRANCH   1  28
ATOM     28  C   UNL A   1      32.039  31.429  26.834  1.00  0.00     0.202 C 
BRANCH  28  29
ATOM     29  C   UNL A   1      33.418  31.580  27.486  1.00  0.00     0.261 C 
BRANCH  29  30
ATOM     30  O   UNL A   1      33.959  32.900  27.299  1.00  0.00    -0.460 OA
BRANCH  30  31
ATOM     31  C   UNL A   1      33.785  33.730  28.356  1.00  0.00     0.338 C 
ATOM     32  O   UNL A   1      32.814  34.437  28.582  1.00  0.00    -0.246 OA
BRANCH  31  33
ATOM     33  C   UNL A   1      34.870  33.539  29.337  1.00  0.00     0.060 A 
ATOM     34  C   UNL A   1      36.086  34.185  29.081  1.00  0.00     0.016 A 
ATOM     35  C   UNL A   1      34.734  32.705  30.448  1.00  0.00     0.016 A 
ATOM     36  C   UNL A   1      37.187  33.955  29.903  1.00  0.00     0.010 A 
ATOM     37  C   UNL A   1      35.841  32.481  31.276  1.00  0.00     0.010 A 
ATOM     38  C   UNL A   1      37.085  33.074  30.988  1.00  0.00    -0.014 A 
BRANCH  38  39
ATOM     39  C   UNL A   1      38.313  32.667  31.721  1.00  0.00     0.031 A 
ATOM     40  C   UNL A   1      39.232  31.647  31.098  1.00  0.00     0.074 A 
ATOM     41  C   UNL A   1      38.636  33.228  32.901  1.00  0.00     0.049 A 
ATOM     42  N   UNL A   1      40.349  31.147  31.561  1.00  0.00    -0.248 NA
ATOM     43  C   UNL A   1      38.838  31.120  29.781  1.00  0.00     0.031 C 
ATOM     44  C   UNL A   1      37.859  34.257  33.593  1.00  0.00     0.029 A 
ATOM     45  N   UNL A   1      39.713  33.012  33.727  1.00  0.00    -0.354 N 
ATOM     46  C   UNL A   1      40.783  30.238  30.601  1.00  0.00     0.074 A 
ATOM     47  C   UNL A   1      39.790  30.229  29.549  1.00  0.00     0.031 C 
ATOM     48  C   UNL A   1      38.488  34.586  34.734  1.00  0.00     0.029 A 
ATOM     49  C   UNL A   1      39.690  33.766  34.876  1.00  0.00     0.049 A 
ATOM     50  H   UNL A   1      40.433  32.375  33.515  1.00  0.00     0.167 HD
ATOM     51  C   UNL A   1      41.910  29.488  30.588  1.00  0.00     0.031 A 
ATOM     52  C   UNL A   1      40.530  33.784  35.930  1.00  0.00     0.031 A 
ATOM     53  C   UNL A   1      42.897  29.493  31.635  1.00  0.00     0.049 A 
ATOM     54  C   UNL A   1      41.741  32.886  35.928  1.00  0.00     0.074 A 
ATOM     55  C   UNL A   1      44.083  28.783  31.703  1.00  0.00     0.029 A 
ATOM     56  N   UNL A   1      42.813  30.239  32.802  1.00  0.00    -0.354 N 
ATOM     57  N   UNL A   1      42.150  32.054  34.999  1.00  0.00    -0.248 NA
ATOM     58  C   UNL A   1      42.611  32.938  37.113  1.00  0.00     0.031 C 
ATOM     59  C   UNL A   1      44.681  29.047  32.938  1.00  0.00     0.029 A 
ATOM     60  C   UNL A   1      43.909  29.981  33.608  1.00  0.00     0.049 A 
ATOM     61  H   UNL A   1      42.082  30.861  33.023  1.00  0.00     0.167 HD
ATOM     62  C   UNL A   1      43.340  31.508  35.475  1.00  0.00     0.074 A 
ATOM     63  C   UNL A   1      43.591  32.115  36.765  1.00  0.00     0.031 C 
ATOM     64  C   UNL A   1      44.151  30.590  34.893  1.00  0.00     0.031 A 
BRANCH  51  65
ATOM     65  C   UNL A   1      42.120  28.565  29.415  1.00  0.00    -0.014 A 
ATOM     66  C   UNL A   1      42.908  28.946  28.313  1.00  0.00     0.010 A 
ATOM     67  C   UNL A   1      41.553  27.278  29.435  1.00  0.00     0.010 A 
ATOM     68  C   UNL A   1      43.089  28.073  27.237  1.00  0.00     0.020 A 
ATOM     69  C   UNL A   1      41.758  26.389  28.376  1.00  0.00     0.020 A 
ATOM     70  C   UNL A   1      42.512  26.799  27.275  1.00  0.00     0.054 A 
BRANCH  70  71
ATOM     71  S   UNL A   1      42.786  25.679  25.875  1.00  0.00     0.124 S 
ATOM     72  O   UNL A   1      43.910  26.316  25.195  1.00  0.00    -0.237 OA
ATOM     73  O   UNL A   1      43.088  24.412  26.536  1.00  0.00    -0.237 OA
ATOM     74  O   UNL A   1      41.518  25.715  25.149  1.00  0.00    -0.744 OA
ENDBRANCH  70  71
ENDBRANCH  51  65
BRANCH  52  75
ATOM     75  C   UNL A   1      40.249  34.673  37.093  1.00  0.00    -0.014 A 
ATOM     76  C   UNL A   1      39.360  34.276  38.107  1.00  0.00     0.010 A 
ATOM     77  C   UNL A   1      40.869  35.932  37.187  1.00  0.00     0.010 A 
ATOM     78  C   UNL A   1      39.085  35.126  39.183  1.00  0.00     0.020 A 
ATOM     79  C   UNL A   1      40.623  36.772  38.276  1.00  0.00     0.020 A 
ATOM     80  C   UNL A   1      39.723  36.367  39.263  1.00  0.00     0.054 A 
BRANCH  80  81
ATOM     81  S   UNL A   1      39.394  37.431  40.697  1.00  0.00     0.124 S 
ATOM     82  O   UNL A   1      38.381  38.341  40.174  1.00  0.00    -0.237 OA
ATOM     83  O   UNL A   1      38.931  36.473  41.698  1.00  0.00    -0.237 OA
ATOM     84  O   UNL A   1      40.694  38.035  40.978  1.00  0.00    -0.744 OA
ENDBRANCH  80  81
ENDBRANCH  52  75
BRANCH  64  85
ATOM     85  C   UNL A   1      45.416  30.210  35.621  1.00  0.00    -0.014 A 
ATOM     86  C   UNL A   1      45.430  29.186  36.585  1.00  0.00     0.010 A 
ATOM     87  C   UNL A   1      46.624  30.853  35.292  1.00  0.00     0.010 A 
ATOM     88  C   UNL A   1      46.622  28.838  37.230  1.00  0.00     0.020 A 
ATOM     89  C   UNL A   1      47.822  30.486  35.909  1.00  0.00     0.020 A 
ATOM     90  C   UNL A   1      47.810  29.491  36.887  1.00  0.00     0.054 A 
BRANCH  90  91
ATOM     91  S   UNL A   1      49.348  28.991  37.709  1.00  0.00     0.124 S 
ATOM     92  O   UNL A   1      50.226  30.123  37.425  1.00  0.00    -0.237 OA
ATOM     93  O   UNL A   1      48.935  28.850  39.102  1.00  0.00    -0.237 OA
ATOM     94  O   UNL A   1      49.709  27.743  37.042  1.00  0.00    -0.744 OA
ENDBRANCH  90  91
ENDBRANCH  64  85
ENDBRANCH  38  39
ENDBRANCH  31  33
ENDBRANCH  30  31
ENDBRANCH  29  30
ENDBRANCH  28  29
ENDBRANCH   1  28
TORSDOF 20
ENDMDL
