MODEL 1
REMARK VINA RESULT:     -10.2      0.000      0.000
REMARK SMILES C[C@@](CC(=O)Nc1ccc(NC(=O)c2ccco2)cc1)(C(=O)OCCOCCOC(=O)c1ccc(-c2c3nc(c(-c4ccc(S(=O)(=O)[O-])cc4)c4ccc([nH]4)c(-c4ccc(S(=O)(=O)[O-])cc4)c4nc(c(-c5ccc(S(=O)(=O)[O-])cc5)c5ccc2[nH]5)C=C4)C=C3)cc1)c1ccccc1
REMARK SMILES IDX 25 1 24 2 23 3 21 4 22 5 2 6 1 7 3 8 4 9 5 10 6 11 7 13 8 14
REMARK SMILES IDX 20 15 9 16 19 17 10 18 11 19 12 20 13 22 14 23 15 24 18 25
REMARK SMILES IDX 16 26 17 27 92 28 93 29 97 30 94 31 96 32 95 33 26 34 27 35
REMARK SMILES IDX 28 36 29 37 30 38 31 39 32 40 33 41 91 42 34 43 90 44 35 45
REMARK SMILES IDX 36 46 37 47 84 48 38 49 89 50 83 51 85 52 39 53 88 54 82 55
REMARK SMILES IDX 81 56 40 58 70 59 51 60 69 61 52 62 55 63 68 64 86 65 53 66
REMARK SMILES IDX 54 67 67 69 87 70 56 71 41 72 42 73 50 74 43 75 49 76 44 77
REMARK SMILES IDX 45 78 46 79 47 80 48 81 71 82 72 83 80 84 73 85 79 86 74 87
REMARK SMILES IDX 75 88 76 89 77 90 78 91 57 92 58 93 66 94 59 95 65 96 60 97
REMARK SMILES IDX 61 98 62 99 63 100 64 101
REMARK H PARENT 6 12 11 21 85 57 55 68
REMARK Flexibility Score: inf
ROOT
ATOM      1  C   UNL A   1      35.621  18.899  24.596  1.00  0.00     0.202 C 
ENDROOT
BRANCH   1   2
ATOM      2  C   UNL A   1      34.144  19.254  24.410  1.00  0.00     0.261 C 
BRANCH   2   3
ATOM      3  O   UNL A   1      33.820  20.385  25.236  1.00  0.00    -0.463 OA
BRANCH   3   4
ATOM      4  C   UNL A   1      32.543  20.848  25.141  1.00  0.00     0.316 C 
ATOM      5  O   UNL A   1      31.551  20.132  25.074  1.00  0.00    -0.251 OA
BRANCH   4   6
ATOM      6  C   UNL A   1      32.501  22.392  25.140  1.00  0.00     0.099 C 
ATOM      7  C   UNL A   1      31.662  23.010  23.997  1.00  0.00     0.029 C 
BRANCH   6   8
ATOM      8  C   UNL A   1      31.854  22.838  26.487  1.00  0.00     0.123 C 
BRANCH   8   9
ATOM      9  C   UNL A   1      30.323  23.050  26.552  1.00  0.00     0.225 C 
ATOM     10  O   UNL A   1      29.577  22.078  26.700  1.00  0.00    -0.275 OA
ATOM     11  N   UNL A   1      29.781  24.309  26.671  1.00  0.00    -0.326 N 
ATOM     12  H   UNL A   1      28.932  24.358  27.170  1.00  0.00     0.169 HD
BRANCH  11  13
ATOM     13  C   UNL A   1      30.260  25.528  26.184  1.00  0.00     0.041 A 
ATOM     14  C   UNL A   1      31.192  26.262  26.898  1.00  0.00     0.028 A 
ATOM     15  C   UNL A   1      29.742  26.090  25.032  1.00  0.00     0.028 A 
ATOM     16  C   UNL A   1      31.811  27.367  26.292  1.00  0.00     0.028 A 
ATOM     17  C   UNL A   1      30.402  27.140  24.389  1.00  0.00     0.028 A 
ATOM     18  C   UNL A   1      31.523  27.722  24.974  1.00  0.00     0.041 A 
BRANCH  18  19
ATOM     19  N   UNL A   1      32.303  28.548  24.140  1.00  0.00    -0.319 N 
ATOM     20  C   UNL A   1      32.817  28.404  22.868  1.00  0.00     0.291 C 
ATOM     21  H   UNL A   1      32.530  29.412  24.555  1.00  0.00     0.170 HD
ATOM     22  O   UNL A   1      33.250  29.418  22.314  1.00  0.00    -0.265 OA
BRANCH  20  23
ATOM     23  C   UNL A   1      32.856  27.110  22.246  1.00  0.00     0.191 A 
ATOM     24  C   UNL A   1      33.694  26.021  22.398  1.00  0.00     0.056 A 
ATOM     25  O   UNL A   1      31.917  26.840  21.290  1.00  0.00    -0.459 OA
ATOM     26  C   UNL A   1      33.291  25.071  21.425  1.00  0.00     0.043 A 
ATOM     27  C   UNL A   1      32.190  25.606  20.798  1.00  0.00     0.196 A 
ENDBRANCH  20  23
ENDBRANCH  18  19
ENDBRANCH  11  13
ENDBRANCH   8   9
ENDBRANCH   6   8
BRANCH   6  28
ATOM     28  C   UNL A   1      33.919  22.943  24.816  1.00  0.00    -0.030 A 
ATOM     29  C   UNL A   1      34.599  22.705  23.619  1.00  0.00     0.005 A 
ATOM     30  C   UNL A   1      34.620  23.635  25.840  1.00  0.00     0.005 A 
ATOM     31  C   UNL A   1      35.949  23.062  23.491  1.00  0.00     0.000 A 
ATOM     32  C   UNL A   1      35.972  23.946  25.729  1.00  0.00     0.000 A 
ATOM     33  C   UNL A   1      36.641  23.647  24.552  1.00  0.00     0.000 A 
ENDBRANCH   6  28
ENDBRANCH   4   6
ENDBRANCH   3   4
ENDBRANCH   2   3
ENDBRANCH   1   2
BRANCH   1  34
ATOM     34  O   UNL A   1      36.470  19.931  25.113  1.00  0.00    -0.374 OA
BRANCH  34  35
ATOM     35  C   UNL A   1      37.857  19.642  25.250  1.00  0.00     0.202 C 
BRANCH  35  36
ATOM     36  C   UNL A   1      38.840  20.825  25.228  1.00  0.00     0.261 C 
BRANCH  36  37
ATOM     37  O   UNL A   1      39.640  20.931  26.412  1.00  0.00    -0.460 OA
BRANCH  37  38
ATOM     38  C   UNL A   1      40.890  20.435  26.252  1.00  0.00     0.338 C 
ATOM     39  O   UNL A   1      41.185  19.307  25.854  1.00  0.00    -0.246 OA
BRANCH  38  40
ATOM     40  C   UNL A   1      41.913  21.469  26.457  1.00  0.00     0.060 A 
ATOM     41  C   UNL A   1      42.352  21.661  27.771  1.00  0.00     0.016 A 
ATOM     42  C   UNL A   1      42.343  22.315  25.433  1.00  0.00     0.016 A 
ATOM     43  C   UNL A   1      43.139  22.760  28.089  1.00  0.00     0.010 A 
ATOM     44  C   UNL A   1      43.135  23.425  25.753  1.00  0.00     0.010 A 
ATOM     45  C   UNL A   1      43.477  23.685  27.093  1.00  0.00    -0.014 A 
BRANCH  45  46
ATOM     46  C   UNL A   1      43.976  25.016  27.526  1.00  0.00     0.031 A 
ATOM     47  C   UNL A   1      45.422  25.360  27.271  1.00  0.00     0.074 A 
ATOM     48  C   UNL A   1      43.135  25.942  28.018  1.00  0.00     0.049 A 
ATOM     49  N   UNL A   1      46.048  26.494  27.453  1.00  0.00    -0.248 NA
ATOM     50  C   UNL A   1      46.272  24.286  26.730  1.00  0.00     0.031 C 
ATOM     51  C   UNL A   1      41.705  25.746  28.258  1.00  0.00     0.029 A 
ATOM     52  N   UNL A   1      43.361  27.247  28.381  1.00  0.00    -0.354 N 
ATOM     53  C   UNL A   1      47.363  26.267  27.058  1.00  0.00     0.074 A 
ATOM     54  C   UNL A   1      47.453  24.881  26.658  1.00  0.00     0.031 C 
ATOM     55  C   UNL A   1      41.178  26.896  28.712  1.00  0.00     0.029 A 
ATOM     56  C   UNL A   1      42.234  27.902  28.814  1.00  0.00     0.049 A 
ATOM     57  H   UNL A   1      44.247  27.672  28.334  1.00  0.00     0.167 HD
ATOM     58  C   UNL A   1      48.401  27.136  27.018  1.00  0.00     0.031 A 
ATOM     59  C   UNL A   1      42.073  29.170  29.241  1.00  0.00     0.031 A 
ATOM     60  C   UNL A   1      48.311  28.516  27.416  1.00  0.00     0.049 A 
ATOM     61  C   UNL A   1      43.253  30.105  29.235  1.00  0.00     0.074 A 
ATOM     62  C   UNL A   1      49.302  29.482  27.402  1.00  0.00     0.029 A 
ATOM     63  N   UNL A   1      47.163  29.125  27.898  1.00  0.00    -0.354 N 
ATOM     64  N   UNL A   1      44.485  29.879  28.840  1.00  0.00    -0.248 NA
ATOM     65  C   UNL A   1      43.017  31.474  29.714  1.00  0.00     0.031 C 
ATOM     66  C   UNL A   1      48.766  30.662  27.929  1.00  0.00     0.029 A 
ATOM     67  C   UNL A   1      47.425  30.448  28.209  1.00  0.00     0.049 A 
ATOM     68  H   UNL A   1      46.290  28.681  28.005  1.00  0.00     0.167 HD
ATOM     69  C   UNL A   1      45.158  31.087  28.988  1.00  0.00     0.074 A 
ATOM     70  C   UNL A   1      44.196  32.042  29.500  1.00  0.00     0.031 C 
ATOM     71  C   UNL A   1      46.455  31.384  28.717  1.00  0.00     0.031 A 
BRANCH  58  72
ATOM     72  C   UNL A   1      49.736  26.603  26.565  1.00  0.00    -0.014 A 
ATOM     73  C   UNL A   1      50.178  26.757  25.238  1.00  0.00     0.010 A 
ATOM     74  C   UNL A   1      50.573  25.958  27.493  1.00  0.00     0.010 A 
ATOM     75  C   UNL A   1      51.412  26.238  24.838  1.00  0.00     0.020 A 
ATOM     76  C   UNL A   1      51.820  25.460  27.104  1.00  0.00     0.020 A 
ATOM     77  C   UNL A   1      52.224  25.588  25.774  1.00  0.00     0.054 A 
BRANCH  77  78
ATOM     78  S   UNL A   1      53.827  24.934  25.234  1.00  0.00     0.124 S 
ATOM     79  O   UNL A   1      54.018  25.621  23.958  1.00  0.00    -0.237 OA
ATOM     80  O   UNL A   1      54.723  25.349  26.310  1.00  0.00    -0.237 OA
ATOM     81  O   UNL A   1      53.601  23.494  25.138  1.00  0.00    -0.744 OA
ENDBRANCH  77  78
ENDBRANCH  58  72
BRANCH  59  82
ATOM     82  C   UNL A   1      40.736  29.634  29.704  1.00  0.00    -0.014 A 
ATOM     83  C   UNL A   1      40.452  29.766  31.075  1.00  0.00     0.010 A 
ATOM     84  C   UNL A   1      39.734  29.945  28.767  1.00  0.00     0.010 A 
ATOM     85  C   UNL A   1      39.185  30.179  31.500  1.00  0.00     0.020 A 
ATOM     86  C   UNL A   1      38.476  30.386  29.185  1.00  0.00     0.020 A 
ATOM     87  C   UNL A   1      38.205  30.489  30.551  1.00  0.00     0.054 A 
BRANCH  87  88
ATOM     88  S   UNL A   1      36.583  31.067  31.121  1.00  0.00     0.124 S 
ATOM     89  O   UNL A   1      36.167  29.984  32.005  1.00  0.00    -0.237 OA
ATOM     90  O   UNL A   1      36.912  32.331  31.778  1.00  0.00    -0.237 OA
ATOM     91  O   UNL A   1      35.814  31.199  29.885  1.00  0.00    -0.744 OA
ENDBRANCH  87  88
ENDBRANCH  59  82
BRANCH  71  92
ATOM     92  C   UNL A   1      46.896  32.811  28.920  1.00  0.00    -0.014 A 
ATOM     93  C   UNL A   1      47.441  33.247  30.140  1.00  0.00     0.010 A 
ATOM     94  C   UNL A   1      46.791  33.721  27.852  1.00  0.00     0.010 A 
ATOM     95  C   UNL A   1      47.827  34.580  30.304  1.00  0.00     0.020 A 
ATOM     96  C   UNL A   1      47.204  35.047  28.002  1.00  0.00     0.020 A 
ATOM     97  C   UNL A   1      47.700  35.473  29.235  1.00  0.00     0.054 A 
BRANCH  97  98
ATOM     98  S   UNL A   1      48.222  37.195  29.466  1.00  0.00     0.124 S 
ATOM     99  O   UNL A   1      49.042  37.104  30.671  1.00  0.00    -0.237 OA
ATOM    100  O   UNL A   1      48.949  37.480  28.231  1.00  0.00    -0.237 OA
ATOM    101  O   UNL A   1      46.963  37.919  29.621  1.00  0.00    -0.744 OA
ENDBRANCH  97  98
ENDBRANCH  71  92
ENDBRANCH  45  46
ENDBRANCH  38  40
ENDBRANCH  37  38
ENDBRANCH  36  37
ENDBRANCH  35  36
ENDBRANCH  34  35
ENDBRANCH   1  34
TORSDOF 23
ENDMDL
MODEL 2
REMARK VINA RESULT:     -10.2      5.688     11.439
REMARK SMILES C[C@@](CC(=O)Nc1ccc(NC(=O)c2ccco2)cc1)(C(=O)OCCOCCOC(=O)c1ccc(-c2c3nc(c(-c4ccc(S(=O)(=O)[O-])cc4)c4ccc([nH]4)c(-c4ccc(S(=O)(=O)[O-])cc4)c4nc(c(-c5ccc(S(=O)(=O)[O-])cc5)c5ccc2[nH]5)C=C4)C=C3)cc1)c1ccccc1
REMARK SMILES IDX 25 1 24 2 23 3 21 4 22 5 2 6 1 7 3 8 4 9 5 10 6 11 7 13 8 14
REMARK SMILES IDX 20 15 9 16 19 17 10 18 11 19 12 20 13 22 14 23 15 24 18 25
REMARK SMILES IDX 16 26 17 27 92 28 93 29 97 30 94 31 96 32 95 33 26 34 27 35
REMARK SMILES IDX 28 36 29 37 30 38 31 39 32 40 33 41 91 42 34 43 90 44 35 45
REMARK SMILES IDX 36 46 37 47 84 48 38 49 89 50 83 51 85 52 39 53 88 54 82 55
REMARK SMILES IDX 81 56 40 58 70 59 51 60 69 61 52 62 55 63 68 64 86 65 53 66
REMARK SMILES IDX 54 67 67 69 87 70 56 71 41 72 42 73 50 74 43 75 49 76 44 77
REMARK SMILES IDX 45 78 46 79 47 80 48 81 71 82 72 83 80 84 73 85 79 86 74 87
REMARK SMILES IDX 75 88 76 89 77 90 78 91 57 92 58 93 66 94 59 95 65 96 60 97
REMARK SMILES IDX 61 98 62 99 63 100 64 101
REMARK H PARENT 6 12 11 21 85 57 55 68
REMARK Flexibility Score: inf
ROOT
ATOM      1  C   UNL A   1      31.634  29.753  26.859  1.00  0.00     0.202 C 
ENDROOT
BRANCH   1   2
ATOM      2  C   UNL A   1      32.377  28.665  26.081  1.00  0.00     0.261 C 
BRANCH   2   3
ATOM      3  O   UNL A   1      31.911  28.650  24.721  1.00  0.00    -0.463 OA
BRANCH   3   4
ATOM      4  C   UNL A   1      32.755  28.102  23.805  1.00  0.00     0.316 C 
ATOM      5  O   UNL A   1      33.851  28.567  23.510  1.00  0.00    -0.251 OA
BRANCH   4   6
ATOM      6  C   UNL A   1      32.164  26.814  23.191  1.00  0.00     0.099 C 
ATOM      7  C   UNL A   1      30.705  26.951  22.697  1.00  0.00     0.029 C 
BRANCH   6   8
ATOM      8  C   UNL A   1      33.042  26.445  21.956  1.00  0.00     0.123 C 
BRANCH   8   9
ATOM      9  C   UNL A   1      32.464  25.499  20.879  1.00  0.00     0.225 C 
ATOM     10  O   UNL A   1      31.816  25.965  19.937  1.00  0.00    -0.275 OA
ATOM     11  N   UNL A   1      32.835  24.174  20.818  1.00  0.00    -0.326 N 
ATOM     12  H   UNL A   1      32.844  23.779  19.916  1.00  0.00     0.169 HD
BRANCH  11  13
ATOM     13  C   UNL A   1      33.198  23.310  21.855  1.00  0.00     0.041 A 
ATOM     14  C   UNL A   1      34.501  23.267  22.320  1.00  0.00     0.028 A 
ATOM     15  C   UNL A   1      32.297  22.398  22.372  1.00  0.00     0.028 A 
ATOM     16  C   UNL A   1      34.791  22.551  23.493  1.00  0.00     0.028 A 
ATOM     17  C   UNL A   1      32.555  21.745  23.580  1.00  0.00     0.028 A 
ATOM     18  C   UNL A   1      33.785  21.908  24.213  1.00  0.00     0.041 A 
BRANCH  18  19
ATOM     19  N   UNL A   1      33.858  21.477  25.552  1.00  0.00    -0.319 N 
ATOM     20  C   UNL A   1      34.734  21.731  26.589  1.00  0.00     0.291 C 
ATOM     21  H   UNL A   1      33.131  20.861  25.801  1.00  0.00     0.170 HD
ATOM     22  O   UNL A   1      34.381  21.398  27.722  1.00  0.00    -0.265 OA
BRANCH  20  23
ATOM     23  C   UNL A   1      36.007  22.341  26.325  1.00  0.00     0.191 A 
ATOM     24  C   UNL A   1      36.444  23.653  26.356  1.00  0.00     0.056 A 
ATOM     25  O   UNL A   1      37.033  21.522  25.942  1.00  0.00    -0.459 OA
ATOM     26  C   UNL A   1      37.783  23.636  25.890  1.00  0.00     0.043 A 
ATOM     27  C   UNL A   1      38.102  22.314  25.680  1.00  0.00     0.196 A 
ENDBRANCH  20  23
ENDBRANCH  18  19
ENDBRANCH  11  13
ENDBRANCH   8   9
ENDBRANCH   6   8
BRANCH   6  28
ATOM     28  C   UNL A   1      32.015  25.738  24.304  1.00  0.00    -0.030 A 
ATOM     29  C   UNL A   1      30.822  25.074  24.599  1.00  0.00     0.005 A 
ATOM     30  C   UNL A   1      33.128  25.493  25.153  1.00  0.00     0.005 A 
ATOM     31  C   UNL A   1      30.725  24.274  25.748  1.00  0.00     0.000 A 
ATOM     32  C   UNL A   1      33.016  24.738  26.318  1.00  0.00     0.000 A 
ATOM     33  C   UNL A   1      31.805  24.137  26.621  1.00  0.00     0.000 A 
ENDBRANCH   6  28
ENDBRANCH   4   6
ENDBRANCH   3   4
ENDBRANCH   2   3
ENDBRANCH   1   2
BRANCH   1  34
ATOM     34  O   UNL A   1      32.280  31.029  26.956  1.00  0.00    -0.374 OA
BRANCH  34  35
ATOM     35  C   UNL A   1      33.693  31.044  27.124  1.00  0.00     0.202 C 
BRANCH  35  36
ATOM     36  C   UNL A   1      34.296  32.148  28.010  1.00  0.00     0.261 C 
BRANCH  36  37
ATOM     37  O   UNL A   1      33.875  33.469  27.651  1.00  0.00    -0.460 OA
BRANCH  37  38
ATOM     38  C   UNL A   1      33.688  34.275  28.724  1.00  0.00     0.338 C 
ATOM     39  O   UNL A   1      32.680  34.936  28.977  1.00  0.00    -0.246 OA
BRANCH  38  40
ATOM     40  C   UNL A   1      34.792  34.159  29.687  1.00  0.00     0.060 A 
ATOM     41  C   UNL A   1      36.071  34.466  29.210  1.00  0.00     0.016 A 
ATOM     42  C   UNL A   1      34.616  33.647  30.974  1.00  0.00     0.016 A 
ATOM     43  C   UNL A   1      37.190  34.165  29.976  1.00  0.00     0.010 A 
ATOM     44  C   UNL A   1      35.745  33.342  31.746  1.00  0.00     0.010 A 
ATOM     45  C   UNL A   1      37.035  33.539  31.219  1.00  0.00    -0.014 A 
BRANCH  45  46
ATOM     46  C   UNL A   1      38.229  32.895  31.823  1.00  0.00     0.031 A 
ATOM     47  C   UNL A   1      38.663  33.332  33.200  1.00  0.00     0.074 A 
ATOM     48  C   UNL A   1      38.838  31.861  31.217  1.00  0.00     0.049 A 
ATOM     49  N   UNL A   1      39.597  32.837  33.970  1.00  0.00    -0.248 NA
ATOM     50  C   UNL A   1      37.942  34.473  33.790  1.00  0.00     0.031 C 
ATOM     51  C   UNL A   1      38.474  31.312  29.910  1.00  0.00     0.029 A 
ATOM     52  N   UNL A   1      39.877  31.069  31.637  1.00  0.00    -0.354 N 
ATOM     53  C   UNL A   1      39.580  33.608  35.129  1.00  0.00     0.074 A 
ATOM     54  C   UNL A   1      38.568  34.624  34.947  1.00  0.00     0.031 C 
ATOM     55  C   UNL A   1      39.268  30.260  29.644  1.00  0.00     0.029 A 
ATOM     56  C   UNL A   1      40.207  30.074  30.749  1.00  0.00     0.049 A 
ATOM     57  H   UNL A   1      40.342  31.202  32.494  1.00  0.00     0.167 HD
ATOM     58  C   UNL A   1      40.329  33.478  36.249  1.00  0.00     0.031 A 
ATOM     59  C   UNL A   1      41.156  29.121  30.821  1.00  0.00     0.031 A 
ATOM     60  C   UNL A   1      41.336  32.466  36.429  1.00  0.00     0.049 A 
ATOM     61  C   UNL A   1      42.012  29.025  32.057  1.00  0.00     0.074 A 
ATOM     62  C   UNL A   1      42.142  32.241  37.531  1.00  0.00     0.029 A 
ATOM     63  N   UNL A   1      41.674  31.511  35.483  1.00  0.00    -0.354 N 
ATOM     64  N   UNL A   1      41.969  29.751  33.150  1.00  0.00    -0.248 NA
ATOM     65  C   UNL A   1      43.031  27.967  32.077  1.00  0.00     0.031 C 
ATOM     66  C   UNL A   1      43.007  31.183  37.229  1.00  0.00     0.029 A 
ATOM     67  C   UNL A   1      42.694  30.708  35.965  1.00  0.00     0.049 A 
ATOM     68  H   UNL A   1      41.252  31.418  34.598  1.00  0.00     0.167 HD
ATOM     69  C   UNL A   1      42.930  29.212  34.000  1.00  0.00     0.074 A 
ATOM     70  C   UNL A   1      43.530  28.096  33.298  1.00  0.00     0.031 C 
ATOM     71  C   UNL A   1      43.279  29.601  35.253  1.00  0.00     0.031 A 
BRANCH  58  72
ATOM     72  C   UNL A   1      40.114  34.482  37.350  1.00  0.00    -0.014 A 
ATOM     73  C   UNL A   1      39.113  34.304  38.324  1.00  0.00     0.010 A 
ATOM     74  C   UNL A   1      40.945  35.615  37.425  1.00  0.00     0.010 A 
ATOM     75  C   UNL A   1      38.920  35.260  39.325  1.00  0.00     0.020 A 
ATOM     76  C   UNL A   1      40.773  36.561  38.440  1.00  0.00     0.020 A 
ATOM     77  C   UNL A   1      39.750  36.386  39.374  1.00  0.00     0.054 A 
BRANCH  77  78
ATOM     78  S   UNL A   1      39.490  37.606  40.690  1.00  0.00     0.124 S 
ATOM     79  O   UNL A   1      39.371  36.753  41.871  1.00  0.00    -0.237 OA
ATOM     80  O   UNL A   1      40.702  38.417  40.621  1.00  0.00    -0.237 OA
ATOM     81  O   UNL A   1      38.262  38.291  40.291  1.00  0.00    -0.744 OA
ENDBRANCH  77  78
ENDBRANCH  58  72
BRANCH  59  82
ATOM     82  C   UNL A   1      41.344  28.171  29.689  1.00  0.00    -0.014 A 
ATOM     83  C   UNL A   1      40.532  27.031  29.559  1.00  0.00     0.010 A 
ATOM     84  C   UNL A   1      42.348  28.407  28.731  1.00  0.00     0.010 A 
ATOM     85  C   UNL A   1      40.733  26.134  28.506  1.00  0.00     0.020 A 
ATOM     86  C   UNL A   1      42.534  27.528  27.662  1.00  0.00     0.020 A 
ATOM     87  C   UNL A   1      41.733  26.389  27.562  1.00  0.00     0.054 A 
BRANCH  87  88
ATOM     88  S   UNL A   1      41.948  25.238  26.177  1.00  0.00     0.124 S 
ATOM     89  O   UNL A   1      41.538  26.052  25.038  1.00  0.00    -0.237 OA
ATOM     90  O   UNL A   1      43.373  24.921  26.249  1.00  0.00    -0.237 OA
ATOM     91  O   UNL A   1      41.054  24.131  26.511  1.00  0.00    -0.744 OA
ENDBRANCH  87  88
ENDBRANCH  59  82
BRANCH  71  92
ATOM     92  C   UNL A   1      44.324  28.782  35.966  1.00  0.00    -0.014 A 
ATOM     93  C   UNL A   1      45.686  29.126  35.923  1.00  0.00     0.010 A 
ATOM     94  C   UNL A   1      43.923  27.664  36.722  1.00  0.00     0.010 A 
ATOM     95  C   UNL A   1      46.634  28.339  36.582  1.00  0.00     0.020 A 
ATOM     96  C   UNL A   1      44.864  26.892  37.407  1.00  0.00     0.020 A 
ATOM     97  C   UNL A   1      46.217  27.222  37.315  1.00  0.00     0.054 A 
BRANCH  97  98
ATOM     98  S   UNL A   1      47.463  26.224  38.174  1.00  0.00     0.124 S 
ATOM     99  O   UNL A   1      46.765  24.953  38.350  1.00  0.00    -0.237 OA
ATOM    100  O   UNL A   1      48.572  26.204  37.223  1.00  0.00    -0.237 OA
ATOM    101  O   UNL A   1      47.718  26.972  39.403  1.00  0.00    -0.744 OA
ENDBRANCH  97  98
ENDBRANCH  71  92
ENDBRANCH  45  46
ENDBRANCH  38  40
ENDBRANCH  37  38
ENDBRANCH  36  37
ENDBRANCH  35  36
ENDBRANCH  34  35
ENDBRANCH   1  34
TORSDOF 23
ENDMDL
MODEL 3
REMARK VINA RESULT:     -10.1      1.920      3.101
REMARK SMILES C[C@@](CC(=O)Nc1ccc(NC(=O)c2ccco2)cc1)(C(=O)OCCOCCOC(=O)c1ccc(-c2c3nc(c(-c4ccc(S(=O)(=O)[O-])cc4)c4ccc([nH]4)c(-c4ccc(S(=O)(=O)[O-])cc4)c4nc(c(-c5ccc(S(=O)(=O)[O-])cc5)c5ccc2[nH]5)C=C4)C=C3)cc1)c1ccccc1
REMARK SMILES IDX 25 1 24 2 23 3 21 4 22 5 2 6 1 7 3 8 4 9 5 10 6 11 7 13 8 14
REMARK SMILES IDX 20 15 9 16 19 17 10 18 11 19 12 20 13 22 14 23 15 24 18 25
REMARK SMILES IDX 16 26 17 27 92 28 93 29 97 30 94 31 96 32 95 33 26 34 27 35
REMARK SMILES IDX 28 36 29 37 30 38 31 39 32 40 33 41 91 42 34 43 90 44 35 45
REMARK SMILES IDX 36 46 37 47 84 48 38 49 89 50 83 51 85 52 39 53 88 54 82 55
REMARK SMILES IDX 81 56 40 58 70 59 51 60 69 61 52 62 55 63 68 64 86 65 53 66
REMARK SMILES IDX 54 67 67 69 87 70 56 71 41 72 42 73 50 74 43 75 49 76 44 77
REMARK SMILES IDX 45 78 46 79 47 80 48 81 71 82 72 83 80 84 73 85 79 86 74 87
REMARK SMILES IDX 75 88 76 89 77 90 78 91 57 92 58 93 66 94 59 95 65 96 60 97
REMARK SMILES IDX 61 98 62 99 63 100 64 101
REMARK H PARENT 6 12 11 21 85 57 55 68
REMARK Flexibility Score: inf
ROOT
ATOM      1  C   UNL A   1      38.305  22.423  25.877  1.00  0.00     0.202 C 
ENDROOT
BRANCH   1   2
ATOM      2  C   UNL A   1      37.395  23.648  25.759  1.00  0.00     0.261 C 
BRANCH   2   3
ATOM      3  O   UNL A   1      36.039  23.215  25.562  1.00  0.00    -0.463 OA
BRANCH   3   4
ATOM      4  C   UNL A   1      35.491  23.499  24.349  1.00  0.00     0.316 C 
ATOM      5  O   UNL A   1      35.898  23.050  23.284  1.00  0.00    -0.251 OA
BRANCH   4   6
ATOM      6  C   UNL A   1      34.282  24.452  24.484  1.00  0.00     0.099 C 
ATOM      7  C   UNL A   1      34.491  25.616  25.481  1.00  0.00     0.029 C 
BRANCH   6   8
ATOM      8  C   UNL A   1      34.030  25.081  23.079  1.00  0.00     0.123 C 
BRANCH   8   9
ATOM      9  C   UNL A   1      32.969  24.445  22.151  1.00  0.00     0.225 C 
ATOM     10  O   UNL A   1      33.272  23.476  21.450  1.00  0.00    -0.275 OA
ATOM     11  N   UNL A   1      31.639  24.788  22.245  1.00  0.00    -0.326 N 
ATOM     12  H   UNL A   1      31.002  24.072  22.019  1.00  0.00     0.169 HD
BRANCH  11  13
ATOM     13  C   UNL A   1      31.066  26.008  22.612  1.00  0.00     0.041 A 
ATOM     14  C   UNL A   1      30.103  26.071  23.604  1.00  0.00     0.028 A 
ATOM     15  C   UNL A   1      31.360  27.171  21.925  1.00  0.00     0.028 A 
ATOM     16  C   UNL A   1      29.700  27.323  24.098  1.00  0.00     0.028 A 
ATOM     17  C   UNL A   1      31.026  28.420  22.456  1.00  0.00     0.028 A 
ATOM     18  C   UNL A   1      30.274  28.502  23.625  1.00  0.00     0.041 A 
BRANCH  18  19
ATOM     19  N   UNL A   1      30.240  29.762  24.257  1.00  0.00    -0.319 N 
ATOM     20  C   UNL A   1      31.028  30.369  25.213  1.00  0.00     0.291 C 
ATOM     21  H   UNL A   1      29.495  30.328  23.951  1.00  0.00     0.170 HD
ATOM     22  O   UNL A   1      30.886  31.583  25.376  1.00  0.00    -0.265 OA
BRANCH  20  23
ATOM     23  C   UNL A   1      31.952  29.590  25.989  1.00  0.00     0.191 A 
ATOM     24  C   UNL A   1      31.779  28.662  27.001  1.00  0.00     0.056 A 
ATOM     25  O   UNL A   1      33.286  29.763  25.746  1.00  0.00    -0.459 OA
ATOM     26  C   UNL A   1      33.079  28.316  27.448  1.00  0.00     0.043 A 
ATOM     27  C   UNL A   1      33.959  28.990  26.634  1.00  0.00     0.196 A 
ENDBRANCH  20  23
ENDBRANCH  18  19
ENDBRANCH  11  13
ENDBRANCH   8   9
ENDBRANCH   6   8
BRANCH   6  28
ATOM     28  C   UNL A   1      33.099  23.687  25.144  1.00  0.00    -0.030 A 
ATOM     29  C   UNL A   1      32.716  22.388  24.801  1.00  0.00     0.005 A 
ATOM     30  C   UNL A   1      32.281  24.388  26.070  1.00  0.00     0.005 A 
ATOM     31  C   UNL A   1      31.518  21.853  25.296  1.00  0.00     0.000 A 
ATOM     32  C   UNL A   1      31.069  23.874  26.521  1.00  0.00     0.000 A 
ATOM     33  C   UNL A   1      30.681  22.605  26.122  1.00  0.00     0.000 A 
ENDBRANCH   6  28
ENDBRANCH   4   6
ENDBRANCH   3   4
ENDBRANCH   2   3
ENDBRANCH   1   2
BRANCH   1  34
ATOM     34  O   UNL A   1      37.696  21.145  25.650  1.00  0.00    -0.374 OA
BRANCH  34  35
ATOM     35  C   UNL A   1      38.521  19.991  25.750  1.00  0.00     0.202 C 
BRANCH  35  36
ATOM     36  C   UNL A   1      40.046  20.197  25.728  1.00  0.00     0.261 C 
BRANCH  36  37
ATOM     37  O   UNL A   1      40.615  20.431  27.022  1.00  0.00    -0.460 OA
BRANCH  37  38
ATOM     38  C   UNL A   1      41.854  20.975  26.964  1.00  0.00     0.338 C 
ATOM     39  O   UNL A   1      42.829  20.516  26.365  1.00  0.00    -0.246 OA
BRANCH  38  40
ATOM     40  C   UNL A   1      41.890  22.308  27.580  1.00  0.00     0.060 A 
ATOM     41  C   UNL A   1      41.380  23.363  26.815  1.00  0.00     0.016 A 
ATOM     42  C   UNL A   1      42.512  22.554  28.806  1.00  0.00     0.016 A 
ATOM     43  C   UNL A   1      41.581  24.676  27.218  1.00  0.00     0.010 A 
ATOM     44  C   UNL A   1      42.717  23.880  29.212  1.00  0.00     0.010 A 
ATOM     45  C   UNL A   1      42.310  24.943  28.384  1.00  0.00    -0.014 A 
BRANCH  45  46
ATOM     46  C   UNL A   1      42.829  26.321  28.576  1.00  0.00     0.031 A 
ATOM     47  C   UNL A   1      44.245  26.622  28.154  1.00  0.00     0.074 A 
ATOM     48  C   UNL A   1      42.022  27.311  28.997  1.00  0.00     0.049 A 
ATOM     49  N   UNL A   1      44.873  27.769  28.118  1.00  0.00    -0.248 NA
ATOM     50  C   UNL A   1      45.059  25.479  27.706  1.00  0.00     0.031 C 
ATOM     51  C   UNL A   1      40.619  27.153  29.381  1.00  0.00     0.029 A 
ATOM     52  N   UNL A   1      42.264  28.653  29.147  1.00  0.00    -0.354 N 
ATOM     53  C   UNL A   1      46.153  27.485  27.650  1.00  0.00     0.074 A 
ATOM     54  C   UNL A   1      46.224  26.055  27.450  1.00  0.00     0.031 C 
ATOM     55  C   UNL A   1      40.120  28.359  29.706  1.00  0.00     0.029 A 
ATOM     56  C   UNL A   1      41.170  29.367  29.573  1.00  0.00     0.049 A 
ATOM     57  H   UNL A   1      43.139  29.066  28.966  1.00  0.00     0.167 HD
ATOM     58  C   UNL A   1      47.176  28.336  27.399  1.00  0.00     0.031 A 
ATOM     59  C   UNL A   1      41.032  30.684  29.823  1.00  0.00     0.031 A 
ATOM     60  C   UNL A   1      47.104  29.759  27.598  1.00  0.00     0.049 A 
ATOM     61  C   UNL A   1      42.198  31.606  29.583  1.00  0.00     0.074 A 
ATOM     62  C   UNL A   1      48.080  30.712  27.363  1.00  0.00     0.029 A 
ATOM     63  N   UNL A   1      45.994  30.434  28.082  1.00  0.00    -0.354 N 
ATOM     64  N   UNL A   1      43.395  31.322  29.124  1.00  0.00    -0.248 NA
ATOM     65  C   UNL A   1      41.988  33.030  29.877  1.00  0.00     0.031 C 
ATOM     66  C   UNL A   1      47.578  31.957  27.756  1.00  0.00     0.029 A 
ATOM     67  C   UNL A   1      46.267  31.788  28.175  1.00  0.00     0.049 A 
ATOM     68  H   UNL A   1      45.137  30.013  28.324  1.00  0.00     0.167 HD
ATOM     69  C   UNL A   1      44.066  32.538  29.039  1.00  0.00     0.074 A 
ATOM     70  C   UNL A   1      43.140  33.558  29.485  1.00  0.00     0.031 C 
ATOM     71  C   UNL A   1      45.332  32.789  28.621  1.00  0.00     0.031 A 
BRANCH  58  72
ATOM     72  C   UNL A   1      48.473  27.741  26.919  1.00  0.00    -0.014 A 
ATOM     73  C   UNL A   1      48.666  27.388  25.570  1.00  0.00     0.010 A 
ATOM     74  C   UNL A   1      49.527  27.555  27.831  1.00  0.00     0.010 A 
ATOM     75  C   UNL A   1      49.873  26.820  25.153  1.00  0.00     0.020 A 
ATOM     76  C   UNL A   1      50.746  27.011  27.413  1.00  0.00     0.020 A 
ATOM     77  C   UNL A   1      50.904  26.631  26.079  1.00  0.00     0.054 A 
BRANCH  77  78
ATOM     78  S   UNL A   1      52.467  25.905  25.510  1.00  0.00     0.124 S 
ATOM     79  O   UNL A   1      53.437  26.554  26.391  1.00  0.00    -0.237 OA
ATOM     80  O   UNL A   1      52.262  24.478  25.745  1.00  0.00    -0.237 OA
ATOM     81  O   UNL A   1      52.541  26.298  24.105  1.00  0.00    -0.744 OA
ENDBRANCH  77  78
ENDBRANCH  58  72
BRANCH  59  82
ATOM     82  C   UNL A   1      39.733  31.213  30.325  1.00  0.00    -0.014 A 
ATOM     83  C   UNL A   1      38.698  31.550  29.435  1.00  0.00     0.010 A 
ATOM     84  C   UNL A   1      39.529  31.384  31.706  1.00  0.00     0.010 A 
ATOM     85  C   UNL A   1      37.491  32.069  29.915  1.00  0.00     0.020 A 
ATOM     86  C   UNL A   1      38.315  31.876  32.193  1.00  0.00     0.020 A 
ATOM     87  C   UNL A   1      37.307  32.227  31.293  1.00  0.00     0.054 A 
BRANCH  87  88
ATOM     88  S   UNL A   1      35.718  32.858  31.899  1.00  0.00     0.124 S 
ATOM     89  O   UNL A   1      35.655  32.286  33.240  1.00  0.00    -0.237 OA
ATOM     90  O   UNL A   1      35.909  34.306  31.836  1.00  0.00    -0.237 OA
ATOM     91  O   UNL A   1      34.751  32.323  30.943  1.00  0.00    -0.744 OA
ENDBRANCH  87  88
ENDBRANCH  59  82
BRANCH  71  92
ATOM     92  C   UNL A   1      45.774  34.230  28.577  1.00  0.00    -0.014 A 
ATOM     93  C   UNL A   1      46.413  34.838  29.672  1.00  0.00     0.010 A 
ATOM     94  C   UNL A   1      45.572  34.976  27.401  1.00  0.00     0.010 A 
ATOM     95  C   UNL A   1      46.799  36.180  29.608  1.00  0.00     0.020 A 
ATOM     96  C   UNL A   1      45.983  36.309  27.322  1.00  0.00     0.020 A 
ATOM     97  C   UNL A   1      46.575  36.909  28.435  1.00  0.00     0.054 A 
BRANCH  97  98
ATOM     98  S   UNL A   1      47.096  38.644  28.370  1.00  0.00     0.124 S 
ATOM     99  O   UNL A   1      48.522  38.522  28.081  1.00  0.00    -0.237 OA
ATOM    100  O   UNL A   1      46.279  39.186  27.286  1.00  0.00    -0.237 OA
ATOM    101  O   UNL A   1      46.770  39.153  29.700  1.00  0.00    -0.744 OA
ENDBRANCH  97  98
ENDBRANCH  71  92
ENDBRANCH  45  46
ENDBRANCH  38  40
ENDBRANCH  37  38
ENDBRANCH  36  37
ENDBRANCH  35  36
ENDBRANCH  34  35
ENDBRANCH   1  34
TORSDOF 23
ENDMDL
