MODEL 1
REMARK VINA RESULT:      -9.9      0.000      0.000
REMARK SMILES Cc1noc(C)c1COc1ccc(C(=O)OCCOCCOC(=O)c2ccc(-c3c4nc(c(-c5ccc(S(=O)(=O)[O-])cc5)c5ccc([nH]5)c(-c5ccc(S(=O)(=O)[O-])cc5)c5nc(c(-c6ccc(S(=O)(=O)[O-])cc6)c6ccc3[nH]6)C=C5)C=C4)cc2)cc1
REMARK SMILES IDX 19 1 18 2 17 3 16 4 14 5 15 6 13 7 10 8 11 9 86 10 12 11
REMARK SMILES IDX 85 12 9 13 8 14 7 15 1 16 2 17 3 18 4 19 5 20 6 21 20 22
REMARK SMILES IDX 21 23 22 24 23 25 24 26 25 27 26 28 84 29 27 30 83 31 28 32
REMARK SMILES IDX 29 33 30 34 77 35 31 36 82 37 76 38 78 39 32 40 81 41 75 42
REMARK SMILES IDX 74 43 33 45 63 46 44 47 62 48 45 49 48 50 61 51 79 52 46 53
REMARK SMILES IDX 47 54 60 56 80 57 49 58 34 59 35 60 43 61 36 62 42 63 37 64
REMARK SMILES IDX 38 65 39 66 40 67 41 68 64 69 65 70 73 71 66 72 72 73 67 74
REMARK SMILES IDX 68 75 69 76 70 77 71 78 50 79 51 80 59 81 52 82 58 83 53 84
REMARK SMILES IDX 54 85 55 86 56 87 57 88
REMARK H PARENT 78 44 48 55
REMARK Flexibility Score: inf
ROOT
ATOM      1  O   UNL A   1      42.984  22.232  24.751  1.00  0.00    -0.374 OA
ENDROOT
BRANCH   1   2
ATOM      2  C   UNL A   1      42.997  21.287  25.821  1.00  0.00     0.202 C 
BRANCH   2   3
ATOM      3  C   UNL A   1      41.671  21.067  26.555  1.00  0.00     0.261 C 
BRANCH   3   4
ATOM      4  O   UNL A   1      40.582  21.669  25.843  1.00  0.00    -0.460 OA
BRANCH   4   5
ATOM      5  C   UNL A   1      39.720  22.387  26.598  1.00  0.00     0.338 C 
ATOM      6  O   UNL A   1      39.962  22.958  27.653  1.00  0.00    -0.246 OA
BRANCH   5   7
ATOM      7  C   UNL A   1      38.421  22.518  25.894  1.00  0.00     0.060 A 
ATOM      8  C   UNL A   1      35.951  22.855  24.662  1.00  0.00     0.119 A 
ATOM      9  C   UNL A   1      36.505  23.912  25.378  1.00  0.00     0.047 A 
ATOM     10  C   UNL A   1      36.666  21.673  24.470  1.00  0.00     0.047 A 
ATOM     11  C   UNL A   1      37.740  23.740  26.000  1.00  0.00     0.019 A 
ATOM     12  C   UNL A   1      37.893  21.491  25.105  1.00  0.00     0.019 A 
BRANCH   8  13
ATOM     13  O   UNL A   1      34.697  23.021  24.138  1.00  0.00    -0.489 OA
BRANCH  13  14
ATOM     14  C   UNL A   1      33.776  22.058  24.694  1.00  0.00     0.271 C 
BRANCH  14  15
ATOM     15  C   UNL A   1      32.716  22.680  25.528  1.00  0.00     0.055 A 
ATOM     16  C   UNL A   1      33.719  22.388  27.920  1.00  0.00     0.071 C 
ATOM     17  C   UNL A   1      32.695  22.822  26.942  1.00  0.00     0.087 A 
ATOM     18  N   UNL A   1      31.604  23.476  27.351  1.00  0.00    -0.085 NA
ATOM     19  O   UNL A   1      30.907  23.805  26.204  1.00  0.00    -0.361 OA
ATOM     20  C   UNL A   1      31.578  23.344  25.117  1.00  0.00     0.140 A 
ATOM     21  C   UNL A   1      31.000  23.681  23.800  1.00  0.00     0.091 C 
ENDBRANCH  14  15
ENDBRANCH  13  14
ENDBRANCH   8  13
ENDBRANCH   5   7
ENDBRANCH   4   5
ENDBRANCH   3   4
ENDBRANCH   2   3
ENDBRANCH   1   2
BRANCH   1  22
ATOM     22  C   UNL A   1      43.805  23.391  24.893  1.00  0.00     0.202 C 
BRANCH  22  23
ATOM     23  C   UNL A   1      43.512  24.315  26.081  1.00  0.00     0.261 C 
BRANCH  23  24
ATOM     24  O   UNL A   1      43.255  25.670  25.673  1.00  0.00    -0.460 OA
BRANCH  24  25
ATOM     25  C   UNL A   1      42.015  26.124  25.971  1.00  0.00     0.338 C 
ATOM     26  O   UNL A   1      40.988  25.937  25.334  1.00  0.00    -0.246 OA
BRANCH  25  27
ATOM     27  C   UNL A   1      42.015  26.747  27.308  1.00  0.00     0.060 A 
ATOM     28  C   UNL A   1      41.070  26.291  28.236  1.00  0.00     0.016 A 
ATOM     29  C   UNL A   1      42.873  27.801  27.626  1.00  0.00     0.016 A 
ATOM     30  C   UNL A   1      40.945  26.923  29.471  1.00  0.00     0.010 A 
ATOM     31  C   UNL A   1      42.740  28.438  28.864  1.00  0.00     0.010 A 
ATOM     32  C   UNL A   1      41.753  28.025  29.778  1.00  0.00    -0.014 A 
BRANCH  32  33
ATOM     33  C   UNL A   1      41.473  28.828  30.994  1.00  0.00     0.031 A 
ATOM     34  C   UNL A   1      40.327  29.804  30.977  1.00  0.00     0.074 A 
ATOM     35  C   UNL A   1      42.219  28.678  32.103  1.00  0.00     0.049 A 
ATOM     36  N   UNL A   1      39.933  30.634  31.909  1.00  0.00    -0.248 NA
ATOM     37  C   UNL A   1      39.519  29.853  29.748  1.00  0.00     0.031 C 
ATOM     38  C   UNL A   1      43.328  27.736  32.255  1.00  0.00     0.029 A 
ATOM     39  N   UNL A   1      42.157  29.323  33.313  1.00  0.00    -0.354 N 
ATOM     40  C   UNL A   1      38.843  31.311  31.376  1.00  0.00     0.074 A 
ATOM     41  C   UNL A   1      38.654  30.816  30.030  1.00  0.00     0.031 C 
ATOM     42  C   UNL A   1      43.848  27.870  33.487  1.00  0.00     0.029 A 
ATOM     43  C   UNL A   1      43.135  28.932  34.195  1.00  0.00     0.049 A 
ATOM     44  H   UNL A   1      41.477  30.001  33.528  1.00  0.00     0.167 HD
ATOM     45  C   UNL A   1      38.068  32.258  31.956  1.00  0.00     0.031 A 
ATOM     46  C   UNL A   1      43.438  29.394  35.426  1.00  0.00     0.031 A 
ATOM     47  C   UNL A   1      38.266  32.754  33.292  1.00  0.00     0.049 A 
ATOM     48  C   UNL A   1      42.603  30.497  36.024  1.00  0.00     0.074 A 
ATOM     49  C   UNL A   1      37.521  33.697  33.979  1.00  0.00     0.029 A 
ATOM     50  N   UNL A   1      39.284  32.353  34.143  1.00  0.00    -0.354 N 
ATOM     51  N   UNL A   1      41.559  31.110  35.517  1.00  0.00    -0.248 NA
ATOM     52  C   UNL A   1      42.982  30.963  37.365  1.00  0.00     0.031 C 
ATOM     53  C   UNL A   1      38.126  33.912  35.221  1.00  0.00     0.029 A 
ATOM     54  C   UNL A   1      39.205  33.050  35.337  1.00  0.00     0.049 A 
ATOM     55  H   UNL A   1      39.964  31.673  33.931  1.00  0.00     0.167 HD
ATOM     56  C   UNL A   1      41.137  32.009  36.491  1.00  0.00     0.074 A 
ATOM     57  C   UNL A   1      42.031  31.854  37.620  1.00  0.00     0.031 C 
ATOM     58  C   UNL A   1      40.099  32.882  36.455  1.00  0.00     0.031 A 
BRANCH  45  59
ATOM     59  C   UNL A   1      36.951  32.848  31.135  1.00  0.00    -0.014 A 
ATOM     60  C   UNL A   1      37.211  33.724  30.064  1.00  0.00     0.010 A 
ATOM     61  C   UNL A   1      35.620  32.480  31.408  1.00  0.00     0.010 A 
ATOM     62  C   UNL A   1      36.160  34.246  29.306  1.00  0.00     0.020 A 
ATOM     63  C   UNL A   1      34.568  32.977  30.634  1.00  0.00     0.020 A 
ATOM     64  C   UNL A   1      34.845  33.869  29.596  1.00  0.00     0.054 A 
BRANCH  64  65
ATOM     65  S   UNL A   1      33.503  34.540  28.575  1.00  0.00     0.124 S 
ATOM     66  O   UNL A   1      32.507  34.895  29.583  1.00  0.00    -0.237 OA
ATOM     67  O   UNL A   1      34.145  35.665  27.903  1.00  0.00    -0.237 OA
ATOM     68  O   UNL A   1      33.137  33.424  27.706  1.00  0.00    -0.744 OA
ENDBRANCH  64  65
ENDBRANCH  45  59
BRANCH  46  69
ATOM     69  C   UNL A   1      44.598  28.828  36.167  1.00  0.00    -0.014 A 
ATOM     70  C   UNL A   1      45.871  29.415  36.069  1.00  0.00     0.010 A 
ATOM     71  C   UNL A   1      44.433  27.690  36.978  1.00  0.00     0.010 A 
ATOM     72  C   UNL A   1      46.960  28.865  36.752  1.00  0.00     0.020 A 
ATOM     73  C   UNL A   1      45.512  27.155  37.688  1.00  0.00     0.020 A 
ATOM     74  C   UNL A   1      46.773  27.740  37.560  1.00  0.00     0.054 A 
BRANCH  74  75
ATOM     75  S   UNL A   1      48.190  27.074  38.477  1.00  0.00     0.124 S 
ATOM     76  O   UNL A   1      47.730  25.731  38.813  1.00  0.00    -0.237 OA
ATOM     77  O   UNL A   1      49.265  27.149  37.492  1.00  0.00    -0.237 OA
ATOM     78  O   UNL A   1      48.327  27.992  39.607  1.00  0.00    -0.744 OA
ENDBRANCH  74  75
ENDBRANCH  46  69
BRANCH  58  79
ATOM     79  C   UNL A   1      39.836  33.707  37.688  1.00  0.00    -0.014 A 
ATOM     80  C   UNL A   1      38.952  33.272  38.691  1.00  0.00     0.010 A 
ATOM     81  C   UNL A   1      40.540  34.912  37.874  1.00  0.00     0.010 A 
ATOM     82  C   UNL A   1      38.755  34.040  39.842  1.00  0.00     0.020 A 
ATOM     83  C   UNL A   1      40.370  35.667  39.037  1.00  0.00     0.020 A 
ATOM     84  C   UNL A   1      39.466  35.233  40.008  1.00  0.00     0.054 A 
BRANCH  84  85
ATOM     85  S   UNL A   1      39.229  36.187  41.533  1.00  0.00     0.124 S 
ATOM     86  O   UNL A   1      39.140  37.553  41.026  1.00  0.00    -0.237 OA
ATOM     87  O   UNL A   1      37.986  35.634  42.067  1.00  0.00    -0.237 OA
ATOM     88  O   UNL A   1      40.424  35.890  42.318  1.00  0.00    -0.744 OA
ENDBRANCH  84  85
ENDBRANCH  58  79
ENDBRANCH  32  33
ENDBRANCH  25  27
ENDBRANCH  24  25
ENDBRANCH  23  24
ENDBRANCH  22  23
ENDBRANCH   1  22
TORSDOF 20
ENDMDL
MODEL 2
REMARK VINA RESULT:      -9.8      6.635     12.644
REMARK SMILES Cc1noc(C)c1COc1ccc(C(=O)OCCOCCOC(=O)c2ccc(-c3c4nc(c(-c5ccc(S(=O)(=O)[O-])cc5)c5ccc([nH]5)c(-c5ccc(S(=O)(=O)[O-])cc5)c5nc(c(-c6ccc(S(=O)(=O)[O-])cc6)c6ccc3[nH]6)C=C5)C=C4)cc2)cc1
REMARK SMILES IDX 19 1 18 2 17 3 16 4 14 5 15 6 13 7 10 8 11 9 86 10 12 11
REMARK SMILES IDX 85 12 9 13 8 14 7 15 1 16 2 17 3 18 4 19 5 20 6 21 20 22
REMARK SMILES IDX 21 23 22 24 23 25 24 26 25 27 26 28 84 29 27 30 83 31 28 32
REMARK SMILES IDX 29 33 30 34 77 35 31 36 82 37 76 38 78 39 32 40 81 41 75 42
REMARK SMILES IDX 74 43 33 45 63 46 44 47 62 48 45 49 48 50 61 51 79 52 46 53
REMARK SMILES IDX 47 54 60 56 80 57 49 58 34 59 35 60 43 61 36 62 42 63 37 64
REMARK SMILES IDX 38 65 39 66 40 67 41 68 64 69 65 70 73 71 66 72 72 73 67 74
REMARK SMILES IDX 68 75 69 76 70 77 71 78 50 79 51 80 59 81 52 82 58 83 53 84
REMARK SMILES IDX 54 85 55 86 56 87 57 88
REMARK H PARENT 78 44 48 55
REMARK Flexibility Score: inf
ROOT
ATOM      1  O   UNL A   1      34.248  30.758  27.425  1.00  0.00    -0.374 OA
ENDROOT
BRANCH   1   2
ATOM      2  C   UNL A   1      32.975  30.170  27.158  1.00  0.00     0.202 C 
BRANCH   2   3
ATOM      3  C   UNL A   1      32.832  28.678  27.470  1.00  0.00     0.261 C 
BRANCH   3   4
ATOM      4  O   UNL A   1      33.493  27.879  26.480  1.00  0.00    -0.460 OA
BRANCH   4   5
ATOM      5  C   UNL A   1      32.722  26.949  25.872  1.00  0.00     0.338 C 
ATOM      6  O   UNL A   1      32.518  25.802  26.247  1.00  0.00    -0.246 OA
BRANCH   5   7
ATOM      7  C   UNL A   1      32.016  27.554  24.717  1.00  0.00     0.060 A 
ATOM      8  C   UNL A   1      30.781  28.785  22.550  1.00  0.00     0.119 A 
ATOM      9  C   UNL A   1      32.145  28.969  22.752  1.00  0.00     0.047 A 
ATOM     10  C   UNL A   1      30.054  27.911  23.358  1.00  0.00     0.047 A 
ATOM     11  C   UNL A   1      32.762  28.357  23.841  1.00  0.00     0.019 A 
ATOM     12  C   UNL A   1      30.663  27.311  24.458  1.00  0.00     0.019 A 
BRANCH   8  13
ATOM     13  O   UNL A   1      30.185  29.470  21.527  1.00  0.00    -0.489 OA
BRANCH  13  14
ATOM     14  C   UNL A   1      28.831  29.836  21.872  1.00  0.00     0.271 C 
BRANCH  14  15
ATOM     15  C   UNL A   1      28.666  31.292  22.114  1.00  0.00     0.055 A 
ATOM     16  C   UNL A   1      27.566  32.054  19.872  1.00  0.00     0.071 C 
ATOM     17  C   UNL A   1      28.111  32.261  21.234  1.00  0.00     0.087 A 
ATOM     18  N   UNL A   1      28.076  33.471  21.800  1.00  0.00    -0.085 NA
ATOM     19  O   UNL A   1      28.577  33.306  23.077  1.00  0.00    -0.361 OA
ATOM     20  C   UNL A   1      28.914  32.005  23.269  1.00  0.00     0.140 A 
ATOM     21  C   UNL A   1      29.398  31.647  24.618  1.00  0.00     0.091 C 
ENDBRANCH  14  15
ENDBRANCH  13  14
ENDBRANCH   8  13
ENDBRANCH   5   7
ENDBRANCH   4   5
ENDBRANCH   3   4
ENDBRANCH   2   3
ENDBRANCH   1   2
BRANCH   1  22
ATOM     22  C   UNL A   1      34.258  32.016  28.100  1.00  0.00     0.202 C 
BRANCH  22  23
ATOM     23  C   UNL A   1      35.172  32.146  29.324  1.00  0.00     0.261 C 
BRANCH  23  24
ATOM     24  O   UNL A   1      35.840  30.913  29.644  1.00  0.00    -0.460 OA
BRANCH  24  25
ATOM     25  C   UNL A   1      36.838  31.029  30.551  1.00  0.00     0.338 C 
ATOM     26  O   UNL A   1      36.748  31.444  31.698  1.00  0.00    -0.246 OA
BRANCH  25  27
ATOM     27  C   UNL A   1      38.066  30.399  30.031  1.00  0.00     0.060 A 
ATOM     28  C   UNL A   1      39.085  30.112  30.947  1.00  0.00     0.016 A 
ATOM     29  C   UNL A   1      38.246  30.159  28.668  1.00  0.00     0.016 A 
ATOM     30  C   UNL A   1      40.312  29.628  30.497  1.00  0.00     0.010 A 
ATOM     31  C   UNL A   1      39.481  29.681  28.218  1.00  0.00     0.010 A 
ATOM     32  C   UNL A   1      40.531  29.446  29.126  1.00  0.00    -0.014 A 
BRANCH  32  33
ATOM     33  C   UNL A   1      41.896  29.142  28.631  1.00  0.00     0.031 A 
ATOM     34  C   UNL A   1      42.218  27.739  28.189  1.00  0.00     0.074 A 
ATOM     35  C   UNL A   1      42.831  30.106  28.560  1.00  0.00     0.049 A 
ATOM     36  N   UNL A   1      43.352  27.245  27.765  1.00  0.00    -0.248 NA
ATOM     37  C   UNL A   1      41.116  26.764  28.233  1.00  0.00     0.031 C 
ATOM     38  C   UNL A   1      42.628  31.510  28.919  1.00  0.00     0.029 A 
ATOM     39  N   UNL A   1      44.144  30.046  28.165  1.00  0.00    -0.354 N 
ATOM     40  C   UNL A   1      43.106  25.903  27.504  1.00  0.00     0.074 A 
ATOM     41  C   UNL A   1      41.722  25.652  27.844  1.00  0.00     0.031 C 
ATOM     42  C   UNL A   1      43.780  32.177  28.735  1.00  0.00     0.029 A 
ATOM     43  C   UNL A   1      44.809  31.244  28.284  1.00  0.00     0.049 A 
ATOM     44  H   UNL A   1      44.570  29.225  27.830  1.00  0.00     0.167 HD
ATOM     45  C   UNL A   1      43.955  24.963  27.023  1.00  0.00     0.031 A 
ATOM     46  C   UNL A   1      46.107  31.547  28.075  1.00  0.00     0.031 A 
ATOM     47  C   UNL A   1      45.333  25.215  26.696  1.00  0.00     0.049 A 
ATOM     48  C   UNL A   1      47.049  30.469  27.605  1.00  0.00     0.074 A 
ATOM     49  C   UNL A   1      46.270  24.335  26.182  1.00  0.00     0.029 A 
ATOM     50  N   UNL A   1      45.976  26.433  26.857  1.00  0.00    -0.354 N 
ATOM     51  N   UNL A   1      46.795  29.209  27.339  1.00  0.00    -0.248 NA
ATOM     52  C   UNL A   1      48.452  30.856  27.400  1.00  0.00     0.031 C 
ATOM     53  C   UNL A   1      47.494  25.004  26.091  1.00  0.00     0.029 A 
ATOM     54  C   UNL A   1      47.304  26.321  26.479  1.00  0.00     0.049 A 
ATOM     55  H   UNL A   1      45.552  27.257  27.190  1.00  0.00     0.167 HD
ATOM     56  C   UNL A   1      47.998  28.664  26.902  1.00  0.00     0.074 A 
ATOM     57  C   UNL A   1      48.976  29.731  26.930  1.00  0.00     0.031 C 
ATOM     58  C   UNL A   1      48.266  27.393  26.507  1.00  0.00     0.031 A 
BRANCH  45  59
ATOM     59  C   UNL A   1      43.426  23.563  26.853  1.00  0.00    -0.014 A 
ATOM     60  C   UNL A   1      43.051  23.069  25.591  1.00  0.00     0.010 A 
ATOM     61  C   UNL A   1      43.350  22.710  27.970  1.00  0.00     0.010 A 
ATOM     62  C   UNL A   1      42.578  21.761  25.455  1.00  0.00     0.020 A 
ATOM     63  C   UNL A   1      42.905  21.392  27.835  1.00  0.00     0.020 A 
ATOM     64  C   UNL A   1      42.508  20.931  26.578  1.00  0.00     0.054 A 
BRANCH  64  65
ATOM     65  S   UNL A   1      41.918  19.228  26.366  1.00  0.00     0.124 S 
ATOM     66  O   UNL A   1      42.854  18.707  25.372  1.00  0.00    -0.237 OA
ATOM     67  O   UNL A   1      42.056  18.673  27.710  1.00  0.00    -0.237 OA
ATOM     68  O   UNL A   1      40.543  19.392  25.900  1.00  0.00    -0.744 OA
ENDBRANCH  64  65
ENDBRANCH  45  59
BRANCH  46  69
ATOM     69  C   UNL A   1      46.596  32.930  28.329  1.00  0.00    -0.014 A 
ATOM     70  C   UNL A   1      46.543  33.909  27.322  1.00  0.00     0.010 A 
ATOM     71  C   UNL A   1      47.125  33.274  29.587  1.00  0.00     0.010 A 
ATOM     72  C   UNL A   1      47.025  35.200  27.562  1.00  0.00     0.020 A 
ATOM     73  C   UNL A   1      47.578  34.571  29.842  1.00  0.00     0.020 A 
ATOM     74  C   UNL A   1      47.536  35.523  28.822  1.00  0.00     0.054 A 
BRANCH  74  75
ATOM     75  S   UNL A   1      48.108  37.218  29.126  1.00  0.00     0.124 S 
ATOM     76  O   UNL A   1      47.083  38.010  28.455  1.00  0.00    -0.237 OA
ATOM     77  O   UNL A   1      48.114  37.291  30.585  1.00  0.00    -0.237 OA
ATOM     78  O   UNL A   1      49.432  37.248  28.504  1.00  0.00    -0.744 OA
ENDBRANCH  74  75
ENDBRANCH  46  69
BRANCH  58  79
ATOM     79  C   UNL A   1      49.662  27.091  26.026  1.00  0.00    -0.014 A 
ATOM     80  C   UNL A   1      50.649  26.597  26.896  1.00  0.00     0.010 A 
ATOM     81  C   UNL A   1      49.969  27.245  24.661  1.00  0.00     0.010 A 
ATOM     82  C   UNL A   1      51.926  26.290  26.414  1.00  0.00     0.020 A 
ATOM     83  C   UNL A   1      51.233  26.911  24.170  1.00  0.00     0.020 A 
ATOM     84  C   UNL A   1      52.209  26.448  25.054  1.00  0.00     0.054 A 
BRANCH  84  85
ATOM     85  S   UNL A   1      53.858  25.997  24.446  1.00  0.00     0.124 S 
ATOM     86  O   UNL A   1      53.734  26.250  23.014  1.00  0.00    -0.237 OA
ATOM     87  O   UNL A   1      54.730  26.916  25.174  1.00  0.00    -0.237 OA
ATOM     88  O   UNL A   1      53.994  24.592  24.821  1.00  0.00    -0.744 OA
ENDBRANCH  84  85
ENDBRANCH  58  79
ENDBRANCH  32  33
ENDBRANCH  25  27
ENDBRANCH  24  25
ENDBRANCH  23  24
ENDBRANCH  22  23
ENDBRANCH   1  22
TORSDOF 20
ENDMDL
MODEL 3
REMARK VINA RESULT:      -9.5      2.034      8.375
REMARK SMILES Cc1noc(C)c1COc1ccc(C(=O)OCCOCCOC(=O)c2ccc(-c3c4nc(c(-c5ccc(S(=O)(=O)[O-])cc5)c5ccc([nH]5)c(-c5ccc(S(=O)(=O)[O-])cc5)c5nc(c(-c6ccc(S(=O)(=O)[O-])cc6)c6ccc3[nH]6)C=C5)C=C4)cc2)cc1
REMARK SMILES IDX 19 1 18 2 17 3 16 4 14 5 15 6 13 7 10 8 11 9 86 10 12 11
REMARK SMILES IDX 85 12 9 13 8 14 7 15 1 16 2 17 3 18 4 19 5 20 6 21 20 22
REMARK SMILES IDX 21 23 22 24 23 25 24 26 25 27 26 28 84 29 27 30 83 31 28 32
REMARK SMILES IDX 29 33 30 34 77 35 31 36 82 37 76 38 78 39 32 40 81 41 75 42
REMARK SMILES IDX 74 43 33 45 63 46 44 47 62 48 45 49 48 50 61 51 79 52 46 53
REMARK SMILES IDX 47 54 60 56 80 57 49 58 34 59 35 60 43 61 36 62 42 63 37 64
REMARK SMILES IDX 38 65 39 66 40 67 41 68 64 69 65 70 73 71 66 72 72 73 67 74
REMARK SMILES IDX 68 75 69 76 70 77 71 78 50 79 51 80 59 81 52 82 58 83 53 84
REMARK SMILES IDX 54 85 55 86 56 87 57 88
REMARK H PARENT 78 44 48 55
REMARK Flexibility Score: inf
ROOT
ATOM      1  O   UNL A   1      41.876  21.751  26.596  1.00  0.00    -0.374 OA
ENDROOT
BRANCH   1   2
ATOM      2  C   UNL A   1      40.511  21.463  26.899  1.00  0.00     0.202 C 
BRANCH   2   3
ATOM      3  C   UNL A   1      39.721  20.696  25.836  1.00  0.00     0.261 C 
BRANCH   3   4
ATOM      4  O   UNL A   1      38.441  21.302  25.610  1.00  0.00    -0.460 OA
BRANCH   4   5
ATOM      5  C   UNL A   1      37.512  20.502  25.038  1.00  0.00     0.338 C 
ATOM      6  O   UNL A   1      37.487  19.279  25.045  1.00  0.00    -0.246 OA
BRANCH   5   7
ATOM      7  C   UNL A   1      36.406  21.324  24.492  1.00  0.00     0.060 A 
ATOM      8  C   UNL A   1      34.251  22.763  23.480  1.00  0.00     0.119 A 
ATOM      9  C   UNL A   1      34.014  21.699  24.344  1.00  0.00     0.047 A 
ATOM     10  C   UNL A   1      35.554  23.178  23.201  1.00  0.00     0.047 A 
ATOM     11  C   UNL A   1      35.094  20.975  24.846  1.00  0.00     0.019 A 
ATOM     12  C   UNL A   1      36.635  22.446  23.687  1.00  0.00     0.019 A 
BRANCH   8  13
ATOM     13  O   UNL A   1      33.170  23.398  22.931  1.00  0.00    -0.489 OA
BRANCH  13  14
ATOM     14  C   UNL A   1      32.622  24.368  23.850  1.00  0.00     0.271 C 
BRANCH  14  15
ATOM     15  C   UNL A   1      32.972  25.768  23.495  1.00  0.00     0.055 A 
ATOM     16  C   UNL A   1      33.972  26.626  25.749  1.00  0.00     0.071 C 
ATOM     17  C   UNL A   1      33.563  26.754  24.331  1.00  0.00     0.087 A 
ATOM     18  N   UNL A   1      33.780  27.892  23.665  1.00  0.00    -0.085 NA
ATOM     19  O   UNL A   1      33.366  27.656  22.368  1.00  0.00    -0.361 OA
ATOM     20  C   UNL A   1      32.899  26.385  22.264  1.00  0.00     0.140 A 
ATOM     21  C   UNL A   1      32.484  25.950  20.915  1.00  0.00     0.091 C 
ENDBRANCH  14  15
ENDBRANCH  13  14
ENDBRANCH   8  13
ENDBRANCH   5   7
ENDBRANCH   4   5
ENDBRANCH   3   4
ENDBRANCH   2   3
ENDBRANCH   1   2
BRANCH   1  22
ATOM     22  C   UNL A   1      42.165  23.033  26.037  1.00  0.00     0.202 C 
BRANCH  22  23
ATOM     23  C   UNL A   1      42.150  24.231  26.994  1.00  0.00     0.261 C 
BRANCH  23  24
ATOM     24  O   UNL A   1      40.855  24.852  27.076  1.00  0.00    -0.460 OA
BRANCH  24  25
ATOM     25  C   UNL A   1      40.815  26.136  26.649  1.00  0.00     0.338 C 
ATOM     26  O   UNL A   1      40.844  26.529  25.492  1.00  0.00    -0.246 OA
BRANCH  25  27
ATOM     27  C   UNL A   1      40.540  27.035  27.785  1.00  0.00     0.060 A 
ATOM     28  C   UNL A   1      41.211  28.264  27.816  1.00  0.00     0.016 A 
ATOM     29  C   UNL A   1      39.699  26.657  28.833  1.00  0.00     0.016 A 
ATOM     30  C   UNL A   1      41.082  29.101  28.922  1.00  0.00     0.010 A 
ATOM     31  C   UNL A   1      39.578  27.496  29.946  1.00  0.00     0.010 A 
ATOM     32  C   UNL A   1      40.295  28.705  30.012  1.00  0.00    -0.014 A 
BRANCH  32  33
ATOM     33  C   UNL A   1      40.331  29.488  31.271  1.00  0.00     0.031 A 
ATOM     34  C   UNL A   1      41.437  29.232  32.259  1.00  0.00     0.074 A 
ATOM     35  C   UNL A   1      39.402  30.427  31.523  1.00  0.00     0.049 A 
ATOM     36  N   UNL A   1      41.636  29.768  33.436  1.00  0.00    -0.248 NA
ATOM     37  C   UNL A   1      42.452  28.238  31.871  1.00  0.00     0.031 C 
ATOM     38  C   UNL A   1      38.307  30.795  30.625  1.00  0.00     0.029 A 
ATOM     39  N   UNL A   1      39.229  31.239  32.616  1.00  0.00    -0.354 N 
ATOM     40  C   UNL A   1      42.788  29.170  33.934  1.00  0.00     0.074 A 
ATOM     41  C   UNL A   1      43.229  28.211  32.945  1.00  0.00     0.031 C 
ATOM     42  C   UNL A   1      37.570  31.756  31.208  1.00  0.00     0.029 A 
ATOM     43  C   UNL A   1      38.117  32.043  32.532  1.00  0.00     0.049 A 
ATOM     44  H   UNL A   1      39.842  31.245  33.385  1.00  0.00     0.167 HD
ATOM     45  C   UNL A   1      43.423  29.402  35.108  1.00  0.00     0.031 A 
ATOM     46  C   UNL A   1      37.587  32.896  33.432  1.00  0.00     0.031 A 
ATOM     47  C   UNL A   1      42.975  30.351  36.092  1.00  0.00     0.049 A 
ATOM     48  C   UNL A   1      38.273  33.087  34.761  1.00  0.00     0.074 A 
ATOM     49  C   UNL A   1      43.561  30.673  37.304  1.00  0.00     0.029 A 
ATOM     50  N   UNL A   1      41.830  31.125  35.984  1.00  0.00    -0.354 N 
ATOM     51  N   UNL A   1      39.376  32.532  35.207  1.00  0.00    -0.248 NA
ATOM     52  C   UNL A   1      37.646  34.024  35.703  1.00  0.00     0.031 C 
ATOM     53  C   UNL A   1      42.736  31.596  37.955  1.00  0.00     0.029 A 
ATOM     54  C   UNL A   1      41.676  31.903  37.118  1.00  0.00     0.049 A 
ATOM     55  H   UNL A   1      41.217  31.122  35.213  1.00  0.00     0.167 HD
ATOM     56  C   UNL A   1      39.593  33.080  36.467  1.00  0.00     0.074 A 
ATOM     57  C   UNL A   1      38.514  34.016  36.708  1.00  0.00     0.031 C 
ATOM     58  C   UNL A   1      40.599  32.835  37.343  1.00  0.00     0.031 A 
BRANCH  45  59
ATOM     59  C   UNL A   1      44.655  28.588  35.410  1.00  0.00    -0.014 A 
ATOM     60  C   UNL A   1      44.598  27.448  36.232  1.00  0.00     0.010 A 
ATOM     61  C   UNL A   1      45.881  28.943  34.818  1.00  0.00     0.010 A 
ATOM     62  C   UNL A   1      45.750  26.700  36.484  1.00  0.00     0.020 A 
ATOM     63  C   UNL A   1      47.031  28.181  35.045  1.00  0.00     0.020 A 
ATOM     64  C   UNL A   1      46.960  27.072  35.890  1.00  0.00     0.054 A 
BRANCH  64  65
ATOM     65  S   UNL A   1      48.434  26.063  36.212  1.00  0.00     0.124 S 
ATOM     66  O   UNL A   1      48.272  24.978  35.248  1.00  0.00    -0.237 OA
ATOM     67  O   UNL A   1      49.524  26.994  35.932  1.00  0.00    -0.237 OA
ATOM     68  O   UNL A   1      48.292  25.677  37.613  1.00  0.00    -0.744 OA
ENDBRANCH  64  65
ENDBRANCH  45  59
BRANCH  46  69
ATOM     69  C   UNL A   1      36.325  33.621  33.115  1.00  0.00    -0.014 A 
ATOM     70  C   UNL A   1      36.356  34.930  32.603  1.00  0.00     0.010 A 
ATOM     71  C   UNL A   1      35.080  33.002  33.329  1.00  0.00     0.010 A 
ATOM     72  C   UNL A   1      35.167  35.611  32.327  1.00  0.00     0.020 A 
ATOM     73  C   UNL A   1      33.889  33.667  33.025  1.00  0.00     0.020 A 
ATOM     74  C   UNL A   1      33.941  34.974  32.538  1.00  0.00     0.054 A 
BRANCH  74  75
ATOM     75  S   UNL A   1      32.412  35.860  32.125  1.00  0.00     0.124 S 
ATOM     76  O   UNL A   1      32.446  35.863  30.666  1.00  0.00    -0.237 OA
ATOM     77  O   UNL A   1      31.386  35.017  32.734  1.00  0.00    -0.237 OA
ATOM     78  O   UNL A   1      32.591  37.165  32.760  1.00  0.00    -0.744 OA
ENDBRANCH  74  75
ENDBRANCH  46  69
BRANCH  58  79
ATOM     79  C   UNL A   1      40.615  33.622  38.628  1.00  0.00    -0.014 A 
ATOM     80  C   UNL A   1      40.041  33.116  39.808  1.00  0.00     0.010 A 
ATOM     81  C   UNL A   1      41.274  34.865  38.668  1.00  0.00     0.010 A 
ATOM     82  C   UNL A   1      40.103  33.851  40.996  1.00  0.00     0.020 A 
ATOM     83  C   UNL A   1      41.364  35.589  39.859  1.00  0.00     0.020 A 
ATOM     84  C   UNL A   1      40.764  35.083  41.013  1.00  0.00     0.054 A 
BRANCH  84  85
ATOM     85  S   UNL A   1      40.872  35.995  42.578  1.00  0.00     0.124 S 
ATOM     86  O   UNL A   1      41.233  34.941  43.521  1.00  0.00    -0.237 OA
ATOM     87  O   UNL A   1      41.917  36.979  42.304  1.00  0.00    -0.237 OA
ATOM     88  O   UNL A   1      39.531  36.552  42.748  1.00  0.00    -0.744 OA
ENDBRANCH  84  85
ENDBRANCH  58  79
ENDBRANCH  32  33
ENDBRANCH  25  27
ENDBRANCH  24  25
ENDBRANCH  23  24
ENDBRANCH  22  23
ENDBRANCH   1  22
TORSDOF 20
ENDMDL
