MODEL 1
REMARK VINA RESULT:      -9.8      0.000      0.000
REMARK SMILES Cc1c(F)cc(C(=O)OCCOCCOC(=O)c2ccc(-c3c4nc(c(-c5ccc(S(=O)(=O)[O-])cc5)c5ccc([nH]5)c(-c5ccc(S(=O)(=O)[O-])cc5)c5nc(c(-c6ccc(S(=O)(=O)[O-])cc6)c6ccc3[nH]6)C=C5)C=C4)cc2)cc1S(=O)(=O)NC#N
REMARK SMILES IDX 12 1 11 2 10 3 9 4 7 5 8 6 6 7 1 8 2 9 3 10 79 11 4 12 5 13
REMARK SMILES IDX 78 14 80 15 81 16 82 17 83 18 84 20 85 21 13 22 14 23 15 24
REMARK SMILES IDX 16 25 17 26 18 27 19 28 77 29 20 30 76 31 21 32 22 33 23 34
REMARK SMILES IDX 70 35 24 36 75 37 69 38 71 39 25 40 74 41 68 42 67 43 26 45
REMARK SMILES IDX 56 46 37 47 55 48 38 49 41 50 54 51 72 52 39 53 40 54 53 56
REMARK SMILES IDX 73 57 42 58 27 59 28 60 36 61 29 62 35 63 30 64 31 65 32 66
REMARK SMILES IDX 33 67 34 68 57 69 58 70 66 71 59 72 65 73 60 74 61 75 62 76
REMARK SMILES IDX 63 77 64 78 43 79 44 80 52 81 45 82 51 83 46 84 47 85 48 86
REMARK SMILES IDX 49 87 50 88
REMARK H PARENT 83 19 71 44 41 55
REMARK Flexibility Score: inf
ROOT
ATOM      1  O   UNL A   1      35.306  21.204  25.764  1.00  0.00    -0.374 OA
ENDROOT
BRANCH   1   2
ATOM      2  C   UNL A   1      34.521  22.289  25.281  1.00  0.00     0.202 C 
BRANCH   2   3
ATOM      3  C   UNL A   1      33.062  22.425  25.736  1.00  0.00     0.261 C 
BRANCH   3   4
ATOM      4  O   UNL A   1      32.418  23.615  25.252  1.00  0.00    -0.460 OA
BRANCH   4   5
ATOM      5  C   UNL A   1      31.783  24.321  26.217  1.00  0.00     0.338 C 
ATOM      6  O   UNL A   1      31.430  23.917  27.315  1.00  0.00    -0.246 OA
BRANCH   5   7
ATOM      7  C   UNL A   1      31.745  25.761  25.886  1.00  0.00     0.064 A 
ATOM      8  C   UNL A   1      31.514  30.037  25.388  1.00  0.00     0.049 C 
ATOM      9  C   UNL A   1      31.607  28.547  25.423  1.00  0.00     0.005 A 
ATOM     10  C   UNL A   1      31.647  27.996  26.721  1.00  0.00     0.128 A 
ATOM     11  C   UNL A   1      31.612  27.664  24.328  1.00  0.00     0.095 A 
ATOM     12  F   UNL A   1      31.628  28.808  27.790  1.00  0.00    -0.207 F 
ATOM     13  C   UNL A   1      31.712  26.637  26.961  1.00  0.00     0.055 A 
ATOM     14  C   UNL A   1      31.724  26.264  24.583  1.00  0.00     0.038 A 
BRANCH  11  15
ATOM     15  S   UNL A   1      31.679  28.061  22.579  1.00  0.00     0.270 S 
ATOM     16  O   UNL A   1      32.849  28.896  22.412  1.00  0.00    -0.201 OA
ATOM     17  O   UNL A   1      31.617  26.778  21.904  1.00  0.00    -0.201 OA
BRANCH  15  18
ATOM     18  N   UNL A   1      30.430  28.885  21.862  1.00  0.00    -0.215 NA
ATOM     19  H   UNL A   1      30.469  29.025  20.887  1.00  0.00     0.193 HD
BRANCH  18  20
ATOM     20  C   UNL A   1      29.389  29.364  22.511  1.00  0.00     0.191 C 
ATOM     21  N   UNL A   1      28.538  29.923  23.057  1.00  0.00    -0.172 NA
ENDBRANCH  18  20
ENDBRANCH  15  18
ENDBRANCH  11  15
ENDBRANCH   5   7
ENDBRANCH   4   5
ENDBRANCH   3   4
ENDBRANCH   2   3
ENDBRANCH   1   2
BRANCH   1  22
ATOM     22  C   UNL A   1      36.457  20.812  25.022  1.00  0.00     0.202 C 
BRANCH  22  23
ATOM     23  C   UNL A   1      37.669  21.751  24.928  1.00  0.00     0.261 C 
BRANCH  23  24
ATOM     24  O   UNL A   1      37.914  22.515  26.118  1.00  0.00    -0.460 OA
BRANCH  24  25
ATOM     25  C   UNL A   1      39.229  22.736  26.376  1.00  0.00     0.338 C 
ATOM     26  O   UNL A   1      40.168  22.019  26.075  1.00  0.00    -0.246 OA
BRANCH  25  27
ATOM     27  C   UNL A   1      39.408  24.096  26.914  1.00  0.00     0.060 A 
ATOM     28  C   UNL A   1      40.107  25.027  26.133  1.00  0.00     0.016 A 
ATOM     29  C   UNL A   1      38.972  24.426  28.196  1.00  0.00     0.016 A 
ATOM     30  C   UNL A   1      40.410  26.283  26.650  1.00  0.00     0.010 A 
ATOM     31  C   UNL A   1      39.285  25.685  28.715  1.00  0.00     0.010 A 
ATOM     32  C   UNL A   1      40.034  26.605  27.960  1.00  0.00    -0.014 A 
BRANCH  32  33
ATOM     33  C   UNL A   1      40.526  27.858  28.583  1.00  0.00     0.031 A 
ATOM     34  C   UNL A   1      41.954  27.932  29.054  1.00  0.00     0.074 A 
ATOM     35  C   UNL A   1      39.710  28.921  28.716  1.00  0.00     0.049 A 
ATOM     36  N   UNL A   1      42.568  28.903  29.680  1.00  0.00    -0.248 NA
ATOM     37  C   UNL A   1      42.801  26.756  28.791  1.00  0.00     0.031 C 
ATOM     38  C   UNL A   1      38.322  28.984  28.258  1.00  0.00     0.029 A 
ATOM     39  N   UNL A   1      39.932  30.150  29.284  1.00  0.00    -0.354 N 
ATOM     40  C   UNL A   1      43.863  28.449  29.903  1.00  0.00     0.074 A 
ATOM     41  C   UNL A   1      43.940  27.106  29.372  1.00  0.00     0.031 C 
ATOM     42  C   UNL A   1      37.814  30.189  28.567  1.00  0.00     0.029 A 
ATOM     43  C   UNL A   1      38.823  30.964  29.288  1.00  0.00     0.049 A 
ATOM     44  H   UNL A   1      40.802  30.424  29.654  1.00  0.00     0.167 HD
ATOM     45  C   UNL A   1      44.894  29.097  30.497  1.00  0.00     0.031 A 
ATOM     46  C   UNL A   1      38.633  32.180  29.836  1.00  0.00     0.031 A 
ATOM     47  C   UNL A   1      44.806  30.432  31.028  1.00  0.00     0.049 A 
ATOM     48  C   UNL A   1      39.777  32.845  30.559  1.00  0.00     0.074 A 
ATOM     49  C   UNL A   1      45.803  31.185  31.623  1.00  0.00     0.029 A 
ATOM     50  N   UNL A   1      43.658  31.209  31.040  1.00  0.00    -0.354 N 
ATOM     51  N   UNL A   1      41.004  32.417  30.732  1.00  0.00    -0.248 NA
ATOM     52  C   UNL A   1      39.509  34.162  31.154  1.00  0.00     0.031 C 
ATOM     53  C   UNL A   1      45.240  32.384  32.067  1.00  0.00     0.029 A 
ATOM     54  C   UNL A   1      43.913  32.418  31.667  1.00  0.00     0.049 A 
ATOM     55  H   UNL A   1      42.790  30.941  30.660  1.00  0.00     0.167 HD
ATOM     56  C   UNL A   1      41.666  33.432  31.420  1.00  0.00     0.074 A 
ATOM     57  C   UNL A   1      40.706  34.498  31.615  1.00  0.00     0.031 C 
ATOM     58  C   UNL A   1      42.951  33.476  31.849  1.00  0.00     0.031 A 
BRANCH  45  59
ATOM     59  C   UNL A   1      46.204  28.364  30.640  1.00  0.00    -0.014 A 
ATOM     60  C   UNL A   1      46.492  27.583  31.774  1.00  0.00     0.010 A 
ATOM     61  C   UNL A   1      47.130  28.394  29.579  1.00  0.00     0.010 A 
ATOM     62  C   UNL A   1      47.687  26.864  31.853  1.00  0.00     0.020 A 
ATOM     63  C   UNL A   1      48.311  27.649  29.640  1.00  0.00     0.020 A 
ATOM     64  C   UNL A   1      48.586  26.896  30.782  1.00  0.00     0.054 A 
BRANCH  64  65
ATOM     65  S   UNL A   1      50.101  25.903  30.890  1.00  0.00     0.124 S 
ATOM     66  O   UNL A   1      49.706  24.850  31.822  1.00  0.00    -0.237 OA
ATOM     67  O   UNL A   1      50.299  25.477  29.508  1.00  0.00    -0.237 OA
ATOM     68  O   UNL A   1      51.097  26.842  31.401  1.00  0.00    -0.744 OA
ENDBRANCH  64  65
ENDBRANCH  45  59
BRANCH  46  69
ATOM     69  C   UNL A   1      37.300  32.842  29.753  1.00  0.00    -0.014 A 
ATOM     70  C   UNL A   1      37.005  33.744  28.716  1.00  0.00     0.010 A 
ATOM     71  C   UNL A   1      36.324  32.594  30.736  1.00  0.00     0.010 A 
ATOM     72  C   UNL A   1      35.777  34.411  28.684  1.00  0.00     0.020 A 
ATOM     73  C   UNL A   1      35.080  33.227  30.686  1.00  0.00     0.020 A 
ATOM     74  C   UNL A   1      34.820  34.146  29.668  1.00  0.00     0.054 A 
BRANCH  74  75
ATOM     75  S   UNL A   1      33.225  35.004  29.589  1.00  0.00     0.124 S 
ATOM     76  O   UNL A   1      32.474  34.167  28.659  1.00  0.00    -0.237 OA
ATOM     77  O   UNL A   1      32.780  34.964  30.979  1.00  0.00    -0.237 OA
ATOM     78  O   UNL A   1      33.575  36.333  29.093  1.00  0.00    -0.744 OA
ENDBRANCH  74  75
ENDBRANCH  46  69
BRANCH  58  79
ATOM     79  C   UNL A   1      43.421  34.742  32.523  1.00  0.00    -0.014 A 
ATOM     80  C   UNL A   1      43.955  35.816  31.791  1.00  0.00     0.010 A 
ATOM     81  C   UNL A   1      43.268  34.876  33.917  1.00  0.00     0.010 A 
ATOM     82  C   UNL A   1      44.363  36.983  32.443  1.00  0.00     0.020 A 
ATOM     83  C   UNL A   1      43.636  36.055  34.567  1.00  0.00     0.020 A 
ATOM     84  C   UNL A   1      44.196  37.097  33.827  1.00  0.00     0.054 A 
BRANCH  84  85
ATOM     85  S   UNL A   1      44.690  38.641  34.640  1.00  0.00     0.124 S 
ATOM     86  O   UNL A   1      45.084  38.176  35.966  1.00  0.00    -0.237 OA
ATOM     87  O   UNL A   1      45.781  39.113  33.790  1.00  0.00    -0.237 OA
ATOM     88  O   UNL A   1      43.479  39.458  34.602  1.00  0.00    -0.744 OA
ENDBRANCH  84  85
ENDBRANCH  58  79
ENDBRANCH  32  33
ENDBRANCH  25  27
ENDBRANCH  24  25
ENDBRANCH  23  24
ENDBRANCH  22  23
ENDBRANCH   1  22
TORSDOF 20
ENDMDL
MODEL 2
REMARK VINA RESULT:      -9.7      5.773     11.556
REMARK SMILES Cc1c(F)cc(C(=O)OCCOCCOC(=O)c2ccc(-c3c4nc(c(-c5ccc(S(=O)(=O)[O-])cc5)c5ccc([nH]5)c(-c5ccc(S(=O)(=O)[O-])cc5)c5nc(c(-c6ccc(S(=O)(=O)[O-])cc6)c6ccc3[nH]6)C=C5)C=C4)cc2)cc1S(=O)(=O)NC#N
REMARK SMILES IDX 12 1 11 2 10 3 9 4 7 5 8 6 6 7 1 8 2 9 3 10 79 11 4 12 5 13
REMARK SMILES IDX 78 14 80 15 81 16 82 17 83 18 84 20 85 21 13 22 14 23 15 24
REMARK SMILES IDX 16 25 17 26 18 27 19 28 77 29 20 30 76 31 21 32 22 33 23 34
REMARK SMILES IDX 70 35 24 36 75 37 69 38 71 39 25 40 74 41 68 42 67 43 26 45
REMARK SMILES IDX 56 46 37 47 55 48 38 49 41 50 54 51 72 52 39 53 40 54 53 56
REMARK SMILES IDX 73 57 42 58 27 59 28 60 36 61 29 62 35 63 30 64 31 65 32 66
REMARK SMILES IDX 33 67 34 68 57 69 58 70 66 71 59 72 65 73 60 74 61 75 62 76
REMARK SMILES IDX 63 77 64 78 43 79 44 80 52 81 45 82 51 83 46 84 47 85 48 86
REMARK SMILES IDX 49 87 50 88
REMARK H PARENT 83 19 71 44 41 55
REMARK Flexibility Score: inf
ROOT
ATOM      1  O   UNL A   1      46.136  25.676  24.687  1.00  0.00    -0.374 OA
ENDROOT
BRANCH   1   2
ATOM      2  C   UNL A   1      47.454  26.149  24.947  1.00  0.00     0.202 C 
BRANCH   2   3
ATOM      3  C   UNL A   1      48.277  25.506  26.070  1.00  0.00     0.261 C 
BRANCH   3   4
ATOM      4  O   UNL A   1      47.633  24.373  26.678  1.00  0.00    -0.460 OA
BRANCH   4   5
ATOM      5  C   UNL A   1      47.050  24.653  27.868  1.00  0.00     0.338 C 
ATOM      6  O   UNL A   1      47.539  25.270  28.802  1.00  0.00    -0.246 OA
BRANCH   5   7
ATOM      7  C   UNL A   1      45.614  24.307  27.851  1.00  0.00     0.064 A 
ATOM      8  C   UNL A   1      41.372  23.609  28.179  1.00  0.00     0.049 C 
ATOM      9  C   UNL A   1      42.845  23.746  27.975  1.00  0.00     0.005 A 
ATOM     10  C   UNL A   1      43.425  24.847  28.639  1.00  0.00     0.128 A 
ATOM     11  C   UNL A   1      43.692  22.889  27.247  1.00  0.00     0.095 A 
ATOM     12  F   UNL A   1      42.650  25.677  29.355  1.00  0.00    -0.207 F 
ATOM     13  C   UNL A   1      44.776  25.130  28.589  1.00  0.00     0.055 A 
ATOM     14  C   UNL A   1      45.079  23.215  27.164  1.00  0.00     0.038 A 
BRANCH  11  15
ATOM     15  S   UNL A   1      43.241  21.490  26.220  1.00  0.00     0.270 S 
ATOM     16  O   UNL A   1      42.206  20.786  26.947  1.00  0.00    -0.201 OA
ATOM     17  O   UNL A   1      42.935  22.064  24.923  1.00  0.00    -0.201 OA
BRANCH  15  18
ATOM     18  N   UNL A   1      44.375  20.343  25.826  1.00  0.00    -0.215 NA
ATOM     19  H   UNL A   1      45.301  20.489  26.127  1.00  0.00     0.193 HD
BRANCH  18  20
ATOM     20  C   UNL A   1      44.116  19.252  25.136  1.00  0.00     0.191 C 
ATOM     21  N   UNL A   1      43.749  18.353  24.510  1.00  0.00    -0.172 NA
ENDBRANCH  18  20
ENDBRANCH  15  18
ENDBRANCH  11  15
ENDBRANCH   5   7
ENDBRANCH   4   5
ENDBRANCH   3   4
ENDBRANCH   2   3
ENDBRANCH   1   2
BRANCH   1  22
ATOM     22  C   UNL A   1      45.031  26.477  25.094  1.00  0.00     0.202 C 
BRANCH  22  23
ATOM     23  C   UNL A   1      43.602  25.918  25.015  1.00  0.00     0.261 C 
BRANCH  23  24
ATOM     24  O   UNL A   1      42.575  26.915  25.122  1.00  0.00    -0.460 OA
BRANCH  24  25
ATOM     25  C   UNL A   1      41.398  26.448  25.614  1.00  0.00     0.338 C 
ATOM     26  O   UNL A   1      40.817  25.427  25.288  1.00  0.00    -0.246 OA
BRANCH  25  27
ATOM     27  C   UNL A   1      40.990  27.258  26.776  1.00  0.00     0.060 A 
ATOM     28  C   UNL A   1      41.670  28.461  27.013  1.00  0.00     0.016 A 
ATOM     29  C   UNL A   1      40.015  26.804  27.662  1.00  0.00     0.016 A 
ATOM     30  C   UNL A   1      41.405  29.195  28.165  1.00  0.00     0.010 A 
ATOM     31  C   UNL A   1      39.757  27.540  28.822  1.00  0.00     0.010 A 
ATOM     32  C   UNL A   1      40.474  28.719  29.095  1.00  0.00    -0.014 A 
BRANCH  32  33
ATOM     33  C   UNL A   1      40.336  29.388  30.412  1.00  0.00     0.031 A 
ATOM     34  C   UNL A   1      39.249  30.413  30.604  1.00  0.00     0.074 A 
ATOM     35  C   UNL A   1      41.162  29.076  31.428  1.00  0.00     0.049 A 
ATOM     36  N   UNL A   1      38.992  31.159  31.647  1.00  0.00    -0.248 NA
ATOM     37  C   UNL A   1      38.334  30.630  29.470  1.00  0.00     0.031 C 
ATOM     38  C   UNL A   1      42.223  28.070  31.375  1.00  0.00     0.029 A 
ATOM     39  N   UNL A   1      41.243  29.583  32.700  1.00  0.00    -0.354 N 
ATOM     40  C   UNL A   1      37.903  31.946  31.290  1.00  0.00     0.074 A 
ATOM     41  C   UNL A   1      37.564  31.608  29.925  1.00  0.00     0.031 C 
ATOM     42  C   UNL A   1      42.852  28.036  32.562  1.00  0.00     0.029 A 
ATOM     43  C   UNL A   1      42.272  29.051  33.441  1.00  0.00     0.049 A 
ATOM     44  H   UNL A   1      40.624  30.263  33.050  1.00  0.00     0.167 HD
ATOM     45  C   UNL A   1      37.246  32.866  32.035  1.00  0.00     0.031 A 
ATOM     46  C   UNL A   1      42.717  29.366  34.673  1.00  0.00     0.031 A 
ATOM     47  C   UNL A   1      37.594  33.200  33.392  1.00  0.00     0.049 A 
ATOM     48  C   UNL A   1      42.013  30.449  35.451  1.00  0.00     0.074 A 
ATOM     49  C   UNL A   1      36.971  34.098  34.241  1.00  0.00     0.029 A 
ATOM     50  N   UNL A   1      38.661  32.661  34.094  1.00  0.00    -0.354 N 
ATOM     51  N   UNL A   1      40.965  31.160  35.113  1.00  0.00    -0.248 NA
ATOM     52  C   UNL A   1      42.551  30.766  36.782  1.00  0.00     0.031 C 
ATOM     53  C   UNL A   1      37.707  34.162  35.426  1.00  0.00     0.029 A 
ATOM     54  C   UNL A   1      38.736  33.236  35.353  1.00  0.00     0.049 A 
ATOM     55  H   UNL A   1      39.274  31.972  33.750  1.00  0.00     0.167 HD
ATOM     56  C   UNL A   1      40.693  31.979  36.206  1.00  0.00     0.074 A 
ATOM     57  C   UNL A   1      41.677  31.661  37.219  1.00  0.00     0.031 C 
ATOM     58  C   UNL A   1      39.716  32.907  36.357  1.00  0.00     0.031 A 
BRANCH  45  59
ATOM     59  C   UNL A   1      36.100  33.610  31.397  1.00  0.00    -0.014 A 
ATOM     60  C   UNL A   1      35.033  34.117  32.161  1.00  0.00     0.010 A 
ATOM     61  C   UNL A   1      36.135  33.876  30.015  1.00  0.00     0.010 A 
ATOM     62  C   UNL A   1      34.016  34.856  31.553  1.00  0.00     0.020 A 
ATOM     63  C   UNL A   1      35.138  34.644  29.408  1.00  0.00     0.020 A 
ATOM     64  C   UNL A   1      34.079  35.122  30.181  1.00  0.00     0.054 A 
BRANCH  64  65
ATOM     65  S   UNL A   1      32.774  36.137  29.433  1.00  0.00     0.124 S 
ATOM     66  O   UNL A   1      33.505  37.348  29.068  1.00  0.00    -0.237 OA
ATOM     67  O   UNL A   1      32.332  35.309  28.314  1.00  0.00    -0.237 OA
ATOM     68  O   UNL A   1      31.800  36.301  30.509  1.00  0.00    -0.744 OA
ENDBRANCH  64  65
ENDBRANCH  45  59
BRANCH  46  69
ATOM     69  C   UNL A   1      43.907  28.673  35.244  1.00  0.00    -0.014 A 
ATOM     70  C   UNL A   1      43.761  27.509  36.019  1.00  0.00     0.010 A 
ATOM     71  C   UNL A   1      45.197  29.195  35.037  1.00  0.00     0.010 A 
ATOM     72  C   UNL A   1      44.876  26.903  36.606  1.00  0.00     0.020 A 
ATOM     73  C   UNL A   1      46.319  28.570  35.588  1.00  0.00     0.020 A 
ATOM     74  C   UNL A   1      46.149  27.437  36.384  1.00  0.00     0.054 A 
BRANCH  74  75
ATOM     75  S   UNL A   1      47.582  26.618  37.134  1.00  0.00     0.124 S 
ATOM     76  O   UNL A   1      47.249  26.663  38.555  1.00  0.00    -0.237 OA
ATOM     77  O   UNL A   1      47.546  25.296  36.516  1.00  0.00    -0.237 OA
ATOM     78  O   UNL A   1      48.708  27.457  36.728  1.00  0.00    -0.744 OA
ENDBRANCH  74  75
ENDBRANCH  46  69
BRANCH  58  79
ATOM     79  C   UNL A   1      39.620  33.612  37.688  1.00  0.00    -0.014 A 
ATOM     80  C   UNL A   1      40.301  34.816  37.939  1.00  0.00     0.010 A 
ATOM     81  C   UNL A   1      38.780  33.083  38.687  1.00  0.00     0.010 A 
ATOM     82  C   UNL A   1      40.175  35.455  39.176  1.00  0.00     0.020 A 
ATOM     83  C   UNL A   1      38.620  33.739  39.909  1.00  0.00     0.020 A 
ATOM     84  C   UNL A   1      39.331  34.914  40.151  1.00  0.00     0.054 A 
BRANCH  84  85
ATOM     85  S   UNL A   1      39.150  35.790  41.729  1.00  0.00     0.124 S 
ATOM     86  O   UNL A   1      37.793  35.428  42.126  1.00  0.00    -0.237 OA
ATOM     87  O   UNL A   1      40.219  35.209  42.539  1.00  0.00    -0.237 OA
ATOM     88  O   UNL A   1      39.340  37.195  41.372  1.00  0.00    -0.744 OA
ENDBRANCH  84  85
ENDBRANCH  58  79
ENDBRANCH  32  33
ENDBRANCH  25  27
ENDBRANCH  24  25
ENDBRANCH  23  24
ENDBRANCH  22  23
ENDBRANCH   1  22
TORSDOF 20
ENDMDL
MODEL 3
REMARK VINA RESULT:      -9.7      3.963      7.871
REMARK SMILES Cc1c(F)cc(C(=O)OCCOCCOC(=O)c2ccc(-c3c4nc(c(-c5ccc(S(=O)(=O)[O-])cc5)c5ccc([nH]5)c(-c5ccc(S(=O)(=O)[O-])cc5)c5nc(c(-c6ccc(S(=O)(=O)[O-])cc6)c6ccc3[nH]6)C=C5)C=C4)cc2)cc1S(=O)(=O)NC#N
REMARK SMILES IDX 12 1 11 2 10 3 9 4 7 5 8 6 6 7 1 8 2 9 3 10 79 11 4 12 5 13
REMARK SMILES IDX 78 14 80 15 81 16 82 17 83 18 84 20 85 21 13 22 14 23 15 24
REMARK SMILES IDX 16 25 17 26 18 27 19 28 77 29 20 30 76 31 21 32 22 33 23 34
REMARK SMILES IDX 70 35 24 36 75 37 69 38 71 39 25 40 74 41 68 42 67 43 26 45
REMARK SMILES IDX 56 46 37 47 55 48 38 49 41 50 54 51 72 52 39 53 40 54 53 56
REMARK SMILES IDX 73 57 42 58 27 59 28 60 36 61 29 62 35 63 30 64 31 65 32 66
REMARK SMILES IDX 33 67 34 68 57 69 58 70 66 71 59 72 65 73 60 74 61 75 62 76
REMARK SMILES IDX 63 77 64 78 43 79 44 80 52 81 45 82 51 83 46 84 47 85 48 86
REMARK SMILES IDX 49 87 50 88
REMARK H PARENT 83 19 71 44 41 55
REMARK Flexibility Score: inf
ROOT
ATOM      1  O   UNL A   1      31.496  28.660  24.999  1.00  0.00    -0.374 OA
ENDROOT
BRANCH   1   2
ATOM      2  C   UNL A   1      31.491  28.334  23.613  1.00  0.00     0.202 C 
BRANCH   2   3
ATOM      3  C   UNL A   1      31.632  26.868  23.184  1.00  0.00     0.261 C 
BRANCH   3   4
ATOM      4  O   UNL A   1      32.985  26.483  22.890  1.00  0.00    -0.460 OA
BRANCH   4   5
ATOM      5  C   UNL A   1      33.082  25.495  21.969  1.00  0.00     0.338 C 
ATOM      6  O   UNL A   1      33.226  25.623  20.763  1.00  0.00    -0.246 OA
BRANCH   5   7
ATOM      7  C   UNL A   1      33.217  24.175  22.618  1.00  0.00     0.064 A 
ATOM      8  C   UNL A   1      33.193  20.199  24.287  1.00  0.00     0.049 C 
ATOM      9  C   UNL A   1      33.307  21.605  23.794  1.00  0.00     0.005 A 
ATOM     10  C   UNL A   1      32.455  21.914  22.713  1.00  0.00     0.128 A 
ATOM     11  C   UNL A   1      34.119  22.630  24.312  1.00  0.00     0.095 A 
ATOM     12  F   UNL A   1      31.655  20.964  22.203  1.00  0.00    -0.207 F 
ATOM     13  C   UNL A   1      32.399  23.166  22.132  1.00  0.00     0.055 A 
ATOM     14  C   UNL A   1      34.089  23.908  23.676  1.00  0.00     0.038 A 
BRANCH  11  15
ATOM     15  S   UNL A   1      35.370  22.518  25.593  1.00  0.00     0.270 S 
ATOM     16  O   UNL A   1      36.411  21.669  25.052  1.00  0.00    -0.201 OA
ATOM     17  O   UNL A   1      35.679  23.895  25.931  1.00  0.00    -0.201 OA
BRANCH  15  18
ATOM     18  N   UNL A   1      34.991  21.879  27.076  1.00  0.00    -0.215 NA
ATOM     19  H   UNL A   1      35.665  21.315  27.521  1.00  0.00     0.193 HD
BRANCH  18  20
ATOM     20  C   UNL A   1      33.847  22.076  27.697  1.00  0.00     0.191 C 
ATOM     21  N   UNL A   1      32.882  22.398  28.245  1.00  0.00    -0.172 NA
ENDBRANCH  18  20
ENDBRANCH  15  18
ENDBRANCH  11  15
ENDBRANCH   5   7
ENDBRANCH   4   5
ENDBRANCH   3   4
ENDBRANCH   2   3
ENDBRANCH   1   2
BRANCH   1  22
ATOM     22  C   UNL A   1      31.551  30.033  25.376  1.00  0.00     0.202 C 
BRANCH  22  23
ATOM     23  C   UNL A   1      32.120  30.435  26.745  1.00  0.00     0.261 C 
BRANCH  23  24
ATOM     24  O   UNL A   1      33.554  30.407  26.816  1.00  0.00    -0.460 OA
BRANCH  24  25
ATOM     25  C   UNL A   1      34.094  31.430  27.526  1.00  0.00     0.338 C 
ATOM     26  O   UNL A   1      33.536  32.454  27.884  1.00  0.00    -0.246 OA
BRANCH  25  27
ATOM     27  C   UNL A   1      35.437  31.051  28.001  1.00  0.00     0.060 A 
ATOM     28  C   UNL A   1      35.636  29.731  28.430  1.00  0.00     0.016 A 
ATOM     29  C   UNL A   1      36.458  31.995  28.101  1.00  0.00     0.016 A 
ATOM     30  C   UNL A   1      36.849  29.360  29.001  1.00  0.00     0.010 A 
ATOM     31  C   UNL A   1      37.672  31.621  28.684  1.00  0.00     0.010 A 
ATOM     32  C   UNL A   1      37.861  30.313  29.167  1.00  0.00    -0.014 A 
BRANCH  32  33
ATOM     33  C   UNL A   1      39.073  29.977  29.954  1.00  0.00     0.031 A 
ATOM     34  C   UNL A   1      39.973  28.868  29.477  1.00  0.00     0.074 A 
ATOM     35  C   UNL A   1      39.373  30.662  31.074  1.00  0.00     0.049 A 
ATOM     36  N   UNL A   1      41.042  28.371  30.043  1.00  0.00    -0.248 NA
ATOM     37  C   UNL A   1      39.619  28.230  28.197  1.00  0.00     0.031 C 
ATOM     38  C   UNL A   1      38.601  31.783  31.610  1.00  0.00     0.029 A 
ATOM     39  N   UNL A   1      40.403  30.505  31.966  1.00  0.00    -0.354 N 
ATOM     40  C   UNL A   1      41.477  27.352  29.202  1.00  0.00     0.074 A 
ATOM     41  C   UNL A   1      40.541  27.282  28.102  1.00  0.00     0.031 C 
ATOM     42  C   UNL A   1      39.185  32.212  32.742  1.00  0.00     0.029 A 
ATOM     43  C   UNL A   1      40.339  31.366  33.037  1.00  0.00     0.049 A 
ATOM     44  H   UNL A   1      41.120  29.841  31.851  1.00  0.00     0.167 HD
ATOM     45  C   UNL A   1      42.560  26.550  29.337  1.00  0.00     0.031 A 
ATOM     46  C   UNL A   1      41.105  31.442  34.143  1.00  0.00     0.031 A 
ATOM     47  C   UNL A   1      43.483  26.624  30.440  1.00  0.00     0.049 A 
ATOM     48  C   UNL A   1      42.258  30.484  34.305  1.00  0.00     0.074 A 
ATOM     49  C   UNL A   1      44.627  25.874  30.652  1.00  0.00     0.029 A 
ATOM     50  N   UNL A   1      43.366  27.487  31.518  1.00  0.00    -0.354 N 
ATOM     51  N   UNL A   1      42.676  29.550  33.485  1.00  0.00    -0.248 NA
ATOM     52  C   UNL A   1      43.048  30.599  35.539  1.00  0.00     0.031 C 
ATOM     53  C   UNL A   1      45.156  26.226  31.896  1.00  0.00     0.029 A 
ATOM     54  C   UNL A   1      44.396  27.261  32.418  1.00  0.00     0.049 A 
ATOM     55  H   UNL A   1      42.657  28.160  31.629  1.00  0.00     0.167 HD
ATOM     56  C   UNL A   1      43.802  28.994  34.087  1.00  0.00     0.074 A 
ATOM     57  C   UNL A   1      44.007  29.709  35.328  1.00  0.00     0.031 C 
ATOM     58  C   UNL A   1      44.595  27.985  33.649  1.00  0.00     0.031 A 
BRANCH  45  59
ATOM     59  C   UNL A   1      42.796  25.495  28.287  1.00  0.00    -0.014 A 
ATOM     60  C   UNL A   1      43.632  25.731  27.180  1.00  0.00     0.010 A 
ATOM     61  C   UNL A   1      42.236  24.215  28.458  1.00  0.00     0.010 A 
ATOM     62  C   UNL A   1      43.884  24.715  26.255  1.00  0.00     0.020 A 
ATOM     63  C   UNL A   1      42.512  23.186  27.554  1.00  0.00     0.020 A 
ATOM     64  C   UNL A   1      43.329  23.446  26.452  1.00  0.00     0.054 A 
BRANCH  64  65
ATOM     65  S   UNL A   1      43.725  22.131  25.265  1.00  0.00     0.124 S 
ATOM     66  O   UNL A   1      42.754  21.100  25.622  1.00  0.00    -0.237 OA
ATOM     67  O   UNL A   1      43.502  22.787  23.980  1.00  0.00    -0.237 OA
ATOM     68  O   UNL A   1      45.117  21.802  25.563  1.00  0.00    -0.744 OA
ENDBRANCH  64  65
ENDBRANCH  45  59
BRANCH  46  69
ATOM     69  C   UNL A   1      40.793  32.441  35.206  1.00  0.00    -0.014 A 
ATOM     70  C   UNL A   1      41.342  33.734  35.164  1.00  0.00     0.010 A 
ATOM     71  C   UNL A   1      39.963  32.088  36.287  1.00  0.00     0.010 A 
ATOM     72  C   UNL A   1      41.098  34.642  36.199  1.00  0.00     0.020 A 
ATOM     73  C   UNL A   1      39.684  33.005  37.303  1.00  0.00     0.020 A 
ATOM     74  C   UNL A   1      40.268  34.272  37.261  1.00  0.00     0.054 A 
BRANCH  74  75
ATOM     75  S   UNL A   1      39.946  35.476  38.578  1.00  0.00     0.124 S 
ATOM     76  O   UNL A   1      38.804  34.880  39.264  1.00  0.00    -0.237 OA
ATOM     77  O   UNL A   1      41.204  35.471  39.320  1.00  0.00    -0.237 OA
ATOM     78  O   UNL A   1      39.665  36.712  37.851  1.00  0.00    -0.744 OA
ENDBRANCH  74  75
ENDBRANCH  46  69
BRANCH  58  79
ATOM     79  C   UNL A   1      45.797  27.625  34.486  1.00  0.00    -0.014 A 
ATOM     80  C   UNL A   1      45.787  26.525  35.362  1.00  0.00     0.010 A 
ATOM     81  C   UNL A   1      46.982  28.374  34.347  1.00  0.00     0.010 A 
ATOM     82  C   UNL A   1      46.924  26.206  36.109  1.00  0.00     0.020 A 
ATOM     83  C   UNL A   1      48.132  28.034  35.061  1.00  0.00     0.020 A 
ATOM     84  C   UNL A   1      48.091  26.960  35.950  1.00  0.00     0.054 A 
BRANCH  84  85
ATOM     85  S   UNL A   1      49.566  26.494  36.897  1.00  0.00     0.124 S 
ATOM     86  O   UNL A   1      49.500  25.036  36.868  1.00  0.00    -0.237 OA
ATOM     87  O   UNL A   1      50.647  27.091  36.117  1.00  0.00    -0.237 OA
ATOM     88  O   UNL A   1      49.343  27.100  38.209  1.00  0.00    -0.744 OA
ENDBRANCH  84  85
ENDBRANCH  58  79
ENDBRANCH  32  33
ENDBRANCH  25  27
ENDBRANCH  24  25
ENDBRANCH  23  24
ENDBRANCH  22  23
ENDBRANCH   1  22
TORSDOF 20
ENDMDL
