MODEL 1
REMARK VINA RESULT:      -9.0      0.000      0.000
REMARK SMILES O=C(CNc1nccs1)OCCOCCOC(=O)c1ccc(-c2c3nc(c(-c4ccc(S(=O)(=O)[O-])cc4)c4ccc([nH]4)c(-c4ccc(S(=O)(=O)[O-])cc4)c4nc(c(-c5ccc(S(=O)(=O)[O-])cc5)c5ccc2[nH]5)C=C4)C=C3)cc1
REMARK SMILES IDX 14 1 13 2 12 3 11 4 10 5 2 6 1 7 3 8 4 9 5 11 6 12 9 13 7 14
REMARK SMILES IDX 8 15 15 16 16 17 17 18 18 19 19 20 20 21 78 22 21 23 77 24
REMARK SMILES IDX 22 25 23 26 24 27 71 28 25 29 76 30 70 31 72 32 26 33 75 34
REMARK SMILES IDX 69 35 68 36 27 38 57 39 38 40 56 41 39 42 42 43 55 44 73 45
REMARK SMILES IDX 40 46 41 47 54 49 74 50 43 51 28 52 29 53 37 54 30 55 36 56
REMARK SMILES IDX 31 57 32 58 33 59 34 60 35 61 58 62 59 63 67 64 60 65 66 66
REMARK SMILES IDX 61 67 62 68 63 69 64 70 65 71 44 72 45 73 53 74 46 75 52 76
REMARK SMILES IDX 47 77 48 78 49 79 50 80 51 81
REMARK H PARENT 4 10 72 37 42 48
REMARK Flexibility Score: inf
ROOT
ATOM      1  C   UNL A   1      39.648  22.150  26.589  1.00  0.00     0.202 C 
ENDROOT
BRANCH   1   2
ATOM      2  O   UNL A   1      38.858  21.974  25.409  1.00  0.00    -0.374 OA
BRANCH   2   3
ATOM      3  C   UNL A   1      37.463  22.209  25.562  1.00  0.00     0.202 C 
BRANCH   3   4
ATOM      4  C   UNL A   1      36.530  21.034  25.286  1.00  0.00     0.261 C 
BRANCH   4   5
ATOM      5  O   UNL A   1      35.320  21.038  26.054  1.00  0.00    -0.462 OA
BRANCH   5   6
ATOM      6  C   UNL A   1      34.186  21.701  25.731  1.00  0.00     0.325 C 
ATOM      7  O   UNL A   1      34.142  22.921  25.908  1.00  0.00    -0.250 OA
BRANCH   6   8
ATOM      8  C   UNL A   1      32.953  20.958  25.221  1.00  0.00     0.238 C 
BRANCH   8   9
ATOM      9  N   UNL A   1      33.227  19.925  24.230  1.00  0.00    -0.351 N 
ATOM     10  H   UNL A   1      33.405  20.175  23.294  1.00  0.00     0.163 HD
BRANCH   9  11
ATOM     11  C   UNL A   1      33.233  18.626  24.596  1.00  0.00     0.183 A 
ATOM     12  N   UNL A   1      32.255  18.019  25.223  1.00  0.00    -0.229 NA
ATOM     13  S   UNL A   1      34.647  17.663  24.369  1.00  0.00    -0.106 S 
ATOM     14  C   UNL A   1      32.656  16.773  25.653  1.00  0.00     0.125 A 
ATOM     15  C   UNL A   1      33.941  16.418  25.310  1.00  0.00     0.088 A 
ENDBRANCH   9  11
ENDBRANCH   8   9
ENDBRANCH   6   8
ENDBRANCH   5   6
ENDBRANCH   4   5
ENDBRANCH   3   4
ENDBRANCH   2   3
ENDBRANCH   1   2
BRANCH   1  16
ATOM     16  C   UNL A   1      40.598  23.354  26.565  1.00  0.00     0.261 C 
BRANCH  16  17
ATOM     17  O   UNL A   1      39.880  24.590  26.422  1.00  0.00    -0.460 OA
BRANCH  17  18
ATOM     18  C   UNL A   1      40.643  25.707  26.340  1.00  0.00     0.338 C 
ATOM     19  O   UNL A   1      41.104  26.217  25.331  1.00  0.00    -0.246 OA
BRANCH  18  20
ATOM     20  C   UNL A   1      40.642  26.366  27.662  1.00  0.00     0.060 A 
ATOM     21  C   UNL A   1      39.593  26.078  28.547  1.00  0.00     0.016 A 
ATOM     22  C   UNL A   1      41.668  27.236  28.034  1.00  0.00     0.016 A 
ATOM     23  C   UNL A   1      39.544  26.693  29.798  1.00  0.00     0.010 A 
ATOM     24  C   UNL A   1      41.615  27.857  29.279  1.00  0.00     0.010 A 
ATOM     25  C   UNL A   1      40.535  27.615  30.150  1.00  0.00    -0.014 A 
BRANCH  25  26
ATOM     26  C   UNL A   1      40.381  28.481  31.339  1.00  0.00     0.031 A 
ATOM     27  C   UNL A   1      39.367  29.587  31.276  1.00  0.00     0.074 A 
ATOM     28  C   UNL A   1      41.176  28.336  32.412  1.00  0.00     0.049 A 
ATOM     29  N   UNL A   1      39.173  30.584  32.097  1.00  0.00    -0.248 NA
ATOM     30  C   UNL A   1      38.465  29.576  30.111  1.00  0.00     0.031 C 
ATOM     31  C   UNL A   1      42.171  27.280  32.591  1.00  0.00     0.029 A 
ATOM     32  N   UNL A   1      41.295  29.112  33.538  1.00  0.00    -0.354 N 
ATOM     33  C   UNL A   1      38.155  31.341  31.530  1.00  0.00     0.074 A 
ATOM     34  C   UNL A   1      37.785  30.697  30.289  1.00  0.00     0.031 C 
ATOM     35  C   UNL A   1      42.829  27.497  33.743  1.00  0.00     0.029 A 
ATOM     36  C   UNL A   1      42.332  28.730  34.353  1.00  0.00     0.049 A 
ATOM     37  H   UNL A   1      40.696  29.866  33.741  1.00  0.00     0.167 HD
ATOM     38  C   UNL A   1      37.587  32.476  32.001  1.00  0.00     0.031 A 
ATOM     39  C   UNL A   1      42.854  29.334  35.440  1.00  0.00     0.031 A 
ATOM     40  C   UNL A   1      37.984  33.112  33.227  1.00  0.00     0.049 A 
ATOM     41  C   UNL A   1      42.245  30.622  35.926  1.00  0.00     0.074 A 
ATOM     42  C   UNL A   1      37.453  34.242  33.821  1.00  0.00     0.029 A 
ATOM     43  N   UNL A   1      39.024  32.682  34.039  1.00  0.00    -0.354 N 
ATOM     44  N   UNL A   1      41.253  31.309  35.410  1.00  0.00    -0.248 NA
ATOM     45  C   UNL A   1      42.816  31.213  37.144  1.00  0.00     0.031 C 
ATOM     46  C   UNL A   1      38.219  34.536  34.954  1.00  0.00     0.029 A 
ATOM     47  C   UNL A   1      39.175  33.542  35.112  1.00  0.00     0.049 A 
ATOM     48  H   UNL A   1      39.575  31.881  33.875  1.00  0.00     0.167 HD
ATOM     49  C   UNL A   1      41.061  32.398  36.255  1.00  0.00     0.074 A 
ATOM     50  C   UNL A   1      42.039  32.275  37.318  1.00  0.00     0.031 C 
ATOM     51  C   UNL A   1      40.153  33.401  36.163  1.00  0.00     0.031 A 
BRANCH  38  52
ATOM     52  C   UNL A   1      36.527  33.125  31.148  1.00  0.00    -0.014 A 
ATOM     53  C   UNL A   1      36.844  33.780  29.945  1.00  0.00     0.010 A 
ATOM     54  C   UNL A   1      35.184  33.081  31.566  1.00  0.00     0.010 A 
ATOM     55  C   UNL A   1      35.851  34.436  29.211  1.00  0.00     0.020 A 
ATOM     56  C   UNL A   1      34.182  33.704  30.818  1.00  0.00     0.020 A 
ATOM     57  C   UNL A   1      34.527  34.399  29.659  1.00  0.00     0.054 A 
BRANCH  57  58
ATOM     58  S   UNL A   1      33.260  35.271  28.697  1.00  0.00     0.124 S 
ATOM     59  O   UNL A   1      34.071  36.151  27.860  1.00  0.00    -0.237 OA
ATOM     60  O   UNL A   1      32.586  34.182  27.994  1.00  0.00    -0.237 OA
ATOM     61  O   UNL A   1      32.456  35.946  29.712  1.00  0.00    -0.744 OA
ENDBRANCH  57  58
ENDBRANCH  38  52
BRANCH  39  62
ATOM     62  C   UNL A   1      44.036  28.727  36.112  1.00  0.00    -0.014 A 
ATOM     63  C   UNL A   1      43.876  27.714  37.071  1.00  0.00     0.010 A 
ATOM     64  C   UNL A   1      45.336  29.120  35.742  1.00  0.00     0.010 A 
ATOM     65  C   UNL A   1      44.994  27.097  37.641  1.00  0.00     0.020 A 
ATOM     66  C   UNL A   1      46.456  28.488  36.289  1.00  0.00     0.020 A 
ATOM     67  C   UNL A   1      46.278  27.479  37.236  1.00  0.00     0.054 A 
BRANCH  67  68
ATOM     68  S   UNL A   1      47.707  26.590  37.915  1.00  0.00     0.124 S 
ATOM     69  O   UNL A   1      48.069  27.422  39.058  1.00  0.00    -0.237 OA
ATOM     70  O   UNL A   1      47.140  25.283  38.234  1.00  0.00    -0.237 OA
ATOM     71  O   UNL A   1      48.666  26.591  36.811  1.00  0.00    -0.744 OA
ENDBRANCH  67  68
ENDBRANCH  39  62
BRANCH  51  72
ATOM     72  C   UNL A   1      40.126  34.430  37.263  1.00  0.00    -0.014 A 
ATOM     73  C   UNL A   1      40.727  35.691  37.106  1.00  0.00     0.010 A 
ATOM     74  C   UNL A   1      39.386  34.163  38.431  1.00  0.00     0.010 A 
ATOM     75  C   UNL A   1      40.594  36.663  38.102  1.00  0.00     0.020 A 
ATOM     76  C   UNL A   1      39.227  35.142  39.414  1.00  0.00     0.020 A 
ATOM     77  C   UNL A   1      39.838  36.385  39.246  1.00  0.00     0.054 A 
BRANCH  77  78
ATOM     78  S   UNL A   1      39.611  37.693  40.483  1.00  0.00     0.124 S 
ATOM     79  O   UNL A   1      38.850  38.690  39.735  1.00  0.00    -0.237 OA
ATOM     80  O   UNL A   1      38.877  37.006  41.543  1.00  0.00    -0.237 OA
ATOM     81  O   UNL A   1      40.976  38.084  40.830  1.00  0.00    -0.744 OA
ENDBRANCH  77  78
ENDBRANCH  51  72
ENDBRANCH  25  26
ENDBRANCH  18  20
ENDBRANCH  17  18
ENDBRANCH  16  17
ENDBRANCH   1  16
TORSDOF 19
ENDMDL
MODEL 2
REMARK VINA RESULT:      -9.0      2.942      9.152
REMARK SMILES O=C(CNc1nccs1)OCCOCCOC(=O)c1ccc(-c2c3nc(c(-c4ccc(S(=O)(=O)[O-])cc4)c4ccc([nH]4)c(-c4ccc(S(=O)(=O)[O-])cc4)c4nc(c(-c5ccc(S(=O)(=O)[O-])cc5)c5ccc2[nH]5)C=C4)C=C3)cc1
REMARK SMILES IDX 14 1 13 2 12 3 11 4 10 5 2 6 1 7 3 8 4 9 5 11 6 12 9 13 7 14
REMARK SMILES IDX 8 15 15 16 16 17 17 18 18 19 19 20 20 21 78 22 21 23 77 24
REMARK SMILES IDX 22 25 23 26 24 27 71 28 25 29 76 30 70 31 72 32 26 33 75 34
REMARK SMILES IDX 69 35 68 36 27 38 57 39 38 40 56 41 39 42 42 43 55 44 73 45
REMARK SMILES IDX 40 46 41 47 54 49 74 50 43 51 28 52 29 53 37 54 30 55 36 56
REMARK SMILES IDX 31 57 32 58 33 59 34 60 35 61 58 62 59 63 67 64 60 65 66 66
REMARK SMILES IDX 61 67 62 68 63 69 64 70 65 71 44 72 45 73 53 74 46 75 52 76
REMARK SMILES IDX 47 77 48 78 49 79 50 80 51 81
REMARK H PARENT 4 10 72 37 42 48
REMARK Flexibility Score: inf
ROOT
ATOM      1  C   UNL A   1      36.433  23.876  25.666  1.00  0.00     0.202 C 
ENDROOT
BRANCH   1   2
ATOM      2  O   UNL A   1      35.423  24.025  24.664  1.00  0.00    -0.374 OA
BRANCH   2   3
ATOM      3  C   UNL A   1      34.080  23.984  25.134  1.00  0.00     0.202 C 
BRANCH   3   4
ATOM      4  C   UNL A   1      33.829  23.242  26.443  1.00  0.00     0.261 C 
BRANCH   4   5
ATOM      5  O   UNL A   1      32.481  22.788  26.624  1.00  0.00    -0.462 OA
BRANCH   5   6
ATOM      6  C   UNL A   1      31.851  21.870  25.855  1.00  0.00     0.325 C 
ATOM      7  O   UNL A   1      30.618  21.878  25.813  1.00  0.00    -0.250 OA
BRANCH   6   8
ATOM      8  C   UNL A   1      32.633  20.795  25.105  1.00  0.00     0.238 C 
BRANCH   8   9
ATOM      9  N   UNL A   1      33.061  19.666  25.921  1.00  0.00    -0.351 N 
ATOM     10  H   UNL A   1      33.289  19.802  26.870  1.00  0.00     0.163 HD
BRANCH   9  11
ATOM     11  C   UNL A   1      33.147  18.435  25.376  1.00  0.00     0.183 A 
ATOM     12  N   UNL A   1      32.258  17.484  25.530  1.00  0.00    -0.229 NA
ATOM     13  S   UNL A   1      34.560  17.961  24.505  1.00  0.00    -0.106 S 
ATOM     14  C   UNL A   1      32.740  16.288  25.045  1.00  0.00     0.125 A 
ATOM     15  C   UNL A   1      33.994  16.345  24.480  1.00  0.00     0.088 A 
ENDBRANCH   9  11
ENDBRANCH   8   9
ENDBRANCH   6   8
ENDBRANCH   5   6
ENDBRANCH   4   5
ENDBRANCH   3   4
ENDBRANCH   2   3
ENDBRANCH   1   2
BRANCH   1  16
ATOM     16  C   UNL A   1      37.563  22.899  25.315  1.00  0.00     0.261 C 
BRANCH  16  17
ATOM     17  O   UNL A   1      38.297  22.500  26.483  1.00  0.00    -0.460 OA
BRANCH  17  18
ATOM     18  C   UNL A   1      39.617  22.803  26.480  1.00  0.00     0.338 C 
ATOM     19  O   UNL A   1      40.519  22.185  25.937  1.00  0.00    -0.246 OA
BRANCH  18  20
ATOM     20  C   UNL A   1      39.782  24.156  27.050  1.00  0.00     0.060 A 
ATOM     21  C   UNL A   1      40.433  25.129  26.276  1.00  0.00     0.016 A 
ATOM     22  C   UNL A   1      39.286  24.470  28.315  1.00  0.00     0.016 A 
ATOM     23  C   UNL A   1      40.626  26.413  26.784  1.00  0.00     0.010 A 
ATOM     24  C   UNL A   1      39.487  25.750  28.827  1.00  0.00     0.010 A 
ATOM     25  C   UNL A   1      40.188  26.714  28.078  1.00  0.00    -0.014 A 
BRANCH  25  26
ATOM     26  C   UNL A   1      40.603  27.964  28.751  1.00  0.00     0.031 A 
ATOM     27  C   UNL A   1      41.926  27.972  29.462  1.00  0.00     0.074 A 
ATOM     28  C   UNL A   1      39.792  29.033  28.793  1.00  0.00     0.049 A 
ATOM     29  N   UNL A   1      42.427  28.864  30.273  1.00  0.00    -0.248 NA
ATOM     30  C   UNL A   1      42.788  26.798  29.244  1.00  0.00     0.031 C 
ATOM     31  C   UNL A   1      38.502  29.144  28.114  1.00  0.00     0.029 A 
ATOM     32  N   UNL A   1      39.921  30.216  29.476  1.00  0.00    -0.354 N 
ATOM     33  C   UNL A   1      43.644  28.343  30.694  1.00  0.00     0.074 A 
ATOM     34  C   UNL A   1      43.797  27.052  30.062  1.00  0.00     0.031 C 
ATOM     35  C   UNL A   1      37.938  30.318  28.446  1.00  0.00     0.029 A 
ATOM     36  C   UNL A   1      38.806  31.014  29.395  1.00  0.00     0.049 A 
ATOM     37  H   UNL A   1      40.732  30.468  29.973  1.00  0.00     0.167 HD
ATOM     38  C   UNL A   1      44.548  28.892  31.539  1.00  0.00     0.031 A 
ATOM     39  C   UNL A   1      38.498  32.151  30.052  1.00  0.00     0.031 A 
ATOM     40  C   UNL A   1      44.367  30.169  32.174  1.00  0.00     0.049 A 
ATOM     41  C   UNL A   1      39.491  32.726  31.026  1.00  0.00     0.074 A 
ATOM     42  C   UNL A   1      45.234  30.840  33.017  1.00  0.00     0.029 A 
ATOM     43  N   UNL A   1      43.234  30.959  32.050  1.00  0.00    -0.354 N 
ATOM     44  N   UNL A   1      40.661  32.250  31.386  1.00  0.00    -0.248 NA
ATOM     45  C   UNL A   1      39.131  33.993  31.677  1.00  0.00     0.031 C 
ATOM     46  C   UNL A   1      44.593  32.003  33.459  1.00  0.00     0.029 A 
ATOM     47  C   UNL A   1      43.361  32.097  32.827  1.00  0.00     0.049 A 
ATOM     48  H   UNL A   1      42.453  30.742  31.490  1.00  0.00     0.167 HD
ATOM     49  C   UNL A   1      41.189  33.174  32.283  1.00  0.00     0.074 A 
ATOM     50  C   UNL A   1      40.213  34.238  32.408  1.00  0.00     0.031 C 
ATOM     51  C   UNL A   1      42.378  33.147  32.935  1.00  0.00     0.031 A 
BRANCH  38  52
ATOM     52  C   UNL A   1      45.774  28.078  31.866  1.00  0.00    -0.014 A 
ATOM     53  C   UNL A   1      46.933  28.134  31.072  1.00  0.00     0.010 A 
ATOM     54  C   UNL A   1      45.760  27.234  32.992  1.00  0.00     0.010 A 
ATOM     55  C   UNL A   1      48.029  27.314  31.357  1.00  0.00     0.020 A 
ATOM     56  C   UNL A   1      46.866  26.439  33.303  1.00  0.00     0.020 A 
ATOM     57  C   UNL A   1      47.984  26.466  32.468  1.00  0.00     0.054 A 
BRANCH  57  58
ATOM     58  S   UNL A   1      49.413  25.402  32.807  1.00  0.00     0.124 S 
ATOM     59  O   UNL A   1      49.819  25.006  31.461  1.00  0.00    -0.237 OA
ATOM     60  O   UNL A   1      50.328  26.306  33.498  1.00  0.00    -0.237 OA
ATOM     61  O   UNL A   1      48.860  24.330  33.631  1.00  0.00    -0.744 OA
ENDBRANCH  57  58
ENDBRANCH  38  52
BRANCH  39  62
ATOM     62  C   UNL A   1      37.174  32.790  29.819  1.00  0.00    -0.014 A 
ATOM     63  C   UNL A   1      36.105  32.574  30.704  1.00  0.00     0.010 A 
ATOM     64  C   UNL A   1      36.999  33.676  28.738  1.00  0.00     0.010 A 
ATOM     65  C   UNL A   1      34.889  33.239  30.519  1.00  0.00     0.020 A 
ATOM     66  C   UNL A   1      35.794  34.363  28.566  1.00  0.00     0.020 A 
ATOM     67  C   UNL A   1      34.745  34.140  29.459  1.00  0.00     0.054 A 
BRANCH  67  68
ATOM     68  S   UNL A   1      33.192  35.066  29.304  1.00  0.00     0.124 S 
ATOM     69  O   UNL A   1      32.464  34.278  28.315  1.00  0.00    -0.237 OA
ATOM     70  O   UNL A   1      32.665  35.021  30.666  1.00  0.00    -0.237 OA
ATOM     71  O   UNL A   1      33.626  36.388  28.857  1.00  0.00    -0.744 OA
ENDBRANCH  67  68
ENDBRANCH  39  62
BRANCH  51  72
ATOM     72  C   UNL A   1      42.729  34.322  33.810  1.00  0.00    -0.014 A 
ATOM     73  C   UNL A   1      42.450  34.323  35.187  1.00  0.00     0.010 A 
ATOM     74  C   UNL A   1      43.452  35.396  33.255  1.00  0.00     0.010 A 
ATOM     75  C   UNL A   1      42.882  35.381  35.993  1.00  0.00     0.020 A 
ATOM     76  C   UNL A   1      43.910  36.440  34.062  1.00  0.00     0.020 A 
ATOM     77  C   UNL A   1      43.617  36.429  35.426  1.00  0.00     0.054 A 
BRANCH  77  78
ATOM     78  S   UNL A   1      44.239  37.746  36.508  1.00  0.00     0.124 S 
ATOM     79  O   UNL A   1      45.613  37.317  36.751  1.00  0.00    -0.237 OA
ATOM     80  O   UNL A   1      44.089  38.938  35.678  1.00  0.00    -0.237 OA
ATOM     81  O   UNL A   1      43.353  37.687  37.670  1.00  0.00    -0.744 OA
ENDBRANCH  77  78
ENDBRANCH  51  72
ENDBRANCH  25  26
ENDBRANCH  18  20
ENDBRANCH  17  18
ENDBRANCH  16  17
ENDBRANCH   1  16
TORSDOF 19
ENDMDL
MODEL 3
REMARK VINA RESULT:      -8.7      6.787     13.950
REMARK SMILES O=C(CNc1nccs1)OCCOCCOC(=O)c1ccc(-c2c3nc(c(-c4ccc(S(=O)(=O)[O-])cc4)c4ccc([nH]4)c(-c4ccc(S(=O)(=O)[O-])cc4)c4nc(c(-c5ccc(S(=O)(=O)[O-])cc5)c5ccc2[nH]5)C=C4)C=C3)cc1
REMARK SMILES IDX 14 1 13 2 12 3 11 4 10 5 2 6 1 7 3 8 4 9 5 11 6 12 9 13 7 14
REMARK SMILES IDX 8 15 15 16 16 17 17 18 18 19 19 20 20 21 78 22 21 23 77 24
REMARK SMILES IDX 22 25 23 26 24 27 71 28 25 29 76 30 70 31 72 32 26 33 75 34
REMARK SMILES IDX 69 35 68 36 27 38 57 39 38 40 56 41 39 42 42 43 55 44 73 45
REMARK SMILES IDX 40 46 41 47 54 49 74 50 43 51 28 52 29 53 37 54 30 55 36 56
REMARK SMILES IDX 31 57 32 58 33 59 34 60 35 61 58 62 59 63 67 64 60 65 66 66
REMARK SMILES IDX 61 67 62 68 63 69 64 70 65 71 44 72 45 73 53 74 46 75 52 76
REMARK SMILES IDX 47 77 48 78 49 79 50 80 51 81
REMARK H PARENT 4 10 72 37 42 48
REMARK Flexibility Score: inf
ROOT
ATOM      1  C   UNL A   1      37.802  31.836  34.057  1.00  0.00     0.202 C 
ENDROOT
BRANCH   1   2
ATOM      2  O   UNL A   1      39.047  32.274  33.505  1.00  0.00    -0.374 OA
BRANCH   2   3
ATOM      3  C   UNL A   1      39.272  33.678  33.536  1.00  0.00     0.202 C 
BRANCH   3   4
ATOM      4  C   UNL A   1      38.255  34.558  32.815  1.00  0.00     0.261 C 
BRANCH   4   5
ATOM      5  O   UNL A   1      38.484  34.705  31.407  1.00  0.00    -0.462 OA
BRANCH   5   6
ATOM      6  C   UNL A   1      38.124  33.815  30.454  1.00  0.00     0.325 C 
ATOM      7  O   UNL A   1      38.929  32.938  30.129  1.00  0.00    -0.250 OA
BRANCH   6   8
ATOM      8  C   UNL A   1      36.780  33.921  29.739  1.00  0.00     0.238 C 
BRANCH   8   9
ATOM      9  N   UNL A   1      35.625  33.547  30.546  1.00  0.00    -0.351 N 
ATOM     10  H   UNL A   1      35.651  32.728  31.093  1.00  0.00     0.163 HD
BRANCH   9  11
ATOM     11  C   UNL A   1      34.521  34.322  30.541  1.00  0.00     0.183 A 
ATOM     12  N   UNL A   1      33.833  34.640  29.472  1.00  0.00    -0.229 NA
ATOM     13  S   UNL A   1      33.988  35.091  31.992  1.00  0.00    -0.106 S 
ATOM     14  C   UNL A   1      32.908  35.619  29.765  1.00  0.00     0.125 A 
ATOM     15  C   UNL A   1      32.870  36.016  31.082  1.00  0.00     0.088 A 
ENDBRANCH   9  11
ENDBRANCH   8   9
ENDBRANCH   6   8
ENDBRANCH   5   6
ENDBRANCH   4   5
ENDBRANCH   3   4
ENDBRANCH   2   3
ENDBRANCH   1   2
BRANCH   1  16
ATOM     16  C   UNL A   1      36.745  31.412  33.030  1.00  0.00     0.261 C 
BRANCH  16  17
ATOM     17  O   UNL A   1      37.110  30.188  32.371  1.00  0.00    -0.460 OA
BRANCH  17  18
ATOM     18  C   UNL A   1      36.856  30.139  31.041  1.00  0.00     0.338 C 
ATOM     19  O   UNL A   1      35.870  30.561  30.458  1.00  0.00    -0.246 OA
BRANCH  18  20
ATOM     20  C   UNL A   1      38.085  29.695  30.351  1.00  0.00     0.060 A 
ATOM     21  C   UNL A   1      39.127  29.164  31.126  1.00  0.00     0.016 A 
ATOM     22  C   UNL A   1      38.202  29.778  28.964  1.00  0.00     0.016 A 
ATOM     23  C   UNL A   1      40.312  28.751  30.517  1.00  0.00     0.010 A 
ATOM     24  C   UNL A   1      39.389  29.374  28.356  1.00  0.00     0.010 A 
ATOM     25  C   UNL A   1      40.459  28.893  29.133  1.00  0.00    -0.014 A 
BRANCH  25  26
ATOM     26  C   UNL A   1      41.778  28.721  28.487  1.00  0.00     0.031 A 
ATOM     27  C   UNL A   1      42.147  27.350  27.998  1.00  0.00     0.074 A 
ATOM     28  C   UNL A   1      42.652  29.738  28.409  1.00  0.00     0.049 A 
ATOM     29  N   UNL A   1      43.298  26.901  27.574  1.00  0.00    -0.248 NA
ATOM     30  C   UNL A   1      41.073  26.343  28.015  1.00  0.00     0.031 C 
ATOM     31  C   UNL A   1      42.387  31.114  28.824  1.00  0.00     0.029 A 
ATOM     32  N   UNL A   1      43.958  29.754  27.989  1.00  0.00    -0.354 N 
ATOM     33  C   UNL A   1      43.098  25.552  27.310  1.00  0.00     0.074 A 
ATOM     34  C   UNL A   1      41.722  25.253  27.639  1.00  0.00     0.031 C 
ATOM     35  C   UNL A   1      43.511  31.836  28.675  1.00  0.00     0.029 A 
ATOM     36  C   UNL A   1      44.582  30.959  28.200  1.00  0.00     0.049 A 
ATOM     37  H   UNL A   1      44.404  28.979  27.578  1.00  0.00     0.167 HD
ATOM     38  C   UNL A   1      43.987  24.644  26.845  1.00  0.00     0.031 A 
ATOM     39  C   UNL A   1      45.880  31.303  28.073  1.00  0.00     0.031 A 
ATOM     40  C   UNL A   1      45.358  24.957  26.544  1.00  0.00     0.049 A 
ATOM     41  C   UNL A   1      46.868  30.271  27.600  1.00  0.00     0.074 A 
ATOM     42  C   UNL A   1      46.337  24.126  26.031  1.00  0.00     0.029 A 
ATOM     43  N   UNL A   1      45.947  26.196  26.749  1.00  0.00    -0.354 N 
ATOM     44  N   UNL A   1      46.663  29.007  27.310  1.00  0.00    -0.248 NA
ATOM     45  C   UNL A   1      48.260  30.709  27.428  1.00  0.00     0.031 C 
ATOM     46  C   UNL A   1      47.536  24.845  25.992  1.00  0.00     0.029 A 
ATOM     47  C   UNL A   1      47.286  26.146  26.404  1.00  0.00     0.049 A 
ATOM     48  H   UNL A   1      45.481  26.994  27.089  1.00  0.00     0.167 HD
ATOM     49  C   UNL A   1      47.893  28.506  26.894  1.00  0.00     0.074 A 
ATOM     50  C   UNL A   1      48.835  29.604  26.966  1.00  0.00     0.031 C 
ATOM     51  C   UNL A   1      48.208  27.253  26.481  1.00  0.00     0.031 A 
BRANCH  38  52
ATOM     52  C   UNL A   1      43.511  23.221  26.698  1.00  0.00    -0.014 A 
ATOM     53  C   UNL A   1      42.951  22.514  27.777  1.00  0.00     0.010 A 
ATOM     54  C   UNL A   1      43.635  22.577  25.453  1.00  0.00     0.010 A 
ATOM     55  C   UNL A   1      42.584  21.172  27.632  1.00  0.00     0.020 A 
ATOM     56  C   UNL A   1      43.237  21.248  25.293  1.00  0.00     0.020 A 
ATOM     57  C   UNL A   1      42.738  20.546  26.391  1.00  0.00     0.054 A 
BRANCH  57  58
ATOM     58  S   UNL A   1      42.270  18.801  26.233  1.00  0.00     0.124 S 
ATOM     59  O   UNL A   1      43.264  18.308  25.283  1.00  0.00    -0.237 OA
ATOM     60  O   UNL A   1      42.411  18.308  27.601  1.00  0.00    -0.237 OA
ATOM     61  O   UNL A   1      40.900  18.853  25.731  1.00  0.00    -0.744 OA
ENDBRANCH  57  58
ENDBRANCH  38  52
BRANCH  39  62
ATOM     62  C   UNL A   1      46.305  32.684  28.431  1.00  0.00    -0.014 A 
ATOM     63  C   UNL A   1      46.772  32.981  29.722  1.00  0.00     0.010 A 
ATOM     64  C   UNL A   1      46.305  33.698  27.453  1.00  0.00     0.010 A 
ATOM     65  C   UNL A   1      47.241  34.262  30.027  1.00  0.00     0.020 A 
ATOM     66  C   UNL A   1      46.798  34.972  27.747  1.00  0.00     0.020 A 
ATOM     67  C   UNL A   1      47.263  35.247  29.034  1.00  0.00     0.054 A 
BRANCH  67  68
ATOM     68  S   UNL A   1      47.973  36.869  29.429  1.00  0.00     0.124 S 
ATOM     69  O   UNL A   1      46.839  37.760  29.208  1.00  0.00    -0.237 OA
ATOM     70  O   UNL A   1      48.386  36.699  30.819  1.00  0.00    -0.237 OA
ATOM     71  O   UNL A   1      49.072  37.004  28.474  1.00  0.00    -0.744 OA
ENDBRANCH  67  68
ENDBRANCH  39  62
BRANCH  51  72
ATOM     72  C   UNL A   1      49.620  26.998  26.021  1.00  0.00    -0.014 A 
ATOM     73  C   UNL A   1      50.600  26.501  26.897  1.00  0.00     0.010 A 
ATOM     74  C   UNL A   1      49.935  27.155  24.657  1.00  0.00     0.010 A 
ATOM     75  C   UNL A   1      51.873  26.173  26.418  1.00  0.00     0.020 A 
ATOM     76  C   UNL A   1      51.195  26.802  24.171  1.00  0.00     0.020 A 
ATOM     77  C   UNL A   1      52.158  26.318  25.055  1.00  0.00     0.054 A 
BRANCH  77  78
ATOM     78  S   UNL A   1      53.789  25.805  24.446  1.00  0.00     0.124 S 
ATOM     79  O   UNL A   1      53.684  26.093  23.019  1.00  0.00    -0.237 OA
ATOM     80  O   UNL A   1      54.696  26.668  25.198  1.00  0.00    -0.237 OA
ATOM     81  O   UNL A   1      53.858  24.386  24.791  1.00  0.00    -0.744 OA
ENDBRANCH  77  78
ENDBRANCH  51  72
ENDBRANCH  25  26
ENDBRANCH  18  20
ENDBRANCH  17  18
ENDBRANCH  16  17
ENDBRANCH   1  16
TORSDOF 19
ENDMDL
