MODEL 1
REMARK VINA RESULT:     -10.7      0.000      0.000
REMARK SMILES C[C@H]1C[N@H+]2CCCC[C@@H]2CN1c1ccc(C(=O)OCCOCCOC(=O)c2ccc(-c3c4nc(c(-c5ccc(S(=O)(=O)[O-])cc5)c5ccc([nH]5)c(-c5ccc(S(=O)(=O)[O-])cc5)c5nc(c(-c6ccc(S(=O)(=O)[O-])cc6)c6ccc3[nH]6)C=C5)C=C4)cc2)cc1Cl
REMARK SMILES IDX 22 1 21 2 20 3 19 4 18 5 16 6 17 7 15 8 12 9 13 10 88 11
REMARK SMILES IDX 14 12 87 13 89 14 11 15 1 16 2 17 3 18 4 19 10 20 5 21 9 22
REMARK SMILES IDX 6 24 8 25 7 26 23 27 24 28 25 29 26 30 27 31 28 32 86 33
REMARK SMILES IDX 29 34 85 35 30 36 31 37 32 38 79 39 33 40 84 41 78 42 80 43
REMARK SMILES IDX 34 44 83 45 77 46 76 47 35 49 65 50 46 51 64 52 47 53 50 54
REMARK SMILES IDX 63 55 81 56 48 57 49 58 62 60 82 61 51 62 36 63 37 64 45 65
REMARK SMILES IDX 38 66 44 67 39 68 40 69 41 70 42 71 43 72 66 73 67 74 75 75
REMARK SMILES IDX 68 76 74 77 69 78 70 79 71 80 72 81 73 82 52 83 53 84 61 85
REMARK SMILES IDX 54 86 60 87 55 88 56 89 57 90 58 91 59 92
REMARK H PARENT 4 23 80 48 50 59
REMARK Flexibility Score: inf
ROOT
ATOM      1  C   UNL A   1      37.160  21.904  24.250  1.00  0.00     0.202 C 
ENDROOT
BRANCH   1   2
ATOM      2  O   UNL A   1      35.747  21.771  24.407  1.00  0.00    -0.374 OA
BRANCH   2   3
ATOM      3  C   UNL A   1      35.282  20.704  25.234  1.00  0.00     0.202 C 
BRANCH   3   4
ATOM      4  C   UNL A   1      34.230  19.773  24.622  1.00  0.00     0.261 C 
BRANCH   4   5
ATOM      5  O   UNL A   1      32.916  20.349  24.687  1.00  0.00    -0.460 OA
BRANCH   5   6
ATOM      6  C   UNL A   1      32.514  21.009  23.576  1.00  0.00     0.338 C 
ATOM      7  O   UNL A   1      32.151  20.514  22.516  1.00  0.00    -0.246 OA
BRANCH   6   8
ATOM      8  C   UNL A   1      32.406  22.459  23.857  1.00  0.00     0.061 A 
ATOM      9  C   UNL A   1      32.255  25.258  24.261  1.00  0.00     0.056 A 
ATOM     10  C   UNL A   1      32.965  24.722  23.179  1.00  0.00     0.028 A 
ATOM     11  C   UNL A   1      31.596  24.344  25.124  1.00  0.00     0.065 A 
ATOM     12  C   UNL A   1      33.042  23.341  22.977  1.00  0.00     0.018 A 
ATOM     13  C   UNL A   1      31.669  22.960  24.928  1.00  0.00     0.038 A 
ATOM     14  Cl  UNL A   1      30.610  24.890  26.445  1.00  0.00    -0.082 Cl
BRANCH   9  15
ATOM     15  N   UNL A   1      32.230  26.629  24.483  1.00  0.00    -0.356 N 
ATOM     16  C   UNL A   1      29.944  27.030  23.545  1.00  0.00     0.037 C 
ATOM     17  C   UNL A   1      31.356  27.590  23.776  1.00  0.00     0.134 C 
ATOM     18  C   UNL A   1      31.214  28.913  24.612  1.00  0.00     0.287 C 
ATOM     19  N   UNL A   1      32.427  29.451  25.280  1.00  0.00    -0.329 N 
ATOM     20  C   UNL A   1      33.498  27.215  24.955  1.00  0.00     0.182 C 
ATOM     21  C   UNL A   1      32.027  30.455  26.284  1.00  0.00     0.262 C 
ATOM     22  C   UNL A   1      33.169  28.349  25.946  1.00  0.00     0.203 C 
ATOM     23  H   UNL A   1      33.032  29.885  24.583  1.00  0.00     0.348 HD
ATOM     24  C   UNL A   1      33.229  31.038  27.028  1.00  0.00     0.062 C 
ATOM     25  C   UNL A   1      34.453  28.893  26.586  1.00  0.00     0.067 C 
ATOM     26  C   UNL A   1      34.113  29.951  27.630  1.00  0.00     0.012 C 
ENDBRANCH   9  15
ENDBRANCH   6   8
ENDBRANCH   5   6
ENDBRANCH   4   5
ENDBRANCH   3   4
ENDBRANCH   2   3
ENDBRANCH   1   2
BRANCH   1  27
ATOM     27  C   UNL A   1      38.041  21.354  25.379  1.00  0.00     0.261 C 
BRANCH  27  28
ATOM     28  O   UNL A   1      38.322  22.339  26.387  1.00  0.00    -0.460 OA
BRANCH  28  29
ATOM     29  C   UNL A   1      39.606  22.768  26.416  1.00  0.00     0.338 C 
ATOM     30  O   UNL A   1      40.581  22.210  25.930  1.00  0.00    -0.246 OA
BRANCH  29  31
ATOM     31  C   UNL A   1      39.670  24.132  26.971  1.00  0.00     0.060 A 
ATOM     32  C   UNL A   1      40.365  25.099  26.233  1.00  0.00     0.016 A 
ATOM     33  C   UNL A   1      39.121  24.447  28.215  1.00  0.00     0.016 A 
ATOM     34  C   UNL A   1      40.558  26.374  26.761  1.00  0.00     0.010 A 
ATOM     35  C   UNL A   1      39.321  25.727  28.746  1.00  0.00     0.010 A 
ATOM     36  C   UNL A   1      40.070  26.684  28.038  1.00  0.00    -0.014 A 
BRANCH  36  37
ATOM     37  C   UNL A   1      40.456  27.964  28.680  1.00  0.00     0.031 A 
ATOM     38  C   UNL A   1      41.858  28.135  29.198  1.00  0.00     0.074 A 
ATOM     39  C   UNL A   1      39.575  28.976  28.775  1.00  0.00     0.049 A 
ATOM     40  N   UNL A   1      42.406  29.168  29.784  1.00  0.00    -0.248 NA
ATOM     41  C   UNL A   1      42.761  26.985  29.033  1.00  0.00     0.031 C 
ATOM     42  C   UNL A   1      38.202  28.950  28.271  1.00  0.00     0.029 A 
ATOM     43  N   UNL A   1      39.709  30.225  29.326  1.00  0.00    -0.354 N 
ATOM     44  C   UNL A   1      43.713  28.791  30.071  1.00  0.00     0.074 A 
ATOM     45  C   UNL A   1      43.863  27.423  29.623  1.00  0.00     0.031 C 
ATOM     46  C   UNL A   1      37.624  30.136  28.527  1.00  0.00     0.029 A 
ATOM     47  C   UNL A   1      38.570  30.988  29.244  1.00  0.00     0.049 A 
ATOM     48  H   UNL A   1      40.543  30.544  29.741  1.00  0.00     0.167 HD
ATOM     49  C   UNL A   1      44.700  29.518  30.650  1.00  0.00     0.031 A 
ATOM     50  C   UNL A   1      38.316  32.229  29.704  1.00  0.00     0.031 A 
ATOM     51  C   UNL A   1      44.537  30.871  31.115  1.00  0.00     0.049 A 
ATOM     52  C   UNL A   1      39.400  32.990  30.418  1.00  0.00     0.074 A 
ATOM     53  C   UNL A   1      45.481  31.701  31.694  1.00  0.00     0.029 A 
ATOM     54  N   UNL A   1      43.350  31.587  31.070  1.00  0.00    -0.354 N 
ATOM     55  N   UNL A   1      40.640  32.632  30.654  1.00  0.00    -0.248 NA
ATOM     56  C   UNL A   1      39.050  34.324  30.922  1.00  0.00     0.031 C 
ATOM     57  C   UNL A   1      44.847  32.895  32.060  1.00  0.00     0.029 A 
ATOM     58  C   UNL A   1      43.525  32.835  31.645  1.00  0.00     0.049 A 
ATOM     59  H   UNL A   1      42.505  31.257  30.685  1.00  0.00     0.167 HD
ATOM     60  C   UNL A   1      41.227  33.710  31.310  1.00  0.00     0.074 A 
ATOM     61  C   UNL A   1      40.208  34.733  31.423  1.00  0.00     0.031 C 
ATOM     62  C   UNL A   1      42.499  33.842  31.768  1.00  0.00     0.031 A 
BRANCH  49  63
ATOM     63  C   UNL A   1      46.026  28.832  30.861  1.00  0.00    -0.014 A 
ATOM     64  C   UNL A   1      47.037  28.868  29.883  1.00  0.00     0.010 A 
ATOM     65  C   UNL A   1      46.259  28.128  32.057  1.00  0.00     0.010 A 
ATOM     66  C   UNL A   1      48.227  28.157  30.067  1.00  0.00     0.020 A 
ATOM     67  C   UNL A   1      47.460  27.443  32.260  1.00  0.00     0.020 A 
ATOM     68  C   UNL A   1      48.426  27.439  31.251  1.00  0.00     0.054 A 
BRANCH  68  69
ATOM     69  S   UNL A   1      49.965  26.502  31.454  1.00  0.00     0.124 S 
ATOM     70  O   UNL A   1      49.471  25.131  31.547  1.00  0.00    -0.237 OA
ATOM     71  O   UNL A   1      50.701  26.823  30.234  1.00  0.00    -0.237 OA
ATOM     72  O   UNL A   1      50.540  27.040  32.685  1.00  0.00    -0.744 OA
ENDBRANCH  68  69
ENDBRANCH  49  63
BRANCH  50  73
ATOM     73  C   UNL A   1      36.973  32.832  29.484  1.00  0.00    -0.014 A 
ATOM     74  C   UNL A   1      36.020  32.841  30.517  1.00  0.00     0.010 A 
ATOM     75  C   UNL A   1      36.655  33.437  28.254  1.00  0.00     0.010 A 
ATOM     76  C   UNL A   1      34.777  33.450  30.327  1.00  0.00     0.020 A 
ATOM     77  C   UNL A   1      35.422  34.069  28.068  1.00  0.00     0.020 A 
ATOM     78  C   UNL A   1      34.490  34.070  29.107  1.00  0.00     0.054 A 
BRANCH  78  79
ATOM     79  S   UNL A   1      32.904  34.932  28.918  1.00  0.00     0.124 S 
ATOM     80  O   UNL A   1      33.322  36.224  28.383  1.00  0.00    -0.237 OA
ATOM     81  O   UNL A   1      32.186  34.063  27.988  1.00  0.00    -0.237 OA
ATOM     82  O   UNL A   1      32.365  34.959  30.276  1.00  0.00    -0.744 OA
ENDBRANCH  78  79
ENDBRANCH  50  73
BRANCH  62  83
ATOM     83  C   UNL A   1      42.871  35.152  32.413  1.00  0.00    -0.014 A 
ATOM     84  C   UNL A   1      42.673  35.376  33.787  1.00  0.00     0.010 A 
ATOM     85  C   UNL A   1      43.471  36.162  31.637  1.00  0.00     0.010 A 
ATOM     86  C   UNL A   1      43.036  36.596  34.366  1.00  0.00     0.020 A 
ATOM     87  C   UNL A   1      43.863  37.371  32.217  1.00  0.00     0.020 A 
ATOM     88  C   UNL A   1      43.627  37.587  33.576  1.00  0.00     0.054 A 
BRANCH  88  89
ATOM     89  S   UNL A   1      44.121  39.148  34.357  1.00  0.00     0.124 S 
ATOM     90  O   UNL A   1      45.425  39.393  33.749  1.00  0.00    -0.237 OA
ATOM     91  O   UNL A   1      43.056  40.062  33.951  1.00  0.00    -0.237 OA
ATOM     92  O   UNL A   1      44.149  38.829  35.783  1.00  0.00    -0.744 OA
ENDBRANCH  88  89
ENDBRANCH  62  83
ENDBRANCH  36  37
ENDBRANCH  29  31
ENDBRANCH  28  29
ENDBRANCH  27  28
ENDBRANCH   1  27
TORSDOF 18
ENDMDL
MODEL 2
REMARK VINA RESULT:     -10.5      3.766      4.469
REMARK SMILES C[C@H]1C[N@H+]2CCCC[C@@H]2CN1c1ccc(C(=O)OCCOCCOC(=O)c2ccc(-c3c4nc(c(-c5ccc(S(=O)(=O)[O-])cc5)c5ccc([nH]5)c(-c5ccc(S(=O)(=O)[O-])cc5)c5nc(c(-c6ccc(S(=O)(=O)[O-])cc6)c6ccc3[nH]6)C=C5)C=C4)cc2)cc1Cl
REMARK SMILES IDX 22 1 21 2 20 3 19 4 18 5 16 6 17 7 15 8 12 9 13 10 88 11
REMARK SMILES IDX 14 12 87 13 89 14 11 15 1 16 2 17 3 18 4 19 10 20 5 21 9 22
REMARK SMILES IDX 6 24 8 25 7 26 23 27 24 28 25 29 26 30 27 31 28 32 86 33
REMARK SMILES IDX 29 34 85 35 30 36 31 37 32 38 79 39 33 40 84 41 78 42 80 43
REMARK SMILES IDX 34 44 83 45 77 46 76 47 35 49 65 50 46 51 64 52 47 53 50 54
REMARK SMILES IDX 63 55 81 56 48 57 49 58 62 60 82 61 51 62 36 63 37 64 45 65
REMARK SMILES IDX 38 66 44 67 39 68 40 69 41 70 42 71 43 72 66 73 67 74 75 75
REMARK SMILES IDX 68 76 74 77 69 78 70 79 71 80 72 81 73 82 52 83 53 84 61 85
REMARK SMILES IDX 54 86 60 87 55 88 56 89 57 90 58 91 59 92
REMARK H PARENT 4 23 80 48 50 59
REMARK Flexibility Score: inf
ROOT
ATOM      1  C   UNL A   1      39.108  22.243  26.179  1.00  0.00     0.202 C 
ENDROOT
BRANCH   1   2
ATOM      2  O   UNL A   1      37.778  22.562  25.767  1.00  0.00    -0.374 OA
BRANCH   2   3
ATOM      3  C   UNL A   1      37.243  21.825  24.667  1.00  0.00     0.202 C 
BRANCH   3   4
ATOM      4  C   UNL A   1      36.291  20.676  25.012  1.00  0.00     0.261 C 
BRANCH   4   5
ATOM      5  O   UNL A   1      35.105  21.154  25.666  1.00  0.00    -0.460 OA
BRANCH   5   6
ATOM      6  C   UNL A   1      34.062  21.430  24.849  1.00  0.00     0.338 C 
ATOM      7  O   UNL A   1      33.349  20.623  24.267  1.00  0.00    -0.246 OA
BRANCH   6   8
ATOM      8  C   UNL A   1      33.771  22.882  24.871  1.00  0.00     0.061 A 
ATOM      9  C   UNL A   1      33.224  25.654  25.061  1.00  0.00     0.056 A 
ATOM     10  C   UNL A   1      33.224  24.839  26.200  1.00  0.00     0.028 A 
ATOM     11  C   UNL A   1      33.534  25.039  23.820  1.00  0.00     0.065 A 
ATOM     12  C   UNL A   1      33.493  23.470  26.109  1.00  0.00     0.018 A 
ATOM     13  C   UNL A   1      33.804  23.670  23.722  1.00  0.00     0.038 A 
ATOM     14  Cl  UNL A   1      33.655  25.961  22.353  1.00  0.00    -0.082 Cl
BRANCH   9  15
ATOM     15  N   UNL A   1      32.902  27.002  25.154  1.00  0.00    -0.356 N 
ATOM     16  C   UNL A   1      30.582  26.808  24.233  1.00  0.00     0.037 C 
ATOM     17  C   UNL A   1      31.839  27.679  24.379  1.00  0.00     0.134 C 
ATOM     18  C   UNL A   1      31.415  29.015  25.090  1.00  0.00     0.287 C 
ATOM     19  N   UNL A   1      32.483  29.864  25.678  1.00  0.00    -0.329 N 
ATOM     20  C   UNL A   1      34.013  27.891  25.540  1.00  0.00     0.182 C 
ATOM     21  C   UNL A   1      31.875  30.850  26.591  1.00  0.00     0.262 C 
ATOM     22  C   UNL A   1      33.447  29.018  26.428  1.00  0.00     0.203 C 
ATOM     23  H   UNL A   1      32.978  30.349  24.930  1.00  0.00     0.348 HD
ATOM     24  C   UNL A   1      32.923  31.748  27.251  1.00  0.00     0.062 C 
ATOM     25  C   UNL A   1      34.583  29.886  26.985  1.00  0.00     0.067 C 
ATOM     26  C   UNL A   1      34.023  30.941  27.932  1.00  0.00     0.012 C 
ENDBRANCH   9  15
ENDBRANCH   6   8
ENDBRANCH   5   6
ENDBRANCH   4   5
ENDBRANCH   3   4
ENDBRANCH   2   3
ENDBRANCH   1   2
BRANCH   1  27
ATOM     27  C   UNL A   1      39.889  23.337  26.918  1.00  0.00     0.261 C 
BRANCH  27  28
ATOM     28  O   UNL A   1      39.206  24.602  26.908  1.00  0.00    -0.460 OA
BRANCH  28  29
ATOM     29  C   UNL A   1      40.017  25.682  26.807  1.00  0.00     0.338 C 
ATOM     30  O   UNL A   1      40.736  25.977  25.863  1.00  0.00    -0.246 OA
BRANCH  29  31
ATOM     31  C   UNL A   1      39.790  26.591  27.945  1.00  0.00     0.060 A 
ATOM     32  C   UNL A   1      40.340  27.877  27.865  1.00  0.00     0.016 A 
ATOM     33  C   UNL A   1      39.110  26.179  29.093  1.00  0.00     0.016 A 
ATOM     34  C   UNL A   1      40.258  28.739  28.956  1.00  0.00     0.010 A 
ATOM     35  C   UNL A   1      39.033  27.046  30.189  1.00  0.00     0.010 A 
ATOM     36  C   UNL A   1      39.637  28.315  30.139  1.00  0.00    -0.014 A 
BRANCH  36  37
ATOM     37  C   UNL A   1      39.735  29.152  31.360  1.00  0.00     0.031 A 
ATOM     38  C   UNL A   1      40.881  28.936  32.310  1.00  0.00     0.074 A 
ATOM     39  C   UNL A   1      38.828  30.114  31.606  1.00  0.00     0.049 A 
ATOM     40  N   UNL A   1      41.161  29.557  33.426  1.00  0.00    -0.248 NA
ATOM     41  C   UNL A   1      41.837  27.876  31.952  1.00  0.00     0.031 C 
ATOM     42  C   UNL A   1      37.699  30.451  30.739  1.00  0.00     0.029 A 
ATOM     43  N   UNL A   1      38.720  30.988  32.658  1.00  0.00    -0.354 N 
ATOM     44  C   UNL A   1      42.317  28.957  33.914  1.00  0.00     0.074 A 
ATOM     45  C   UNL A   1      42.665  27.902  32.985  1.00  0.00     0.031 C 
ATOM     46  C   UNL A   1      37.017  31.470  31.292  1.00  0.00     0.029 A 
ATOM     47  C   UNL A   1      37.638  31.829  32.565  1.00  0.00     0.049 A 
ATOM     48  H   UNL A   1      39.357  31.009  33.408  1.00  0.00     0.167 HD
ATOM     49  C   UNL A   1      43.027  29.259  35.028  1.00  0.00     0.031 A 
ATOM     50  C   UNL A   1      37.193  32.776  33.414  1.00  0.00     0.031 A 
ATOM     51  C   UNL A   1      42.662  30.295  35.960  1.00  0.00     0.049 A 
ATOM     52  C   UNL A   1      37.950  33.041  34.689  1.00  0.00     0.074 A 
ATOM     53  C   UNL A   1      43.326  30.694  37.106  1.00  0.00     0.029 A 
ATOM     54  N   UNL A   1      41.525  31.083  35.862  1.00  0.00    -0.354 N 
ATOM     55  N   UNL A   1      39.058  32.487  35.120  1.00  0.00    -0.248 NA
ATOM     56  C   UNL A   1      37.396  34.063  35.586  1.00  0.00     0.031 C 
ATOM     57  C   UNL A   1      42.556  31.679  37.737  1.00  0.00     0.029 A 
ATOM     58  C   UNL A   1      41.447  31.942  36.947  1.00  0.00     0.049 A 
ATOM     59  H   UNL A   1      40.868  31.040  35.130  1.00  0.00     0.167 HD
ATOM     60  C   UNL A   1      39.351  33.114  36.327  1.00  0.00     0.074 A 
ATOM     61  C   UNL A   1      38.307  34.095  36.550  1.00  0.00     0.031 C 
ATOM     62  C   UNL A   1      40.394  32.903  37.169  1.00  0.00     0.031 A 
BRANCH  49  63
ATOM     63  C   UNL A   1      44.239  28.412  35.322  1.00  0.00    -0.014 A 
ATOM     64  C   UNL A   1      44.133  27.187  36.006  1.00  0.00     0.010 A 
ATOM     65  C   UNL A   1      45.510  28.857  34.914  1.00  0.00     0.010 A 
ATOM     66  C   UNL A   1      45.280  26.459  36.337  1.00  0.00     0.020 A 
ATOM     67  C   UNL A   1      46.656  28.116  35.214  1.00  0.00     0.020 A 
ATOM     68  C   UNL A   1      46.536  26.934  35.949  1.00  0.00     0.054 A 
BRANCH  68  69
ATOM     69  S   UNL A   1      48.010  25.987  36.415  1.00  0.00     0.124 S 
ATOM     70  O   UNL A   1      48.691  25.839  35.131  1.00  0.00    -0.237 OA
ATOM     71  O   UNL A   1      48.668  26.868  37.376  1.00  0.00    -0.237 OA
ATOM     72  O   UNL A   1      47.467  24.752  36.977  1.00  0.00    -0.744 OA
ENDBRANCH  68  69
ENDBRANCH  49  63
BRANCH  50  73
ATOM     73  C   UNL A   1      35.972  33.554  33.072  1.00  0.00    -0.014 A 
ATOM     74  C   UNL A   1      34.696  33.017  33.314  1.00  0.00     0.010 A 
ATOM     75  C   UNL A   1      36.079  34.853  32.540  1.00  0.00     0.010 A 
ATOM     76  C   UNL A   1      33.549  33.766  33.038  1.00  0.00     0.020 A 
ATOM     77  C   UNL A   1      34.935  35.615  32.286  1.00  0.00     0.020 A 
ATOM     78  C   UNL A   1      33.676  35.065  32.535  1.00  0.00     0.054 A 
BRANCH  78  79
ATOM     79  S   UNL A   1      32.175  36.049  32.271  1.00  0.00     0.124 S 
ATOM     80  O   UNL A   1      32.266  36.370  30.850  1.00  0.00    -0.237 OA
ATOM     81  O   UNL A   1      31.117  35.111  32.642  1.00  0.00    -0.237 OA
ATOM     82  O   UNL A   1      32.341  37.179  33.182  1.00  0.00    -0.744 OA
ENDBRANCH  78  79
ENDBRANCH  50  73
BRANCH  62  83
ATOM     83  C   UNL A   1      40.477  33.767  38.402  1.00  0.00    -0.014 A 
ATOM     84  C   UNL A   1      39.871  33.381  39.610  1.00  0.00     0.010 A 
ATOM     85  C   UNL A   1      41.214  34.966  38.360  1.00  0.00     0.010 A 
ATOM     86  C   UNL A   1      39.969  34.194  40.744  1.00  0.00     0.020 A 
ATOM     87  C   UNL A   1      41.341  35.766  39.499  1.00  0.00     0.020 A 
ATOM     88  C   UNL A   1      40.703  35.382  40.680  1.00  0.00     0.054 A 
BRANCH  88  89
ATOM     89  S   UNL A   1      40.846  36.402  42.174  1.00  0.00     0.124 S 
ATOM     90  O   UNL A   1      41.666  37.515  41.705  1.00  0.00    -0.237 OA
ATOM     91  O   UNL A   1      39.454  36.729  42.474  1.00  0.00    -0.237 OA
ATOM     92  O   UNL A   1      41.492  35.515  43.139  1.00  0.00    -0.744 OA
ENDBRANCH  88  89
ENDBRANCH  62  83
ENDBRANCH  36  37
ENDBRANCH  29  31
ENDBRANCH  28  29
ENDBRANCH  27  28
ENDBRANCH   1  27
TORSDOF 18
ENDMDL
MODEL 3
REMARK VINA RESULT:     -10.5      2.162      2.779
REMARK SMILES C[C@H]1C[N@H+]2CCCC[C@@H]2CN1c1ccc(C(=O)OCCOCCOC(=O)c2ccc(-c3c4nc(c(-c5ccc(S(=O)(=O)[O-])cc5)c5ccc([nH]5)c(-c5ccc(S(=O)(=O)[O-])cc5)c5nc(c(-c6ccc(S(=O)(=O)[O-])cc6)c6ccc3[nH]6)C=C5)C=C4)cc2)cc1Cl
REMARK SMILES IDX 22 1 21 2 20 3 19 4 18 5 16 6 17 7 15 8 12 9 13 10 88 11
REMARK SMILES IDX 14 12 87 13 89 14 11 15 1 16 2 17 3 18 4 19 10 20 5 21 9 22
REMARK SMILES IDX 6 24 8 25 7 26 23 27 24 28 25 29 26 30 27 31 28 32 86 33
REMARK SMILES IDX 29 34 85 35 30 36 31 37 32 38 79 39 33 40 84 41 78 42 80 43
REMARK SMILES IDX 34 44 83 45 77 46 76 47 35 49 65 50 46 51 64 52 47 53 50 54
REMARK SMILES IDX 63 55 81 56 48 57 49 58 62 60 82 61 51 62 36 63 37 64 45 65
REMARK SMILES IDX 38 66 44 67 39 68 40 69 41 70 42 71 43 72 66 73 67 74 75 75
REMARK SMILES IDX 68 76 74 77 69 78 70 79 71 80 72 81 73 82 52 83 53 84 61 85
REMARK SMILES IDX 54 86 60 87 55 88 56 89 57 90 58 91 59 92
REMARK H PARENT 4 23 80 48 50 59
REMARK Flexibility Score: inf
ROOT
ATOM      1  C   UNL A   1      36.167  21.460  24.809  1.00  0.00     0.202 C 
ENDROOT
BRANCH   1   2
ATOM      2  O   UNL A   1      35.233  20.393  24.973  1.00  0.00    -0.374 OA
BRANCH   2   3
ATOM      3  C   UNL A   1      34.100  20.642  25.806  1.00  0.00     0.202 C 
BRANCH   3   4
ATOM      4  C   UNL A   1      32.755  20.100  25.310  1.00  0.00     0.261 C 
BRANCH   4   5
ATOM      5  O   UNL A   1      31.870  21.163  24.924  1.00  0.00    -0.460 OA
BRANCH   5   6
ATOM      6  C   UNL A   1      32.204  21.811  23.784  1.00  0.00     0.338 C 
ATOM      7  O   UNL A   1      32.228  21.347  22.652  1.00  0.00    -0.246 OA
BRANCH   6   8
ATOM      8  C   UNL A   1      32.386  23.256  24.057  1.00  0.00     0.061 A 
ATOM      9  C   UNL A   1      32.719  25.989  24.723  1.00  0.00     0.056 A 
ATOM     10  C   UNL A   1      32.266  25.064  25.673  1.00  0.00     0.028 A 
ATOM     11  C   UNL A   1      33.028  25.494  23.429  1.00  0.00     0.065 A 
ATOM     12  C   UNL A   1      32.100  23.715  25.347  1.00  0.00     0.018 A 
ATOM     13  C   UNL A   1      32.864  24.145  23.096  1.00  0.00     0.038 A 
ATOM     14  Cl  UNL A   1      33.684  26.524  22.194  1.00  0.00    -0.082 Cl
BRANCH   9  15
ATOM     15  N   UNL A   1      32.829  27.336  25.042  1.00  0.00    -0.356 N 
ATOM     16  C   UNL A   1      30.554  28.006  24.240  1.00  0.00     0.037 C 
ATOM     17  C   UNL A   1      32.019  28.420  24.444  1.00  0.00     0.134 C 
ATOM     18  C   UNL A   1      32.032  29.685  25.376  1.00  0.00     0.287 C 
ATOM     19  N   UNL A   1      33.315  30.063  26.024  1.00  0.00    -0.329 N 
ATOM     20  C   UNL A   1      34.163  27.771  25.494  1.00  0.00     0.182 C 
ATOM     21  C   UNL A   1      33.048  31.022  27.112  1.00  0.00     0.262 C 
ATOM     22  C   UNL A   1      33.979  28.854  26.576  1.00  0.00     0.203 C 
ATOM     23  H   UNL A   1      33.929  30.493  25.332  1.00  0.00     0.348 HD
ATOM     24  C   UNL A   1      34.327  31.440  27.840  1.00  0.00     0.062 C 
ATOM     25  C   UNL A   1      35.331  29.234  27.193  1.00  0.00     0.067 C 
ATOM     26  C   UNL A   1      35.131  30.238  28.323  1.00  0.00     0.012 C 
ENDBRANCH   9  15
ENDBRANCH   6   8
ENDBRANCH   5   6
ENDBRANCH   4   5
ENDBRANCH   3   4
ENDBRANCH   2   3
ENDBRANCH   1   2
BRANCH   1  27
ATOM     27  C   UNL A   1      37.644  21.138  25.071  1.00  0.00     0.261 C 
BRANCH  27  28
ATOM     28  O   UNL A   1      38.407  22.304  25.424  1.00  0.00    -0.460 OA
BRANCH  28  29
ATOM     29  C   UNL A   1      39.403  22.081  26.315  1.00  0.00     0.338 C 
ATOM     30  O   UNL A   1      40.016  21.037  26.488  1.00  0.00    -0.246 OA
BRANCH  29  31
ATOM     31  C   UNL A   1      39.798  23.347  26.957  1.00  0.00     0.060 A 
ATOM     32  C   UNL A   1      39.212  24.526  26.478  1.00  0.00     0.016 A 
ATOM     33  C   UNL A   1      40.766  23.393  27.961  1.00  0.00     0.016 A 
ATOM     34  C   UNL A   1      39.632  25.762  26.966  1.00  0.00     0.010 A 
ATOM     35  C   UNL A   1      41.190  24.636  28.446  1.00  0.00     0.010 A 
ATOM     36  C   UNL A   1      40.651  25.826  27.925  1.00  0.00    -0.014 A 
BRANCH  36  37
ATOM     37  C   UNL A   1      41.237  27.140  28.287  1.00  0.00     0.031 A 
ATOM     38  C   UNL A   1      42.715  27.361  28.107  1.00  0.00     0.074 A 
ATOM     39  C   UNL A   1      40.458  28.136  28.743  1.00  0.00     0.049 A 
ATOM     40  N   UNL A   1      43.429  28.428  28.351  1.00  0.00    -0.248 NA
ATOM     41  C   UNL A   1      43.487  26.223  27.582  1.00  0.00     0.031 C 
ATOM     42  C   UNL A   1      39.008  28.061  28.918  1.00  0.00     0.029 A 
ATOM     43  N   UNL A   1      40.781  29.409  29.139  1.00  0.00    -0.354 N 
ATOM     44  C   UNL A   1      44.738  28.091  28.025  1.00  0.00     0.074 A 
ATOM     45  C   UNL A   1      44.720  26.708  27.595  1.00  0.00     0.031 C 
ATOM     46  C   UNL A   1      38.564  29.245  29.375  1.00  0.00     0.029 A 
ATOM     47  C   UNL A   1      39.701  30.145  29.561  1.00  0.00     0.049 A 
ATOM     48  H   UNL A   1      41.700  29.763  29.120  1.00  0.00     0.167 HD
ATOM     49  C   UNL A   1      45.853  28.861  28.072  1.00  0.00     0.031 A 
ATOM     50  C   UNL A   1      39.636  31.398  30.052  1.00  0.00     0.031 A 
ATOM     51  C   UNL A   1      45.868  30.229  28.523  1.00  0.00     0.049 A 
ATOM     52  C   UNL A   1      40.897  32.211  30.175  1.00  0.00     0.074 A 
ATOM     53  C   UNL A   1      46.939  31.101  28.587  1.00  0.00     0.029 A 
ATOM     54  N   UNL A   1      44.762  30.917  29.002  1.00  0.00    -0.354 N 
ATOM     55  N   UNL A   1      42.122  31.888  29.832  1.00  0.00    -0.248 NA
ATOM     56  C   UNL A   1      40.764  33.557  30.745  1.00  0.00     0.031 C 
ATOM     57  C   UNL A   1      46.496  32.296  29.168  1.00  0.00     0.029 A 
ATOM     58  C   UNL A   1      45.133  32.192  29.400  1.00  0.00     0.049 A 
ATOM     59  H   UNL A   1      43.849  30.555  29.051  1.00  0.00     0.167 HD
ATOM     60  C   UNL A   1      42.902  33.004  30.120  1.00  0.00     0.074 A 
ATOM     61  C   UNL A   1      42.007  34.011  30.655  1.00  0.00     0.031 C 
ATOM     62  C   UNL A   1      44.237  33.182  29.947  1.00  0.00     0.031 A 
BRANCH  49  63
ATOM     63  C   UNL A   1      47.154  28.212  27.677  1.00  0.00    -0.014 A 
ATOM     64  C   UNL A   1      47.605  28.217  26.344  1.00  0.00     0.010 A 
ATOM     65  C   UNL A   1      47.936  27.574  28.658  1.00  0.00     0.010 A 
ATOM     66  C   UNL A   1      48.776  27.539  25.989  1.00  0.00     0.020 A 
ATOM     67  C   UNL A   1      49.124  26.923  28.314  1.00  0.00     0.020 A 
ATOM     68  C   UNL A   1      49.521  26.886  26.976  1.00  0.00     0.054 A 
BRANCH  68  69
ATOM     69  S   UNL A   1      51.020  25.990  26.486  1.00  0.00     0.124 S 
ATOM     70  O   UNL A   1      50.894  25.967  25.031  1.00  0.00    -0.237 OA
ATOM     71  O   UNL A   1      52.088  26.838  27.010  1.00  0.00    -0.237 OA
ATOM     72  O   UNL A   1      50.879  24.692  27.142  1.00  0.00    -0.744 OA
ENDBRANCH  68  69
ENDBRANCH  49  63
BRANCH  50  73
ATOM     73  C   UNL A   1      38.318  31.964  30.448  1.00  0.00    -0.014 A 
ATOM     74  C   UNL A   1      37.762  31.659  31.703  1.00  0.00     0.010 A 
ATOM     75  C   UNL A   1      37.631  32.844  29.591  1.00  0.00     0.010 A 
ATOM     76  C   UNL A   1      36.547  32.228  32.096  1.00  0.00     0.020 A 
ATOM     77  C   UNL A   1      36.429  33.435  29.990  1.00  0.00     0.020 A 
ATOM     78  C   UNL A   1      35.894  33.121  31.241  1.00  0.00     0.054 A 
BRANCH  78  79
ATOM     79  S   UNL A   1      34.366  33.916  31.812  1.00  0.00     0.124 S 
ATOM     80  O   UNL A   1      33.698  34.234  30.554  1.00  0.00    -0.237 OA
ATOM     81  O   UNL A   1      33.745  32.861  32.611  1.00  0.00    -0.237 OA
ATOM     82  O   UNL A   1      34.843  35.065  32.577  1.00  0.00    -0.744 OA
ENDBRANCH  78  79
ENDBRANCH  50  73
BRANCH  62  83
ATOM     83  C   UNL A   1      44.812  34.525  30.316  1.00  0.00    -0.014 A 
ATOM     84  C   UNL A   1      44.852  35.585  29.393  1.00  0.00     0.010 A 
ATOM     85  C   UNL A   1      45.279  34.743  31.626  1.00  0.00     0.010 A 
ATOM     86  C   UNL A   1      45.381  36.826  29.762  1.00  0.00     0.020 A 
ATOM     87  C   UNL A   1      45.780  35.990  32.008  1.00  0.00     0.020 A 
ATOM     88  C   UNL A   1      45.843  37.020  31.067  1.00  0.00     0.054 A 
BRANCH  88  89
ATOM     89  S   UNL A   1      46.492  38.649  31.531  1.00  0.00     0.124 S 
ATOM     90  O   UNL A   1      45.483  39.121  32.474  1.00  0.00    -0.237 OA
ATOM     91  O   UNL A   1      47.793  38.324  32.111  1.00  0.00    -0.237 OA
ATOM     92  O   UNL A   1      46.547  39.374  30.263  1.00  0.00    -0.744 OA
ENDBRANCH  88  89
ENDBRANCH  62  83
ENDBRANCH  36  37
ENDBRANCH  29  31
ENDBRANCH  28  29
ENDBRANCH  27  28
ENDBRANCH   1  27
TORSDOF 18
ENDMDL
