MODEL 1
REMARK VINA RESULT:     -10.2      0.000      0.000
REMARK SMILES O=Cc1ccc2c(c1)C=C(C(=O)OCCOCCOC(=O)c1ccc(-c3c4nc(c(-c5ccc(S(=O)(=O)[O-])cc5)c5ccc([nH]5)c(-c5ccc(S(=O)(=O)[O-])cc5)c5nc(c(-c6ccc(S(=O)(=O)[O-])cc6)c6ccc3[nH]6)C=C5)C=C4)cc1)[C@H](C(F)(F)F)O2
REMARK SMILES IDX 17 1 16 2 15 3 14 4 13 5 11 6 12 7 10 8 3 9 4 10 8 11 5 12
REMARK SMILES IDX 7 13 6 14 9 15 87 16 82 17 2 18 1 19 83 20 84 21 85 22 86 23
REMARK SMILES IDX 18 24 19 25 20 26 21 27 22 28 23 29 81 30 24 31 80 32 25 33
REMARK SMILES IDX 26 34 27 35 74 36 28 37 79 38 73 39 75 40 29 41 78 42 72 43
REMARK SMILES IDX 71 44 30 46 60 47 41 48 59 49 42 50 45 51 58 52 76 53 43 54
REMARK SMILES IDX 44 55 57 57 77 58 46 59 31 60 32 61 40 62 33 63 39 64 34 65
REMARK SMILES IDX 35 66 36 67 37 68 38 69 61 70 62 71 70 72 63 73 69 74 64 75
REMARK SMILES IDX 65 76 66 77 67 78 68 79 47 80 48 81 56 82 49 83 55 84 50 85
REMARK SMILES IDX 51 86 52 87 53 88 54 89
REMARK H PARENT 75 45 45 56
REMARK Flexibility Score: inf
ROOT
ATOM      1  C   UNL A   1      32.358  29.737  25.366  1.00  0.00     0.202 C 
ENDROOT
BRANCH   1   2
ATOM      2  O   UNL A   1      31.142  29.655  24.627  1.00  0.00    -0.374 OA
BRANCH   2   3
ATOM      3  C   UNL A   1      30.876  28.460  23.895  1.00  0.00     0.202 C 
BRANCH   3   4
ATOM      4  C   UNL A   1      30.787  27.153  24.688  1.00  0.00     0.261 C 
BRANCH   4   5
ATOM      5  O   UNL A   1      32.002  26.391  24.599  1.00  0.00    -0.460 OA
BRANCH   5   6
ATOM      6  C   UNL A   1      32.132  25.415  25.529  1.00  0.00     0.338 C 
ATOM      7  O   UNL A   1      31.406  25.221  26.489  1.00  0.00    -0.246 OA
BRANCH   6   8
ATOM      8  C   UNL A   1      33.229  24.499  25.171  1.00  0.00     0.087 C 
ATOM      9  C   UNL A   1      37.617  22.611  25.749  1.00  0.00     0.015 A 
ATOM     10  C   UNL A   1      37.175  21.417  25.167  1.00  0.00     0.015 A 
ATOM     11  C   UNL A   1      36.747  23.698  25.906  1.00  0.00     0.023 A 
ATOM     12  C   UNL A   1      35.857  21.307  24.730  1.00  0.00     0.048 A 
ATOM     13  C   UNL A   1      35.420  23.583  25.477  1.00  0.00     0.018 A 
ATOM     14  C   UNL A   1      34.992  22.390  24.875  1.00  0.00     0.128 A 
ATOM     15  C   UNL A   1      34.431  24.626  25.756  1.00  0.00     0.027 C 
ATOM     16  O   UNL A   1      33.699  22.193  24.467  1.00  0.00    -0.475 OA
ATOM     17  C   UNL A   1      32.979  23.414  24.146  1.00  0.00     0.316 C 
BRANCH   9  18
ATOM     18  C   UNL A   1      39.008  22.714  26.237  1.00  0.00     0.260 C 
ATOM     19  O   UNL A   1      39.776  21.760  26.207  1.00  0.00    -0.298 OA
ENDBRANCH   9  18
BRANCH  17  20
ATOM     20  C   UNL A   1      31.526  23.043  23.798  1.00  0.00     0.430 C 
ATOM     21  F   UNL A   1      30.876  24.083  23.224  1.00  0.00    -0.167 F 
ATOM     22  F   UNL A   1      31.514  22.046  22.869  1.00  0.00    -0.167 F 
ATOM     23  F   UNL A   1      30.817  22.601  24.852  1.00  0.00    -0.167 F 
ENDBRANCH  17  20
ENDBRANCH   6   8
ENDBRANCH   5   6
ENDBRANCH   4   5
ENDBRANCH   3   4
ENDBRANCH   2   3
ENDBRANCH   1   2
BRANCH   1  24
ATOM     24  C   UNL A   1      32.336  30.452  26.724  1.00  0.00     0.261 C 
BRANCH  24  25
ATOM     25  O   UNL A   1      33.423  30.073  27.583  1.00  0.00    -0.460 OA
BRANCH  25  26
ATOM     26  C   UNL A   1      34.421  30.991  27.645  1.00  0.00     0.338 C 
ATOM     27  O   UNL A   1      34.312  32.201  27.543  1.00  0.00    -0.246 OA
BRANCH  26  28
ATOM     28  C   UNL A   1      35.687  30.350  28.044  1.00  0.00     0.060 A 
ATOM     29  C   UNL A   1      35.714  29.718  29.293  1.00  0.00     0.016 A 
ATOM     30  C   UNL A   1      36.845  30.444  27.270  1.00  0.00     0.016 A 
ATOM     31  C   UNL A   1      36.915  29.232  29.800  1.00  0.00     0.010 A 
ATOM     32  C   UNL A   1      38.053  29.955  27.784  1.00  0.00     0.010 A 
ATOM     33  C   UNL A   1      38.101  29.385  29.069  1.00  0.00    -0.014 A 
BRANCH  33  34
ATOM     34  C   UNL A   1      39.390  29.059  29.729  1.00  0.00     0.031 A 
ATOM     35  C   UNL A   1      39.800  29.814  30.965  1.00  0.00     0.074 A 
ATOM     36  C   UNL A   1      40.146  28.044  29.273  1.00  0.00     0.049 A 
ATOM     37  N   UNL A   1      40.834  29.622  31.744  1.00  0.00    -0.248 NA
ATOM     38  C   UNL A   1      38.934  30.930  31.380  1.00  0.00     0.031 C 
ATOM     39  C   UNL A   1      39.845  27.228  28.097  1.00  0.00     0.029 A 
ATOM     40  N   UNL A   1      41.319  27.520  29.755  1.00  0.00    -0.354 N 
ATOM     41  C   UNL A   1      40.746  30.594  32.736  1.00  0.00     0.074 A 
ATOM     42  C   UNL A   1      39.577  31.394  32.442  1.00  0.00     0.031 C 
ATOM     43  C   UNL A   1      40.805  26.299  27.954  1.00  0.00     0.029 A 
ATOM     44  C   UNL A   1      41.798  26.467  29.012  1.00  0.00     0.049 A 
ATOM     45  H   UNL A   1      41.774  27.865  30.557  1.00  0.00     0.167 HD
ATOM     46  C   UNL A   1      41.561  30.796  33.799  1.00  0.00     0.031 A 
ATOM     47  C   UNL A   1      42.912  25.726  29.166  1.00  0.00     0.031 A 
ATOM     48  C   UNL A   1      42.726  30.002  34.088  1.00  0.00     0.049 A 
ATOM     49  C   UNL A   1      43.815  25.988  30.341  1.00  0.00     0.074 A 
ATOM     50  C   UNL A   1      43.593  30.104  35.163  1.00  0.00     0.029 A 
ATOM     51  N   UNL A   1      43.194  28.964  33.296  1.00  0.00    -0.354 N 
ATOM     52  N   UNL A   1      43.687  26.877  31.299  1.00  0.00    -0.248 NA
ATOM     53  C   UNL A   1      45.003  25.134  30.466  1.00  0.00     0.031 C 
ATOM     54  C   UNL A   1      44.620  29.170  34.988  1.00  0.00     0.029 A 
ATOM     55  C   UNL A   1      44.357  28.440  33.840  1.00  0.00     0.049 A 
ATOM     56  H   UNL A   1      42.765  28.647  32.469  1.00  0.00     0.167 HD
ATOM     57  C   UNL A   1      44.768  26.674  32.151  1.00  0.00     0.074 A 
ATOM     58  C   UNL A   1      45.521  25.560  31.609  1.00  0.00     0.031 C 
ATOM     59  C   UNL A   1      45.107  27.345  33.280  1.00  0.00     0.031 A 
BRANCH  46  60
ATOM     60  C   UNL A   1      41.240  31.948  34.718  1.00  0.00    -0.014 A 
ATOM     61  C   UNL A   1      41.731  33.242  34.469  1.00  0.00     0.010 A 
ATOM     62  C   UNL A   1      40.391  31.738  35.819  1.00  0.00     0.010 A 
ATOM     63  C   UNL A   1      41.402  34.300  35.324  1.00  0.00     0.020 A 
ATOM     64  C   UNL A   1      40.038  32.798  36.660  1.00  0.00     0.020 A 
ATOM     65  C   UNL A   1      40.557  34.070  36.414  1.00  0.00     0.054 A 
BRANCH  65  66
ATOM     66  S   UNL A   1      40.118  35.467  37.486  1.00  0.00     0.124 S 
ATOM     67  O   UNL A   1      38.947  34.950  38.189  1.00  0.00    -0.237 OA
ATOM     68  O   UNL A   1      41.319  35.632  38.302  1.00  0.00    -0.237 OA
ATOM     69  O   UNL A   1      39.852  36.554  36.548  1.00  0.00    -0.744 OA
ENDBRANCH  65  66
ENDBRANCH  46  60
BRANCH  47  70
ATOM     70  C   UNL A   1      43.243  24.669  28.171  1.00  0.00    -0.014 A 
ATOM     71  C   UNL A   1      42.697  23.376  28.276  1.00  0.00     0.010 A 
ATOM     72  C   UNL A   1      44.118  24.957  27.107  1.00  0.00     0.010 A 
ATOM     73  C   UNL A   1      43.039  22.387  27.348  1.00  0.00     0.020 A 
ATOM     74  C   UNL A   1      44.436  23.979  26.161  1.00  0.00     0.020 A 
ATOM     75  C   UNL A   1      43.905  22.696  26.295  1.00  0.00     0.054 A 
BRANCH  75  76
ATOM     76  S   UNL A   1      44.296  21.413  25.074  1.00  0.00     0.124 S 
ATOM     77  O   UNL A   1      45.677  21.085  25.411  1.00  0.00    -0.237 OA
ATOM     78  O   UNL A   1      43.307  20.381  25.373  1.00  0.00    -0.237 OA
ATOM     79  O   UNL A   1      44.108  22.093  23.794  1.00  0.00    -0.744 OA
ENDBRANCH  75  76
ENDBRANCH  47  70
BRANCH  59  80
ATOM     80  C   UNL A   1      46.338  26.876  34.013  1.00  0.00    -0.014 A 
ATOM     81  C   UNL A   1      47.601  27.443  33.761  1.00  0.00     0.010 A 
ATOM     82  C   UNL A   1      46.226  25.858  34.978  1.00  0.00     0.010 A 
ATOM     83  C   UNL A   1      48.737  26.955  34.412  1.00  0.00     0.020 A 
ATOM     84  C   UNL A   1      47.355  25.392  35.656  1.00  0.00     0.020 A 
ATOM     85  C   UNL A   1      48.608  25.927  35.350  1.00  0.00     0.054 A 
BRANCH  85  86
ATOM     86  S   UNL A   1      50.098  25.304  36.176  1.00  0.00     0.124 S 
ATOM     87  O   UNL A   1      50.543  26.479  36.921  1.00  0.00    -0.237 OA
ATOM     88  O   UNL A   1      49.581  24.204  36.987  1.00  0.00    -0.237 OA
ATOM     89  O   UNL A   1      50.964  24.902  35.071  1.00  0.00    -0.744 OA
ENDBRANCH  85  86
ENDBRANCH  59  80
ENDBRANCH  33  34
ENDBRANCH  26  28
ENDBRANCH  25  26
ENDBRANCH  24  25
ENDBRANCH   1  24
TORSDOF 19
ENDMDL
MODEL 2
REMARK VINA RESULT:     -10.0      4.967      6.345
REMARK SMILES O=Cc1ccc2c(c1)C=C(C(=O)OCCOCCOC(=O)c1ccc(-c3c4nc(c(-c5ccc(S(=O)(=O)[O-])cc5)c5ccc([nH]5)c(-c5ccc(S(=O)(=O)[O-])cc5)c5nc(c(-c6ccc(S(=O)(=O)[O-])cc6)c6ccc3[nH]6)C=C5)C=C4)cc1)[C@H](C(F)(F)F)O2
REMARK SMILES IDX 17 1 16 2 15 3 14 4 13 5 11 6 12 7 10 8 3 9 4 10 8 11 5 12
REMARK SMILES IDX 7 13 6 14 9 15 87 16 82 17 2 18 1 19 83 20 84 21 85 22 86 23
REMARK SMILES IDX 18 24 19 25 20 26 21 27 22 28 23 29 81 30 24 31 80 32 25 33
REMARK SMILES IDX 26 34 27 35 74 36 28 37 79 38 73 39 75 40 29 41 78 42 72 43
REMARK SMILES IDX 71 44 30 46 60 47 41 48 59 49 42 50 45 51 58 52 76 53 43 54
REMARK SMILES IDX 44 55 57 57 77 58 46 59 31 60 32 61 40 62 33 63 39 64 34 65
REMARK SMILES IDX 35 66 36 67 37 68 38 69 61 70 62 71 70 72 63 73 69 74 64 75
REMARK SMILES IDX 65 76 66 77 67 78 68 79 47 80 48 81 56 82 49 83 55 84 50 85
REMARK SMILES IDX 51 86 52 87 53 88 54 89
REMARK H PARENT 75 45 45 56
REMARK Flexibility Score: inf
ROOT
ATOM      1  C   UNL A   1      35.367  32.921  28.180  1.00  0.00     0.202 C 
ENDROOT
BRANCH   1   2
ATOM      2  O   UNL A   1      34.996  31.827  27.346  1.00  0.00    -0.374 OA
BRANCH   2   3
ATOM      3  C   UNL A   1      33.824  31.087  27.683  1.00  0.00     0.202 C 
BRANCH   3   4
ATOM      4  C   UNL A   1      33.857  29.573  27.454  1.00  0.00     0.261 C 
BRANCH   4   5
ATOM      5  O   UNL A   1      32.988  29.177  26.380  1.00  0.00    -0.460 OA
BRANCH   5   6
ATOM      6  C   UNL A   1      32.434  27.949  26.519  1.00  0.00     0.338 C 
ATOM      7  O   UNL A   1      31.513  27.643  27.257  1.00  0.00    -0.246 OA
BRANCH   6   8
ATOM      8  C   UNL A   1      33.015  27.005  25.549  1.00  0.00     0.087 C 
ATOM      9  C   UNL A   1      35.769  23.256  24.315  1.00  0.00     0.015 A 
ATOM     10  C   UNL A   1      34.943  23.020  23.208  1.00  0.00     0.015 A 
ATOM     11  C   UNL A   1      35.503  24.314  25.195  1.00  0.00     0.023 A 
ATOM     12  C   UNL A   1      33.850  23.850  22.972  1.00  0.00     0.048 A 
ATOM     13  C   UNL A   1      34.398  25.140  24.962  1.00  0.00     0.018 A 
ATOM     14  C   UNL A   1      33.591  24.910  23.839  1.00  0.00     0.128 A 
ATOM     15  C   UNL A   1      33.987  26.159  25.929  1.00  0.00     0.027 C 
ATOM     16  O   UNL A   1      32.471  25.653  23.571  1.00  0.00    -0.475 OA
ATOM     17  C   UNL A   1      32.496  26.996  24.127  1.00  0.00     0.316 C 
BRANCH   9  18
ATOM     18  C   UNL A   1      36.910  22.357  24.579  1.00  0.00     0.260 C 
ATOM     19  O   UNL A   1      37.093  21.849  25.678  1.00  0.00    -0.298 OA
ENDBRANCH   9  18
BRANCH  17  20
ATOM     20  C   UNL A   1      31.145  27.670  23.826  1.00  0.00     0.430 C 
ATOM     21  F   UNL A   1      31.219  29.012  23.988  1.00  0.00    -0.167 F 
ATOM     22  F   UNL A   1      30.815  27.477  22.518  1.00  0.00    -0.167 F 
ATOM     23  F   UNL A   1      30.127  27.187  24.561  1.00  0.00    -0.167 F 
ENDBRANCH  17  20
ENDBRANCH   6   8
ENDBRANCH   5   6
ENDBRANCH   4   5
ENDBRANCH   3   4
ENDBRANCH   2   3
ENDBRANCH   1   2
BRANCH   1  24
ATOM     24  C   UNL A   1      35.353  32.715  29.700  1.00  0.00     0.261 C 
BRANCH  24  25
ATOM     25  O   UNL A   1      36.662  32.752  30.292  1.00  0.00    -0.460 OA
BRANCH  25  26
ATOM     26  C   UNL A   1      36.948  31.671  31.061  1.00  0.00     0.338 C 
ATOM     27  O   UNL A   1      36.322  31.270  32.027  1.00  0.00    -0.246 OA
BRANCH  26  28
ATOM     28  C   UNL A   1      38.052  30.894  30.467  1.00  0.00     0.060 A 
ATOM     29  C   UNL A   1      39.126  30.572  31.305  1.00  0.00     0.016 A 
ATOM     30  C   UNL A   1      38.088  30.570  29.109  1.00  0.00     0.016 A 
ATOM     31  C   UNL A   1      40.269  29.981  30.775  1.00  0.00     0.010 A 
ATOM     32  C   UNL A   1      39.240  29.977  28.578  1.00  0.00     0.010 A 
ATOM     33  C   UNL A   1      40.351  29.718  29.401  1.00  0.00    -0.014 A 
BRANCH  33  34
ATOM     34  C   UNL A   1      41.658  29.296  28.836  1.00  0.00     0.031 A 
ATOM     35  C   UNL A   1      42.777  30.298  28.730  1.00  0.00     0.074 A 
ATOM     36  C   UNL A   1      41.865  28.011  28.495  1.00  0.00     0.049 A 
ATOM     37  N   UNL A   1      44.017  30.114  28.357  1.00  0.00    -0.248 NA
ATOM     38  C   UNL A   1      42.459  31.690  29.093  1.00  0.00     0.031 C 
ATOM     39  C   UNL A   1      40.865  26.946  28.570  1.00  0.00     0.029 A 
ATOM     40  N   UNL A   1      42.992  27.383  28.029  1.00  0.00    -0.354 N 
ATOM     41  C   UNL A   1      44.626  31.362  28.435  1.00  0.00     0.074 A 
ATOM     42  C   UNL A   1      43.610  32.302  28.859  1.00  0.00     0.031 C 
ATOM     43  C   UNL A   1      41.427  25.793  28.171  1.00  0.00     0.029 A 
ATOM     44  C   UNL A   1      42.817  26.041  27.794  1.00  0.00     0.049 A 
ATOM     45  H   UNL A   1      43.846  27.850  27.878  1.00  0.00     0.167 HD
ATOM     46  C   UNL A   1      45.915  31.694  28.183  1.00  0.00     0.031 A 
ATOM     47  C   UNL A   1      43.678  25.117  27.324  1.00  0.00     0.031 A 
ATOM     48  C   UNL A   1      46.923  30.758  27.758  1.00  0.00     0.049 A 
ATOM     49  C   UNL A   1      45.098  25.517  27.026  1.00  0.00     0.074 A 
ATOM     50  C   UNL A   1      48.266  30.991  27.514  1.00  0.00     0.029 A 
ATOM     51  N   UNL A   1      46.699  29.413  27.502  1.00  0.00    -0.354 N 
ATOM     52  N   UNL A   1      45.669  26.692  27.157  1.00  0.00    -0.248 NA
ATOM     53  C   UNL A   1      45.994  24.461  26.537  1.00  0.00     0.031 C 
ATOM     54  C   UNL A   1      48.840  29.801  27.052  1.00  0.00     0.029 A 
ATOM     55  C   UNL A   1      47.871  28.812  27.071  1.00  0.00     0.049 A 
ATOM     56  H   UNL A   1      45.835  28.955  27.609  1.00  0.00     0.167 HD
ATOM     57  C   UNL A   1      46.998  26.510  26.785  1.00  0.00     0.074 A 
ATOM     58  C   UNL A   1      47.148  25.107  26.453  1.00  0.00     0.031 C 
ATOM     59  C   UNL A   1      48.002  27.419  26.724  1.00  0.00     0.031 A 
BRANCH  46  60
ATOM     60  C   UNL A   1      46.307  33.143  28.329  1.00  0.00    -0.014 A 
ATOM     61  C   UNL A   1      46.806  33.648  29.543  1.00  0.00     0.010 A 
ATOM     62  C   UNL A   1      46.223  33.997  27.216  1.00  0.00     0.010 A 
ATOM     63  C   UNL A   1      47.184  34.990  29.648  1.00  0.00     0.020 A 
ATOM     64  C   UNL A   1      46.625  35.333  27.309  1.00  0.00     0.020 A 
ATOM     65  C   UNL A   1      47.090  35.824  28.530  1.00  0.00     0.054 A 
BRANCH  65  66
ATOM     66  S   UNL A   1      47.621  37.553  28.684  1.00  0.00     0.124 S 
ATOM     67  O   UNL A   1      48.457  37.718  27.498  1.00  0.00    -0.237 OA
ATOM     68  O   UNL A   1      46.353  38.278  28.665  1.00  0.00    -0.237 OA
ATOM     69  O   UNL A   1      48.335  37.585  29.958  1.00  0.00    -0.744 OA
ENDBRANCH  65  66
ENDBRANCH  46  60
BRANCH  47  70
ATOM     70  C   UNL A   1      43.214  23.720  27.094  1.00  0.00    -0.014 A 
ATOM     71  C   UNL A   1      43.297  22.752  28.111  1.00  0.00     0.010 A 
ATOM     72  C   UNL A   1      42.689  23.354  25.842  1.00  0.00     0.010 A 
ATOM     73  C   UNL A   1      42.883  21.438  27.870  1.00  0.00     0.020 A 
ATOM     74  C   UNL A   1      42.245  22.050  25.608  1.00  0.00     0.020 A 
ATOM     75  C   UNL A   1      42.357  21.096  26.620  1.00  0.00     0.054 A 
BRANCH  75  76
ATOM     76  S   UNL A   1      41.778  19.399  26.343  1.00  0.00     0.124 S 
ATOM     77  O   UNL A   1      40.354  19.599  26.100  1.00  0.00    -0.237 OA
ATOM     78  O   UNL A   1      42.567  18.982  25.187  1.00  0.00    -0.237 OA
ATOM     79  O   UNL A   1      42.112  18.718  27.593  1.00  0.00    -0.744 OA
ENDBRANCH  75  76
ENDBRANCH  47  70
BRANCH  59  80
ATOM     80  C   UNL A   1      49.359  26.916  26.301  1.00  0.00    -0.014 A 
ATOM     81  C   UNL A   1      49.928  27.293  25.071  1.00  0.00     0.010 A 
ATOM     82  C   UNL A   1      50.079  26.059  27.153  1.00  0.00     0.010 A 
ATOM     83  C   UNL A   1      51.162  26.771  24.674  1.00  0.00     0.020 A 
ATOM     84  C   UNL A   1      51.328  25.561  26.773  1.00  0.00     0.020 A 
ATOM     85  C   UNL A   1      51.850  25.901  25.524  1.00  0.00     0.054 A 
BRANCH  85  86
ATOM     86  S   UNL A   1      53.446  25.230  24.984  1.00  0.00     0.124 S 
ATOM     87  O   UNL A   1      53.341  23.833  25.394  1.00  0.00    -0.237 OA
ATOM     88  O   UNL A   1      53.423  25.465  23.542  1.00  0.00    -0.237 OA
ATOM     89  O   UNL A   1      54.424  26.025  25.723  1.00  0.00    -0.744 OA
ENDBRANCH  85  86
ENDBRANCH  59  80
ENDBRANCH  33  34
ENDBRANCH  26  28
ENDBRANCH  25  26
ENDBRANCH  24  25
ENDBRANCH   1  24
TORSDOF 19
ENDMDL
MODEL 3
REMARK VINA RESULT:     -10.0      2.669      9.652
REMARK SMILES O=Cc1ccc2c(c1)C=C(C(=O)OCCOCCOC(=O)c1ccc(-c3c4nc(c(-c5ccc(S(=O)(=O)[O-])cc5)c5ccc([nH]5)c(-c5ccc(S(=O)(=O)[O-])cc5)c5nc(c(-c6ccc(S(=O)(=O)[O-])cc6)c6ccc3[nH]6)C=C5)C=C4)cc1)[C@H](C(F)(F)F)O2
REMARK SMILES IDX 17 1 16 2 15 3 14 4 13 5 11 6 12 7 10 8 3 9 4 10 8 11 5 12
REMARK SMILES IDX 7 13 6 14 9 15 87 16 82 17 2 18 1 19 83 20 84 21 85 22 86 23
REMARK SMILES IDX 18 24 19 25 20 26 21 27 22 28 23 29 81 30 24 31 80 32 25 33
REMARK SMILES IDX 26 34 27 35 74 36 28 37 79 38 73 39 75 40 29 41 78 42 72 43
REMARK SMILES IDX 71 44 30 46 60 47 41 48 59 49 42 50 45 51 58 52 76 53 43 54
REMARK SMILES IDX 44 55 57 57 77 58 46 59 31 60 32 61 40 62 33 63 39 64 34 65
REMARK SMILES IDX 35 66 36 67 37 68 38 69 61 70 62 71 70 72 63 73 69 74 64 75
REMARK SMILES IDX 65 76 66 77 67 78 68 79 47 80 48 81 56 82 49 83 55 84 50 85
REMARK SMILES IDX 51 86 52 87 53 88 54 89
REMARK H PARENT 75 45 45 56
REMARK Flexibility Score: inf
ROOT
ATOM      1  C   UNL A   1      40.745  21.684  26.255  1.00  0.00     0.202 C 
ENDROOT
BRANCH   1   2
ATOM      2  O   UNL A   1      39.603  22.351  26.785  1.00  0.00    -0.374 OA
BRANCH   2   3
ATOM      3  C   UNL A   1      38.847  23.192  25.916  1.00  0.00     0.202 C 
BRANCH   3   4
ATOM      4  C   UNL A   1      37.411  23.527  26.332  1.00  0.00     0.261 C 
BRANCH   4   5
ATOM      5  O   UNL A   1      36.525  23.577  25.202  1.00  0.00    -0.460 OA
BRANCH   5   6
ATOM      6  C   UNL A   1      35.227  23.313  25.484  1.00  0.00     0.338 C 
ATOM      7  O   UNL A   1      34.795  22.357  26.106  1.00  0.00    -0.246 OA
BRANCH   6   8
ATOM      8  C   UNL A   1      34.364  24.421  25.038  1.00  0.00     0.087 C 
ATOM      9  C   UNL A   1      32.732  28.945  25.226  1.00  0.00     0.015 A 
ATOM     10  C   UNL A   1      32.397  28.875  23.868  1.00  0.00     0.015 A 
ATOM     11  C   UNL A   1      33.315  27.849  25.878  1.00  0.00     0.023 A 
ATOM     12  C   UNL A   1      32.637  27.702  23.156  1.00  0.00     0.048 A 
ATOM     13  C   UNL A   1      33.566  26.675  25.159  1.00  0.00     0.018 A 
ATOM     14  C   UNL A   1      33.206  26.608  23.805  1.00  0.00     0.128 A 
ATOM     15  C   UNL A   1      34.310  25.561  25.747  1.00  0.00     0.027 C 
ATOM     16  O   UNL A   1      33.457  25.506  23.030  1.00  0.00    -0.475 OA
ATOM     17  C   UNL A   1      33.552  24.260  23.771  1.00  0.00     0.316 C 
BRANCH   9  18
ATOM     18  C   UNL A   1      32.503  30.199  25.971  1.00  0.00     0.260 C 
ATOM     19  O   UNL A   1      31.797  30.236  26.972  1.00  0.00    -0.298 OA
ENDBRANCH   9  18
BRANCH  17  20
ATOM     20  C   UNL A   1      33.926  23.137  22.787  1.00  0.00     0.430 C 
ATOM     21  F   UNL A   1      33.453  21.939  23.205  1.00  0.00    -0.167 F 
ATOM     22  F   UNL A   1      33.335  23.365  21.581  1.00  0.00    -0.167 F 
ATOM     23  F   UNL A   1      35.249  23.039  22.561  1.00  0.00    -0.167 F 
ENDBRANCH  17  20
ENDBRANCH   6   8
ENDBRANCH   5   6
ENDBRANCH   4   5
ENDBRANCH   3   4
ENDBRANCH   2   3
ENDBRANCH   1   2
BRANCH   1  24
ATOM     24  C   UNL A   1      42.062  22.465  26.154  1.00  0.00     0.261 C 
BRANCH  24  25
ATOM     25  O   UNL A   1      42.170  23.526  27.117  1.00  0.00    -0.460 OA
BRANCH  25  26
ATOM     26  C   UNL A   1      42.294  24.759  26.565  1.00  0.00     0.338 C 
ATOM     27  O   UNL A   1      42.650  25.022  25.429  1.00  0.00    -0.246 OA
BRANCH  26  28
ATOM     28  C   UNL A   1      41.758  25.788  27.475  1.00  0.00     0.060 A 
ATOM     29  C   UNL A   1      42.558  26.914  27.702  1.00  0.00     0.016 A 
ATOM     30  C   UNL A   1      40.556  25.618  28.165  1.00  0.00     0.016 A 
ATOM     31  C   UNL A   1      42.189  27.846  28.667  1.00  0.00     0.010 A 
ATOM     32  C   UNL A   1      40.188  26.556  29.137  1.00  0.00     0.010 A 
ATOM     33  C   UNL A   1      41.023  27.652  29.422  1.00  0.00    -0.014 A 
BRANCH  33  34
ATOM     34  C   UNL A   1      40.776  28.538  30.587  1.00  0.00     0.031 A 
ATOM     35  C   UNL A   1      41.638  28.406  31.814  1.00  0.00     0.074 A 
ATOM     36  C   UNL A   1      39.841  29.504  30.516  1.00  0.00     0.049 A 
ATOM     37  N   UNL A   1      41.650  29.140  32.897  1.00  0.00    -0.248 NA
ATOM     38  C   UNL A   1      42.615  27.304  31.824  1.00  0.00     0.031 C 
ATOM     39  C   UNL A   1      38.958  29.742  29.376  1.00  0.00     0.029 A 
ATOM     40  N   UNL A   1      39.490  30.472  31.422  1.00  0.00    -0.354 N 
ATOM     41  C   UNL A   1      42.629  28.588  33.717  1.00  0.00     0.074 A 
ATOM     42  C   UNL A   1      43.165  27.439  33.021  1.00  0.00     0.031 C 
ATOM     43  C   UNL A   1      38.170  30.797  29.647  1.00  0.00     0.029 A 
ATOM     44  C   UNL A   1      38.479  31.294  30.986  1.00  0.00     0.049 A 
ATOM     45  H   UNL A   1      39.923  30.570  32.302  1.00  0.00     0.167 HD
ATOM     46  C   UNL A   1      43.048  29.007  34.936  1.00  0.00     0.031 A 
ATOM     47  C   UNL A   1      37.868  32.328  31.598  1.00  0.00     0.031 A 
ATOM     48  C   UNL A   1      42.510  30.149  35.629  1.00  0.00     0.049 A 
ATOM     49  C   UNL A   1      38.334  32.755  32.963  1.00  0.00     0.074 A 
ATOM     50  C   UNL A   1      42.895  30.674  36.850  1.00  0.00     0.029 A 
ATOM     51  N   UNL A   1      41.466  30.937  35.167  1.00  0.00    -0.354 N 
ATOM     52  N   UNL A   1      39.297  32.254  33.701  1.00  0.00    -0.248 NA
ATOM     53  C   UNL A   1      37.643  33.901  33.570  1.00  0.00     0.031 C 
ATOM     54  C   UNL A   1      42.043  31.742  37.156  1.00  0.00     0.029 A 
ATOM     55  C   UNL A   1      41.171  31.923  36.095  1.00  0.00     0.049 A 
ATOM     56  H   UNL A   1      41.003  30.813  34.308  1.00  0.00     0.167 HD
ATOM     57  C   UNL A   1      39.340  33.038  34.851  1.00  0.00     0.074 A 
ATOM     58  C   UNL A   1      38.326  34.061  34.694  1.00  0.00     0.031 C 
ATOM     59  C   UNL A   1      40.146  32.923  35.936  1.00  0.00     0.031 A 
BRANCH  46  60
ATOM     60  C   UNL A   1      44.124  28.203  35.621  1.00  0.00    -0.014 A 
ATOM     61  C   UNL A   1      43.807  27.130  36.473  1.00  0.00     0.010 A 
ATOM     62  C   UNL A   1      45.475  28.495  35.363  1.00  0.00     0.010 A 
ATOM     63  C   UNL A   1      44.823  26.384  37.080  1.00  0.00     0.020 A 
ATOM     64  C   UNL A   1      46.494  27.734  35.945  1.00  0.00     0.020 A 
ATOM     65  C   UNL A   1      46.160  26.692  36.811  1.00  0.00     0.054 A 
BRANCH  65  66
ATOM     66  S   UNL A   1      47.458  25.686  37.584  1.00  0.00     0.124 S 
ATOM     67  O   UNL A   1      48.473  26.690  37.892  1.00  0.00    -0.237 OA
ATOM     68  O   UNL A   1      46.772  25.112  38.738  1.00  0.00    -0.237 OA
ATOM     69  O   UNL A   1      47.824  24.731  36.541  1.00  0.00    -0.744 OA
ENDBRANCH  65  66
ENDBRANCH  46  60
BRANCH  47  70
ATOM     70  C   UNL A   1      36.736  33.023  30.925  1.00  0.00    -0.014 A 
ATOM     71  C   UNL A   1      36.955  33.860  29.816  1.00  0.00     0.010 A 
ATOM     72  C   UNL A   1      35.424  32.851  31.403  1.00  0.00     0.010 A 
ATOM     73  C   UNL A   1      35.885  34.528  29.212  1.00  0.00     0.020 A 
ATOM     74  C   UNL A   1      34.349  33.492  30.783  1.00  0.00     0.020 A 
ATOM     75  C   UNL A   1      34.588  34.337  29.699  1.00  0.00     0.054 A 
BRANCH  75  76
ATOM     76  S   UNL A   1      33.207  35.174  28.871  1.00  0.00     0.124 S 
ATOM     77  O   UNL A   1      32.629  34.093  28.079  1.00  0.00    -0.237 OA
ATOM     78  O   UNL A   1      32.400  35.638  29.996  1.00  0.00    -0.237 OA
ATOM     79  O   UNL A   1      33.861  36.232  28.104  1.00  0.00    -0.744 OA
ENDBRANCH  75  76
ENDBRANCH  47  70
BRANCH  59  80
ATOM     80  C   UNL A   1      39.973  33.946  37.029  1.00  0.00    -0.014 A 
ATOM     81  C   UNL A   1      39.237  33.655  38.193  1.00  0.00     0.010 A 
ATOM     82  C   UNL A   1      40.565  35.215  36.894  1.00  0.00     0.010 A 
ATOM     83  C   UNL A   1      39.043  34.636  39.170  1.00  0.00     0.020 A 
ATOM     84  C   UNL A   1      40.400  36.187  37.884  1.00  0.00     0.020 A 
ATOM     85  C   UNL A   1      39.619  35.899  39.004  1.00  0.00     0.054 A 
BRANCH  85  86
ATOM     86  S   UNL A   1      39.346  37.159  40.281  1.00  0.00     0.124 S 
ATOM     87  O   UNL A   1      38.370  36.504  41.147  1.00  0.00    -0.237 OA
ATOM     88  O   UNL A   1      40.679  37.331  40.854  1.00  0.00    -0.237 OA
ATOM     89  O   UNL A   1      38.843  38.307  39.531  1.00  0.00    -0.744 OA
ENDBRANCH  85  86
ENDBRANCH  59  80
ENDBRANCH  33  34
ENDBRANCH  26  28
ENDBRANCH  25  26
ENDBRANCH  24  25
ENDBRANCH   1  24
TORSDOF 19
ENDMDL
