MODEL 1
REMARK VINA RESULT:     -10.5      0.000      0.000
REMARK SMILES Cc1cc(C[N@H+]2CCN(C)C(=O)C2(C)C)oc1C(=O)OCCOCCOC(=O)c1ccc(-c2c3nc(c(-c4ccc(S(=O)(=O)[O-])cc4)c4ccc([nH]4)c(-c4ccc(S(=O)(=O)[O-])cc4)c4nc(c(-c5ccc(S(=O)(=O)[O-])cc5)c5ccc2[nH]5)C=C4)C=C3)cc1
REMARK SMILES IDX 24 1 23 2 22 3 21 4 20 5 18 6 19 7 17 8 1 9 2 10 3 11 4 12
REMARK SMILES IDX 16 13 5 14 6 15 7 16 13 17 8 19 11 20 14 21 15 22 9 23 12 24
REMARK SMILES IDX 10 25 25 26 26 27 27 28 28 29 29 30 30 31 88 32 31 33 87 34
REMARK SMILES IDX 32 35 33 36 34 37 81 38 35 39 86 40 80 41 82 42 36 43 85 44
REMARK SMILES IDX 79 45 78 46 37 48 67 49 48 50 66 51 49 52 52 53 65 54 83 55
REMARK SMILES IDX 50 56 51 57 64 59 84 60 53 61 38 62 39 63 47 64 40 65 46 66
REMARK SMILES IDX 41 67 42 68 43 69 44 70 45 71 68 72 69 73 77 74 70 75 76 76
REMARK SMILES IDX 71 77 72 78 73 79 74 80 75 81 54 82 55 83 63 84 56 85 62 86
REMARK SMILES IDX 57 87 58 88 59 89 60 90 61 91
REMARK H PARENT 6 18 82 47 52 58
REMARK Flexibility Score: inf
ROOT
ATOM      1  C   UNL A   1      34.918  32.642  28.513  1.00  0.00     0.202 C 
ENDROOT
BRANCH   1   2
ATOM      2  O   UNL A   1      34.777  31.652  27.491  1.00  0.00    -0.374 OA
BRANCH   2   3
ATOM      3  C   UNL A   1      33.593  30.854  27.561  1.00  0.00     0.202 C 
BRANCH   3   4
ATOM      4  C   UNL A   1      33.650  29.612  26.668  1.00  0.00     0.261 C 
BRANCH   4   5
ATOM      5  O   UNL A   1      33.348  28.443  27.447  1.00  0.00    -0.457 OA
BRANCH   5   6
ATOM      6  C   UNL A   1      32.121  27.887  27.260  1.00  0.00     0.374 C 
ATOM      7  O   UNL A   1      31.159  28.053  28.003  1.00  0.00    -0.242 OA
BRANCH   6   8
ATOM      8  C   UNL A   1      32.092  27.171  26.001  1.00  0.00     0.215 A 
ATOM      9  C   UNL A   1      30.816  28.607  24.225  1.00  0.00     0.049 C 
ATOM     10  C   UNL A   1      31.578  27.436  24.736  1.00  0.00     0.003 A 
ATOM     11  C   UNL A   1      31.937  26.319  23.932  1.00  0.00     0.056 A 
ATOM     12  C   UNL A   1      32.484  25.369  24.764  1.00  0.00     0.159 A 
ATOM     13  O   UNL A   1      32.619  25.901  26.010  1.00  0.00    -0.448 OA
BRANCH  12  14
ATOM     14  C   UNL A   1      32.978  23.971  24.588  1.00  0.00     0.339 C 
BRANCH  14  15
ATOM     15  N   UNL A   1      32.900  23.058  25.746  1.00  0.00    -0.315 N 
ATOM     16  C   UNL A   1      31.820  22.073  25.645  1.00  0.00     0.285 C 
ATOM     17  C   UNL A   1      34.167  22.452  26.247  1.00  0.00     0.172 C 
ATOM     18  H   UNL A   1      32.665  23.718  26.487  1.00  0.00     0.349 HD
ATOM     19  C   UNL A   1      32.174  20.819  24.843  1.00  0.00     0.180 C 
ATOM     20  C   UNL A   1      34.567  21.158  25.473  1.00  0.00     0.283 C 
ATOM     21  C   UNL A   1      35.330  23.468  26.271  1.00  0.00     0.090 C 
ATOM     22  C   UNL A   1      33.981  21.998  27.717  1.00  0.00     0.090 C 
ATOM     23  N   UNL A   1      33.537  20.332  25.027  1.00  0.00    -0.335 N 
ATOM     24  O   UNL A   1      35.752  20.831  25.362  1.00  0.00    -0.268 OA
ATOM     25  C   UNL A   1      33.848  19.038  24.445  1.00  0.00     0.147 C 
ENDBRANCH  14  15
ENDBRANCH  12  14
ENDBRANCH   6   8
ENDBRANCH   5   6
ENDBRANCH   4   5
ENDBRANCH   3   4
ENDBRANCH   2   3
ENDBRANCH   1   2
BRANCH   1  26
ATOM     26  C   UNL A   1      34.982  32.063  29.929  1.00  0.00     0.261 C 
BRANCH  26  27
ATOM     27  O   UNL A   1      36.350  31.918  30.350  1.00  0.00    -0.460 OA
BRANCH  27  28
ATOM     28  C   UNL A   1      36.729  30.647  30.635  1.00  0.00     0.338 C 
ATOM     29  O   UNL A   1      36.016  29.743  31.033  1.00  0.00    -0.246 OA
BRANCH  28  30
ATOM     30  C   UNL A   1      38.136  30.443  30.231  1.00  0.00     0.060 A 
ATOM     31  C   UNL A   1      38.394  30.273  28.865  1.00  0.00     0.016 A 
ATOM     32  C   UNL A   1      39.179  30.377  31.159  1.00  0.00     0.016 A 
ATOM     33  C   UNL A   1      39.685  29.987  28.427  1.00  0.00     0.010 A 
ATOM     34  C   UNL A   1      40.475  30.085  30.719  1.00  0.00     0.010 A 
ATOM     35  C   UNL A   1      40.728  29.856  29.354  1.00  0.00    -0.014 A 
BRANCH  35  36
ATOM     36  C   UNL A   1      42.045  29.347  28.905  1.00  0.00     0.031 A 
ATOM     37  C   UNL A   1      43.216  30.290  28.858  1.00  0.00     0.074 A 
ATOM     38  C   UNL A   1      42.207  28.053  28.575  1.00  0.00     0.049 A 
ATOM     39  N   UNL A   1      44.452  30.057  28.500  1.00  0.00    -0.248 NA
ATOM     40  C   UNL A   1      42.960  31.680  29.274  1.00  0.00     0.031 C 
ATOM     41  C   UNL A   1      41.161  27.031  28.613  1.00  0.00     0.029 A 
ATOM     42  N   UNL A   1      43.320  27.379  28.140  1.00  0.00    -0.354 N 
ATOM     43  C   UNL A   1      45.122  31.267  28.642  1.00  0.00     0.074 A 
ATOM     44  C   UNL A   1      44.148  32.239  29.093  1.00  0.00     0.031 C 
ATOM     45  C   UNL A   1      41.682  25.859  28.212  1.00  0.00     0.029 A 
ATOM     46  C   UNL A   1      43.089  26.052  27.865  1.00  0.00     0.049 A 
ATOM     47  H   UNL A   1      44.202  27.804  28.035  1.00  0.00     0.167 HD
ATOM     48  C   UNL A   1      46.428  31.545  28.424  1.00  0.00     0.031 A 
ATOM     49  C   UNL A   1      43.913  25.106  27.372  1.00  0.00     0.031 A 
ATOM     50  C   UNL A   1      47.395  30.584  27.962  1.00  0.00     0.049 A 
ATOM     51  C   UNL A   1      45.347  25.453  27.075  1.00  0.00     0.074 A 
ATOM     52  C   UNL A   1      48.745  30.769  27.722  1.00  0.00     0.029 A 
ATOM     53  N   UNL A   1      47.111  29.262  27.661  1.00  0.00    -0.354 N 
ATOM     54  N   UNL A   1      45.969  26.597  27.239  1.00  0.00    -0.248 NA
ATOM     55  C   UNL A   1      46.192  24.380  26.531  1.00  0.00     0.031 C 
ATOM     56  C   UNL A   1      49.269  29.568  27.231  1.00  0.00     0.029 A 
ATOM     57  C   UNL A   1      48.256  28.623  27.214  1.00  0.00     0.049 A 
ATOM     58  H   UNL A   1      46.227  28.837  27.751  1.00  0.00     0.167 HD
ATOM     59  C   UNL A   1      47.283  26.374  26.842  1.00  0.00     0.074 A 
ATOM     60  C   UNL A   1      47.370  24.984  26.441  1.00  0.00     0.031 C 
ATOM     61  C   UNL A   1      48.326  27.240  26.816  1.00  0.00     0.031 A 
BRANCH  48  62
ATOM     62  C   UNL A   1      46.881  32.960  28.658  1.00  0.00    -0.014 A 
ATOM     63  C   UNL A   1      47.470  33.343  29.876  1.00  0.00     0.010 A 
ATOM     64  C   UNL A   1      46.740  33.914  27.635  1.00  0.00     0.010 A 
ATOM     65  C   UNL A   1      47.873  34.664  30.082  1.00  0.00     0.020 A 
ATOM     66  C   UNL A   1      47.162  35.232  27.828  1.00  0.00     0.020 A 
ATOM     67  C   UNL A   1      47.710  35.603  29.058  1.00  0.00     0.054 A 
BRANCH  67  68
ATOM     68  S   UNL A   1      48.251  37.311  29.345  1.00  0.00     0.124 S 
ATOM     69  O   UNL A   1      49.577  37.311  28.732  1.00  0.00    -0.237 OA
ATOM     70  O   UNL A   1      47.235  38.092  28.644  1.00  0.00    -0.237 OA
ATOM     71  O   UNL A   1      48.237  37.439  30.799  1.00  0.00    -0.744 OA
ENDBRANCH  67  68
ENDBRANCH  48  62
BRANCH  49  72
ATOM     72  C   UNL A   1      43.394  23.735  27.116  1.00  0.00    -0.014 A 
ATOM     73  C   UNL A   1      43.151  23.292  25.805  1.00  0.00     0.010 A 
ATOM     74  C   UNL A   1      43.145  22.863  28.192  1.00  0.00     0.010 A 
ATOM     75  C   UNL A   1      42.657  22.004  25.574  1.00  0.00     0.020 A 
ATOM     76  C   UNL A   1      42.674  21.568  27.964  1.00  0.00     0.020 A 
ATOM     77  C   UNL A   1      42.423  21.149  26.656  1.00  0.00     0.054 A 
BRANCH  77  78
ATOM     78  S   UNL A   1      41.839  19.463  26.333  1.00  0.00     0.124 S 
ATOM     79  O   UNL A   1      42.326  18.743  27.503  1.00  0.00    -0.237 OA
ATOM     80  O   UNL A   1      40.391  19.639  26.254  1.00  0.00    -0.237 OA
ATOM     81  O   UNL A   1      42.484  19.116  25.068  1.00  0.00    -0.744 OA
ENDBRANCH  77  78
ENDBRANCH  49  72
BRANCH  61  82
ATOM     82  C   UNL A   1      49.660  26.708  26.366  1.00  0.00    -0.014 A 
ATOM     83  C   UNL A   1      50.086  26.845  25.033  1.00  0.00     0.010 A 
ATOM     84  C   UNL A   1      50.523  26.114  27.305  1.00  0.00     0.010 A 
ATOM     85  C   UNL A   1      51.343  26.373  24.641  1.00  0.00     0.020 A 
ATOM     86  C   UNL A   1      51.789  25.661  26.922  1.00  0.00     0.020 A 
ATOM     87  C   UNL A   1      52.185  25.781  25.589  1.00  0.00     0.054 A 
BRANCH  87  88
ATOM     88  S   UNL A   1      53.828  25.215  25.068  1.00  0.00     0.124 S 
ATOM     89  O   UNL A   1      53.591  23.798  24.804  1.00  0.00    -0.237 OA
ATOM     90  O   UNL A   1      54.095  26.038  23.890  1.00  0.00    -0.237 OA
ATOM     91  O   UNL A   1      54.675  25.501  26.224  1.00  0.00    -0.744 OA
ENDBRANCH  87  88
ENDBRANCH  61  82
ENDBRANCH  35  36
ENDBRANCH  28  30
ENDBRANCH  27  28
ENDBRANCH  26  27
ENDBRANCH   1  26
TORSDOF 19
ENDMDL
MODEL 2
REMARK VINA RESULT:     -10.2      2.112      9.110
REMARK SMILES Cc1cc(C[N@H+]2CCN(C)C(=O)C2(C)C)oc1C(=O)OCCOCCOC(=O)c1ccc(-c2c3nc(c(-c4ccc(S(=O)(=O)[O-])cc4)c4ccc([nH]4)c(-c4ccc(S(=O)(=O)[O-])cc4)c4nc(c(-c5ccc(S(=O)(=O)[O-])cc5)c5ccc2[nH]5)C=C4)C=C3)cc1
REMARK SMILES IDX 24 1 23 2 22 3 21 4 20 5 18 6 19 7 17 8 1 9 2 10 3 11 4 12
REMARK SMILES IDX 16 13 5 14 6 15 7 16 13 17 8 19 11 20 14 21 15 22 9 23 12 24
REMARK SMILES IDX 10 25 25 26 26 27 27 28 28 29 29 30 30 31 88 32 31 33 87 34
REMARK SMILES IDX 32 35 33 36 34 37 81 38 35 39 86 40 80 41 82 42 36 43 85 44
REMARK SMILES IDX 79 45 78 46 37 48 67 49 48 50 66 51 49 52 52 53 65 54 83 55
REMARK SMILES IDX 50 56 51 57 64 59 84 60 53 61 38 62 39 63 47 64 40 65 46 66
REMARK SMILES IDX 41 67 42 68 43 69 44 70 45 71 68 72 69 73 77 74 70 75 76 76
REMARK SMILES IDX 71 77 72 78 73 79 74 80 75 81 54 82 55 83 63 84 56 85 62 86
REMARK SMILES IDX 57 87 58 88 59 89 60 90 61 91
REMARK H PARENT 6 18 82 47 52 58
REMARK Flexibility Score: inf
ROOT
ATOM      1  C   UNL A   1      38.522  21.105  25.410  1.00  0.00     0.202 C 
ENDROOT
BRANCH   1   2
ATOM      2  O   UNL A   1      37.326  21.045  24.629  1.00  0.00    -0.374 OA
BRANCH   2   3
ATOM      3  C   UNL A   1      37.016  22.221  23.878  1.00  0.00     0.202 C 
BRANCH   3   4
ATOM      4  C   UNL A   1      35.786  22.965  24.403  1.00  0.00     0.261 C 
BRANCH   4   5
ATOM      5  O   UNL A   1      34.645  22.647  23.589  1.00  0.00    -0.457 OA
BRANCH   5   6
ATOM      6  C   UNL A   1      33.571  22.112  24.230  1.00  0.00     0.374 C 
ATOM      7  O   UNL A   1      33.227  20.937  24.153  1.00  0.00    -0.242 OA
BRANCH   6   8
ATOM      8  C   UNL A   1      32.969  23.106  25.096  1.00  0.00     0.215 A 
ATOM      9  C   UNL A   1      33.222  22.340  27.585  1.00  0.00     0.049 C 
ATOM     10  C   UNL A   1      32.817  23.240  26.472  1.00  0.00     0.003 A 
ATOM     11  C   UNL A   1      32.163  24.488  26.667  1.00  0.00     0.056 A 
ATOM     12  C   UNL A   1      31.799  24.963  25.428  1.00  0.00     0.159 A 
ATOM     13  O   UNL A   1      32.325  24.148  24.472  1.00  0.00    -0.448 OA
BRANCH  12  14
ATOM     14  C   UNL A   1      31.030  26.145  24.935  1.00  0.00     0.339 C 
BRANCH  14  15
ATOM     15  N   UNL A   1      31.693  27.052  23.976  1.00  0.00    -0.315 N 
ATOM     16  C   UNL A   1      30.971  27.194  22.708  1.00  0.00     0.285 C 
ATOM     17  C   UNL A   1      32.198  28.359  24.483  1.00  0.00     0.172 C 
ATOM     18  H   UNL A   1      32.555  26.537  23.799  1.00  0.00     0.349 HD
ATOM     19  C   UNL A   1      29.852  28.237  22.726  1.00  0.00     0.180 C 
ATOM     20  C   UNL A   1      31.099  29.466  24.507  1.00  0.00     0.283 C 
ATOM     21  C   UNL A   1      32.882  28.224  25.862  1.00  0.00     0.090 C 
ATOM     22  C   UNL A   1      33.292  28.901  23.528  1.00  0.00     0.090 C 
ATOM     23  N   UNL A   1      30.143  29.444  23.493  1.00  0.00    -0.335 N 
ATOM     24  O   UNL A   1      31.147  30.385  25.329  1.00  0.00    -0.268 OA
ATOM     25  C   UNL A   1      29.195  30.536  23.368  1.00  0.00     0.147 C 
ENDBRANCH  14  15
ENDBRANCH  12  14
ENDBRANCH   6   8
ENDBRANCH   5   6
ENDBRANCH   4   5
ENDBRANCH   3   4
ENDBRANCH   2   3
ENDBRANCH   1   2
BRANCH   1  26
ATOM     26  C   UNL A   1      39.262  19.769  25.509  1.00  0.00     0.261 C 
BRANCH  26  27
ATOM     27  O   UNL A   1      40.187  19.788  26.610  1.00  0.00    -0.460 OA
BRANCH  27  28
ATOM     28  C   UNL A   1      41.488  19.625  26.267  1.00  0.00     0.338 C 
ATOM     29  O   UNL A   1      41.991  18.643  25.748  1.00  0.00    -0.246 OA
BRANCH  28  30
ATOM     30  C   UNL A   1      42.220  20.896  26.458  1.00  0.00     0.060 A 
ATOM     31  C   UNL A   1      42.416  21.332  27.774  1.00  0.00     0.016 A 
ATOM     32  C   UNL A   1      42.669  21.669  25.384  1.00  0.00     0.016 A 
ATOM     33  C   UNL A   1      43.018  22.564  28.021  1.00  0.00     0.010 A 
ATOM     34  C   UNL A   1      43.270  22.909  25.633  1.00  0.00     0.010 A 
ATOM     35  C   UNL A   1      43.417  23.376  26.951  1.00  0.00    -0.014 A 
BRANCH  35  36
ATOM     36  C   UNL A   1      43.858  24.766  27.215  1.00  0.00     0.031 A 
ATOM     37  C   UNL A   1      45.308  25.120  27.028  1.00  0.00     0.074 A 
ATOM     38  C   UNL A   1      42.974  25.711  27.583  1.00  0.00     0.049 A 
ATOM     39  N   UNL A   1      45.908  26.270  27.201  1.00  0.00    -0.248 NA
ATOM     40  C   UNL A   1      46.200  24.034  26.586  1.00  0.00     0.031 C 
ATOM     41  C   UNL A   1      41.538  25.505  27.763  1.00  0.00     0.029 A 
ATOM     42  N   UNL A   1      43.163  27.039  27.873  1.00  0.00    -0.354 N 
ATOM     43  C   UNL A   1      47.245  26.048  26.892  1.00  0.00     0.074 A 
ATOM     44  C   UNL A   1      47.374  24.647  26.549  1.00  0.00     0.031 C 
ATOM     45  C   UNL A   1      40.975  26.666  28.138  1.00  0.00     0.029 A 
ATOM     46  C   UNL A   1      42.012  27.689  28.251  1.00  0.00     0.049 A 
ATOM     47  H   UNL A   1      44.039  27.485  27.816  1.00  0.00     0.167 HD
ATOM     48  C   UNL A   1      48.273  26.929  26.888  1.00  0.00     0.031 A 
ATOM     49  C   UNL A   1      41.820  28.960  28.657  1.00  0.00     0.031 A 
ATOM     50  C   UNL A   1      48.150  28.318  27.244  1.00  0.00     0.049 A 
ATOM     51  C   UNL A   1      42.989  29.907  28.708  1.00  0.00     0.074 A 
ATOM     52  C   UNL A   1      49.133  29.293  27.260  1.00  0.00     0.029 A 
ATOM     53  N   UNL A   1      46.975  28.927  27.654  1.00  0.00    -0.354 N 
ATOM     54  N   UNL A   1      44.242  29.686  28.389  1.00  0.00    -0.248 NA
ATOM     55  C   UNL A   1      42.716  31.276  29.168  1.00  0.00     0.031 C 
ATOM     56  C   UNL A   1      48.560  30.481  27.725  1.00  0.00     0.029 A 
ATOM     57  C   UNL A   1      47.211  30.260  27.949  1.00  0.00     0.049 A 
ATOM     58  H   UNL A   1      46.101  28.480  27.726  1.00  0.00     0.167 HD
ATOM     59  C   UNL A   1      44.902  30.895  28.586  1.00  0.00     0.074 A 
ATOM     60  C   UNL A   1      43.908  31.846  29.042  1.00  0.00     0.031 C 
ATOM     61  C   UNL A   1      46.213  31.192  28.404  1.00  0.00     0.031 A 
BRANCH  48  62
ATOM     62  C   UNL A   1      49.632  26.404  26.513  1.00  0.00    -0.014 A 
ATOM     63  C   UNL A   1      50.090  26.458  25.184  1.00  0.00     0.010 A 
ATOM     64  C   UNL A   1      50.472  25.872  27.507  1.00  0.00     0.010 A 
ATOM     65  C   UNL A   1      51.349  25.954  24.850  1.00  0.00     0.020 A 
ATOM     66  C   UNL A   1      51.741  25.387  27.181  1.00  0.00     0.020 A 
ATOM     67  C   UNL A   1      52.164  25.415  25.851  1.00  0.00     0.054 A 
BRANCH  67  68
ATOM     68  S   UNL A   1      53.800  24.776  25.394  1.00  0.00     0.124 S 
ATOM     69  O   UNL A   1      54.543  24.937  26.641  1.00  0.00    -0.237 OA
ATOM     70  O   UNL A   1      53.510  23.397  25.009  1.00  0.00    -0.237 OA
ATOM     71  O   UNL A   1      54.220  25.649  24.301  1.00  0.00    -0.744 OA
ENDBRANCH  67  68
ENDBRANCH  48  62
BRANCH  49  72
ATOM     72  C   UNL A   1      40.460  29.409  29.063  1.00  0.00    -0.014 A 
ATOM     73  C   UNL A   1      40.123  29.542  30.420  1.00  0.00     0.010 A 
ATOM     74  C   UNL A   1      39.496  29.709  28.083  1.00  0.00     0.010 A 
ATOM     75  C   UNL A   1      38.841  29.958  30.792  1.00  0.00     0.020 A 
ATOM     76  C   UNL A   1      38.221  30.147  28.451  1.00  0.00     0.020 A 
ATOM     77  C   UNL A   1      37.898  30.260  29.805  1.00  0.00     0.054 A 
BRANCH  77  78
ATOM     78  S   UNL A   1      36.260  30.855  30.306  1.00  0.00     0.124 S 
ATOM     79  O   UNL A   1      35.448  30.528  29.139  1.00  0.00    -0.237 OA
ATOM     80  O   UNL A   1      35.991  30.067  31.507  1.00  0.00    -0.237 OA
ATOM     81  O   UNL A   1      36.473  32.280  30.544  1.00  0.00    -0.744 OA
ENDBRANCH  77  78
ENDBRANCH  49  72
BRANCH  61  82
ATOM     82  C   UNL A   1      46.646  32.610  28.667  1.00  0.00    -0.014 A 
ATOM     83  C   UNL A   1      46.581  33.590  27.661  1.00  0.00     0.010 A 
ATOM     84  C   UNL A   1      47.070  32.977  29.957  1.00  0.00     0.010 A 
ATOM     85  C   UNL A   1      46.958  34.908  27.934  1.00  0.00     0.020 A 
ATOM     86  C   UNL A   1      47.425  34.299  30.240  1.00  0.00     0.020 A 
ATOM     87  C   UNL A   1      47.380  35.254  29.223  1.00  0.00     0.054 A 
BRANCH  87  88
ATOM     88  S   UNL A   1      47.822  36.979  29.566  1.00  0.00     0.124 S 
ATOM     89  O   UNL A   1      47.353  37.657  28.360  1.00  0.00    -0.237 OA
ATOM     90  O   UNL A   1      47.068  37.270  30.784  1.00  0.00    -0.237 OA
ATOM     91  O   UNL A   1      49.273  36.938  29.735  1.00  0.00    -0.744 OA
ENDBRANCH  87  88
ENDBRANCH  61  82
ENDBRANCH  35  36
ENDBRANCH  28  30
ENDBRANCH  27  28
ENDBRANCH  26  27
ENDBRANCH   1  26
TORSDOF 19
ENDMDL
MODEL 3
REMARK VINA RESULT:     -10.1      1.871      2.677
REMARK SMILES Cc1cc(C[N@H+]2CCN(C)C(=O)C2(C)C)oc1C(=O)OCCOCCOC(=O)c1ccc(-c2c3nc(c(-c4ccc(S(=O)(=O)[O-])cc4)c4ccc([nH]4)c(-c4ccc(S(=O)(=O)[O-])cc4)c4nc(c(-c5ccc(S(=O)(=O)[O-])cc5)c5ccc2[nH]5)C=C4)C=C3)cc1
REMARK SMILES IDX 24 1 23 2 22 3 21 4 20 5 18 6 19 7 17 8 1 9 2 10 3 11 4 12
REMARK SMILES IDX 16 13 5 14 6 15 7 16 13 17 8 19 11 20 14 21 15 22 9 23 12 24
REMARK SMILES IDX 10 25 25 26 26 27 27 28 28 29 29 30 30 31 88 32 31 33 87 34
REMARK SMILES IDX 32 35 33 36 34 37 81 38 35 39 86 40 80 41 82 42 36 43 85 44
REMARK SMILES IDX 79 45 78 46 37 48 67 49 48 50 66 51 49 52 52 53 65 54 83 55
REMARK SMILES IDX 50 56 51 57 64 59 84 60 53 61 38 62 39 63 47 64 40 65 46 66
REMARK SMILES IDX 41 67 42 68 43 69 44 70 45 71 68 72 69 73 77 74 70 75 76 76
REMARK SMILES IDX 71 77 72 78 73 79 74 80 75 81 54 82 55 83 63 84 56 85 62 86
REMARK SMILES IDX 57 87 58 88 59 89 60 90 61 91
REMARK H PARENT 6 18 82 47 52 58
REMARK Flexibility Score: inf
ROOT
ATOM      1  C   UNL A   1      34.202  30.821  27.524  1.00  0.00     0.202 C 
ENDROOT
BRANCH   1   2
ATOM      2  O   UNL A   1      33.776  29.496  27.198  1.00  0.00    -0.374 OA
BRANCH   2   3
ATOM      3  C   UNL A   1      32.366  29.318  27.044  1.00  0.00     0.202 C 
BRANCH   3   4
ATOM      4  C   UNL A   1      32.002  28.088  26.208  1.00  0.00     0.261 C 
BRANCH   4   5
ATOM      5  O   UNL A   1      31.387  28.506  24.978  1.00  0.00    -0.457 OA
BRANCH   5   6
ATOM      6  C   UNL A   1      32.000  28.117  23.828  1.00  0.00     0.374 C 
ATOM      7  O   UNL A   1      32.788  28.806  23.189  1.00  0.00    -0.242 OA
BRANCH   6   8
ATOM      8  C   UNL A   1      31.671  26.736  23.538  1.00  0.00     0.215 A 
ATOM      9  C   UNL A   1      29.175  26.294  24.186  1.00  0.00     0.049 C 
ATOM     10  C   UNL A   1      30.524  25.957  23.660  1.00  0.00     0.003 A 
ATOM     11  C   UNL A   1      30.873  24.676  23.148  1.00  0.00     0.056 A 
ATOM     12  C   UNL A   1      32.227  24.681  22.907  1.00  0.00     0.159 A 
ATOM     13  O   UNL A   1      32.704  25.942  23.102  1.00  0.00    -0.448 OA
BRANCH  12  14
ATOM     14  C   UNL A   1      33.223  23.663  22.457  1.00  0.00     0.339 C 
BRANCH  14  15
ATOM     15  N   UNL A   1      33.851  22.806  23.483  1.00  0.00    -0.315 N 
ATOM     16  C   UNL A   1      34.531  23.560  24.540  1.00  0.00     0.285 C 
ATOM     17  C   UNL A   1      33.057  21.668  24.027  1.00  0.00     0.172 C 
ATOM     18  H   UNL A   1      34.557  22.332  22.921  1.00  0.00     0.349 HD
ATOM     19  C   UNL A   1      33.619  24.030  25.674  1.00  0.00     0.180 C 
ATOM     20  C   UNL A   1      32.119  22.090  25.201  1.00  0.00     0.283 C 
ATOM     21  C   UNL A   1      32.269  20.926  22.924  1.00  0.00     0.090 C 
ATOM     22  C   UNL A   1      34.012  20.611  24.637  1.00  0.00     0.090 C 
ATOM     23  N   UNL A   1      32.576  23.085  26.062  1.00  0.00    -0.335 N 
ATOM     24  O   UNL A   1      31.066  21.484  25.415  1.00  0.00    -0.268 OA
ATOM     25  C   UNL A   1      31.823  23.406  27.261  1.00  0.00     0.147 C 
ENDBRANCH  14  15
ENDBRANCH  12  14
ENDBRANCH   6   8
ENDBRANCH   5   6
ENDBRANCH   4   5
ENDBRANCH   3   4
ENDBRANCH   2   3
ENDBRANCH   1   2
BRANCH   1  26
ATOM     26  C   UNL A   1      35.426  30.868  28.442  1.00  0.00     0.261 C 
BRANCH  26  27
ATOM     27  O   UNL A   1      36.130  29.614  28.404  1.00  0.00    -0.460 OA
BRANCH  27  28
ATOM     28  C   UNL A   1      36.966  29.395  29.448  1.00  0.00     0.338 C 
ATOM     29  O   UNL A   1      36.669  29.365  30.629  1.00  0.00    -0.246 OA
BRANCH  28  30
ATOM     30  C   UNL A   1      38.306  29.020  28.946  1.00  0.00     0.060 A 
ATOM     31  C   UNL A   1      39.195  28.441  29.861  1.00  0.00     0.016 A 
ATOM     32  C   UNL A   1      38.706  29.260  27.629  1.00  0.00     0.016 A 
ATOM     33  C   UNL A   1      40.501  28.147  29.476  1.00  0.00     0.010 A 
ATOM     34  C   UNL A   1      40.020  28.969  27.245  1.00  0.00     0.010 A 
ATOM     35  C   UNL A   1      40.933  28.442  28.176  1.00  0.00    -0.014 A 
BRANCH  35  36
ATOM     36  C   UNL A   1      42.371  28.324  27.839  1.00  0.00     0.031 A 
ATOM     37  C   UNL A   1      43.276  29.502  28.077  1.00  0.00     0.074 A 
ATOM     38  C   UNL A   1      42.874  27.172  27.359  1.00  0.00     0.049 A 
ATOM     39  N   UNL A   1      44.560  29.616  27.857  1.00  0.00    -0.248 NA
ATOM     40  C   UNL A   1      42.651  30.710  28.641  1.00  0.00     0.031 C 
ATOM     41  C   UNL A   1      42.109  25.949  27.118  1.00  0.00     0.029 A 
ATOM     42  N   UNL A   1      44.154  26.848  26.988  1.00  0.00    -0.354 N 
ATOM     43  C   UNL A   1      44.898  30.906  28.250  1.00  0.00     0.074 A 
ATOM     44  C   UNL A   1      43.678  31.545  28.697  1.00  0.00     0.031 C 
ATOM     45  C   UNL A   1      42.936  25.007  26.634  1.00  0.00     0.029 A 
ATOM     46  C   UNL A   1      44.280  25.567  26.505  1.00  0.00     0.049 A 
ATOM     47  H   UNL A   1      44.911  27.473  27.059  1.00  0.00     0.167 HD
ATOM     48  C   UNL A   1      46.113  31.503  28.247  1.00  0.00     0.031 A 
ATOM     49  C   UNL A   1      45.353  24.925  26.001  1.00  0.00     0.031 A 
ATOM     50  C   UNL A   1      47.323  30.875  27.790  1.00  0.00     0.049 A 
ATOM     51  C   UNL A   1      46.681  25.631  25.946  1.00  0.00     0.074 A 
ATOM     52  C   UNL A   1      48.605  31.397  27.757  1.00  0.00     0.029 A 
ATOM     53  N   UNL A   1      47.401  29.590  27.276  1.00  0.00    -0.354 N 
ATOM     54  N   UNL A   1      46.987  26.843  26.345  1.00  0.00    -0.248 NA
ATOM     55  C   UNL A   1      47.810  24.881  25.377  1.00  0.00     0.031 C 
ATOM     56  C   UNL A   1      49.450  30.442  27.180  1.00  0.00     0.029 A 
ATOM     57  C   UNL A   1      48.704  29.309  26.901  1.00  0.00     0.049 A 
ATOM     58  H   UNL A   1      46.642  28.968  27.189  1.00  0.00     0.167 HD
ATOM     59  C   UNL A   1      48.349  26.991  26.099  1.00  0.00     0.074 A 
ATOM     60  C   UNL A   1      48.809  25.742  25.527  1.00  0.00     0.031 C 
ATOM     61  C   UNL A   1      49.147  28.063  26.330  1.00  0.00     0.031 A 
BRANCH  48  62
ATOM     62  C   UNL A   1      46.183  32.926  28.730  1.00  0.00    -0.014 A 
ATOM     63  C   UNL A   1      46.056  34.004  27.836  1.00  0.00     0.010 A 
ATOM     64  C   UNL A   1      46.351  33.188  30.101  1.00  0.00     0.010 A 
ATOM     65  C   UNL A   1      46.135  35.320  28.300  1.00  0.00     0.020 A 
ATOM     66  C   UNL A   1      46.409  34.502  30.573  1.00  0.00     0.020 A 
ATOM     67  C   UNL A   1      46.319  35.560  29.665  1.00  0.00     0.054 A 
BRANCH  67  68
ATOM     68  S   UNL A   1      46.409  37.277  30.245  1.00  0.00     0.124 S 
ATOM     69  O   UNL A   1      46.223  37.117  31.685  1.00  0.00    -0.237 OA
ATOM     70  O   UNL A   1      47.747  37.688  29.826  1.00  0.00    -0.237 OA
ATOM     71  O   UNL A   1      45.310  37.937  29.545  1.00  0.00    -0.744 OA
ENDBRANCH  67  68
ENDBRANCH  48  62
BRANCH  49  72
ATOM     72  C   UNL A   1      45.211  23.534  25.493  1.00  0.00    -0.014 A 
ATOM     73  C   UNL A   1      45.323  22.436  26.363  1.00  0.00     0.010 A 
ATOM     74  C   UNL A   1      44.958  23.304  24.128  1.00  0.00     0.010 A 
ATOM     75  C   UNL A   1      45.195  21.132  25.876  1.00  0.00     0.020 A 
ATOM     76  C   UNL A   1      44.806  22.003  23.642  1.00  0.00     0.020 A 
ATOM     77  C   UNL A   1      44.935  20.924  24.518  1.00  0.00     0.054 A 
BRANCH  77  78
ATOM     78  S   UNL A   1      44.713  19.227  23.915  1.00  0.00     0.124 S 
ATOM     79  O   UNL A   1      45.980  18.606  24.283  1.00  0.00    -0.237 OA
ATOM     80  O   UNL A   1      43.544  18.776  24.665  1.00  0.00    -0.237 OA
ATOM     81  O   UNL A   1      44.492  19.402  22.482  1.00  0.00    -0.744 OA
ENDBRANCH  77  78
ENDBRANCH  49  72
BRANCH  61  82
ATOM     82  C   UNL A   1      50.607  27.927  25.991  1.00  0.00    -0.014 A 
ATOM     83  C   UNL A   1      51.093  28.268  24.718  1.00  0.00     0.010 A 
ATOM     84  C   UNL A   1      51.512  27.506  26.982  1.00  0.00     0.010 A 
ATOM     85  C   UNL A   1      52.458  28.165  24.432  1.00  0.00     0.020 A 
ATOM     86  C   UNL A   1      52.880  27.424  26.708  1.00  0.00     0.020 A 
ATOM     87  C   UNL A   1      53.344  27.741  25.429  1.00  0.00     0.054 A 
BRANCH  87  88
ATOM     88  S   UNL A   1      55.116  27.658  25.051  1.00  0.00     0.124 S 
ATOM     89  O   UNL A   1      55.666  27.123  26.294  1.00  0.00    -0.237 OA
ATOM     90  O   UNL A   1      55.159  26.753  23.904  1.00  0.00    -0.237 OA
ATOM     91  O   UNL A   1      55.472  29.044  24.757  1.00  0.00    -0.744 OA
ENDBRANCH  87  88
ENDBRANCH  61  82
ENDBRANCH  35  36
ENDBRANCH  28  30
ENDBRANCH  27  28
ENDBRANCH  26  27
ENDBRANCH   1  26
TORSDOF 19
ENDMDL
