MODEL 1
REMARK VINA RESULT:     -14.2      0.000      0.000
REMARK SMILES CCc1cccc(C)c1Nc1ccccc1CC(=O)OCCOCCOC(=O)c1ccc(-c2c3nc(c(-c4ccc(S(=O)(=O)[O-])cc4)c4ccc([nH]4)c(-c4ccc(S(=O)(=O)[O-])cc4)c4nc(c(-c5ccc(S(=O)(=O)[O-])cc5)c5ccc2[nH]5)C=C4)C=C3)cc1
REMARK SMILES IDX 22 1 21 2 20 3 18 4 19 5 17 6 16 7 11 8 12 9 13 10 15 11
REMARK SMILES IDX 14 12 10 13 9 15 3 16 4 17 5 18 7 19 6 20 8 21 2 22 1 23
REMARK SMILES IDX 23 24 24 25 25 26 26 27 27 28 28 29 29 30 30 31 88 32 31 33
REMARK SMILES IDX 87 34 32 35 33 36 34 37 81 38 35 39 86 40 80 41 82 42 36 43
REMARK SMILES IDX 85 44 79 45 78 46 37 48 67 49 48 50 66 51 49 52 52 53 65 54
REMARK SMILES IDX 83 55 50 56 51 57 64 59 84 60 53 61 38 62 39 63 47 64 40 65
REMARK SMILES IDX 46 66 41 67 42 68 43 69 44 70 45 71 68 72 69 73 77 74 70 75
REMARK SMILES IDX 76 76 71 77 72 78 73 79 74 80 75 81 54 82 55 83 63 84 56 85
REMARK SMILES IDX 62 86 57 87 58 88 59 89 60 90 61 91
REMARK H PARENT 10 14 82 47 52 58
REMARK Flexibility Score: inf
ROOT
ATOM      1  C   UNL A   1      45.567  42.925  26.768  1.00  0.00     0.202 C 
ENDROOT
BRANCH   1   2
ATOM      2  C   UNL A   1      46.413  43.362  25.503  1.00  0.00     0.261 C 
BRANCH   2   3
ATOM      3  O   UNL A   1      46.013  43.218  23.800  1.00  0.00    -0.463 OA
BRANCH   3   4
ATOM      4  C   UNL A   1      46.300  43.799  22.545  1.00  0.00     0.310 C 
ATOM      5  O   UNL A   1      47.323  43.491  21.919  1.00  0.00    -0.252 OA
BRANCH   4   6
ATOM      6  C   UNL A   1      45.371  44.835  21.796  1.00  0.00     0.160 C 
BRANCH   6   7
ATOM      7  C   UNL A   1      44.202  44.489  20.772  1.00  0.00    -0.013 A 
ATOM      8  C   UNL A   1      43.814  44.829  19.280  1.00  0.00     0.042 A 
ATOM      9  C   UNL A   1      42.575  44.286  18.865  1.00  0.00     0.026 A 
ATOM     10  C   UNL A   1      41.833  43.413  19.708  1.00  0.00     0.002 A 
ATOM     11  C   UNL A   1      43.345  43.646  21.549  1.00  0.00     0.006 A 
ATOM     12  C   UNL A   1      42.210  43.084  21.012  1.00  0.00     0.000 A 
BRANCH   8  13
ATOM     13  N   UNL A   1      44.782  45.144  17.861  1.00  0.00    -0.355 N 
ATOM     14  H   UNL A   1      44.934  44.389  17.247  1.00  0.00     0.167 HD
BRANCH  13  15
ATOM     15  C   UNL A   1      45.590  46.857  17.379  1.00  0.00     0.045 A 
ATOM     16  C   UNL A   1      44.198  47.811  17.273  1.00  0.00    -0.024 A 
ATOM     17  C   UNL A   1      43.920  48.834  18.451  1.00  0.00     0.006 A 
ATOM     18  C   UNL A   1      44.707  48.941  19.825  1.00  0.00     0.001 A 
ATOM     19  C   UNL A   1      46.919  46.899  18.957  1.00  0.00    -0.027 A 
ATOM     20  C   UNL A   1      46.101  48.102  20.195  1.00  0.00     0.005 A 
ATOM     21  C   UNL A   1      48.170  45.813  19.414  1.00  0.00     0.046 C 
BRANCH  16  22
ATOM     22  C   UNL A   1      42.869  47.393  16.620  1.00  0.00     0.034 C 
ATOM     23  C   UNL A   1      41.597  48.160  17.001  1.00  0.00     0.009 C 
ENDBRANCH  16  22
ENDBRANCH  13  15
ENDBRANCH   8  13
ENDBRANCH   6   7
ENDBRANCH   4   6
ENDBRANCH   3   4
ENDBRANCH   2   3
ENDBRANCH   1   2
BRANCH   1  24
ATOM     24  O   UNL A   1      45.926  41.389  27.818  1.00  0.00    -0.374 OA
BRANCH  24  25
ATOM     25  C   UNL A   1      44.459  39.935  27.525  1.00  0.00     0.202 C 
BRANCH  25  26
ATOM     26  C   UNL A   1      46.019  38.809  26.404  1.00  0.00     0.261 C 
BRANCH  26  27
ATOM     27  O   UNL A   1      45.756  36.940  26.726  1.00  0.00    -0.460 OA
BRANCH  27  28
ATOM     28  C   UNL A   1      44.939  35.583  26.873  1.00  0.00     0.338 C 
ATOM     29  O   UNL A   1      43.715  35.730  26.705  1.00  0.00    -0.246 OA
BRANCH  28  30
ATOM     30  C   UNL A   1      45.280  33.855  27.231  1.00  0.00     0.060 A 
ATOM     31  C   UNL A   1      44.980  32.704  26.360  1.00  0.00     0.016 A 
ATOM     32  C   UNL A   1      45.331  33.422  28.560  1.00  0.00     0.016 A 
ATOM     33  C   UNL A   1      44.225  31.440  26.820  1.00  0.00     0.010 A 
ATOM     34  C   UNL A   1      44.523  32.261  28.987  1.00  0.00     0.010 A 
ATOM     35  C   UNL A   1      43.789  31.314  28.162  1.00  0.00    -0.014 A 
BRANCH  35  36
ATOM     36  C   UNL A   1      42.429  30.660  28.845  1.00  0.00     0.031 A 
ATOM     37  C   UNL A   1      42.078  29.375  28.137  1.00  0.00     0.074 A 
ATOM     38  C   UNL A   1      41.646  30.932  30.010  1.00  0.00     0.049 A 
ATOM     39  N   UNL A   1      40.891  28.887  28.047  1.00  0.00    -0.248 NA
ATOM     40  C   UNL A   1      43.021  28.570  27.341  1.00  0.00     0.031 C 
ATOM     41  C   UNL A   1      40.753  30.091  30.887  1.00  0.00     0.029 A 
ATOM     42  N   UNL A   1      41.625  32.039  30.883  1.00  0.00    -0.354 N 
ATOM     43  C   UNL A   1      41.022  27.597  27.559  1.00  0.00     0.074 A 
ATOM     44  C   UNL A   1      42.289  27.546  26.921  1.00  0.00     0.031 C 
ATOM     45  C   UNL A   1      40.145  30.818  31.884  1.00  0.00     0.029 A 
ATOM     46  C   UNL A   1      40.565  32.201  31.752  1.00  0.00     0.049 A 
ATOM     47  H   UNL A   1      42.362  32.692  30.873  1.00  0.00     0.167 HD
ATOM     48  C   UNL A   1      40.166  26.625  27.965  1.00  0.00     0.031 A 
ATOM     49  C   UNL A   1      39.960  33.415  31.772  1.00  0.00     0.031 A 
ATOM     50  C   UNL A   1      39.226  27.191  28.938  1.00  0.00     0.049 A 
ATOM     51  C   UNL A   1      38.763  33.037  30.937  1.00  0.00     0.074 A 
ATOM     52  C   UNL A   1      39.116  27.072  30.311  1.00  0.00     0.029 A 
ATOM     53  N   UNL A   1      38.507  28.335  28.592  1.00  0.00    -0.354 N 
ATOM     54  N   UNL A   1      38.804  32.078  30.037  1.00  0.00    -0.248 NA
ATOM     55  C   UNL A   1      37.407  33.416  31.307  1.00  0.00     0.031 C 
ATOM     56  C   UNL A   1      38.354  28.193  30.781  1.00  0.00     0.029 A 
ATOM     57  C   UNL A   1      38.066  29.033  29.706  1.00  0.00     0.049 A 
ATOM     58  H   UNL A   1      38.332  28.613  27.664  1.00  0.00     0.167 HD
ATOM     59  C   UNL A   1      37.583  31.479  30.023  1.00  0.00     0.074 A 
ATOM     60  C   UNL A   1      36.714  32.431  30.714  1.00  0.00     0.031 C 
ATOM     61  C   UNL A   1      37.276  30.251  29.515  1.00  0.00     0.031 A 
BRANCH  48  62
ATOM     62  C   UNL A   1      40.333  25.134  27.699  1.00  0.00    -0.014 A 
ATOM     63  C   UNL A   1      39.312  24.477  26.989  1.00  0.00     0.010 A 
ATOM     64  C   UNL A   1      41.431  24.320  28.070  1.00  0.00     0.010 A 
ATOM     65  C   UNL A   1      39.382  23.116  26.652  1.00  0.00     0.020 A 
ATOM     66  C   UNL A   1      41.514  22.952  27.747  1.00  0.00     0.020 A 
ATOM     67  C   UNL A   1      40.490  22.361  27.021  1.00  0.00     0.054 A 
BRANCH  67  68
ATOM     68  S   UNL A   1      40.588  20.632  26.489  1.00  0.00     0.124 S 
ATOM     69  O   UNL A   1      40.669  19.918  27.760  1.00  0.00    -0.237 OA
ATOM     70  O   UNL A   1      39.340  20.464  25.750  1.00  0.00    -0.237 OA
ATOM     71  O   UNL A   1      41.800  20.583  25.675  1.00  0.00    -0.744 OA
ENDBRANCH  67  68
ENDBRANCH  48  62
BRANCH  49  72
ATOM     72  C   UNL A   1      40.995  34.544  31.627  1.00  0.00    -0.014 A 
ATOM     73  C   UNL A   1      41.691  35.009  32.788  1.00  0.00     0.010 A 
ATOM     74  C   UNL A   1      41.614  34.815  30.390  1.00  0.00     0.010 A 
ATOM     75  C   UNL A   1      42.966  35.637  32.716  1.00  0.00     0.020 A 
ATOM     76  C   UNL A   1      42.899  35.409  30.315  1.00  0.00     0.020 A 
ATOM     77  C   UNL A   1      43.575  35.816  31.473  1.00  0.00     0.054 A 
BRANCH  77  78
ATOM     78  S   UNL A   1      45.355  36.270  31.367  1.00  0.00     0.124 S 
ATOM     79  O   UNL A   1      45.479  37.289  32.401  1.00  0.00    -0.237 OA
ATOM     80  O   UNL A   1      46.044  35.014  31.646  1.00  0.00    -0.237 OA
ATOM     81  O   UNL A   1      45.478  36.741  29.992  1.00  0.00    -0.744 OA
ENDBRANCH  77  78
ENDBRANCH  49  72
BRANCH  61  82
ATOM     82  C   UNL A   1      36.058  30.194  28.663  1.00  0.00    -0.014 A 
ATOM     83  C   UNL A   1      35.539  28.962  28.235  1.00  0.00     0.010 A 
ATOM     84  C   UNL A   1      35.318  31.360  28.402  1.00  0.00     0.010 A 
ATOM     85  C   UNL A   1      34.443  28.910  27.402  1.00  0.00     0.020 A 
ATOM     86  C   UNL A   1      34.150  31.307  27.660  1.00  0.00     0.020 A 
ATOM     87  C   UNL A   1      33.767  30.089  27.108  1.00  0.00     0.054 A 
BRANCH  87  88
ATOM     88  S   UNL A   1      32.383  29.987  25.973  1.00  0.00     0.124 S 
ATOM     89  O   UNL A   1      31.648  28.848  26.519  1.00  0.00    -0.237 OA
ATOM     90  O   UNL A   1      31.741  31.288  26.142  1.00  0.00    -0.237 OA
ATOM     91  O   UNL A   1      33.016  29.766  24.677  1.00  0.00    -0.744 OA
ENDBRANCH  87  88
ENDBRANCH  61  82
ENDBRANCH  35  36
ENDBRANCH  28  30
ENDBRANCH  27  28
ENDBRANCH  26  27
ENDBRANCH  25  26
ENDBRANCH  24  25
ENDBRANCH   1  24
TORSDOF 21
ENDMDL
MODEL 2
REMARK VINA RESULT:     -13.7      6.528     13.350
REMARK SMILES CCc1cccc(C)c1Nc1ccccc1CC(=O)OCCOCCOC(=O)c1ccc(-c2c3nc(c(-c4ccc(S(=O)(=O)[O-])cc4)c4ccc([nH]4)c(-c4ccc(S(=O)(=O)[O-])cc4)c4nc(c(-c5ccc(S(=O)(=O)[O-])cc5)c5ccc2[nH]5)C=C4)C=C3)cc1
REMARK SMILES IDX 22 1 21 2 20 3 18 4 19 5 17 6 16 7 11 8 12 9 13 10 15 11
REMARK SMILES IDX 14 12 10 13 9 15 3 16 4 17 5 18 7 19 6 20 8 21 2 22 1 23
REMARK SMILES IDX 23 24 24 25 25 26 26 27 27 28 28 29 29 30 30 31 88 32 31 33
REMARK SMILES IDX 87 34 32 35 33 36 34 37 81 38 35 39 86 40 80 41 82 42 36 43
REMARK SMILES IDX 85 44 79 45 78 46 37 48 67 49 48 50 66 51 49 52 52 53 65 54
REMARK SMILES IDX 83 55 50 56 51 57 64 59 84 60 53 61 38 62 39 63 47 64 40 65
REMARK SMILES IDX 46 66 41 67 42 68 43 69 44 70 45 71 68 72 69 73 77 74 70 75
REMARK SMILES IDX 76 76 71 77 72 78 73 79 74 80 75 81 54 82 55 83 63 84 56 85
REMARK SMILES IDX 62 86 57 87 58 88 59 89 60 90 61 91
REMARK H PARENT 10 14 82 47 52 58
REMARK Flexibility Score: inf
ROOT
ATOM      1  C   UNL A   1      40.680  33.422  38.148  1.00  0.00     0.202 C 
ENDROOT
BRANCH   1   2
ATOM      2  C   UNL A   1      39.156  33.503  37.726  1.00  0.00     0.261 C 
BRANCH   2   3
ATOM      3  O   UNL A   1      38.200  32.356  36.806  1.00  0.00    -0.463 OA
BRANCH   3   4
ATOM      4  C   UNL A   1      38.317  31.393  35.779  1.00  0.00     0.310 C 
ATOM      5  O   UNL A   1      38.294  30.181  36.036  1.00  0.00    -0.252 OA
BRANCH   4   6
ATOM      6  C   UNL A   1      38.442  31.724  34.239  1.00  0.00     0.160 C 
BRANCH   6   7
ATOM      7  C   UNL A   1      38.342  30.686  33.036  1.00  0.00    -0.013 A 
ATOM      8  C   UNL A   1      37.213  30.012  32.162  1.00  0.00     0.042 A 
ATOM      9  C   UNL A   1      37.693  29.068  31.224  1.00  0.00     0.026 A 
ATOM     10  C   UNL A   1      39.086  28.861  31.032  1.00  0.00     0.002 A 
ATOM     11  C   UNL A   1      39.713  30.356  32.793  1.00  0.00     0.006 A 
ATOM     12  C   UNL A   1      40.078  29.498  31.782  1.00  0.00     0.000 A 
BRANCH   8  13
ATOM     13  N   UNL A   1      35.652  30.582  31.624  1.00  0.00    -0.355 N 
ATOM     14  H   UNL A   1      34.877  30.002  31.803  1.00  0.00     0.167 HD
BRANCH  13  15
ATOM     15  C   UNL A   1      35.302  32.268  30.699  1.00  0.00     0.045 A 
ATOM     16  C   UNL A   1      35.522  33.350  31.981  1.00  0.00    -0.024 A 
ATOM     17  C   UNL A   1      36.857  34.204  31.996  1.00  0.00     0.006 A 
ATOM     18  C   UNL A   1      38.110  34.032  31.038  1.00  0.00     0.001 A 
ATOM     19  C   UNL A   1      36.672  31.951  29.188  1.00  0.00    -0.027 A 
ATOM     20  C   UNL A   1      38.165  33.023  29.709  1.00  0.00     0.005 A 
ATOM     21  C   UNL A   1      36.797  30.701  28.016  1.00  0.00     0.046 C 
BRANCH  16  22
ATOM     22  C   UNL A   1      35.009  33.157  33.418  1.00  0.00     0.034 C 
ATOM     23  C   UNL A   1      35.596  34.039  34.525  1.00  0.00     0.009 C 
ENDBRANCH  16  22
ENDBRANCH  13  15
ENDBRANCH   8  13
ENDBRANCH   6   7
ENDBRANCH   4   6
ENDBRANCH   3   4
ENDBRANCH   2   3
ENDBRANCH   1   2
BRANCH   1  24
ATOM     24  O   UNL A   1      41.507  31.884  38.884  1.00  0.00    -0.374 OA
BRANCH  24  25
ATOM     25  C   UNL A   1      42.831  32.415  40.407  1.00  0.00     0.202 C 
BRANCH  25  26
ATOM     26  C   UNL A   1      44.448  31.962  38.945  1.00  0.00     0.261 C 
BRANCH  26  27
ATOM     27  O   UNL A   1      44.067  32.900  37.320  1.00  0.00    -0.460 OA
BRANCH  27  28
ATOM     28  C   UNL A   1      43.721  33.071  35.776  1.00  0.00     0.338 C 
ATOM     29  O   UNL A   1      44.442  32.376  35.037  1.00  0.00    -0.246 OA
BRANCH  28  30
ATOM     30  C   UNL A   1      42.569  34.007  34.764  1.00  0.00     0.060 A 
ATOM     31  C   UNL A   1      41.469  33.457  33.950  1.00  0.00     0.016 A 
ATOM     32  C   UNL A   1      42.963  35.237  34.229  1.00  0.00     0.016 A 
ATOM     33  C   UNL A   1      41.236  33.795  32.464  1.00  0.00     0.010 A 
ATOM     34  C   UNL A   1      42.808  35.494  32.781  1.00  0.00     0.010 A 
ATOM     35  C   UNL A   1      42.089  34.705  31.793  1.00  0.00    -0.014 A 
BRANCH  35  36
ATOM     36  C   UNL A   1      42.692  34.752  30.250  1.00  0.00     0.031 A 
ATOM     37  C   UNL A   1      43.106  33.364  29.829  1.00  0.00     0.074 A 
ATOM     38  C   UNL A   1      42.748  35.732  29.211  1.00  0.00     0.049 A 
ATOM     39  N   UNL A   1      44.022  33.101  28.965  1.00  0.00    -0.248 NA
ATOM     40  C   UNL A   1      42.611  32.118  30.441  1.00  0.00     0.031 C 
ATOM     41  C   UNL A   1      42.826  35.655  27.708  1.00  0.00     0.029 A 
ATOM     42  N   UNL A   1      42.510  37.122  29.225  1.00  0.00    -0.354 N 
ATOM     43  C   UNL A   1      43.923  31.752  28.671  1.00  0.00     0.074 A 
ATOM     44  C   UNL A   1      43.230  31.162  29.760  1.00  0.00     0.031 C 
ATOM     45  C   UNL A   1      42.923  36.892  27.113  1.00  0.00     0.029 A 
ATOM     46  C   UNL A   1      42.931  37.896  28.162  1.00  0.00     0.049 A 
ATOM     47  H   UNL A   1      42.047  37.538  29.987  1.00  0.00     0.167 HD
ATOM     48  C   UNL A   1      44.203  31.305  27.419  1.00  0.00     0.031 A 
ATOM     49  C   UNL A   1      43.655  39.005  28.451  1.00  0.00     0.031 A 
ATOM     50  C   UNL A   1      44.551  32.450  26.570  1.00  0.00     0.049 A 
ATOM     51  C   UNL A   1      45.010  38.431  28.117  1.00  0.00     0.074 A 
ATOM     52  C   UNL A   1      43.867  33.112  25.567  1.00  0.00     0.029 A 
ATOM     53  N   UNL A   1      45.554  33.321  26.993  1.00  0.00    -0.354 N 
ATOM     54  N   UNL A   1      45.275  37.146  28.209  1.00  0.00    -0.248 NA
ATOM     55  C   UNL A   1      45.987  39.161  27.322  1.00  0.00     0.031 C 
ATOM     56  C   UNL A   1      44.456  34.414  25.432  1.00  0.00     0.029 A 
ATOM     57  C   UNL A   1      45.445  34.571  26.402  1.00  0.00     0.049 A 
ATOM     58  H   UNL A   1      46.259  33.076  27.635  1.00  0.00     0.167 HD
ATOM     59  C   UNL A   1      46.155  36.839  27.220  1.00  0.00     0.074 A 
ATOM     60  C   UNL A   1      46.677  38.136  26.794  1.00  0.00     0.031 C 
ATOM     61  C   UNL A   1      46.436  35.598  26.725  1.00  0.00     0.031 A 
BRANCH  48  62
ATOM     62  C   UNL A   1      43.913  29.904  26.897  1.00  0.00    -0.014 A 
ATOM     63  C   UNL A   1      44.978  28.986  26.858  1.00  0.00     0.010 A 
ATOM     64  C   UNL A   1      42.665  29.400  26.457  1.00  0.00     0.010 A 
ATOM     65  C   UNL A   1      44.815  27.658  26.435  1.00  0.00     0.020 A 
ATOM     66  C   UNL A   1      42.484  28.072  26.023  1.00  0.00     0.020 A 
ATOM     67  C   UNL A   1      43.564  27.201  26.031  1.00  0.00     0.054 A 
BRANCH  67  68
ATOM     68  S   UNL A   1      43.372  25.458  25.580  1.00  0.00     0.124 S 
ATOM     69  O   UNL A   1      43.412  24.792  26.880  1.00  0.00    -0.237 OA
ATOM     70  O   UNL A   1      42.076  25.451  24.908  1.00  0.00    -0.237 OA
ATOM     71  O   UNL A   1      44.519  25.190  24.714  1.00  0.00    -0.744 OA
ENDBRANCH  67  68
ENDBRANCH  48  62
BRANCH  49  72
ATOM     72  C   UNL A   1      43.119  39.692  29.718  1.00  0.00    -0.014 A 
ATOM     73  C   UNL A   1      43.926  39.707  30.901  1.00  0.00     0.010 A 
ATOM     74  C   UNL A   1      42.116  40.679  29.647  1.00  0.00     0.010 A 
ATOM     75  C   UNL A   1      43.784  40.698  31.912  1.00  0.00     0.020 A 
ATOM     76  C   UNL A   1      41.993  41.689  30.635  1.00  0.00     0.020 A 
ATOM     77  C   UNL A   1      42.826  41.702  31.761  1.00  0.00     0.054 A 
BRANCH  77  78
ATOM     78  S   UNL A   1      42.865  43.192  32.839  1.00  0.00     0.124 S 
ATOM     79  O   UNL A   1      41.956  42.823  33.917  1.00  0.00    -0.237 OA
ATOM     80  O   UNL A   1      44.270  43.301  33.219  1.00  0.00    -0.237 OA
ATOM     81  O   UNL A   1      42.394  44.241  31.941  1.00  0.00    -0.744 OA
ENDBRANCH  77  78
ENDBRANCH  49  72
BRANCH  61  82
ATOM     82  C   UNL A   1      47.880  35.285  26.558  1.00  0.00    -0.014 A 
ATOM     83  C   UNL A   1      48.473  35.285  25.286  1.00  0.00     0.010 A 
ATOM     84  C   UNL A   1      48.710  35.134  27.684  1.00  0.00     0.010 A 
ATOM     85  C   UNL A   1      49.797  34.942  25.124  1.00  0.00     0.020 A 
ATOM     86  C   UNL A   1      50.067  34.900  27.537  1.00  0.00     0.020 A 
ATOM     87  C   UNL A   1      50.580  34.736  26.255  1.00  0.00     0.054 A 
BRANCH  87  88
ATOM     88  S   UNL A   1      52.281  34.232  26.001  1.00  0.00     0.124 S 
ATOM     89  O   UNL A   1      52.995  35.473  26.294  1.00  0.00    -0.237 OA
ATOM     90  O   UNL A   1      52.444  33.166  26.987  1.00  0.00    -0.237 OA
ATOM     91  O   UNL A   1      52.309  33.803  24.607  1.00  0.00    -0.744 OA
ENDBRANCH  87  88
ENDBRANCH  61  82
ENDBRANCH  35  36
ENDBRANCH  28  30
ENDBRANCH  27  28
ENDBRANCH  26  27
ENDBRANCH  25  26
ENDBRANCH  24  25
ENDBRANCH   1  24
TORSDOF 21
ENDMDL
MODEL 3
REMARK VINA RESULT:     -13.4      6.269     13.031
REMARK SMILES CCc1cccc(C)c1Nc1ccccc1CC(=O)OCCOCCOC(=O)c1ccc(-c2c3nc(c(-c4ccc(S(=O)(=O)[O-])cc4)c4ccc([nH]4)c(-c4ccc(S(=O)(=O)[O-])cc4)c4nc(c(-c5ccc(S(=O)(=O)[O-])cc5)c5ccc2[nH]5)C=C4)C=C3)cc1
REMARK SMILES IDX 22 1 21 2 20 3 18 4 19 5 17 6 16 7 11 8 12 9 13 10 15 11
REMARK SMILES IDX 14 12 10 13 9 15 3 16 4 17 5 18 7 19 6 20 8 21 2 22 1 23
REMARK SMILES IDX 23 24 24 25 25 26 26 27 27 28 28 29 29 30 30 31 88 32 31 33
REMARK SMILES IDX 87 34 32 35 33 36 34 37 81 38 35 39 86 40 80 41 82 42 36 43
REMARK SMILES IDX 85 44 79 45 78 46 37 48 67 49 48 50 66 51 49 52 52 53 65 54
REMARK SMILES IDX 83 55 50 56 51 57 64 59 84 60 53 61 38 62 39 63 47 64 40 65
REMARK SMILES IDX 46 66 41 67 42 68 43 69 44 70 45 71 68 72 69 73 77 74 70 75
REMARK SMILES IDX 76 76 71 77 72 78 73 79 74 80 75 81 54 82 55 83 63 84 56 85
REMARK SMILES IDX 62 86 57 87 58 88 59 89 60 90 61 91
REMARK H PARENT 10 14 82 47 52 58
REMARK Flexibility Score: inf
ROOT
ATOM      1  C   UNL A   1      42.848  27.859  31.112  1.00  0.00     0.202 C 
ENDROOT
BRANCH   1   2
ATOM      2  C   UNL A   1      41.995  27.643  29.796  1.00  0.00     0.261 C 
BRANCH   2   3
ATOM      3  O   UNL A   1      40.339  28.118  29.459  1.00  0.00    -0.463 OA
BRANCH   3   4
ATOM      4  C   UNL A   1      39.521  29.263  29.344  1.00  0.00     0.310 C 
ATOM      5  O   UNL A   1      38.468  29.231  28.691  1.00  0.00    -0.252 OA
BRANCH   4   6
ATOM      6  C   UNL A   1      39.808  30.652  30.039  1.00  0.00     0.160 C 
BRANCH   6   7
ATOM      7  C   UNL A   1      39.008  32.010  29.808  1.00  0.00    -0.013 A 
ATOM      8  C   UNL A   1      37.519  32.460  29.542  1.00  0.00     0.042 A 
ATOM      9  C   UNL A   1      37.362  33.852  29.337  1.00  0.00     0.026 A 
ATOM     10  C   UNL A   1      38.457  34.747  29.487  1.00  0.00     0.002 A 
ATOM     11  C   UNL A   1      40.042  32.997  29.880  1.00  0.00     0.006 A 
ATOM     12  C   UNL A   1      39.763  34.340  29.768  1.00  0.00     0.000 A 
BRANCH   8  13
ATOM     13  N   UNL A   1      35.986  31.802  30.059  1.00  0.00    -0.355 N 
ATOM     14  H   UNL A   1      35.473  31.288  29.394  1.00  0.00     0.167 HD
BRANCH  13  15
ATOM     15  C   UNL A   1      35.197  31.990  31.837  1.00  0.00     0.045 A 
ATOM     16  C   UNL A   1      36.432  31.311  32.773  1.00  0.00    -0.024 A 
ATOM     17  C   UNL A   1      37.343  32.301  33.611  1.00  0.00     0.006 A 
ATOM     18  C   UNL A   1      37.350  33.886  33.535  1.00  0.00     0.001 A 
ATOM     19  C   UNL A   1      34.830  34.015  31.676  1.00  0.00    -0.027 A 
ATOM     20  C   UNL A   1      36.254  34.805  32.676  1.00  0.00     0.005 A 
ATOM     21  C   UNL A   1      33.879  34.908  30.559  1.00  0.00     0.046 C 
BRANCH  16  22
ATOM     22  C   UNL A   1      37.224  30.037  32.429  1.00  0.00     0.034 C 
ATOM     23  C   UNL A   1      38.486  29.723  33.240  1.00  0.00     0.009 C 
ENDBRANCH  16  22
ENDBRANCH  13  15
ENDBRANCH   8  13
ENDBRANCH   6   7
ENDBRANCH   4   6
ENDBRANCH   3   4
ENDBRANCH   2   3
ENDBRANCH   1   2
BRANCH   1  24
ATOM     24  O   UNL A   1      42.124  28.388  32.782  1.00  0.00    -0.374 OA
BRANCH  24  25
ATOM     25  C   UNL A   1      42.985  27.296  34.338  1.00  0.00     0.202 C 
BRANCH  25  26
ATOM     26  C   UNL A   1      41.702  28.512  35.692  1.00  0.00     0.261 C 
BRANCH  26  27
ATOM     27  O   UNL A   1      42.171  30.354  35.467  1.00  0.00    -0.460 OA
BRANCH  27  28
ATOM     28  C   UNL A   1      43.131  31.600  35.227  1.00  0.00     0.338 C 
ATOM     29  O   UNL A   1      44.318  31.364  35.519  1.00  0.00    -0.246 OA
BRANCH  28  30
ATOM     30  C   UNL A   1      42.994  33.297  34.652  1.00  0.00     0.060 A 
ATOM     31  C   UNL A   1      41.799  33.929  34.063  1.00  0.00     0.016 A 
ATOM     32  C   UNL A   1      44.136  33.968  34.202  1.00  0.00     0.016 A 
ATOM     33  C   UNL A   1      41.797  34.710  32.733  1.00  0.00     0.010 A 
ATOM     34  C   UNL A   1      44.127  34.630  32.880  1.00  0.00     0.010 A 
ATOM     35  C   UNL A   1      42.997  34.882  32.000  1.00  0.00    -0.014 A 
BRANCH  35  36
ATOM     36  C   UNL A   1      43.331  34.896  30.377  1.00  0.00     0.031 A 
ATOM     37  C   UNL A   1      43.642  33.494  29.915  1.00  0.00     0.074 A 
ATOM     38  C   UNL A   1      43.229  35.861  29.327  1.00  0.00     0.049 A 
ATOM     39  N   UNL A   1      44.393  33.201  28.914  1.00  0.00    -0.248 NA
ATOM     40  C   UNL A   1      43.234  32.267  30.622  1.00  0.00     0.031 C 
ATOM     41  C   UNL A   1      43.051  35.763  27.834  1.00  0.00     0.029 A 
ATOM     42  N   UNL A   1      43.023  37.256  29.358  1.00  0.00    -0.354 N 
ATOM     43  C   UNL A   1      44.220  31.850  28.662  1.00  0.00     0.074 A 
ATOM     44  C   UNL A   1      43.710  31.289  29.862  1.00  0.00     0.031 C 
ATOM     45  C   UNL A   1      43.069  36.990  27.211  1.00  0.00     0.029 A 
ATOM     46  C   UNL A   1      43.274  38.007  28.227  1.00  0.00     0.049 A 
ATOM     47  H   UNL A   1      42.704  37.692  30.181  1.00  0.00     0.167 HD
ATOM     48  C   UNL A   1      44.276  31.381  27.389  1.00  0.00     0.031 A 
ATOM     49  C   UNL A   1      44.057  39.103  28.372  1.00  0.00     0.031 A 
ATOM     50  C   UNL A   1      44.497  32.507  26.474  1.00  0.00     0.049 A 
ATOM     51  C   UNL A   1      45.324  38.497  27.823  1.00  0.00     0.074 A 
ATOM     52  C   UNL A   1      43.666  33.171  25.591  1.00  0.00     0.029 A 
ATOM     53  N   UNL A   1      45.574  33.361  26.707  1.00  0.00    -0.354 N 
ATOM     54  N   UNL A   1      45.577  37.207  27.891  1.00  0.00    -0.248 NA
ATOM     55  C   UNL A   1      46.167  39.195  26.863  1.00  0.00     0.031 C 
ATOM     56  C   UNL A   1      44.248  34.458  25.337  1.00  0.00     0.029 A 
ATOM     57  C   UNL A   1      45.390  34.606  26.123  1.00  0.00     0.049 A 
ATOM     58  H   UNL A   1      46.372  33.110  27.226  1.00  0.00     0.167 HD
ATOM     59  C   UNL A   1      46.271  36.869  26.772  1.00  0.00     0.074 A 
ATOM     60  C   UNL A   1      46.738  38.149  26.243  1.00  0.00     0.031 C 
ATOM     61  C   UNL A   1      46.441  35.616  26.257  1.00  0.00     0.031 A 
BRANCH  48  62
ATOM     62  C   UNL A   1      43.875  29.980  26.945  1.00  0.00    -0.014 A 
ATOM     63  C   UNL A   1      44.839  28.960  27.046  1.00  0.00     0.010 A 
ATOM     64  C   UNL A   1      42.611  29.570  26.455  1.00  0.00     0.010 A 
ATOM     65  C   UNL A   1      44.565  27.627  26.706  1.00  0.00     0.020 A 
ATOM     66  C   UNL A   1      42.321  28.238  26.103  1.00  0.00     0.020 A 
ATOM     67  C   UNL A   1      43.302  27.267  26.247  1.00  0.00     0.054 A 
BRANCH  67  68
ATOM     68  S   UNL A   1      42.958  25.522  25.906  1.00  0.00     0.124 S 
ATOM     69  O   UNL A   1      43.015  24.925  27.238  1.00  0.00    -0.237 OA
ATOM     70  O   UNL A   1      41.632  25.579  25.298  1.00  0.00    -0.237 OA
ATOM     71  O   UNL A   1      44.035  25.121  25.003  1.00  0.00    -0.744 OA
ENDBRANCH  67  68
ENDBRANCH  48  62
BRANCH  49  72
ATOM     72  C   UNL A   1      43.757  39.819  29.700  1.00  0.00    -0.014 A 
ATOM     73  C   UNL A   1      44.834  40.115  30.595  1.00  0.00     0.010 A 
ATOM     74  C   UNL A   1      42.589  40.588  29.869  1.00  0.00     0.010 A 
ATOM     75  C   UNL A   1      44.770  41.171  31.546  1.00  0.00     0.020 A 
ATOM     76  C   UNL A   1      42.531  41.663  30.792  1.00  0.00     0.020 A 
ATOM     77  C   UNL A   1      43.619  41.957  31.625  1.00  0.00     0.054 A 
BRANCH  77  78
ATOM     78  S   UNL A   1      43.638  43.541  32.561  1.00  0.00     0.124 S 
ATOM     79  O   UNL A   1      42.577  44.300  31.912  1.00  0.00    -0.237 OA
ATOM     80  O   UNL A   1      43.359  43.130  33.933  1.00  0.00    -0.237 OA
ATOM     81  O   UNL A   1      44.996  44.024  32.332  1.00  0.00    -0.744 OA
ENDBRANCH  77  78
ENDBRANCH  49  72
BRANCH  61  82
ATOM     82  C   UNL A   1      47.830  35.269  25.854  1.00  0.00    -0.014 A 
ATOM     83  C   UNL A   1      48.567  36.119  25.016  1.00  0.00     0.010 A 
ATOM     84  C   UNL A   1      48.482  34.164  26.429  1.00  0.00     0.010 A 
ATOM     85  C   UNL A   1      49.833  35.773  24.598  1.00  0.00     0.020 A 
ATOM     86  C   UNL A   1      49.795  33.868  26.104  1.00  0.00     0.020 A 
ATOM     87  C   UNL A   1      50.431  34.638  25.135  1.00  0.00     0.054 A 
BRANCH  87  88
ATOM     88  S   UNL A   1      52.054  34.189  24.521  1.00  0.00     0.124 S 
ATOM     89  O   UNL A   1      52.743  33.839  25.761  1.00  0.00    -0.237 OA
ATOM     90  O   UNL A   1      51.754  33.070  23.631  1.00  0.00    -0.237 OA
ATOM     91  O   UNL A   1      52.521  35.404  23.862  1.00  0.00    -0.744 OA
ENDBRANCH  87  88
ENDBRANCH  61  82
ENDBRANCH  35  36
ENDBRANCH  28  30
ENDBRANCH  27  28
ENDBRANCH  26  27
ENDBRANCH  25  26
ENDBRANCH  24  25
ENDBRANCH   1  24
TORSDOF 21
ENDMDL
