MODEL 1
REMARK VINA RESULT:      -9.7      0.000      0.000
REMARK SMILES CC(C)N(CC(=O)OCCOCCOC(=O)c1ccc(-c2c3nc(c(-c4ccc(S(=O)(=O)[O-])cc4)c4ccc([nH]4)c(-c4ccc(S(=O)(=O)[O-])cc4)c4nc(c(-c5ccc(S(=O)(=O)[O-])cc5)c5ccc2[nH]5)C=C4)C=C3)cc1)C(=O)NC1C(C)(C)C1(C)C
REMARK SMILES IDX 11 1 10 2 9 3 8 4 6 5 7 6 5 7 4 8 2 9 1 10 3 11 77 12 78 13
REMARK SMILES IDX 79 14 80 16 81 17 84 18 82 19 83 20 85 21 86 22 12 23 13 24
REMARK SMILES IDX 14 25 15 26 16 27 17 28 18 29 76 30 19 31 75 32 20 33 21 34
REMARK SMILES IDX 22 35 69 36 23 37 74 38 68 39 70 40 24 41 73 42 67 43 66 44
REMARK SMILES IDX 25 46 55 47 36 48 54 49 37 50 40 51 53 52 71 53 38 54 39 55
REMARK SMILES IDX 52 57 72 58 41 59 26 60 27 61 35 62 28 63 34 64 29 65 30 66
REMARK SMILES IDX 31 67 32 68 33 69 56 70 57 71 65 72 58 73 64 74 59 75 60 76
REMARK SMILES IDX 61 77 62 78 63 79 42 80 43 81 51 82 44 83 50 84 45 85 46 86
REMARK SMILES IDX 47 87 48 88 49 89
REMARK H PARENT 79 15 70 45 40 56
REMARK Flexibility Score: inf
ROOT
ATOM      1  O   UNL A   1      31.378  30.499  25.293  1.00  0.00    -0.374 OA
ENDROOT
BRANCH   1   2
ATOM      2  C   UNL A   1      31.320  29.277  24.570  1.00  0.00     0.202 C 
BRANCH   2   3
ATOM      3  C   UNL A   1      32.622  28.506  24.778  1.00  0.00     0.261 C 
BRANCH   3   4
ATOM      4  O   UNL A   1      33.402  28.651  23.565  1.00  0.00    -0.462 OA
BRANCH   4   5
ATOM      5  C   UNL A   1      33.575  27.492  22.881  1.00  0.00     0.325 C 
ATOM      6  O   UNL A   1      33.884  27.439  21.694  1.00  0.00    -0.250 OA
BRANCH   5   7
ATOM      7  C   UNL A   1      33.651  26.264  23.795  1.00  0.00     0.244 C 
BRANCH   7   8
ATOM      8  N   UNL A   1      32.897  25.049  23.513  1.00  0.00    -0.311 N 
BRANCH   8   9
ATOM      9  C   UNL A   1      31.571  25.020  24.188  1.00  0.00     0.081 C 
ATOM     10  C   UNL A   1      30.397  25.307  23.242  1.00  0.00     0.031 C 
ATOM     11  C   UNL A   1      31.326  23.758  25.016  1.00  0.00     0.031 C 
ENDBRANCH   8   9
BRANCH   8  12
ATOM     12  C   UNL A   1      33.299  23.967  22.799  1.00  0.00     0.318 C 
ATOM     13  O   UNL A   1      33.206  23.982  21.558  1.00  0.00    -0.249 OA
ATOM     14  N   UNL A   1      33.832  22.806  23.217  1.00  0.00    -0.334 N 
ATOM     15  H   UNL A   1      33.788  22.224  22.424  1.00  0.00     0.165 HD
BRANCH  14  16
ATOM     16  C   UNL A   1      34.434  21.975  24.226  1.00  0.00     0.096 C 
ATOM     17  C   UNL A   1      35.867  21.718  24.622  1.00  0.00    -0.007 C 
ATOM     18  C   UNL A   1      34.838  22.301  25.646  1.00  0.00    -0.007 C 
ATOM     19  C   UNL A   1      36.371  20.335  24.977  1.00  0.00     0.014 C 
ATOM     20  C   UNL A   1      36.918  22.487  23.859  1.00  0.00     0.014 C 
ATOM     21  C   UNL A   1      35.038  23.677  26.175  1.00  0.00     0.014 C 
ATOM     22  C   UNL A   1      34.177  21.431  26.712  1.00  0.00     0.014 C 
ENDBRANCH  14  16
ENDBRANCH   8  12
ENDBRANCH   7   8
ENDBRANCH   5   7
ENDBRANCH   4   5
ENDBRANCH   3   4
ENDBRANCH   2   3
ENDBRANCH   1   2
BRANCH   1  23
ATOM     23  C   UNL A   1      31.820  30.521  26.647  1.00  0.00     0.202 C 
BRANCH  23  24
ATOM     24  C   UNL A   1      33.108  31.278  27.021  1.00  0.00     0.261 C 
BRANCH  24  25
ATOM     25  O   UNL A   1      34.052  30.583  27.831  1.00  0.00    -0.460 OA
BRANCH  25  26
ATOM     26  C   UNL A   1      34.797  31.321  28.676  1.00  0.00     0.338 C 
ATOM     27  O   UNL A   1      34.412  32.211  29.420  1.00  0.00    -0.246 OA
BRANCH  26  28
ATOM     28  C   UNL A   1      36.090  30.617  28.769  1.00  0.00     0.060 A 
ATOM     29  C   UNL A   1      36.332  29.860  29.922  1.00  0.00     0.016 A 
ATOM     30  C   UNL A   1      36.965  30.568  27.675  1.00  0.00     0.016 A 
ATOM     31  C   UNL A   1      37.490  29.101  30.011  1.00  0.00     0.010 A 
ATOM     32  C   UNL A   1      38.128  29.813  27.766  1.00  0.00     0.010 A 
ATOM     33  C   UNL A   1      38.414  29.132  28.959  1.00  0.00    -0.014 A 
BRANCH  33  34
ATOM     34  C   UNL A   1      39.797  28.712  29.237  1.00  0.00     0.031 A 
ATOM     35  C   UNL A   1      40.644  29.660  30.039  1.00  0.00     0.074 A 
ATOM     36  C   UNL A   1      40.245  27.508  28.850  1.00  0.00     0.049 A 
ATOM     37  N   UNL A   1      41.865  29.519  30.473  1.00  0.00    -0.248 NA
ATOM     38  C   UNL A   1      40.022  30.949  30.399  1.00  0.00     0.031 C 
ATOM     39  C   UNL A   1      39.466  26.509  28.120  1.00  0.00     0.029 A 
ATOM     40  N   UNL A   1      41.463  26.917  29.042  1.00  0.00    -0.354 N 
ATOM     41  C   UNL A   1      42.156  30.698  31.151  1.00  0.00     0.074 A 
ATOM     42  C   UNL A   1      41.007  31.562  31.032  1.00  0.00     0.031 C 
ATOM     43  C   UNL A   1      40.223  25.412  27.944  1.00  0.00     0.029 A 
ATOM     44  C   UNL A   1      41.545  25.650  28.520  1.00  0.00     0.049 A 
ATOM     45  H   UNL A   1      42.209  27.357  29.510  1.00  0.00     0.167 HD
ATOM     46  C   UNL A   1      43.283  31.025  31.824  1.00  0.00     0.031 A 
ATOM     47  C   UNL A   1      42.581  24.790  28.516  1.00  0.00     0.031 A 
ATOM     48  C   UNL A   1      44.425  30.156  31.899  1.00  0.00     0.049 A 
ATOM     49  C   UNL A   1      43.859  25.210  29.193  1.00  0.00     0.074 A 
ATOM     50  C   UNL A   1      45.629  30.365  32.541  1.00  0.00     0.029 A 
ATOM     51  N   UNL A   1      44.501  28.909  31.290  1.00  0.00    -0.354 N 
ATOM     52  N   UNL A   1      44.121  26.317  29.850  1.00  0.00    -0.248 NA
ATOM     53  C   UNL A   1      44.977  24.262  29.136  1.00  0.00     0.031 C 
ATOM     54  C   UNL A   1      46.459  29.275  32.262  1.00  0.00     0.029 A 
ATOM     55  C   UNL A   1      45.746  28.350  31.512  1.00  0.00     0.049 A 
ATOM     56  H   UNL A   1      43.775  28.486  30.778  1.00  0.00     0.167 HD
ATOM     57  C   UNL A   1      45.426  26.187  30.312  1.00  0.00     0.074 A 
ATOM     58  C   UNL A   1      45.889  24.885  29.870  1.00  0.00     0.031 C 
ATOM     59  C   UNL A   1      46.175  27.056  31.039  1.00  0.00     0.031 A 
BRANCH  46  60
ATOM     60  C   UNL A   1      43.336  32.392  32.455  1.00  0.00    -0.014 A 
ATOM     61  C   UNL A   1      42.896  32.616  33.774  1.00  0.00     0.010 A 
ATOM     62  C   UNL A   1      43.800  33.485  31.700  1.00  0.00     0.010 A 
ATOM     63  C   UNL A   1      42.862  33.910  34.302  1.00  0.00     0.020 A 
ATOM     64  C   UNL A   1      43.801  34.775  32.237  1.00  0.00     0.020 A 
ATOM     65  C   UNL A   1      43.309  34.983  33.526  1.00  0.00     0.054 A 
BRANCH  65  66
ATOM     66  S   UNL A   1      43.243  36.653  34.229  1.00  0.00     0.124 S 
ATOM     67  O   UNL A   1      44.460  36.690  35.036  1.00  0.00    -0.237 OA
ATOM     68  O   UNL A   1      43.253  37.502  33.040  1.00  0.00    -0.237 OA
ATOM     69  O   UNL A   1      41.994  36.662  34.986  1.00  0.00    -0.744 OA
ENDBRANCH  65  66
ENDBRANCH  46  60
BRANCH  47  70
ATOM     70  C   UNL A   1      42.437  23.454  27.875  1.00  0.00    -0.014 A 
ATOM     71  C   UNL A   1      42.734  23.281  26.512  1.00  0.00     0.010 A 
ATOM     72  C   UNL A   1      42.034  22.338  28.631  1.00  0.00     0.010 A 
ATOM     73  C   UNL A   1      42.627  22.021  25.917  1.00  0.00     0.020 A 
ATOM     74  C   UNL A   1      41.953  21.071  28.048  1.00  0.00     0.020 A 
ATOM     75  C   UNL A   1      42.244  20.921  26.691  1.00  0.00     0.054 A 
BRANCH  75  76
ATOM     76  S   UNL A   1      42.176  19.285  25.910  1.00  0.00     0.124 S 
ATOM     77  O   UNL A   1      43.059  19.460  24.760  1.00  0.00    -0.237 OA
ATOM     78  O   UNL A   1      42.680  18.413  26.968  1.00  0.00    -0.237 OA
ATOM     79  O   UNL A   1      40.761  19.114  25.592  1.00  0.00    -0.744 OA
ENDBRANCH  75  76
ENDBRANCH  47  70
BRANCH  59  80
ATOM     80  C   UNL A   1      47.559  26.605  31.424  1.00  0.00    -0.014 A 
ATOM     81  C   UNL A   1      48.666  26.852  30.593  1.00  0.00     0.010 A 
ATOM     82  C   UNL A   1      47.755  25.963  32.660  1.00  0.00     0.010 A 
ATOM     83  C   UNL A   1      49.938  26.421  30.971  1.00  0.00     0.020 A 
ATOM     84  C   UNL A   1      49.032  25.565  33.059  1.00  0.00     0.020 A 
ATOM     85  C   UNL A   1      50.113  25.779  32.203  1.00  0.00     0.054 A 
BRANCH  85  86
ATOM     86  S   UNL A   1      51.780  25.255  32.682  1.00  0.00     0.124 S 
ATOM     87  O   UNL A   1      52.601  26.346  32.163  1.00  0.00    -0.237 OA
ATOM     88  O   UNL A   1      51.684  25.176  34.136  1.00  0.00    -0.237 OA
ATOM     89  O   UNL A   1      51.948  23.972  32.002  1.00  0.00    -0.744 OA
ENDBRANCH  85  86
ENDBRANCH  59  80
ENDBRANCH  33  34
ENDBRANCH  26  28
ENDBRANCH  25  26
ENDBRANCH  24  25
ENDBRANCH  23  24
ENDBRANCH   1  23
TORSDOF 21
ENDMDL
MODEL 2
REMARK VINA RESULT:      -9.3      3.586      4.455
REMARK SMILES CC(C)N(CC(=O)OCCOCCOC(=O)c1ccc(-c2c3nc(c(-c4ccc(S(=O)(=O)[O-])cc4)c4ccc([nH]4)c(-c4ccc(S(=O)(=O)[O-])cc4)c4nc(c(-c5ccc(S(=O)(=O)[O-])cc5)c5ccc2[nH]5)C=C4)C=C3)cc1)C(=O)NC1C(C)(C)C1(C)C
REMARK SMILES IDX 11 1 10 2 9 3 8 4 6 5 7 6 5 7 4 8 2 9 1 10 3 11 77 12 78 13
REMARK SMILES IDX 79 14 80 16 81 17 84 18 82 19 83 20 85 21 86 22 12 23 13 24
REMARK SMILES IDX 14 25 15 26 16 27 17 28 18 29 76 30 19 31 75 32 20 33 21 34
REMARK SMILES IDX 22 35 69 36 23 37 74 38 68 39 70 40 24 41 73 42 67 43 66 44
REMARK SMILES IDX 25 46 55 47 36 48 54 49 37 50 40 51 53 52 71 53 38 54 39 55
REMARK SMILES IDX 52 57 72 58 41 59 26 60 27 61 35 62 28 63 34 64 29 65 30 66
REMARK SMILES IDX 31 67 32 68 33 69 56 70 57 71 65 72 58 73 64 74 59 75 60 76
REMARK SMILES IDX 61 77 62 78 63 79 42 80 43 81 51 82 44 83 50 84 45 85 46 86
REMARK SMILES IDX 47 87 48 88 49 89
REMARK H PARENT 79 15 70 45 40 56
REMARK Flexibility Score: inf
ROOT
ATOM      1  O   UNL A   1      34.330  30.773  27.919  1.00  0.00    -0.374 OA
ENDROOT
BRANCH   1   2
ATOM      2  C   UNL A   1      33.370  30.916  26.881  1.00  0.00     0.202 C 
BRANCH   2   3
ATOM      3  C   UNL A   1      32.270  29.872  27.064  1.00  0.00     0.261 C 
BRANCH   3   4
ATOM      4  O   UNL A   1      32.906  28.570  27.017  1.00  0.00    -0.462 OA
BRANCH   4   5
ATOM      5  C   UNL A   1      32.032  27.534  26.957  1.00  0.00     0.325 C 
ATOM      6  O   UNL A   1      31.018  27.454  27.644  1.00  0.00    -0.250 OA
BRANCH   5   7
ATOM      7  C   UNL A   1      32.262  26.628  25.742  1.00  0.00     0.244 C 
BRANCH   7   8
ATOM      8  N   UNL A   1      31.682  25.294  25.659  1.00  0.00    -0.311 N 
BRANCH   8   9
ATOM      9  C   UNL A   1      30.698  25.158  24.550  1.00  0.00     0.081 C 
ATOM     10  C   UNL A   1      29.561  26.188  24.613  1.00  0.00     0.031 C 
ATOM     11  C   UNL A   1      31.334  25.112  23.160  1.00  0.00     0.031 C 
ENDBRANCH   8   9
BRANCH   8  12
ATOM     12  C   UNL A   1      31.881  24.246  26.497  1.00  0.00     0.318 C 
ATOM     13  O   UNL A   1      30.988  23.928  27.304  1.00  0.00    -0.249 OA
ATOM     14  N   UNL A   1      32.935  23.419  26.611  1.00  0.00    -0.334 N 
ATOM     15  H   UNL A   1      32.772  22.940  27.456  1.00  0.00     0.165 HD
BRANCH  14  16
ATOM     16  C   UNL A   1      34.178  22.874  26.136  1.00  0.00     0.096 C 
ATOM     17  C   UNL A   1      34.525  21.962  24.986  1.00  0.00    -0.007 C 
ATOM     18  C   UNL A   1      35.138  23.397  25.091  1.00  0.00    -0.007 C 
ATOM     19  C   UNL A   1      35.543  20.847  25.117  1.00  0.00     0.014 C 
ATOM     20  C   UNL A   1      33.377  21.530  24.106  1.00  0.00     0.014 C 
ATOM     21  C   UNL A   1      34.796  24.412  24.059  1.00  0.00     0.014 C 
ATOM     22  C   UNL A   1      36.560  23.634  25.595  1.00  0.00     0.014 C 
ENDBRANCH  14  16
ENDBRANCH   8  12
ENDBRANCH   7   8
ENDBRANCH   5   7
ENDBRANCH   4   5
ENDBRANCH   3   4
ENDBRANCH   2   3
ENDBRANCH   1   2
BRANCH   1  23
ATOM     23  C   UNL A   1      34.947  31.918  28.499  1.00  0.00     0.202 C 
BRANCH  23  24
ATOM     24  C   UNL A   1      35.226  31.955  30.013  1.00  0.00     0.261 C 
BRANCH  24  25
ATOM     25  O   UNL A   1      36.572  31.733  30.426  1.00  0.00    -0.460 OA
BRANCH  25  26
ATOM     26  C   UNL A   1      36.894  30.488  30.826  1.00  0.00     0.338 C 
ATOM     27  O   UNL A   1      36.136  29.620  31.232  1.00  0.00    -0.246 OA
BRANCH  26  28
ATOM     28  C   UNL A   1      38.277  30.276  30.358  1.00  0.00     0.060 A 
ATOM     29  C   UNL A   1      38.511  30.346  28.979  1.00  0.00     0.016 A 
ATOM     30  C   UNL A   1      39.339  30.183  31.267  1.00  0.00     0.016 A 
ATOM     31  C   UNL A   1      39.809  30.253  28.500  1.00  0.00     0.010 A 
ATOM     32  C   UNL A   1      40.640  30.083  30.788  1.00  0.00     0.010 A 
ATOM     33  C   UNL A   1      40.861  30.057  29.403  1.00  0.00    -0.014 A 
BRANCH  33  34
ATOM     34  C   UNL A   1      42.130  29.518  28.884  1.00  0.00     0.031 A 
ATOM     35  C   UNL A   1      43.300  30.461  28.846  1.00  0.00     0.074 A 
ATOM     36  C   UNL A   1      42.242  28.228  28.535  1.00  0.00     0.049 A 
ATOM     37  N   UNL A   1      44.536  30.238  28.495  1.00  0.00    -0.248 NA
ATOM     38  C   UNL A   1      43.034  31.852  29.261  1.00  0.00     0.031 C 
ATOM     39  C   UNL A   1      41.168  27.237  28.599  1.00  0.00     0.029 A 
ATOM     40  N   UNL A   1      43.324  27.529  28.077  1.00  0.00    -0.354 N 
ATOM     41  C   UNL A   1      45.189  31.456  28.644  1.00  0.00     0.074 A 
ATOM     42  C   UNL A   1      44.209  32.425  29.069  1.00  0.00     0.031 C 
ATOM     43  C   UNL A   1      41.656  26.044  28.215  1.00  0.00     0.029 A 
ATOM     44  C   UNL A   1      43.061  26.201  27.847  1.00  0.00     0.049 A 
ATOM     45  H   UNL A   1      44.207  27.938  27.927  1.00  0.00     0.167 HD
ATOM     46  C   UNL A   1      46.498  31.737  28.452  1.00  0.00     0.031 A 
ATOM     47  C   UNL A   1      43.877  25.232  27.391  1.00  0.00     0.031 A 
ATOM     48  C   UNL A   1      47.446  30.758  27.997  1.00  0.00     0.049 A 
ATOM     49  C   UNL A   1      45.311  25.588  27.096  1.00  0.00     0.074 A 
ATOM     50  C   UNL A   1      48.797  30.910  27.756  1.00  0.00     0.029 A 
ATOM     51  N   UNL A   1      47.127  29.439  27.699  1.00  0.00    -0.354 N 
ATOM     52  N   UNL A   1      45.928  26.736  27.259  1.00  0.00    -0.248 NA
ATOM     53  C   UNL A   1      46.159  24.516  26.566  1.00  0.00     0.031 C 
ATOM     54  C   UNL A   1      49.281  29.700  27.246  1.00  0.00     0.029 A 
ATOM     55  C   UNL A   1      48.249  28.772  27.243  1.00  0.00     0.049 A 
ATOM     56  H   UNL A   1      46.234  29.038  27.800  1.00  0.00     0.167 HD
ATOM     57  C   UNL A   1      47.247  26.518  26.879  1.00  0.00     0.074 A 
ATOM     58  C   UNL A   1      47.337  25.121  26.494  1.00  0.00     0.031 C 
ATOM     59  C   UNL A   1      48.293  27.383  26.854  1.00  0.00     0.031 A 
BRANCH  46  60
ATOM     60  C   UNL A   1      46.936  33.162  28.669  1.00  0.00    -0.014 A 
ATOM     61  C   UNL A   1      46.903  34.113  27.631  1.00  0.00     0.010 A 
ATOM     62  C   UNL A   1      47.425  33.551  29.930  1.00  0.00     0.010 A 
ATOM     63  C   UNL A   1      47.407  35.402  27.831  1.00  0.00     0.020 A 
ATOM     64  C   UNL A   1      47.897  34.849  30.144  1.00  0.00     0.020 A 
ATOM     65  C   UNL A   1      47.907  35.759  29.086  1.00  0.00     0.054 A 
BRANCH  65  66
ATOM     66  S   UNL A   1      48.567  37.433  29.317  1.00  0.00     0.124 S 
ATOM     67  O   UNL A   1      47.347  38.235  29.361  1.00  0.00    -0.237 OA
ATOM     68  O   UNL A   1      49.289  37.321  30.581  1.00  0.00    -0.237 OA
ATOM     69  O   UNL A   1      49.406  37.641  28.140  1.00  0.00    -0.744 OA
ENDBRANCH  65  66
ENDBRANCH  46  60
BRANCH  47  70
ATOM     70  C   UNL A   1      43.361  23.848  27.213  1.00  0.00    -0.014 A 
ATOM     71  C   UNL A   1      42.937  23.096  28.323  1.00  0.00     0.010 A 
ATOM     72  C   UNL A   1      43.257  23.284  25.928  1.00  0.00     0.010 A 
ATOM     73  C   UNL A   1      42.425  21.807  28.153  1.00  0.00     0.020 A 
ATOM     74  C   UNL A   1      42.718  22.006  25.750  1.00  0.00     0.020 A 
ATOM     75  C   UNL A   1      42.311  21.272  26.865  1.00  0.00     0.054 A 
BRANCH  75  76
ATOM     76  S   UNL A   1      41.581  19.623  26.666  1.00  0.00     0.124 S 
ATOM     77  O   UNL A   1      42.268  18.859  27.703  1.00  0.00    -0.237 OA
ATOM     78  O   UNL A   1      40.163  19.879  26.904  1.00  0.00    -0.237 OA
ATOM     79  O   UNL A   1      41.920  19.261  25.292  1.00  0.00    -0.744 OA
ENDBRANCH  75  76
ENDBRANCH  47  70
BRANCH  59  80
ATOM     80  C   UNL A   1      49.625  26.830  26.424  1.00  0.00    -0.014 A 
ATOM     81  C   UNL A   1      50.082  26.965  25.101  1.00  0.00     0.010 A 
ATOM     82  C   UNL A   1      50.450  26.202  27.376  1.00  0.00     0.010 A 
ATOM     83  C   UNL A   1      51.320  26.439  24.728  1.00  0.00     0.020 A 
ATOM     84  C   UNL A   1      51.704  25.710  27.015  1.00  0.00     0.020 A 
ATOM     85  C   UNL A   1      52.123  25.814  25.689  1.00  0.00     0.054 A 
BRANCH  85  86
ATOM     86  S   UNL A   1      53.738  25.166  25.183  1.00  0.00     0.124 S 
ATOM     87  O   UNL A   1      53.552  23.727  25.348  1.00  0.00    -0.237 OA
ATOM     88  O   UNL A   1      53.852  25.633  23.804  1.00  0.00    -0.237 OA
ATOM     89  O   UNL A   1      54.670  25.785  26.124  1.00  0.00    -0.744 OA
ENDBRANCH  85  86
ENDBRANCH  59  80
ENDBRANCH  33  34
ENDBRANCH  26  28
ENDBRANCH  25  26
ENDBRANCH  24  25
ENDBRANCH  23  24
ENDBRANCH   1  23
TORSDOF 21
ENDMDL
MODEL 3
REMARK VINA RESULT:      -9.2      3.714      9.067
REMARK SMILES CC(C)N(CC(=O)OCCOCCOC(=O)c1ccc(-c2c3nc(c(-c4ccc(S(=O)(=O)[O-])cc4)c4ccc([nH]4)c(-c4ccc(S(=O)(=O)[O-])cc4)c4nc(c(-c5ccc(S(=O)(=O)[O-])cc5)c5ccc2[nH]5)C=C4)C=C3)cc1)C(=O)NC1C(C)(C)C1(C)C
REMARK SMILES IDX 11 1 10 2 9 3 8 4 6 5 7 6 5 7 4 8 2 9 1 10 3 11 77 12 78 13
REMARK SMILES IDX 79 14 80 16 81 17 84 18 82 19 83 20 85 21 86 22 12 23 13 24
REMARK SMILES IDX 14 25 15 26 16 27 17 28 18 29 76 30 19 31 75 32 20 33 21 34
REMARK SMILES IDX 22 35 69 36 23 37 74 38 68 39 70 40 24 41 73 42 67 43 66 44
REMARK SMILES IDX 25 46 55 47 36 48 54 49 37 50 40 51 53 52 71 53 38 54 39 55
REMARK SMILES IDX 52 57 72 58 41 59 26 60 27 61 35 62 28 63 34 64 29 65 30 66
REMARK SMILES IDX 31 67 32 68 33 69 56 70 57 71 65 72 58 73 64 74 59 75 60 76
REMARK SMILES IDX 61 77 62 78 63 79 42 80 43 81 51 82 44 83 50 84 45 85 46 86
REMARK SMILES IDX 47 87 48 88 49 89
REMARK H PARENT 79 15 70 45 40 56
REMARK Flexibility Score: inf
ROOT
ATOM      1  O   UNL A   1      35.141  31.349  27.620  1.00  0.00    -0.374 OA
ENDROOT
BRANCH   1   2
ATOM      2  C   UNL A   1      34.890  29.957  27.486  1.00  0.00     0.202 C 
BRANCH   2   3
ATOM      3  C   UNL A   1      33.453  29.746  27.014  1.00  0.00     0.261 C 
BRANCH   3   4
ATOM      4  O   UNL A   1      33.036  28.441  27.486  1.00  0.00    -0.462 OA
BRANCH   4   5
ATOM      5  C   UNL A   1      33.010  27.489  26.519  1.00  0.00     0.325 C 
ATOM      6  O   UNL A   1      34.017  26.994  26.021  1.00  0.00    -0.250 OA
BRANCH   5   7
ATOM      7  C   UNL A   1      31.622  26.869  26.327  1.00  0.00     0.244 C 
BRANCH   7   8
ATOM      8  N   UNL A   1      31.447  25.538  25.763  1.00  0.00    -0.311 N 
BRANCH   8   9
ATOM      9  C   UNL A   1      30.911  25.563  24.374  1.00  0.00     0.081 C 
ATOM     10  C   UNL A   1      29.501  26.161  24.274  1.00  0.00     0.031 C 
ATOM     11  C   UNL A   1      31.861  26.195  23.356  1.00  0.00     0.031 C 
ENDBRANCH   8   9
BRANCH   8  12
ATOM     12  C   UNL A   1      31.638  24.342  26.375  1.00  0.00     0.318 C 
ATOM     13  O   UNL A   1      30.846  23.973  27.260  1.00  0.00    -0.249 OA
ATOM     14  N   UNL A   1      32.586  23.410  26.173  1.00  0.00    -0.334 N 
ATOM     15  H   UNL A   1      32.495  22.806  26.945  1.00  0.00     0.165 HD
BRANCH  14  16
ATOM     16  C   UNL A   1      33.665  22.841  25.411  1.00  0.00     0.096 C 
ATOM     17  C   UNL A   1      33.967  21.436  24.952  1.00  0.00    -0.007 C 
ATOM     18  C   UNL A   1      33.790  22.601  23.923  1.00  0.00    -0.007 C 
ATOM     19  C   UNL A   1      35.366  20.857  24.989  1.00  0.00     0.014 C 
ATOM     20  C   UNL A   1      32.946  20.383  25.311  1.00  0.00     0.014 C 
ATOM     21  C   UNL A   1      32.646  22.565  22.972  1.00  0.00     0.014 C 
ATOM     22  C   UNL A   1      34.984  23.287  23.265  1.00  0.00     0.014 C 
ENDBRANCH  14  16
ENDBRANCH   8  12
ENDBRANCH   7   8
ENDBRANCH   5   7
ENDBRANCH   4   5
ENDBRANCH   3   4
ENDBRANCH   2   3
ENDBRANCH   1   2
BRANCH   1  23
ATOM     23  C   UNL A   1      34.522  32.100  28.660  1.00  0.00     0.202 C 
BRANCH  23  24
ATOM     24  C   UNL A   1      35.367  32.619  29.839  1.00  0.00     0.261 C 
BRANCH  24  25
ATOM     25  O   UNL A   1      36.726  32.195  29.893  1.00  0.00    -0.460 OA
BRANCH  25  26
ATOM     26  C   UNL A   1      37.022  31.193  30.742  1.00  0.00     0.338 C 
ATOM     27  O   UNL A   1      36.289  30.688  31.580  1.00  0.00    -0.246 OA
BRANCH  26  28
ATOM     28  C   UNL A   1      38.277  30.609  30.231  1.00  0.00     0.060 A 
ATOM     29  C   UNL A   1      39.203  30.142  31.172  1.00  0.00     0.016 A 
ATOM     30  C   UNL A   1      38.457  30.373  28.861  1.00  0.00     0.016 A 
ATOM     31  C   UNL A   1      40.351  29.496  30.739  1.00  0.00     0.010 A 
ATOM     32  C   UNL A   1      39.610  29.730  28.427  1.00  0.00     0.010 A 
ATOM     33  C   UNL A   1      40.580  29.350  29.365  1.00  0.00    -0.014 A 
BRANCH  33  34
ATOM     34  C   UNL A   1      41.958  29.089  28.915  1.00  0.00     0.031 A 
ATOM     35  C   UNL A   1      42.253  27.704  28.411  1.00  0.00     0.074 A 
ATOM     36  C   UNL A   1      42.875  30.067  28.893  1.00  0.00     0.049 A 
ATOM     37  N   UNL A   1      43.354  27.221  27.905  1.00  0.00    -0.248 NA
ATOM     38  C   UNL A   1      41.149  26.728  28.492  1.00  0.00     0.031 C 
ATOM     39  C   UNL A   1      42.650  31.450  29.311  1.00  0.00     0.029 A 
ATOM     40  N   UNL A   1      44.178  30.044  28.478  1.00  0.00    -0.354 N 
ATOM     41  C   UNL A   1      43.075  25.890  27.613  1.00  0.00     0.074 A 
ATOM     42  C   UNL A   1      41.722  25.627  28.039  1.00  0.00     0.031 C 
ATOM     43  C   UNL A   1      43.777  32.154  29.108  1.00  0.00     0.029 A 
ATOM     44  C   UNL A   1      44.807  31.261  28.581  1.00  0.00     0.049 A 
ATOM     45  H   UNL A   1      44.623  29.234  28.139  1.00  0.00     0.167 HD
ATOM     46  C   UNL A   1      43.877  24.972  27.028  1.00  0.00     0.031 A 
ATOM     47  C   UNL A   1      46.074  31.599  28.277  1.00  0.00     0.031 A 
ATOM     48  C   UNL A   1      45.232  25.255  26.642  1.00  0.00     0.049 A 
ATOM     49  C   UNL A   1      46.980  30.537  27.712  1.00  0.00     0.074 A 
ATOM     50  C   UNL A   1      46.154  24.416  26.047  1.00  0.00     0.029 A 
ATOM     51  N   UNL A   1      45.861  26.479  26.833  1.00  0.00    -0.354 N 
ATOM     52  N   UNL A   1      46.704  29.286  27.418  1.00  0.00    -0.248 NA
ATOM     53  C   UNL A   1      48.363  30.933  27.428  1.00  0.00     0.031 C 
ATOM     54  C   UNL A   1      47.362  25.113  25.942  1.00  0.00     0.029 A 
ATOM     55  C   UNL A   1      47.172  26.409  26.399  1.00  0.00     0.049 A 
ATOM     56  H   UNL A   1      45.435  27.278  27.219  1.00  0.00     0.167 HD
ATOM     57  C   UNL A   1      47.872  28.753  26.886  1.00  0.00     0.074 A 
ATOM     58  C   UNL A   1      48.849  29.826  26.885  1.00  0.00     0.031 C 
ATOM     59  C   UNL A   1      48.119  27.497  26.431  1.00  0.00     0.031 A 
BRANCH  46  60
ATOM     60  C   UNL A   1      43.318  23.585  26.848  1.00  0.00    -0.014 A 
ATOM     61  C   UNL A   1      43.101  22.726  27.943  1.00  0.00     0.010 A 
ATOM     62  C   UNL A   1      43.037  23.115  25.552  1.00  0.00     0.010 A 
ATOM     63  C   UNL A   1      42.676  21.409  27.741  1.00  0.00     0.020 A 
ATOM     64  C   UNL A   1      42.578  21.810  25.349  1.00  0.00     0.020 A 
ATOM     65  C   UNL A   1      42.423  20.958  26.443  1.00  0.00     0.054 A 
BRANCH  65  66
ATOM     66  S   UNL A   1      41.885  19.243  26.206  1.00  0.00     0.124 S 
ATOM     67  O   UNL A   1      42.658  18.842  25.034  1.00  0.00    -0.237 OA
ATOM     68  O   UNL A   1      42.276  18.608  27.462  1.00  0.00    -0.237 OA
ATOM     69  O   UNL A   1      40.444  19.357  25.992  1.00  0.00    -0.744 OA
ENDBRANCH  65  66
ENDBRANCH  46  60
BRANCH  47  70
ATOM     70  C   UNL A   1      46.539  32.998  28.480  1.00  0.00    -0.014 A 
ATOM     71  C   UNL A   1      46.303  33.979  27.501  1.00  0.00     0.010 A 
ATOM     72  C   UNL A   1      47.192  33.368  29.671  1.00  0.00     0.010 A 
ATOM     73  C   UNL A   1      46.714  35.299  27.706  1.00  0.00     0.020 A 
ATOM     74  C   UNL A   1      47.579  34.692  29.892  1.00  0.00     0.020 A 
ATOM     75  C   UNL A   1      47.343  35.650  28.904  1.00  0.00     0.054 A 
BRANCH  75  76
ATOM     76  S   UNL A   1      47.807  37.383  29.172  1.00  0.00     0.124 S 
ATOM     77  O   UNL A   1      46.548  37.968  29.626  1.00  0.00    -0.237 OA
ATOM     78  O   UNL A   1      48.855  37.274  30.184  1.00  0.00    -0.237 OA
ATOM     79  O   UNL A   1      48.264  37.824  27.856  1.00  0.00    -0.744 OA
ENDBRANCH  75  76
ENDBRANCH  47  70
BRANCH  59  80
ATOM     80  C   UNL A   1      49.491  27.233  25.871  1.00  0.00    -0.014 A 
ATOM     81  C   UNL A   1      49.781  27.450  24.512  1.00  0.00     0.010 A 
ATOM     82  C   UNL A   1      50.516  26.801  26.734  1.00  0.00     0.010 A 
ATOM     83  C   UNL A   1      51.061  27.194  24.017  1.00  0.00     0.020 A 
ATOM     84  C   UNL A   1      51.806  26.581  26.250  1.00  0.00     0.020 A 
ATOM     85  C   UNL A   1      52.066  26.760  24.890  1.00  0.00     0.054 A 
BRANCH  85  86
ATOM     86  S   UNL A   1      53.725  26.463  24.226  1.00  0.00     0.124 S 
ATOM     87  O   UNL A   1      54.454  27.639  24.693  1.00  0.00    -0.237 OA
ATOM     88  O   UNL A   1      54.099  25.199  24.856  1.00  0.00    -0.237 OA
ATOM     89  O   UNL A   1      53.513  26.394  22.781  1.00  0.00    -0.744 OA
ENDBRANCH  85  86
ENDBRANCH  59  80
ENDBRANCH  33  34
ENDBRANCH  26  28
ENDBRANCH  25  26
ENDBRANCH  24  25
ENDBRANCH  23  24
ENDBRANCH   1  23
TORSDOF 21
ENDMDL
