MODEL 1
REMARK VINA RESULT:      -9.4      0.000      0.000
REMARK SMILES CC[C@@H](NC(=O)N1CCO[C@H](CC(=O)OCCOCCOC(=O)c2ccc(-c3c4nc(c(-c5ccc(S(=O)(=O)[O-])cc5)c5ccc([nH]5)c(-c5ccc(S(=O)(=O)[O-])cc5)c5nc(c(-c6ccc(S(=O)(=O)[O-])cc6)c6ccc3[nH]6)C=C5)C=C4)cc2)C1)c1cccs1
REMARK SMILES IDX 17 1 16 2 15 3 13 4 14 5 12 6 11 7 7 8 8 9 84 10 9 11 10 12
REMARK SMILES IDX 5 13 4 14 6 16 3 17 2 18 1 19 85 20 86 21 89 22 87 23 88 24
REMARK SMILES IDX 18 25 19 26 20 27 21 28 22 29 23 30 24 31 25 32 83 33 26 34
REMARK SMILES IDX 82 35 27 36 28 37 29 38 76 39 30 40 81 41 75 42 77 43 31 44
REMARK SMILES IDX 80 45 74 46 73 47 32 49 62 50 43 51 61 52 44 53 47 54 60 55
REMARK SMILES IDX 78 56 45 57 46 58 59 60 79 61 48 62 33 63 34 64 42 65 35 66
REMARK SMILES IDX 41 67 36 68 37 69 38 70 39 71 40 72 63 73 64 74 72 75 65 76
REMARK SMILES IDX 71 77 66 78 67 79 68 80 69 81 70 82 49 83 50 84 58 85 51 86
REMARK SMILES IDX 57 87 52 88 53 89 54 90 55 91 56 92
REMARK H PARENT 4 15 77 48 47 59
REMARK Flexibility Score: inf
ROOT
ATOM      1  C   UNL A   1      33.838  31.493  27.276  1.00  0.00     0.202 C 
ENDROOT
BRANCH   1   2
ATOM      2  C   UNL A   1      32.800  30.374  26.768  1.00  0.00     0.261 C 
BRANCH   2   3
ATOM      3  O   UNL A   1      32.926  29.044  27.416  1.00  0.00    -0.463 OA
BRANCH   3   4
ATOM      4  C   UNL A   1      32.062  28.025  27.119  1.00  0.00     0.308 C 
ATOM      5  O   UNL A   1      31.173  27.674  27.892  1.00  0.00    -0.252 OA
BRANCH   4   6
ATOM      6  C   UNL A   1      32.065  27.523  25.646  1.00  0.00     0.156 C 
BRANCH   6   7
ATOM      7  C   UNL A   1      30.885  27.676  24.657  1.00  0.00     0.149 C 
ATOM      8  N   UNL A   1      31.137  25.638  23.462  1.00  0.00    -0.320 N 
ATOM      9  C   UNL A   1      31.481  26.203  22.203  1.00  0.00     0.150 C 
ATOM     10  C   UNL A   1      30.176  26.396  24.245  1.00  0.00     0.154 C 
ATOM     11  C   UNL A   1      32.048  27.587  22.465  1.00  0.00     0.182 C 
ATOM     12  O   UNL A   1      31.292  28.378  23.424  1.00  0.00    -0.374 OA
BRANCH   8  13
ATOM     13  C   UNL A   1      31.772  24.605  24.043  1.00  0.00     0.318 C 
ATOM     14  N   UNL A   1      33.085  24.395  23.700  1.00  0.00    -0.330 N 
ATOM     15  H   UNL A   1      33.656  25.195  23.746  1.00  0.00     0.166 HD
ATOM     16  O   UNL A   1      31.340  24.410  25.171  1.00  0.00    -0.249 OA
BRANCH  14  17
ATOM     17  C   UNL A   1      33.782  23.166  23.275  1.00  0.00     0.124 C 
BRANCH  17  18
ATOM     18  C   UNL A   1      33.028  21.869  23.695  1.00  0.00     0.027 C 
ATOM     19  C   UNL A   1      32.093  21.331  22.600  1.00  0.00     0.006 C 
ENDBRANCH  17  18
BRANCH  17  20
ATOM     20  C   UNL A   1      35.151  23.288  23.848  1.00  0.00     0.027 A 
ATOM     21  C   UNL A   1      36.302  22.638  23.459  1.00  0.00     0.017 A 
ATOM     22  S   UNL A   1      35.376  24.186  25.290  1.00  0.00    -0.147 S 
ATOM     23  C   UNL A   1      37.289  22.683  24.483  1.00  0.00     0.012 A 
ATOM     24  C   UNL A   1      36.896  23.460  25.550  1.00  0.00     0.065 A 
ENDBRANCH  17  20
ENDBRANCH  14  17
ENDBRANCH   8  13
ENDBRANCH   6   7
ENDBRANCH   4   6
ENDBRANCH   3   4
ENDBRANCH   2   3
ENDBRANCH   1   2
BRANCH   1  25
ATOM     25  O   UNL A   1      33.202  32.710  27.733  1.00  0.00    -0.374 OA
BRANCH  25  26
ATOM     26  C   UNL A   1      33.832  33.688  28.618  1.00  0.00     0.202 C 
BRANCH  26  27
ATOM     27  C   UNL A   1      34.629  33.409  29.950  1.00  0.00     0.261 C 
BRANCH  27  28
ATOM     28  O   UNL A   1      34.560  32.091  30.467  1.00  0.00    -0.460 OA
BRANCH  28  29
ATOM     29  C   UNL A   1      35.445  31.893  31.454  1.00  0.00     0.338 C 
ATOM     30  O   UNL A   1      35.309  32.163  32.624  1.00  0.00    -0.246 OA
BRANCH  29  31
ATOM     31  C   UNL A   1      36.515  31.049  30.911  1.00  0.00     0.060 A 
ATOM     32  C   UNL A   1      37.474  30.661  31.845  1.00  0.00     0.016 A 
ATOM     33  C   UNL A   1      36.584  30.656  29.566  1.00  0.00     0.016 A 
ATOM     34  C   UNL A   1      38.605  30.019  31.408  1.00  0.00     0.010 A 
ATOM     35  C   UNL A   1      37.725  30.003  29.122  1.00  0.00     0.010 A 
ATOM     36  C   UNL A   1      38.763  29.785  30.037  1.00  0.00    -0.014 A 
BRANCH  36  37
ATOM     37  C   UNL A   1      40.142  29.610  29.576  1.00  0.00     0.031 A 
ATOM     38  C   UNL A   1      41.084  30.764  29.771  1.00  0.00     0.074 A 
ATOM     39  C   UNL A   1      40.539  28.393  29.186  1.00  0.00     0.049 A 
ATOM     40  N   UNL A   1      42.371  30.817  29.571  1.00  0.00    -0.248 NA
ATOM     41  C   UNL A   1      40.505  32.024  30.277  1.00  0.00     0.031 C 
ATOM     42  C   UNL A   1      39.668  27.220  29.077  1.00  0.00     0.029 A 
ATOM     43  N   UNL A   1      41.778  27.933  28.855  1.00  0.00    -0.354 N 
ATOM     44  C   UNL A   1      42.749  32.111  29.914  1.00  0.00     0.074 A 
ATOM     45  C   UNL A   1      41.559  32.824  30.306  1.00  0.00     0.031 C 
ATOM     46  C   UNL A   1      40.412  26.163  28.715  1.00  0.00     0.029 A 
ATOM     47  C   UNL A   1      41.790  26.602  28.530  1.00  0.00     0.049 A 
ATOM     48  H   UNL A   1      42.582  28.501  28.849  1.00  0.00     0.167 HD
ATOM     49  C   UNL A   1      43.990  32.644  29.902  1.00  0.00     0.031 A 
ATOM     50  C   UNL A   1      42.815  25.840  28.111  1.00  0.00     0.031 A 
ATOM     51  C   UNL A   1      45.147  31.896  29.494  1.00  0.00     0.049 A 
ATOM     52  C   UNL A   1      44.171  26.483  28.025  1.00  0.00     0.074 A 
ATOM     53  C   UNL A   1      46.461  32.312  29.417  1.00  0.00     0.029 A 
ATOM     54  N   UNL A   1      45.115  30.568  29.087  1.00  0.00    -0.354 N 
ATOM     55  N   UNL A   1      44.522  27.709  28.341  1.00  0.00    -0.248 NA
ATOM     56  C   UNL A   1      45.268  25.642  27.539  1.00  0.00     0.031 C 
ATOM     57  C   UNL A   1      47.213  31.254  28.897  1.00  0.00     0.029 A 
ATOM     58  C   UNL A   1      46.383  30.155  28.725  1.00  0.00     0.049 A 
ATOM     59  H   UNL A   1      44.309  30.004  29.061  1.00  0.00     0.167 HD
ATOM     60  C   UNL A   1      45.889  27.783  28.112  1.00  0.00     0.074 A 
ATOM     61  C   UNL A   1      46.299  26.468  27.652  1.00  0.00     0.031 C 
ATOM     62  C   UNL A   1      46.735  28.834  28.265  1.00  0.00     0.031 A 
BRANCH  49  63
ATOM     63  C   UNL A   1      44.137  34.096  30.274  1.00  0.00    -0.014 A 
ATOM     64  C   UNL A   1      44.414  34.502  31.593  1.00  0.00     0.010 A 
ATOM     65  C   UNL A   1      44.010  35.078  29.274  1.00  0.00     0.010 A 
ATOM     66  C   UNL A   1      44.534  35.859  31.908  1.00  0.00     0.020 A 
ATOM     67  C   UNL A   1      44.157  36.433  29.578  1.00  0.00     0.020 A 
ATOM     68  C   UNL A   1      44.407  36.817  30.897  1.00  0.00     0.054 A 
BRANCH  68  69
ATOM     69  S   UNL A   1      44.604  38.570  31.325  1.00  0.00     0.124 S 
ATOM     70  O   UNL A   1      46.041  38.767  31.142  1.00  0.00    -0.237 OA
ATOM     71  O   UNL A   1      43.749  39.234  30.345  1.00  0.00    -0.237 OA
ATOM     72  O   UNL A   1      44.138  38.645  32.708  1.00  0.00    -0.744 OA
ENDBRANCH  68  69
ENDBRANCH  49  63
BRANCH  50  73
ATOM     73  C   UNL A   1      42.568  24.430  27.720  1.00  0.00    -0.014 A 
ATOM     74  C   UNL A   1      42.651  23.389  28.658  1.00  0.00     0.010 A 
ATOM     75  C   UNL A   1      42.208  24.128  26.392  1.00  0.00     0.010 A 
ATOM     76  C   UNL A   1      42.394  22.070  28.272  1.00  0.00     0.020 A 
ATOM     77  C   UNL A   1      41.919  22.817  26.010  1.00  0.00     0.020 A 
ATOM     78  C   UNL A   1      42.027  21.793  26.951  1.00  0.00     0.054 A 
BRANCH  78  79
ATOM     79  S   UNL A   1      41.662  20.080  26.483  1.00  0.00     0.124 S 
ATOM     80  O   UNL A   1      42.065  19.347  27.680  1.00  0.00    -0.237 OA
ATOM     81  O   UNL A   1      40.227  20.126  26.220  1.00  0.00    -0.237 OA
ATOM     82  O   UNL A   1      42.498  19.861  25.304  1.00  0.00    -0.744 OA
ENDBRANCH  78  79
ENDBRANCH  50  73
BRANCH  62  83
ATOM     83  C   UNL A   1      48.184  28.584  27.958  1.00  0.00    -0.014 A 
ATOM     84  C   UNL A   1      48.697  28.775  26.664  1.00  0.00     0.010 A 
ATOM     85  C   UNL A   1      49.052  28.209  28.999  1.00  0.00     0.010 A 
ATOM     86  C   UNL A   1      50.052  28.556  26.408  1.00  0.00     0.020 A 
ATOM     87  C   UNL A   1      50.413  28.026  28.755  1.00  0.00     0.020 A 
ATOM     88  C   UNL A   1      50.900  28.185  27.456  1.00  0.00     0.054 A 
BRANCH  88  89
ATOM     89  S   UNL A   1      52.661  27.949  27.104  1.00  0.00     0.124 S 
ATOM     90  O   UNL A   1      52.807  28.628  25.820  1.00  0.00    -0.237 OA
ATOM     91  O   UNL A   1      53.303  28.605  28.241  1.00  0.00    -0.237 OA
ATOM     92  O   UNL A   1      52.815  26.496  27.063  1.00  0.00    -0.744 OA
ENDBRANCH  88  89
ENDBRANCH  62  83
ENDBRANCH  36  37
ENDBRANCH  29  31
ENDBRANCH  28  29
ENDBRANCH  27  28
ENDBRANCH  26  27
ENDBRANCH  25  26
ENDBRANCH   1  25
TORSDOF 22
ENDMDL
MODEL 2
REMARK VINA RESULT:      -9.0      5.157      9.301
REMARK SMILES CC[C@@H](NC(=O)N1CCO[C@H](CC(=O)OCCOCCOC(=O)c2ccc(-c3c4nc(c(-c5ccc(S(=O)(=O)[O-])cc5)c5ccc([nH]5)c(-c5ccc(S(=O)(=O)[O-])cc5)c5nc(c(-c6ccc(S(=O)(=O)[O-])cc6)c6ccc3[nH]6)C=C5)C=C4)cc2)C1)c1cccs1
REMARK SMILES IDX 17 1 16 2 15 3 13 4 14 5 12 6 11 7 7 8 8 9 84 10 9 11 10 12
REMARK SMILES IDX 5 13 4 14 6 16 3 17 2 18 1 19 85 20 86 21 89 22 87 23 88 24
REMARK SMILES IDX 18 25 19 26 20 27 21 28 22 29 23 30 24 31 25 32 83 33 26 34
REMARK SMILES IDX 82 35 27 36 28 37 29 38 76 39 30 40 81 41 75 42 77 43 31 44
REMARK SMILES IDX 80 45 74 46 73 47 32 49 62 50 43 51 61 52 44 53 47 54 60 55
REMARK SMILES IDX 78 56 45 57 46 58 59 60 79 61 48 62 33 63 34 64 42 65 35 66
REMARK SMILES IDX 41 67 36 68 37 69 38 70 39 71 40 72 63 73 64 74 72 75 65 76
REMARK SMILES IDX 71 77 66 78 67 79 68 80 69 81 70 82 49 83 50 84 58 85 51 86
REMARK SMILES IDX 57 87 52 88 53 89 54 90 55 91 56 92
REMARK H PARENT 4 15 77 48 47 59
REMARK Flexibility Score: inf
ROOT
ATOM      1  C   UNL A   1      32.712  30.919  27.063  1.00  0.00     0.202 C 
ENDROOT
BRANCH   1   2
ATOM      2  C   UNL A   1      32.115  29.684  26.221  1.00  0.00     0.261 C 
BRANCH   2   3
ATOM      3  O   UNL A   1      32.775  28.373  26.455  1.00  0.00    -0.463 OA
BRANCH   3   4
ATOM      4  C   UNL A   1      32.047  27.217  26.528  1.00  0.00     0.308 C 
ATOM      5  O   UNL A   1      31.143  27.063  27.346  1.00  0.00    -0.252 OA
BRANCH   4   6
ATOM      6  C   UNL A   1      32.215  26.217  25.347  1.00  0.00     0.156 C 
BRANCH   6   7
ATOM      7  C   UNL A   1      31.659  26.434  23.920  1.00  0.00     0.149 C 
ATOM      8  N   UNL A   1      31.947  24.233  23.072  1.00  0.00    -0.320 N 
ATOM      9  C   UNL A   1      32.928  24.539  22.090  1.00  0.00     0.150 C 
ATOM     10  C   UNL A   1      30.937  25.254  23.288  1.00  0.00     0.154 C 
ATOM     11  C   UNL A   1      33.616  25.823  22.518  1.00  0.00     0.182 C 
ATOM     12  O   UNL A   1      32.714  26.866  22.982  1.00  0.00    -0.374 OA
BRANCH   8  13
ATOM     13  C   UNL A   1      32.011  23.198  23.929  1.00  0.00     0.318 C 
ATOM     14  N   UNL A   1      33.198  22.994  24.589  1.00  0.00    -0.330 N 
ATOM     15  H   UNL A   1      33.574  23.796  25.019  1.00  0.00     0.166 HD
ATOM     16  O   UNL A   1      30.921  22.994  24.445  1.00  0.00    -0.249 OA
BRANCH  14  17
ATOM     17  C   UNL A   1      34.004  21.770  24.761  1.00  0.00     0.124 C 
BRANCH  17  18
ATOM     18  C   UNL A   1      33.300  20.705  25.653  1.00  0.00     0.027 C 
ATOM     19  C   UNL A   1      32.551  19.635  24.843  1.00  0.00     0.006 C 
ENDBRANCH  17  18
BRANCH  17  20
ATOM     20  C   UNL A   1      35.310  22.247  25.294  1.00  0.00     0.027 A 
ATOM     21  C   UNL A   1      35.578  23.404  25.992  1.00  0.00     0.017 A 
ATOM     22  S   UNL A   1      36.742  21.405  24.872  1.00  0.00    -0.147 S 
ATOM     23  C   UNL A   1      36.965  23.716  25.958  1.00  0.00     0.012 A 
ATOM     24  C   UNL A   1      37.705  22.730  25.343  1.00  0.00     0.065 A 
ENDBRANCH  17  20
ENDBRANCH  14  17
ENDBRANCH   8  13
ENDBRANCH   6   7
ENDBRANCH   4   6
ENDBRANCH   3   4
ENDBRANCH   2   3
ENDBRANCH   1   2
BRANCH   1  25
ATOM     25  O   UNL A   1      31.785  32.020  27.213  1.00  0.00    -0.374 OA
BRANCH  25  26
ATOM     26  C   UNL A   1      32.144  33.427  27.048  1.00  0.00     0.202 C 
BRANCH  26  27
ATOM     27  C   UNL A   1      33.021  34.317  28.009  1.00  0.00     0.261 C 
BRANCH  27  28
ATOM     28  O   UNL A   1      32.946  34.022  29.393  1.00  0.00    -0.460 OA
BRANCH  28  29
ATOM     29  C   UNL A   1      33.854  34.707  30.102  1.00  0.00     0.338 C 
ATOM     30  O   UNL A   1      33.687  35.750  30.691  1.00  0.00    -0.246 OA
BRANCH  29  31
ATOM     31  C   UNL A   1      35.025  33.838  30.259  1.00  0.00     0.060 A 
ATOM     32  C   UNL A   1      34.772  32.644  30.933  1.00  0.00     0.016 A 
ATOM     33  C   UNL A   1      36.301  34.165  29.776  1.00  0.00     0.016 A 
ATOM     34  C   UNL A   1      35.829  31.844  31.285  1.00  0.00     0.010 A 
ATOM     35  C   UNL A   1      37.372  33.355  30.127  1.00  0.00     0.010 A 
ATOM     36  C   UNL A   1      37.128  32.258  30.963  1.00  0.00    -0.014 A 
BRANCH  36  37
ATOM     37  C   UNL A   1      38.198  31.693  31.788  1.00  0.00     0.031 A 
ATOM     38  C   UNL A   1      39.115  30.698  31.138  1.00  0.00     0.074 A 
ATOM     39  C   UNL A   1      38.421  32.220  32.998  1.00  0.00     0.049 A 
ATOM     40  N   UNL A   1      40.205  30.156  31.606  1.00  0.00    -0.248 NA
ATOM     41  C   UNL A   1      38.773  30.266  29.768  1.00  0.00     0.031 C 
ATOM     42  C   UNL A   1      37.603  33.262  33.625  1.00  0.00     0.029 A 
ATOM     43  N   UNL A   1      39.422  31.984  33.892  1.00  0.00    -0.354 N 
ATOM     44  C   UNL A   1      40.668  29.317  30.598  1.00  0.00     0.074 A 
ATOM     45  C   UNL A   1      39.732  29.392  29.503  1.00  0.00     0.031 C 
ATOM     46  C   UNL A   1      38.151  33.586  34.806  1.00  0.00     0.029 A 
ATOM     47  C   UNL A   1      39.323  32.747  35.026  1.00  0.00     0.049 A 
ATOM     48  H   UNL A   1      40.142  31.331  33.738  1.00  0.00     0.167 HD
ATOM     49  C   UNL A   1      41.784  28.557  30.597  1.00  0.00     0.031 A 
ATOM     50  C   UNL A   1      40.098  32.739  36.124  1.00  0.00     0.031 A 
ATOM     51  C   UNL A   1      42.683  28.507  31.716  1.00  0.00     0.049 A 
ATOM     52  C   UNL A   1      41.287  31.820  36.131  1.00  0.00     0.074 A 
ATOM     53  C   UNL A   1      43.842  27.771  31.860  1.00  0.00     0.029 A 
ATOM     54  N   UNL A   1      42.511  29.230  32.890  1.00  0.00    -0.354 N 
ATOM     55  N   UNL A   1      41.715  31.021  35.179  1.00  0.00    -0.248 NA
ATOM     56  C   UNL A   1      42.102  31.807  37.349  1.00  0.00     0.031 C 
ATOM     57  C   UNL A   1      44.333  27.996  33.151  1.00  0.00     0.029 A 
ATOM     58  C   UNL A   1      43.525  28.933  33.780  1.00  0.00     0.049 A 
ATOM     59  H   UNL A   1      41.776  29.861  33.062  1.00  0.00     0.167 HD
ATOM     60  C   UNL A   1      42.865  30.423  35.675  1.00  0.00     0.074 A 
ATOM     61  C   UNL A   1      43.073  30.973  37.003  1.00  0.00     0.031 C 
ATOM     62  C   UNL A   1      43.680  29.504  35.096  1.00  0.00     0.031 A 
BRANCH  49  63
ATOM     63  C   UNL A   1      42.045  27.688  29.394  1.00  0.00    -0.014 A 
ATOM     64  C   UNL A   1      42.893  28.101  28.349  1.00  0.00     0.010 A 
ATOM     65  C   UNL A   1      41.438  26.421  29.317  1.00  0.00     0.010 A 
ATOM     66  C   UNL A   1      43.106  27.275  27.240  1.00  0.00     0.020 A 
ATOM     67  C   UNL A   1      41.670  25.582  28.225  1.00  0.00     0.020 A 
ATOM     68  C   UNL A   1      42.495  26.019  27.186  1.00  0.00     0.054 A 
BRANCH  68  69
ATOM     69  S   UNL A   1      42.817  24.951  25.755  1.00  0.00     0.124 S 
ATOM     70  O   UNL A   1      44.251  24.697  25.883  1.00  0.00    -0.237 OA
ATOM     71  O   UNL A   1      41.950  23.805  26.012  1.00  0.00    -0.237 OA
ATOM     72  O   UNL A   1      42.433  25.776  24.612  1.00  0.00    -0.744 OA
ENDBRANCH  68  69
ENDBRANCH  49  63
BRANCH  50  73
ATOM     73  C   UNL A   1      39.738  33.595  37.282  1.00  0.00    -0.014 A 
ATOM     74  C   UNL A   1      38.989  33.090  38.356  1.00  0.00     0.010 A 
ATOM     75  C   UNL A   1      40.184  34.931  37.326  1.00  0.00     0.010 A 
ATOM     76  C   UNL A   1      38.679  33.908  39.447  1.00  0.00     0.020 A 
ATOM     77  C   UNL A   1      39.905  35.742  38.427  1.00  0.00     0.020 A 
ATOM     78  C   UNL A   1      39.141  35.229  39.475  1.00  0.00     0.054 A 
BRANCH  78  79
ATOM     79  S   UNL A   1      38.758  36.259  40.917  1.00  0.00     0.124 S 
ATOM     80  O   UNL A   1      40.024  36.245  41.644  1.00  0.00    -0.237 OA
ATOM     81  O   UNL A   1      38.393  37.533  40.303  1.00  0.00    -0.237 OA
ATOM     82  O   UNL A   1      37.657  35.549  41.564  1.00  0.00    -0.744 OA
ENDBRANCH  78  79
ENDBRANCH  50  73
BRANCH  62  83
ATOM     83  C   UNL A   1      44.879  29.069  35.889  1.00  0.00    -0.014 A 
ATOM     84  C   UNL A   1      46.088  29.783  35.830  1.00  0.00     0.010 A 
ATOM     85  C   UNL A   1      44.769  27.963  36.750  1.00  0.00     0.010 A 
ATOM     86  C   UNL A   1      47.182  29.372  36.592  1.00  0.00     0.020 A 
ATOM     87  C   UNL A   1      45.849  27.572  37.542  1.00  0.00     0.020 A 
ATOM     88  C   UNL A   1      47.054  28.270  37.444  1.00  0.00     0.054 A 
BRANCH  88  89
ATOM     89  S   UNL A   1      48.478  27.784  38.454  1.00  0.00     0.124 S 
ATOM     90  O   UNL A   1      47.858  26.914  39.450  1.00  0.00    -0.237 OA
ATOM     91  O   UNL A   1      49.342  27.117  37.485  1.00  0.00    -0.237 OA
ATOM     92  O   UNL A   1      48.989  29.054  38.966  1.00  0.00    -0.744 OA
ENDBRANCH  88  89
ENDBRANCH  62  83
ENDBRANCH  36  37
ENDBRANCH  29  31
ENDBRANCH  28  29
ENDBRANCH  27  28
ENDBRANCH  26  27
ENDBRANCH  25  26
ENDBRANCH   1  25
TORSDOF 22
ENDMDL
MODEL 3
REMARK VINA RESULT:      -8.5      7.278     12.191
REMARK SMILES CC[C@@H](NC(=O)N1CCO[C@H](CC(=O)OCCOCCOC(=O)c2ccc(-c3c4nc(c(-c5ccc(S(=O)(=O)[O-])cc5)c5ccc([nH]5)c(-c5ccc(S(=O)(=O)[O-])cc5)c5nc(c(-c6ccc(S(=O)(=O)[O-])cc6)c6ccc3[nH]6)C=C5)C=C4)cc2)C1)c1cccs1
REMARK SMILES IDX 17 1 16 2 15 3 13 4 14 5 12 6 11 7 7 8 8 9 84 10 9 11 10 12
REMARK SMILES IDX 5 13 4 14 6 16 3 17 2 18 1 19 85 20 86 21 89 22 87 23 88 24
REMARK SMILES IDX 18 25 19 26 20 27 21 28 22 29 23 30 24 31 25 32 83 33 26 34
REMARK SMILES IDX 82 35 27 36 28 37 29 38 76 39 30 40 81 41 75 42 77 43 31 44
REMARK SMILES IDX 80 45 74 46 73 47 32 49 62 50 43 51 61 52 44 53 47 54 60 55
REMARK SMILES IDX 78 56 45 57 46 58 59 60 79 61 48 62 33 63 34 64 42 65 35 66
REMARK SMILES IDX 41 67 36 68 37 69 38 70 39 71 40 72 63 73 64 74 72 75 65 76
REMARK SMILES IDX 71 77 66 78 67 79 68 80 69 81 70 82 49 83 50 84 58 85 51 86
REMARK SMILES IDX 57 87 52 88 53 89 54 90 55 91 56 92
REMARK H PARENT 4 15 77 48 47 59
REMARK Flexibility Score: inf
ROOT
ATOM      1  C   UNL A   1      33.960  30.768  27.241  1.00  0.00     0.202 C 
ENDROOT
BRANCH   1   2
ATOM      2  C   UNL A   1      32.482  30.455  26.688  1.00  0.00     0.261 C 
BRANCH   2   3
ATOM      3  O   UNL A   1      32.417  29.913  25.306  1.00  0.00    -0.463 OA
BRANCH   3   4
ATOM      4  C   UNL A   1      32.866  28.653  25.018  1.00  0.00     0.308 C 
ATOM      5  O   UNL A   1      33.962  28.451  24.499  1.00  0.00    -0.252 OA
BRANCH   4   6
ATOM      6  C   UNL A   1      32.061  27.473  25.635  1.00  0.00     0.156 C 
BRANCH   6   7
ATOM      7  C   UNL A   1      30.698  26.963  25.110  1.00  0.00     0.149 C 
ATOM      8  N   UNL A   1      31.226  24.657  24.887  1.00  0.00    -0.320 N 
ATOM      9  C   UNL A   1      31.122  24.579  23.471  1.00  0.00     0.150 C 
ATOM     10  C   UNL A   1      30.290  25.561  25.534  1.00  0.00     0.154 C 
ATOM     11  C   UNL A   1      31.335  25.978  22.921  1.00  0.00     0.182 C 
ATOM     12  O   UNL A   1      30.621  27.024  23.637  1.00  0.00    -0.374 OA
BRANCH   8  13
ATOM     13  C   UNL A   1      32.228  24.135  25.616  1.00  0.00     0.318 C 
ATOM     14  N   UNL A   1      33.508  24.306  25.149  1.00  0.00    -0.330 N 
ATOM     15  H   UNL A   1      33.735  25.231  24.898  1.00  0.00     0.166 HD
ATOM     16  O   UNL A   1      31.949  24.146  26.807  1.00  0.00    -0.249 OA
BRANCH  14  17
ATOM     17  C   UNL A   1      34.600  23.332  24.960  1.00  0.00     0.124 C 
BRANCH  17  18
ATOM     18  C   UNL A   1      35.579  23.738  23.819  1.00  0.00     0.027 C 
ATOM     19  C   UNL A   1      36.625  22.655  23.504  1.00  0.00     0.006 C 
ENDBRANCH  17  18
BRANCH  17  20
ATOM     20  C   UNL A   1      33.914  22.030  24.742  1.00  0.00     0.027 A 
ATOM     21  C   UNL A   1      33.259  21.587  23.613  1.00  0.00     0.017 A 
ATOM     22  S   UNL A   1      33.703  20.964  26.067  1.00  0.00    -0.147 S 
ATOM     23  C   UNL A   1      32.386  20.505  23.917  1.00  0.00     0.012 A 
ATOM     24  C   UNL A   1      32.502  20.095  25.227  1.00  0.00     0.065 A 
ENDBRANCH  17  20
ENDBRANCH  14  17
ENDBRANCH   8  13
ENDBRANCH   6   7
ENDBRANCH   4   6
ENDBRANCH   3   4
ENDBRANCH   2   3
ENDBRANCH   1   2
BRANCH   1  25
ATOM     25  O   UNL A   1      33.989  31.770  28.284  1.00  0.00    -0.374 OA
BRANCH  25  26
ATOM     26  C   UNL A   1      35.204  32.425  28.764  1.00  0.00     0.202 C 
BRANCH  26  27
ATOM     27  C   UNL A   1      36.166  31.945  29.918  1.00  0.00     0.261 C 
BRANCH  27  28
ATOM     28  O   UNL A   1      35.559  31.611  31.154  1.00  0.00    -0.460 OA
BRANCH  28  29
ATOM     29  C   UNL A   1      35.113  32.696  31.803  1.00  0.00     0.338 C 
ATOM     30  O   UNL A   1      34.180  33.400  31.495  1.00  0.00    -0.246 OA
BRANCH  29  31
ATOM     31  C   UNL A   1      35.794  32.733  33.101  1.00  0.00     0.060 A 
ATOM     32  C   UNL A   1      35.403  33.785  33.928  1.00  0.00     0.016 A 
ATOM     33  C   UNL A   1      36.763  31.797  33.494  1.00  0.00     0.016 A 
ATOM     34  C   UNL A   1      36.101  34.013  35.087  1.00  0.00     0.010 A 
ATOM     35  C   UNL A   1      37.467  32.023  34.668  1.00  0.00     0.010 A 
ATOM     36  C   UNL A   1      37.189  33.188  35.395  1.00  0.00    -0.014 A 
BRANCH  36  37
ATOM     37  C   UNL A   1      38.190  33.764  36.296  1.00  0.00     0.031 A 
ATOM     38  C   UNL A   1      38.077  33.427  37.755  1.00  0.00     0.074 A 
ATOM     39  C   UNL A   1      39.244  34.394  35.764  1.00  0.00     0.049 A 
ATOM     40  N   UNL A   1      38.901  33.700  38.728  1.00  0.00    -0.248 NA
ATOM     41  C   UNL A   1      36.886  32.663  38.177  1.00  0.00     0.031 C 
ATOM     42  C   UNL A   1      39.434  34.656  34.335  1.00  0.00     0.029 A 
ATOM     43  N   UNL A   1      40.368  34.886  36.356  1.00  0.00    -0.354 N 
ATOM     44  C   UNL A   1      38.325  33.154  39.870  1.00  0.00     0.074 A 
ATOM     45  C   UNL A   1      37.069  32.559  39.483  1.00  0.00     0.031 C 
ATOM     46  C   UNL A   1      40.623  35.253  34.161  1.00  0.00     0.029 A 
ATOM     47  C   UNL A   1      41.246  35.447  35.466  1.00  0.00     0.049 A 
ATOM     48  H   UNL A   1      40.532  34.842  37.326  1.00  0.00     0.167 HD
ATOM     49  C   UNL A   1      38.816  33.152  41.128  1.00  0.00     0.031 A 
ATOM     50  C   UNL A   1      42.415  36.066  35.702  1.00  0.00     0.031 A 
ATOM     51  C   UNL A   1      40.069  33.765  41.467  1.00  0.00     0.049 A 
ATOM     52  C   UNL A   1      42.897  36.124  37.124  1.00  0.00     0.074 A 
ATOM     53  C   UNL A   1      40.682  33.853  42.701  1.00  0.00     0.029 A 
ATOM     54  N   UNL A   1      40.900  34.403  40.553  1.00  0.00    -0.354 N 
ATOM     55  N   UNL A   1      42.344  35.615  38.202  1.00  0.00    -0.248 NA
ATOM     56  C   UNL A   1      44.160  36.828  37.363  1.00  0.00     0.031 C 
ATOM     57  C   UNL A   1      41.850  34.606  42.545  1.00  0.00     0.029 A 
ATOM     58  C   UNL A   1      42.006  34.919  41.201  1.00  0.00     0.049 A 
ATOM     59  H   UNL A   1      40.726  34.478  39.588  1.00  0.00     0.167 HD
ATOM     60  C   UNL A   1      43.204  35.918  39.249  1.00  0.00     0.074 A 
ATOM     61  C   UNL A   1      44.323  36.636  38.665  1.00  0.00     0.031 C 
ATOM     62  C   UNL A   1      43.089  35.634  40.572  1.00  0.00     0.031 A 
BRANCH  49  63
ATOM     63  C   UNL A   1      37.974  32.533  42.213  1.00  0.00    -0.014 A 
ATOM     64  C   UNL A   1      36.968  33.258  42.879  1.00  0.00     0.010 A 
ATOM     65  C   UNL A   1      38.185  31.186  42.562  1.00  0.00     0.010 A 
ATOM     66  C   UNL A   1      36.211  32.657  43.890  1.00  0.00     0.020 A 
ATOM     67  C   UNL A   1      37.411  30.573  43.550  1.00  0.00     0.020 A 
ATOM     68  C   UNL A   1      36.436  31.316  44.217  1.00  0.00     0.054 A 
BRANCH  68  69
ATOM     69  S   UNL A   1      35.413  30.549  45.506  1.00  0.00     0.124 S 
ATOM     70  O   UNL A   1      35.390  31.589  46.533  1.00  0.00    -0.237 OA
ATOM     71  O   UNL A   1      34.148  30.321  44.813  1.00  0.00    -0.237 OA
ATOM     72  O   UNL A   1      36.153  29.340  45.862  1.00  0.00    -0.744 OA
ENDBRANCH  68  69
ENDBRANCH  49  63
BRANCH  50  73
ATOM     73  C   UNL A   1      43.156  36.689  34.577  1.00  0.00    -0.014 A 
ATOM     74  C   UNL A   1      44.092  35.958  33.828  1.00  0.00     0.010 A 
ATOM     75  C   UNL A   1      42.891  38.027  34.225  1.00  0.00     0.010 A 
ATOM     76  C   UNL A   1      44.763  36.560  32.759  1.00  0.00     0.020 A 
ATOM     77  C   UNL A   1      43.534  38.621  33.139  1.00  0.00     0.020 A 
ATOM     78  C   UNL A   1      44.478  37.887  32.420  1.00  0.00     0.054 A 
BRANCH  78  79
ATOM     79  S   UNL A   1      45.333  38.633  31.006  1.00  0.00     0.124 S 
ATOM     80  O   UNL A   1      46.396  37.666  30.750  1.00  0.00    -0.237 OA
ATOM     81  O   UNL A   1      44.277  38.696  29.999  1.00  0.00    -0.237 OA
ATOM     82  O   UNL A   1      45.775  39.929  31.517  1.00  0.00    -0.744 OA
ENDBRANCH  78  79
ENDBRANCH  50  73
BRANCH  62  83
ATOM     83  C   UNL A   1      44.218  36.077  41.458  1.00  0.00    -0.014 A 
ATOM     84  C   UNL A   1      45.307  35.231  41.726  1.00  0.00     0.010 A 
ATOM     85  C   UNL A   1      44.210  37.383  41.980  1.00  0.00     0.010 A 
ATOM     86  C   UNL A   1      46.354  35.672  42.536  1.00  0.00     0.020 A 
ATOM     87  C   UNL A   1      45.273  37.840  42.758  1.00  0.00     0.020 A 
ATOM     88  C   UNL A   1      46.331  36.975  43.045  1.00  0.00     0.054 A 
BRANCH  88  89
ATOM     89  S   UNL A   1      47.724  37.536  44.058  1.00  0.00     0.124 S 
ATOM     90  O   UNL A   1      47.054  37.963  45.283  1.00  0.00    -0.237 OA
ATOM     91  O   UNL A   1      48.539  36.330  44.174  1.00  0.00    -0.237 OA
ATOM     92  O   UNL A   1      48.318  38.610  43.266  1.00  0.00    -0.744 OA
ENDBRANCH  88  89
ENDBRANCH  62  83
ENDBRANCH  36  37
ENDBRANCH  29  31
ENDBRANCH  28  29
ENDBRANCH  27  28
ENDBRANCH  26  27
ENDBRANCH  25  26
ENDBRANCH   1  25
TORSDOF 22
ENDMDL
