MODEL 1
REMARK VINA RESULT:     -10.4      0.000      0.000
REMARK SMILES Cc1c(CC(=O)N[C@@H](CCO)C(=O)OCCOCCOC(=O)c2ccc(-c3c4nc(c(-c5ccc(S(=O)(=O)[O-])cc5)c5ccc([nH]5)c(-c5ccc(S(=O)(=O)[O-])cc5)c5nc(c(-c6ccc(S(=O)(=O)[O-])cc6)c6ccc3[nH]6)C=C5)C=C4)cc2)cc(-c2ccc(S(C)(=O)=O)cc2)n1-c1ccc(F)cc1
REMARK SMILES IDX 16 1 15 2 14 3 12 4 13 5 8 6 7 7 5 8 6 9 4 11 3 12 1 13 2 14
REMARK SMILES IDX 95 15 83 16 84 17 96 18 97 19 102 20 98 21 101 22 99 23
REMARK SMILES IDX 100 24 85 25 86 26 94 27 87 28 93 29 88 30 89 31 90 32 91 33
REMARK SMILES IDX 92 34 9 35 10 36 11 37 17 39 18 40 19 41 20 42 21 43 22 44
REMARK SMILES IDX 23 45 24 46 82 47 25 48 81 49 26 50 27 51 28 52 75 53 29 54
REMARK SMILES IDX 80 55 74 56 76 57 30 58 79 59 73 60 72 61 31 63 61 64 42 65
REMARK SMILES IDX 60 66 43 67 46 68 59 69 77 70 44 71 45 72 58 74 78 75 47 76
REMARK SMILES IDX 32 77 33 78 41 79 34 80 40 81 35 82 36 83 37 84 38 85 39 86
REMARK SMILES IDX 62 87 63 88 71 89 64 90 70 91 65 92 66 93 67 94 68 95 69 96
REMARK SMILES IDX 48 97 49 98 57 99 50 100 56 101 51 102 52 103 53 104 54 105
REMARK SMILES IDX 55 106
REMARK H PARENT 7 10 11 38 76 62 46 73
REMARK Flexibility Score: inf
ROOT
ATOM      1  C   UNL A   1      39.044  20.353  25.749  1.00  0.00     0.202 C 
ENDROOT
BRANCH   1   2
ATOM      2  C   UNL A   1      37.958  20.215  24.670  1.00  0.00     0.261 C 
BRANCH   2   3
ATOM      3  O   UNL A   1      36.734  20.836  25.094  1.00  0.00    -0.462 OA
BRANCH   3   4
ATOM      4  C   UNL A   1      35.607  20.082  24.946  1.00  0.00     0.328 C 
ATOM      5  O   UNL A   1      35.584  18.892  24.651  1.00  0.00    -0.250 OA
BRANCH   4   6
ATOM      6  C   UNL A   1      34.334  20.933  25.079  1.00  0.00     0.194 C 
BRANCH   6   7
ATOM      7  N   UNL A   1      33.408  20.907  23.939  1.00  0.00    -0.342 N 
ATOM      8  C   UNL A   1      33.236  21.818  22.935  1.00  0.00     0.225 C 
ATOM      9  O   UNL A   1      32.404  21.559  22.062  1.00  0.00    -0.275 OA
ATOM     10  H   UNL A   1      32.824  20.116  23.890  1.00  0.00     0.164 HD
BRANCH   8  11
ATOM     11  C   UNL A   1      34.092  23.074  22.847  1.00  0.00     0.137 C 
BRANCH  11  12
ATOM     12  C   UNL A   1      33.426  24.288  23.416  1.00  0.00    -0.017 A 
ATOM     13  C   UNL A   1      34.910  24.750  25.491  1.00  0.00     0.065 C 
ATOM     14  C   UNL A   1      33.824  25.048  24.507  1.00  0.00     0.024 A 
ATOM     15  N   UNL A   1      32.990  26.159  24.591  1.00  0.00    -0.314 N 
ATOM     16  C   UNL A   1      32.239  24.881  22.916  1.00  0.00     0.033 A 
ATOM     17  C   UNL A   1      32.016  26.064  23.596  1.00  0.00     0.053 A 
BRANCH  15  18
ATOM     18  C   UNL A   1      33.120  27.231  25.514  1.00  0.00     0.046 A 
ATOM     19  C   UNL A   1      32.303  27.266  26.652  1.00  0.00     0.029 A 
ATOM     20  C   UNL A   1      34.011  28.278  25.244  1.00  0.00     0.029 A 
ATOM     21  C   UNL A   1      32.380  28.354  27.521  1.00  0.00     0.041 A 
ATOM     22  C   UNL A   1      34.070  29.369  26.110  1.00  0.00     0.041 A 
ATOM     23  C   UNL A   1      33.255  29.397  27.238  1.00  0.00     0.123 A 
ATOM     24  F   UNL A   1      33.307  30.450  28.063  1.00  0.00    -0.207 F 
ENDBRANCH  15  18
BRANCH  17  25
ATOM     25  C   UNL A   1      31.039  27.103  23.250  1.00  0.00    -0.001 A 
ATOM     26  C   UNL A   1      31.397  28.179  22.423  1.00  0.00     0.011 A 
ATOM     27  C   UNL A   1      29.722  27.009  23.717  1.00  0.00     0.011 A 
ATOM     28  C   UNL A   1      30.469  29.173  22.106  1.00  0.00     0.021 A 
ATOM     29  C   UNL A   1      28.787  28.000  23.405  1.00  0.00     0.021 A 
ATOM     30  C   UNL A   1      29.172  29.086  22.614  1.00  0.00     0.067 A 
BRANCH  30  31
ATOM     31  S   UNL A   1      27.994  30.357  22.224  1.00  0.00     0.175 S 
ATOM     32  C   UNL A   1      28.775  31.852  22.772  1.00  0.00     0.163 C 
ATOM     33  O   UNL A   1      27.890  30.408  20.771  1.00  0.00    -0.224 OA
ATOM     34  O   UNL A   1      26.825  30.152  23.047  1.00  0.00    -0.224 OA
ENDBRANCH  30  31
ENDBRANCH  17  25
ENDBRANCH  11  12
ENDBRANCH   8  11
ENDBRANCH   6   7
BRANCH   6  35
ATOM     35  C   UNL A   1      33.584  20.564  26.365  1.00  0.00     0.065 C 
BRANCH  35  36
ATOM     36  C   UNL A   1      32.524  19.477  26.186  1.00  0.00     0.159 C 
BRANCH  36  37
ATOM     37  O   UNL A   1      32.921  18.260  26.796  1.00  0.00    -0.396 OA
ATOM     38  H   UNL A   1      33.754  17.957  26.403  1.00  0.00     0.210 HD
ENDBRANCH  36  37
ENDBRANCH  35  36
ENDBRANCH   6  35
ENDBRANCH   4   6
ENDBRANCH   3   4
ENDBRANCH   2   3
ENDBRANCH   1   2
BRANCH   1  39
ATOM     39  O   UNL A   1      40.207  19.556  25.544  1.00  0.00    -0.374 OA
BRANCH  39  40
ATOM     40  C   UNL A   1      41.310  19.766  26.441  1.00  0.00     0.202 C 
BRANCH  40  41
ATOM     41  C   UNL A   1      42.772  19.657  25.896  1.00  0.00     0.261 C 
BRANCH  41  42
ATOM     42  O   UNL A   1      43.778  20.719  26.180  1.00  0.00    -0.460 OA
BRANCH  42  43
ATOM     43  C   UNL A   1      43.647  21.905  25.471  1.00  0.00     0.338 C 
ATOM     44  O   UNL A   1      43.227  21.906  24.318  1.00  0.00    -0.246 OA
BRANCH  43  45
ATOM     45  C   UNL A   1      43.939  23.256  26.200  1.00  0.00     0.060 A 
ATOM     46  C   UNL A   1      43.514  23.428  27.516  1.00  0.00     0.016 A 
ATOM     47  C   UNL A   1      44.322  24.474  25.588  1.00  0.00     0.016 A 
ATOM     48  C   UNL A   1      43.553  24.719  28.192  1.00  0.00     0.010 A 
ATOM     49  C   UNL A   1      44.297  25.812  26.270  1.00  0.00     0.010 A 
ATOM     50  C   UNL A   1      43.924  25.998  27.618  1.00  0.00    -0.014 A 
BRANCH  50  51
ATOM     51  C   UNL A   1      43.408  27.389  28.423  1.00  0.00     0.031 A 
ATOM     52  C   UNL A   1      44.707  27.909  28.935  1.00  0.00     0.074 A 
ATOM     53  C   UNL A   1      42.311  28.131  28.929  1.00  0.00     0.049 A 
ATOM     54  N   UNL A   1      45.412  27.128  29.702  1.00  0.00    -0.248 NA
ATOM     55  C   UNL A   1      45.443  29.033  28.361  1.00  0.00     0.031 C 
ATOM     56  C   UNL A   1      40.884  27.751  28.963  1.00  0.00     0.029 A 
ATOM     57  N   UNL A   1      42.187  29.437  29.570  1.00  0.00    -0.354 N 
ATOM     58  C   UNL A   1      46.591  27.777  29.948  1.00  0.00     0.074 A 
ATOM     59  C   UNL A   1      46.636  28.828  28.935  1.00  0.00     0.031 C 
ATOM     60  C   UNL A   1      40.070  28.774  29.378  1.00  0.00     0.029 A 
ATOM     61  C   UNL A   1      40.833  29.972  29.740  1.00  0.00     0.049 A 
ATOM     62  H   UNL A   1      42.979  29.937  29.874  1.00  0.00     0.167 HD
ATOM     63  C   UNL A   1      46.940  27.857  31.265  1.00  0.00     0.031 A 
ATOM     64  C   UNL A   1      40.347  31.208  30.219  1.00  0.00     0.031 A 
ATOM     65  C   UNL A   1      46.561  29.129  31.825  1.00  0.00     0.049 A 
ATOM     66  C   UNL A   1      41.339  31.628  31.220  1.00  0.00     0.074 A 
ATOM     67  C   UNL A   1      46.718  30.427  31.380  1.00  0.00     0.029 A 
ATOM     68  N   UNL A   1      45.520  29.138  32.731  1.00  0.00    -0.354 N 
ATOM     69  N   UNL A   1      41.411  31.070  32.390  1.00  0.00    -0.248 NA
ATOM     70  C   UNL A   1      42.231  32.760  31.003  1.00  0.00     0.031 C 
ATOM     71  C   UNL A   1      45.485  31.056  31.654  1.00  0.00     0.029 A 
ATOM     72  C   UNL A   1      44.787  30.301  32.586  1.00  0.00     0.049 A 
ATOM     73  H   UNL A   1      45.328  28.425  33.383  1.00  0.00     0.167 HD
ATOM     74  C   UNL A   1      42.670  31.397  32.804  1.00  0.00     0.074 A 
ATOM     75  C   UNL A   1      43.011  32.605  32.074  1.00  0.00     0.031 C 
ATOM     76  C   UNL A   1      43.475  30.375  33.192  1.00  0.00     0.031 A 
BRANCH  63  77
ATOM     77  C   UNL A   1      46.857  26.546  32.011  1.00  0.00    -0.014 A 
ATOM     78  C   UNL A   1      45.652  25.832  31.992  1.00  0.00     0.010 A 
ATOM     79  C   UNL A   1      47.905  26.067  32.832  1.00  0.00     0.010 A 
ATOM     80  C   UNL A   1      45.484  24.702  32.806  1.00  0.00     0.020 A 
ATOM     81  C   UNL A   1      47.735  24.960  33.666  1.00  0.00     0.020 A 
ATOM     82  C   UNL A   1      46.519  24.285  33.651  1.00  0.00     0.054 A 
BRANCH  82  83
ATOM     83  S   UNL A   1      46.222  22.886  34.767  1.00  0.00     0.124 S 
ATOM     84  O   UNL A   1      44.850  22.504  34.435  1.00  0.00    -0.237 OA
ATOM     85  O   UNL A   1      47.246  21.934  34.346  1.00  0.00    -0.237 OA
ATOM     86  O   UNL A   1      46.387  23.452  36.103  1.00  0.00    -0.744 OA
ENDBRANCH  82  83
ENDBRANCH  63  77
BRANCH  64  87
ATOM     87  C   UNL A   1      39.109  32.215  30.319  1.00  0.00    -0.014 A 
ATOM     88  C   UNL A   1      38.132  32.287  29.252  1.00  0.00     0.010 A 
ATOM     89  C   UNL A   1      38.641  32.768  31.524  1.00  0.00     0.010 A 
ATOM     90  C   UNL A   1      36.779  32.712  29.411  1.00  0.00     0.020 A 
ATOM     91  C   UNL A   1      37.285  33.230  31.689  1.00  0.00     0.020 A 
ATOM     92  C   UNL A   1      36.346  33.149  30.652  1.00  0.00     0.054 A 
BRANCH  92  93
ATOM     93  S   UNL A   1      34.546  33.438  30.933  1.00  0.00     0.124 S 
ATOM     94  O   UNL A   1      33.962  33.214  29.614  1.00  0.00    -0.237 OA
ATOM     95  O   UNL A   1      34.212  32.435  31.942  1.00  0.00    -0.237 OA
ATOM     96  O   UNL A   1      34.492  34.820  31.408  1.00  0.00    -0.744 OA
ENDBRANCH  92  93
ENDBRANCH  64  87
BRANCH  76  97
ATOM     97  C   UNL A   1      42.884  29.300  34.087  1.00  0.00    -0.014 A 
ATOM     98  C   UNL A   1      42.348  29.500  35.380  1.00  0.00     0.010 A 
ATOM     99  C   UNL A   1      42.918  27.979  33.603  1.00  0.00     0.010 A 
ATOM    100  C   UNL A   1      41.925  28.423  36.174  1.00  0.00     0.020 A 
ATOM    101  C   UNL A   1      42.457  26.904  34.370  1.00  0.00     0.020 A 
ATOM    102  C   UNL A   1      41.992  27.127  35.665  1.00  0.00     0.054 A 
BRANCH 102 103
ATOM    103  S   UNL A   1      41.499  25.736  36.718  1.00  0.00     0.124 S 
ATOM    104  O   UNL A   1      41.453  26.351  38.043  1.00  0.00    -0.237 OA
ATOM    105  O   UNL A   1      40.203  25.354  36.164  1.00  0.00    -0.237 OA
ATOM    106  O   UNL A   1      42.574  24.764  36.534  1.00  0.00    -0.744 OA
ENDBRANCH 102 103
ENDBRANCH  76  97
ENDBRANCH  50  51
ENDBRANCH  43  45
ENDBRANCH  42  43
ENDBRANCH  41  42
ENDBRANCH  40  41
ENDBRANCH  39  40
ENDBRANCH   1  39
TORSDOF 26
ENDMDL
MODEL 2
REMARK VINA RESULT:      -9.4      3.472      6.630
REMARK SMILES Cc1c(CC(=O)N[C@@H](CCO)C(=O)OCCOCCOC(=O)c2ccc(-c3c4nc(c(-c5ccc(S(=O)(=O)[O-])cc5)c5ccc([nH]5)c(-c5ccc(S(=O)(=O)[O-])cc5)c5nc(c(-c6ccc(S(=O)(=O)[O-])cc6)c6ccc3[nH]6)C=C5)C=C4)cc2)cc(-c2ccc(S(C)(=O)=O)cc2)n1-c1ccc(F)cc1
REMARK SMILES IDX 16 1 15 2 14 3 12 4 13 5 8 6 7 7 5 8 6 9 4 11 3 12 1 13 2 14
REMARK SMILES IDX 95 15 83 16 84 17 96 18 97 19 102 20 98 21 101 22 99 23
REMARK SMILES IDX 100 24 85 25 86 26 94 27 87 28 93 29 88 30 89 31 90 32 91 33
REMARK SMILES IDX 92 34 9 35 10 36 11 37 17 39 18 40 19 41 20 42 21 43 22 44
REMARK SMILES IDX 23 45 24 46 82 47 25 48 81 49 26 50 27 51 28 52 75 53 29 54
REMARK SMILES IDX 80 55 74 56 76 57 30 58 79 59 73 60 72 61 31 63 61 64 42 65
REMARK SMILES IDX 60 66 43 67 46 68 59 69 77 70 44 71 45 72 58 74 78 75 47 76
REMARK SMILES IDX 32 77 33 78 41 79 34 80 40 81 35 82 36 83 37 84 38 85 39 86
REMARK SMILES IDX 62 87 63 88 71 89 64 90 70 91 65 92 66 93 67 94 68 95 69 96
REMARK SMILES IDX 48 97 49 98 57 99 50 100 56 101 51 102 52 103 53 104 54 105
REMARK SMILES IDX 55 106
REMARK H PARENT 7 10 11 38 76 62 46 73
REMARK Flexibility Score: inf
ROOT
ATOM      1  C   UNL A   1      35.002  24.144  24.226  1.00  0.00     0.202 C 
ENDROOT
BRANCH   1   2
ATOM      2  C   UNL A   1      34.045  24.830  23.238  1.00  0.00     0.261 C 
BRANCH   2   3
ATOM      3  O   UNL A   1      33.045  25.588  23.936  1.00  0.00    -0.462 OA
BRANCH   3   4
ATOM      4  C   UNL A   1      33.390  26.867  24.260  1.00  0.00     0.328 C 
ATOM      5  O   UNL A   1      34.064  27.616  23.562  1.00  0.00    -0.250 OA
BRANCH   4   6
ATOM      6  C   UNL A   1      32.929  27.238  25.678  1.00  0.00     0.194 C 
BRANCH   6   7
ATOM      7  N   UNL A   1      32.578  28.647  25.904  1.00  0.00    -0.342 N 
ATOM      8  C   UNL A   1      33.327  29.656  26.440  1.00  0.00     0.225 C 
ATOM      9  O   UNL A   1      32.817  30.778  26.503  1.00  0.00    -0.275 OA
ATOM     10  H   UNL A   1      31.669  28.902  25.628  1.00  0.00     0.164 HD
BRANCH   8  11
ATOM     11  C   UNL A   1      34.768  29.430  26.878  1.00  0.00     0.137 C 
BRANCH  11  12
ATOM     12  C   UNL A   1      35.224  30.382  27.939  1.00  0.00    -0.017 A 
ATOM     13  C   UNL A   1      37.785  29.977  27.912  1.00  0.00     0.065 C 
ATOM     14  C   UNL A   1      36.525  30.668  28.327  1.00  0.00     0.024 A 
ATOM     15  N   UNL A   1      36.485  31.712  29.247  1.00  0.00    -0.314 N 
ATOM     16  C   UNL A   1      34.372  31.176  28.748  1.00  0.00     0.033 A 
ATOM     17  C   UNL A   1      35.151  32.036  29.498  1.00  0.00     0.053 A 
BRANCH  15  18
ATOM     18  C   UNL A   1      37.611  32.363  29.819  1.00  0.00     0.046 A 
ATOM     19  C   UNL A   1      38.116  31.918  31.048  1.00  0.00     0.029 A 
ATOM     20  C   UNL A   1      38.163  33.485  29.185  1.00  0.00     0.029 A 
ATOM     21  C   UNL A   1      39.176  32.601  31.643  1.00  0.00     0.041 A 
ATOM     22  C   UNL A   1      39.211  34.171  29.796  1.00  0.00     0.041 A 
ATOM     23  C   UNL A   1      39.707  33.724  31.017  1.00  0.00     0.123 A 
ATOM     24  F   UNL A   1      40.708  34.390  31.606  1.00  0.00    -0.207 F 
ENDBRANCH  15  18
BRANCH  17  25
ATOM     25  C   UNL A   1      34.682  33.177  30.293  1.00  0.00    -0.001 A 
ATOM     26  C   UNL A   1      34.832  33.191  31.689  1.00  0.00     0.011 A 
ATOM     27  C   UNL A   1      34.110  34.286  29.657  1.00  0.00     0.011 A 
ATOM     28  C   UNL A   1      34.372  34.272  32.444  1.00  0.00     0.021 A 
ATOM     29  C   UNL A   1      33.648  35.372  30.406  1.00  0.00     0.021 A 
ATOM     30  C   UNL A   1      33.767  35.350  31.798  1.00  0.00     0.067 A 
BRANCH  30  31
ATOM     31  S   UNL A   1      33.170  36.720  32.758  1.00  0.00     0.175 S 
ATOM     32  C   UNL A   1      33.650  38.146  31.819  1.00  0.00     0.163 C 
ATOM     33  O   UNL A   1      31.714  36.643  32.750  1.00  0.00    -0.224 OA
ATOM     34  O   UNL A   1      33.906  36.750  34.000  1.00  0.00    -0.224 OA
ENDBRANCH  30  31
ENDBRANCH  17  25
ENDBRANCH  11  12
ENDBRANCH   8  11
ENDBRANCH   6   7
BRANCH   6  35
ATOM     35  C   UNL A   1      31.764  26.338  26.107  1.00  0.00     0.065 C 
BRANCH  35  36
ATOM     36  C   UNL A   1      32.183  24.946  26.580  1.00  0.00     0.159 C 
BRANCH  36  37
ATOM     37  O   UNL A   1      31.121  24.284  27.248  1.00  0.00    -0.396 OA
ATOM     38  H   UNL A   1      30.301  24.398  26.745  1.00  0.00     0.210 HD
ENDBRANCH  36  37
ENDBRANCH  35  36
ENDBRANCH   6  35
ENDBRANCH   4   6
ENDBRANCH   3   4
ENDBRANCH   2   3
ENDBRANCH   1   2
BRANCH   1  39
ATOM     39  O   UNL A   1      34.826  22.737  24.362  1.00  0.00    -0.374 OA
BRANCH  39  40
ATOM     40  C   UNL A   1      35.691  22.057  25.288  1.00  0.00     0.202 C 
BRANCH  40  41
ATOM     41  C   UNL A   1      37.239  22.234  25.159  1.00  0.00     0.261 C 
BRANCH  41  42
ATOM     42  O   UNL A   1      37.994  23.102  26.107  1.00  0.00    -0.460 OA
BRANCH  42  43
ATOM     43  C   UNL A   1      39.254  22.659  26.486  1.00  0.00     0.338 C 
ATOM     44  O   UNL A   1      39.667  21.560  26.134  1.00  0.00    -0.246 OA
BRANCH  43  45
ATOM     45  C   UNL A   1      40.187  23.630  27.281  1.00  0.00     0.060 A 
ATOM     46  C   UNL A   1      39.652  24.794  27.831  1.00  0.00     0.016 A 
ATOM     47  C   UNL A   1      41.602  23.638  27.261  1.00  0.00     0.016 A 
ATOM     48  C   UNL A   1      40.484  25.850  28.396  1.00  0.00     0.010 A 
ATOM     49  C   UNL A   1      42.453  24.759  27.785  1.00  0.00     0.010 A 
ATOM     50  C   UNL A   1      41.932  25.919  28.395  1.00  0.00    -0.014 A 
BRANCH  50  51
ATOM     51  C   UNL A   1      42.637  27.435  28.632  1.00  0.00     0.031 A 
ATOM     52  C   UNL A   1      44.080  27.066  28.654  1.00  0.00     0.074 A 
ATOM     53  C   UNL A   1      42.439  28.797  28.967  1.00  0.00     0.049 A 
ATOM     54  N   UNL A   1      44.470  26.197  29.541  1.00  0.00    -0.248 NA
ATOM     55  C   UNL A   1      45.016  27.280  27.552  1.00  0.00     0.031 C 
ATOM     56  C   UNL A   1      41.194  29.465  29.398  1.00  0.00     0.029 A 
ATOM     57  N   UNL A   1      43.321  29.960  29.025  1.00  0.00    -0.354 N 
ATOM     58  C   UNL A   1      45.792  25.945  29.293  1.00  0.00     0.074 A 
ATOM     59  C   UNL A   1      46.006  26.467  27.946  1.00  0.00     0.031 C 
ATOM     60  C   UNL A   1      41.323  30.827  29.488  1.00  0.00     0.029 A 
ATOM     61  C   UNL A   1      42.688  31.272  29.190  1.00  0.00     0.049 A 
ATOM     62  H   UNL A   1      44.298  29.866  28.957  1.00  0.00     0.167 HD
ATOM     63  C   UNL A   1      46.611  26.048  30.380  1.00  0.00     0.031 A 
ATOM     64  C   UNL A   1      43.201  32.587  29.192  1.00  0.00     0.031 A 
ATOM     65  C   UNL A   1      47.254  27.336  30.423  1.00  0.00     0.049 A 
ATOM     66  C   UNL A   1      44.556  32.449  29.747  1.00  0.00     0.074 A 
ATOM     67  C   UNL A   1      47.911  28.083  29.465  1.00  0.00     0.029 A 
ATOM     68  N   UNL A   1      46.851  28.214  31.409  1.00  0.00    -0.354 N 
ATOM     69  N   UNL A   1      44.762  32.240  31.011  1.00  0.00    -0.248 NA
ATOM     70  C   UNL A   1      45.751  32.640  28.935  1.00  0.00     0.031 C 
ATOM     71  C   UNL A   1      47.460  29.405  29.662  1.00  0.00     0.029 A 
ATOM     72  C   UNL A   1      46.897  29.509  30.925  1.00  0.00     0.049 A 
ATOM     73  H   UNL A   1      46.574  27.958  32.318  1.00  0.00     0.167 HD
ATOM     74  C   UNL A   1      46.031  31.738  31.032  1.00  0.00     0.074 A 
ATOM     75  C   UNL A   1      46.661  32.239  29.823  1.00  0.00     0.031 C 
ATOM     76  C   UNL A   1      46.212  30.549  31.662  1.00  0.00     0.031 A 
BRANCH  63  77
ATOM     77  C   UNL A   1      46.121  25.307  31.602  1.00  0.00    -0.014 A 
ATOM     78  C   UNL A   1      44.818  24.790  31.602  1.00  0.00     0.010 A 
ATOM     79  C   UNL A   1      46.876  25.218  32.795  1.00  0.00     0.010 A 
ATOM     80  C   UNL A   1      44.272  24.246  32.773  1.00  0.00     0.020 A 
ATOM     81  C   UNL A   1      46.327  24.704  33.972  1.00  0.00     0.020 A 
ATOM     82  C   UNL A   1      45.022  24.224  33.955  1.00  0.00     0.054 A 
BRANCH  82  83
ATOM     83  S   UNL A   1      44.240  23.612  35.472  1.00  0.00     0.124 S 
ATOM     84  O   UNL A   1      42.915  24.230  35.415  1.00  0.00    -0.237 OA
ATOM     85  O   UNL A   1      44.254  22.167  35.266  1.00  0.00    -0.237 OA
ATOM     86  O   UNL A   1      45.096  24.112  36.544  1.00  0.00    -0.744 OA
ENDBRANCH  82  83
ENDBRANCH  63  77
BRANCH  64  87
ATOM     87  C   UNL A   1      42.885  34.150  29.080  1.00  0.00    -0.014 A 
ATOM     88  C   UNL A   1      43.392  35.076  30.071  1.00  0.00     0.010 A 
ATOM     89  C   UNL A   1      42.490  34.788  27.890  1.00  0.00     0.010 A 
ATOM     90  C   UNL A   1      43.633  36.464  29.844  1.00  0.00     0.020 A 
ATOM     91  C   UNL A   1      42.700  36.197  27.660  1.00  0.00     0.020 A 
ATOM     92  C   UNL A   1      43.321  37.016  28.613  1.00  0.00     0.054 A 
BRANCH  92  93
ATOM     93  S   UNL A   1      43.877  38.729  28.220  1.00  0.00     0.124 S 
ATOM     94  O   UNL A   1      42.953  39.564  28.980  1.00  0.00    -0.237 OA
ATOM     95  O   UNL A   1      45.260  38.736  28.697  1.00  0.00    -0.237 OA
ATOM     96  O   UNL A   1      43.736  38.811  26.767  1.00  0.00    -0.744 OA
ENDBRANCH  92  93
ENDBRANCH  64  87
BRANCH  76  97
ATOM     97  C   UNL A   1      45.536  30.343  33.007  1.00  0.00    -0.014 A 
ATOM     98  C   UNL A   1      46.162  30.433  34.271  1.00  0.00     0.010 A 
ATOM     99  C   UNL A   1      44.177  29.981  32.987  1.00  0.00     0.010 A 
ATOM    100  C   UNL A   1      45.476  30.117  35.454  1.00  0.00     0.020 A 
ATOM    101  C   UNL A   1      43.473  29.706  34.164  1.00  0.00     0.020 A 
ATOM    102  C   UNL A   1      44.135  29.745  35.391  1.00  0.00     0.054 A 
BRANCH 102 103
ATOM    103  S   UNL A   1      43.271  29.280  36.916  1.00  0.00     0.124 S 
ATOM    104  O   UNL A   1      41.895  29.678  36.627  1.00  0.00    -0.237 OA
ATOM    105  O   UNL A   1      43.499  27.840  36.991  1.00  0.00    -0.237 OA
ATOM    106  O   UNL A   1      43.933  30.077  37.946  1.00  0.00    -0.744 OA
ENDBRANCH 102 103
ENDBRANCH  76  97
ENDBRANCH  50  51
ENDBRANCH  43  45
ENDBRANCH  42  43
ENDBRANCH  41  42
ENDBRANCH  40  41
ENDBRANCH  39  40
ENDBRANCH   1  39
TORSDOF 26
ENDMDL
MODEL 3
REMARK VINA RESULT:      -9.0      3.485      5.351
REMARK SMILES Cc1c(CC(=O)N[C@@H](CCO)C(=O)OCCOCCOC(=O)c2ccc(-c3c4nc(c(-c5ccc(S(=O)(=O)[O-])cc5)c5ccc([nH]5)c(-c5ccc(S(=O)(=O)[O-])cc5)c5nc(c(-c6ccc(S(=O)(=O)[O-])cc6)c6ccc3[nH]6)C=C5)C=C4)cc2)cc(-c2ccc(S(C)(=O)=O)cc2)n1-c1ccc(F)cc1
REMARK SMILES IDX 16 1 15 2 14 3 12 4 13 5 8 6 7 7 5 8 6 9 4 11 3 12 1 13 2 14
REMARK SMILES IDX 95 15 83 16 84 17 96 18 97 19 102 20 98 21 101 22 99 23
REMARK SMILES IDX 100 24 85 25 86 26 94 27 87 28 93 29 88 30 89 31 90 32 91 33
REMARK SMILES IDX 92 34 9 35 10 36 11 37 17 39 18 40 19 41 20 42 21 43 22 44
REMARK SMILES IDX 23 45 24 46 82 47 25 48 81 49 26 50 27 51 28 52 75 53 29 54
REMARK SMILES IDX 80 55 74 56 76 57 30 58 79 59 73 60 72 61 31 63 61 64 42 65
REMARK SMILES IDX 60 66 43 67 46 68 59 69 77 70 44 71 45 72 58 74 78 75 47 76
REMARK SMILES IDX 32 77 33 78 41 79 34 80 40 81 35 82 36 83 37 84 38 85 39 86
REMARK SMILES IDX 62 87 63 88 71 89 64 90 70 91 65 92 66 93 67 94 68 95 69 96
REMARK SMILES IDX 48 97 49 98 57 99 50 100 56 101 51 102 52 103 53 104 54 105
REMARK SMILES IDX 55 106
REMARK H PARENT 7 10 11 38 76 62 46 73
REMARK Flexibility Score: inf
ROOT
ATOM      1  C   UNL A   1      37.028  22.642  23.963  1.00  0.00     0.202 C 
ENDROOT
BRANCH   1   2
ATOM      2  C   UNL A   1      35.529  22.977  23.918  1.00  0.00     0.261 C 
BRANCH   2   3
ATOM      3  O   UNL A   1      34.760  21.975  24.603  1.00  0.00    -0.462 OA
BRANCH   3   4
ATOM      4  C   UNL A   1      34.538  22.203  25.929  1.00  0.00     0.328 C 
ATOM      5  O   UNL A   1      35.206  22.945  26.641  1.00  0.00    -0.250 OA
BRANCH   4   6
ATOM      6  C   UNL A   1      33.404  21.323  26.474  1.00  0.00     0.194 C 
BRANCH   6   7
ATOM      7  N   UNL A   1      32.338  22.013  27.214  1.00  0.00    -0.342 N 
ATOM      8  C   UNL A   1      31.395  22.894  26.765  1.00  0.00     0.225 C 
ATOM      9  O   UNL A   1      30.577  23.325  27.582  1.00  0.00    -0.275 OA
ATOM     10  H   UNL A   1      32.295  21.809  28.176  1.00  0.00     0.164 HD
BRANCH   8  11
ATOM     11  C   UNL A   1      31.304  23.280  25.295  1.00  0.00     0.137 C 
BRANCH  11  12
ATOM     12  C   UNL A   1      31.497  24.744  25.051  1.00  0.00    -0.017 A 
ATOM     13  C   UNL A   1      29.986  25.110  22.976  1.00  0.00     0.065 C 
ATOM     14  C   UNL A   1      30.872  25.540  24.102  1.00  0.00     0.024 A 
ATOM     15  N   UNL A   1      31.248  26.861  24.326  1.00  0.00    -0.314 N 
ATOM     16  C   UNL A   1      32.379  25.586  25.774  1.00  0.00     0.033 A 
ATOM     17  C   UNL A   1      32.172  26.892  25.372  1.00  0.00     0.053 A 
BRANCH  15  18
ATOM     18  C   UNL A   1      30.757  27.998  23.629  1.00  0.00     0.046 A 
ATOM     19  C   UNL A   1      29.427  28.400  23.814  1.00  0.00     0.029 A 
ATOM     20  C   UNL A   1      31.583  28.664  22.714  1.00  0.00     0.029 A 
ATOM     21  C   UNL A   1      28.925  29.472  23.077  1.00  0.00     0.041 A 
ATOM     22  C   UNL A   1      31.067  29.724  21.970  1.00  0.00     0.041 A 
ATOM     23  C   UNL A   1      29.745  30.118  22.159  1.00  0.00     0.123 A 
ATOM     24  F   UNL A   1      29.250  31.131  21.436  1.00  0.00    -0.207 F 
ENDBRANCH  15  18
BRANCH  17  25
ATOM     25  C   UNL A   1      32.699  28.101  26.014  1.00  0.00    -0.001 A 
ATOM     26  C   UNL A   1      34.058  28.200  26.354  1.00  0.00     0.011 A 
ATOM     27  C   UNL A   1      31.853  29.190  26.260  1.00  0.00     0.011 A 
ATOM     28  C   UNL A   1      34.555  29.347  26.977  1.00  0.00     0.021 A 
ATOM     29  C   UNL A   1      32.343  30.341  26.883  1.00  0.00     0.021 A 
ATOM     30  C   UNL A   1      33.689  30.405  27.253  1.00  0.00     0.067 A 
BRANCH  30  31
ATOM     31  S   UNL A   1      34.316  31.860  28.057  1.00  0.00     0.175 S 
ATOM     32  C   UNL A   1      33.048  33.074  27.804  1.00  0.00     0.163 C 
ATOM     33  O   UNL A   1      34.380  31.564  29.483  1.00  0.00    -0.224 OA
ATOM     34  O   UNL A   1      35.488  32.300  27.336  1.00  0.00    -0.224 OA
ENDBRANCH  30  31
ENDBRANCH  17  25
ENDBRANCH  11  12
ENDBRANCH   8  11
ENDBRANCH   6   7
BRANCH   6  35
ATOM     35  C   UNL A   1      32.793  20.487  25.343  1.00  0.00     0.065 C 
BRANCH  35  36
ATOM     36  C   UNL A   1      32.915  18.975  25.540  1.00  0.00     0.159 C 
BRANCH  36  37
ATOM     37  O   UNL A   1      34.221  18.516  25.234  1.00  0.00    -0.396 OA
ATOM     38  H   UNL A   1      34.865  18.973  25.797  1.00  0.00     0.210 HD
ENDBRANCH  36  37
ENDBRANCH  35  36
ENDBRANCH   6  35
ENDBRANCH   4   6
ENDBRANCH   3   4
ENDBRANCH   2   3
ENDBRANCH   1   2
BRANCH   1  39
ATOM     39  O   UNL A   1      37.336  21.257  24.099  1.00  0.00    -0.374 OA
BRANCH  39  40
ATOM     40  C   UNL A   1      37.921  20.837  25.343  1.00  0.00     0.202 C 
BRANCH  40  41
ATOM     41  C   UNL A   1      39.260  21.490  25.818  1.00  0.00     0.261 C 
BRANCH  41  42
ATOM     42  O   UNL A   1      39.711  21.373  27.234  1.00  0.00    -0.460 OA
BRANCH  42  43
ATOM     43  C   UNL A   1      41.060  21.592  27.477  1.00  0.00     0.338 C 
ATOM     44  O   UNL A   1      41.851  20.656  27.522  1.00  0.00    -0.246 OA
BRANCH  43  45
ATOM     45  C   UNL A   1      41.579  23.063  27.584  1.00  0.00     0.060 A 
ATOM     46  C   UNL A   1      42.386  23.426  28.660  1.00  0.00     0.016 A 
ATOM     47  C   UNL A   1      41.079  24.183  26.877  1.00  0.00     0.016 A 
ATOM     48  C   UNL A   1      42.732  24.812  28.950  1.00  0.00     0.010 A 
ATOM     49  C   UNL A   1      41.387  25.612  27.221  1.00  0.00     0.010 A 
ATOM     50  C   UNL A   1      42.246  25.997  28.271  1.00  0.00    -0.014 A 
BRANCH  50  51
ATOM     51  C   UNL A   1      42.373  27.468  29.090  1.00  0.00     0.031 A 
ATOM     52  C   UNL A   1      42.994  28.317  28.036  1.00  0.00     0.074 A 
ATOM     53  C   UNL A   1      42.299  28.146  30.333  1.00  0.00     0.049 A 
ATOM     54  N   UNL A   1      44.133  27.930  27.539  1.00  0.00    -0.248 NA
ATOM     55  C   UNL A   1      42.284  29.314  27.237  1.00  0.00     0.031 C 
ATOM     56  C   UNL A   1      42.092  27.575  31.679  1.00  0.00     0.029 A 
ATOM     57  N   UNL A   1      42.407  29.549  30.724  1.00  0.00    -0.354 N 
ATOM     58  C   UNL A   1      44.440  28.800  26.528  1.00  0.00     0.074 A 
ATOM     59  C   UNL A   1      43.179  29.484  26.255  1.00  0.00     0.031 C 
ATOM     60  C   UNL A   1      41.913  28.534  32.643  1.00  0.00     0.029 A 
ATOM     61  C   UNL A   1      42.033  29.890  32.100  1.00  0.00     0.049 A 
ATOM     62  H   UNL A   1      42.717  30.236  30.091  1.00  0.00     0.167 HD
ATOM     63  C   UNL A   1      45.695  29.332  26.588  1.00  0.00     0.031 A 
ATOM     64  C   UNL A   1      41.924  31.120  32.783  1.00  0.00     0.031 A 
ATOM     65  C   UNL A   1      45.676  30.638  27.197  1.00  0.00     0.049 A 
ATOM     66  C   UNL A   1      42.944  31.977  32.159  1.00  0.00     0.074 A 
ATOM     67  C   UNL A   1      44.875  31.746  27.000  1.00  0.00     0.029 A 
ATOM     68  N   UNL A   1      46.226  30.759  28.457  1.00  0.00    -0.354 N 
ATOM     69  N   UNL A   1      44.210  31.821  32.399  1.00  0.00    -0.248 NA
ATOM     70  C   UNL A   1      42.595  33.114  31.317  1.00  0.00     0.031 C 
ATOM     71  C   UNL A   1      44.594  32.226  28.297  1.00  0.00     0.029 A 
ATOM     72  C   UNL A   1      45.513  31.692  29.188  1.00  0.00     0.049 A 
ATOM     73  H   UNL A   1      47.008  30.258  28.785  1.00  0.00     0.167 HD
ATOM     74  C   UNL A   1      44.798  32.453  31.341  1.00  0.00     0.074 A 
ATOM     75  C   UNL A   1      43.816  33.419  30.879  1.00  0.00     0.031 C 
ATOM     76  C   UNL A   1      45.701  31.739  30.622  1.00  0.00     0.031 A 
BRANCH  63  77
ATOM     77  C   UNL A   1      46.792  28.315  26.803  1.00  0.00    -0.014 A 
ATOM     78  C   UNL A   1      47.102  27.921  28.111  1.00  0.00     0.010 A 
ATOM     79  C   UNL A   1      47.606  27.836  25.749  1.00  0.00     0.010 A 
ATOM     80  C   UNL A   1      48.220  27.111  28.361  1.00  0.00     0.020 A 
ATOM     81  C   UNL A   1      48.737  27.054  25.994  1.00  0.00     0.020 A 
ATOM     82  C   UNL A   1      49.040  26.700  27.304  1.00  0.00     0.054 A 
BRANCH  82  83
ATOM     83  S   UNL A   1      50.536  25.746  27.683  1.00  0.00     0.124 S 
ATOM     84  O   UNL A   1      50.016  24.386  27.822  1.00  0.00    -0.237 OA
ATOM     85  O   UNL A   1      51.355  25.974  26.495  1.00  0.00    -0.237 OA
ATOM     86  O   UNL A   1      51.033  26.336  28.922  1.00  0.00    -0.744 OA
ENDBRANCH  82  83
ENDBRANCH  63  77
BRANCH  64  87
ATOM     87  C   UNL A   1      41.357  31.901  34.058  1.00  0.00    -0.014 A 
ATOM     88  C   UNL A   1      40.384  32.961  33.898  1.00  0.00     0.010 A 
ATOM     89  C   UNL A   1      41.408  31.401  35.372  1.00  0.00     0.010 A 
ATOM     90  C   UNL A   1      39.447  33.366  34.895  1.00  0.00     0.020 A 
ATOM     91  C   UNL A   1      40.486  31.826  36.397  1.00  0.00     0.020 A 
ATOM     92  C   UNL A   1      39.476  32.762  36.141  1.00  0.00     0.054 A 
BRANCH  92  93
ATOM     93  S   UNL A   1      38.108  33.081  37.335  1.00  0.00     0.124 S 
ATOM     94  O   UNL A   1      36.920  33.096  36.487  1.00  0.00    -0.237 OA
ATOM     95  O   UNL A   1      38.207  31.944  38.250  1.00  0.00    -0.237 OA
ATOM     96  O   UNL A   1      38.463  34.369  37.928  1.00  0.00    -0.744 OA
ENDBRANCH  92  93
ENDBRANCH  64  87
BRANCH  76  97
ATOM     97  C   UNL A   1      46.722  30.909  31.380  1.00  0.00    -0.014 A 
ATOM     98  C   UNL A   1      46.591  29.544  31.723  1.00  0.00     0.010 A 
ATOM     99  C   UNL A   1      47.880  31.574  31.824  1.00  0.00     0.010 A 
ATOM    100  C   UNL A   1      47.542  28.892  32.523  1.00  0.00     0.020 A 
ATOM    101  C   UNL A   1      48.856  30.921  32.585  1.00  0.00     0.020 A 
ATOM    102  C   UNL A   1      48.667  29.591  32.957  1.00  0.00     0.054 A 
BRANCH 102 103
ATOM    103  S   UNL A   1      49.862  28.761  34.039  1.00  0.00     0.124 S 
ATOM    104  O   UNL A   1      51.030  29.634  33.938  1.00  0.00    -0.237 OA
ATOM    105  O   UNL A   1      49.188  28.771  35.334  1.00  0.00    -0.237 OA
ATOM    106  O   UNL A   1      50.030  27.446  33.426  1.00  0.00    -0.744 OA
ENDBRANCH 102 103
ENDBRANCH  76  97
ENDBRANCH  50  51
ENDBRANCH  43  45
ENDBRANCH  42  43
ENDBRANCH  41  42
ENDBRANCH  40  41
ENDBRANCH  39  40
ENDBRANCH   1  39
TORSDOF 26
ENDMDL
