MODEL 1
REMARK VINA RESULT:     -12.5      0.000      0.000
REMARK SMILES Cc1ccc(-c2cc3cccnc3n2CCC(=O)OCCOCCOC(=O)c2ccc(-c3c4nc(c(-c5ccc(S(=O)(=O)[O-])cc5)c5ccc([nH]5)c(-c5ccc(S(=O)(=O)[O-])cc5)c5nc(c(-c6ccc(S(=O)(=O)[O-])cc6)c6ccc3[nH]6)C=C5)C=C4)cc2)cn1
REMARK SMILES IDX 22 1 21 2 20 3 19 4 17 5 18 6 16 7 15 8 14 9 6 10 7 11 8 12
REMARK SMILES IDX 13 13 9 14 12 15 10 16 11 17 5 18 1 19 2 20 3 21 89 22 4 23
REMARK SMILES IDX 88 24 23 25 24 26 25 27 26 28 27 29 28 30 29 31 87 32 30 33
REMARK SMILES IDX 86 34 31 35 32 36 33 37 80 38 34 39 85 40 79 41 81 42 35 43
REMARK SMILES IDX 84 44 78 45 77 46 36 48 66 49 47 50 65 51 48 52 51 53 64 54
REMARK SMILES IDX 82 55 49 56 50 57 63 59 83 60 52 61 37 62 38 63 46 64 39 65
REMARK SMILES IDX 45 66 40 67 41 68 42 69 43 70 44 71 67 72 68 73 76 74 69 75
REMARK SMILES IDX 75 76 70 77 71 78 72 79 73 80 74 81 53 82 54 83 62 84 55 85
REMARK SMILES IDX 61 86 56 87 57 88 58 89 59 90 60 91
REMARK H PARENT 81 47 51 58
REMARK Flexibility Score: inf
ROOT
ATOM      1  O   UNL A   1      34.449  33.573  28.592  1.00  0.00    -0.374 OA
ENDROOT
BRANCH   1   2
ATOM      2  C   UNL A   1      33.905  32.159  27.990  1.00  0.00     0.202 C 
BRANCH   2   3
ATOM      3  C   UNL A   1      32.003  31.710  27.019  1.00  0.00     0.261 C 
BRANCH   3   4
ATOM      4  O   UNL A   1      31.834  30.747  25.601  1.00  0.00    -0.463 OA
BRANCH   4   5
ATOM      5  C   UNL A   1      32.354  29.501  25.421  1.00  0.00     0.307 C 
ATOM      6  O   UNL A   1      32.227  28.611  26.258  1.00  0.00    -0.252 OA
BRANCH   5   7
ATOM      7  C   UNL A   1      33.070  29.227  24.056  1.00  0.00     0.144 C 
BRANCH   7   8
ATOM      8  C   UNL A   1      32.388  28.725  22.759  1.00  0.00     0.136 C 
BRANCH   8   9
ATOM      9  N   UNL A   1      31.253  27.863  22.965  1.00  0.00    -0.325 N 
ATOM     10  C   UNL A   1      31.353  26.534  23.280  1.00  0.00     0.052 A 
ATOM     11  C   UNL A   1      30.077  26.136  23.666  1.00  0.00     0.039 A 
ATOM     12  C   UNL A   1      29.182  27.201  23.448  1.00  0.00     0.020 A 
ATOM     13  C   UNL A   1      29.933  28.251  22.933  1.00  0.00     0.140 A 
ATOM     14  C   UNL A   1      27.809  27.393  23.650  1.00  0.00     0.013 A 
ATOM     15  N   UNL A   1      29.461  29.448  22.534  1.00  0.00    -0.238 NA
ATOM     16  C   UNL A   1      27.272  28.609  23.243  1.00  0.00     0.021 A 
ATOM     17  C   UNL A   1      28.117  29.560  22.683  1.00  0.00     0.113 A 
BRANCH  10  18
ATOM     18  C   UNL A   1      32.603  25.791  23.448  1.00  0.00     0.017 A 
ATOM     19  C   UNL A   1      36.591  22.828  23.337  1.00  0.00     0.066 C 
ATOM     20  C   UNL A   1      35.206  23.340  23.636  1.00  0.00     0.037 A 
ATOM     21  C   UNL A   1      34.939  24.370  25.062  1.00  0.00     0.024 A 
ATOM     22  N   UNL A   1      34.208  23.479  22.218  1.00  0.00    -0.261 NA
ATOM     23  C   UNL A   1      33.640  25.635  24.955  1.00  0.00     0.014 A 
ATOM     24  C   UNL A   1      32.960  24.678  22.113  1.00  0.00     0.121 A 
ENDBRANCH  10  18
ENDBRANCH   8   9
ENDBRANCH   7   8
ENDBRANCH   5   7
ENDBRANCH   4   5
ENDBRANCH   3   4
ENDBRANCH   2   3
ENDBRANCH   1   2
BRANCH   1  25
ATOM     25  C   UNL A   1      34.132  33.969  29.947  1.00  0.00     0.202 C 
BRANCH  25  26
ATOM     26  C   UNL A   1      34.595  33.077  31.086  1.00  0.00     0.261 C 
BRANCH  26  27
ATOM     27  O   UNL A   1      35.957  32.763  30.916  1.00  0.00    -0.460 OA
BRANCH  27  28
ATOM     28  C   UNL A   1      36.240  31.438  30.965  1.00  0.00     0.338 C 
ATOM     29  O   UNL A   1      36.086  30.679  31.902  1.00  0.00    -0.246 OA
BRANCH  28  30
ATOM     30  C   UNL A   1      36.822  31.094  29.650  1.00  0.00     0.060 A 
ATOM     31  C   UNL A   1      36.623  29.775  29.280  1.00  0.00     0.016 A 
ATOM     32  C   UNL A   1      37.944  31.834  29.238  1.00  0.00     0.016 A 
ATOM     33  C   UNL A   1      37.764  29.068  29.017  1.00  0.00     0.010 A 
ATOM     34  C   UNL A   1      39.083  31.135  28.994  1.00  0.00     0.010 A 
ATOM     35  C   UNL A   1      38.983  29.757  29.062  1.00  0.00    -0.014 A 
BRANCH  35  36
ATOM     36  C   UNL A   1      40.202  29.005  29.131  1.00  0.00     0.031 A 
ATOM     37  C   UNL A   1      40.597  28.842  30.534  1.00  0.00     0.074 A 
ATOM     38  C   UNL A   1      40.831  28.529  28.042  1.00  0.00     0.049 A 
ATOM     39  N   UNL A   1      41.376  29.639  31.178  1.00  0.00    -0.248 NA
ATOM     40  C   UNL A   1      39.811  27.934  31.387  1.00  0.00     0.031 C 
ATOM     41  C   UNL A   1      40.407  28.465  26.640  1.00  0.00     0.029 A 
ATOM     42  N   UNL A   1      42.051  27.942  28.001  1.00  0.00    -0.354 N 
ATOM     43  C   UNL A   1      41.401  29.145  32.466  1.00  0.00     0.074 A 
ATOM     44  C   UNL A   1      40.245  28.295  32.597  1.00  0.00     0.031 C 
ATOM     45  C   UNL A   1      41.262  27.669  25.945  1.00  0.00     0.029 A 
ATOM     46  C   UNL A   1      42.371  27.302  26.809  1.00  0.00     0.049 A 
ATOM     47  H   UNL A   1      42.670  27.967  28.766  1.00  0.00     0.167 HD
ATOM     48  C   UNL A   1      42.548  29.196  33.191  1.00  0.00     0.031 A 
ATOM     49  C   UNL A   1      43.467  26.518  26.608  1.00  0.00     0.031 A 
ATOM     50  C   UNL A   1      43.504  30.106  32.607  1.00  0.00     0.049 A 
ATOM     51  C   UNL A   1      44.460  26.939  27.640  1.00  0.00     0.074 A 
ATOM     52  C   UNL A   1      43.502  31.461  32.343  1.00  0.00     0.029 A 
ATOM     53  N   UNL A   1      44.454  29.552  31.776  1.00  0.00    -0.354 N 
ATOM     54  N   UNL A   1      45.002  28.129  27.649  1.00  0.00    -0.248 NA
ATOM     55  C   UNL A   1      44.431  26.256  28.925  1.00  0.00     0.031 C 
ATOM     56  C   UNL A   1      44.115  31.590  31.061  1.00  0.00     0.029 A 
ATOM     57  C   UNL A   1      44.543  30.328  30.646  1.00  0.00     0.049 A 
ATOM     58  H   UNL A   1      44.978  28.739  31.961  1.00  0.00     0.167 HD
ATOM     59  C   UNL A   1      44.991  28.515  28.983  1.00  0.00     0.074 A 
ATOM     60  C   UNL A   1      44.673  27.296  29.730  1.00  0.00     0.031 C 
ATOM     61  C   UNL A   1      44.935  29.833  29.341  1.00  0.00     0.031 A 
BRANCH  48  62
ATOM     62  C   UNL A   1      42.936  28.091  34.127  1.00  0.00    -0.014 A 
ATOM     63  C   UNL A   1      42.704  28.251  35.501  1.00  0.00     0.010 A 
ATOM     64  C   UNL A   1      43.753  27.012  33.724  1.00  0.00     0.010 A 
ATOM     65  C   UNL A   1      43.286  27.379  36.429  1.00  0.00     0.020 A 
ATOM     66  C   UNL A   1      44.300  26.114  34.635  1.00  0.00     0.020 A 
ATOM     67  C   UNL A   1      44.079  26.316  35.987  1.00  0.00     0.054 A 
BRANCH  67  68
ATOM     68  S   UNL A   1      44.887  25.249  37.200  1.00  0.00     0.124 S 
ATOM     69  O   UNL A   1      46.292  25.610  37.037  1.00  0.00    -0.237 OA
ATOM     70  O   UNL A   1      44.260  25.682  38.446  1.00  0.00    -0.237 OA
ATOM     71  O   UNL A   1      44.533  23.902  36.762  1.00  0.00    -0.744 OA
ENDBRANCH  67  68
ENDBRANCH  48  62
BRANCH  49  72
ATOM     72  C   UNL A   1      43.515  25.166  25.972  1.00  0.00    -0.014 A 
ATOM     73  C   UNL A   1      44.497  24.860  25.002  1.00  0.00     0.010 A 
ATOM     74  C   UNL A   1      42.805  24.084  26.529  1.00  0.00     0.010 A 
ATOM     75  C   UNL A   1      44.820  23.528  24.679  1.00  0.00     0.020 A 
ATOM     76  C   UNL A   1      43.119  22.753  26.209  1.00  0.00     0.020 A 
ATOM     77  C   UNL A   1      44.150  22.479  25.314  1.00  0.00     0.054 A 
BRANCH  77  78
ATOM     78  S   UNL A   1      44.701  20.765  25.043  1.00  0.00     0.124 S 
ATOM     79  O   UNL A   1      43.745  19.995  25.834  1.00  0.00    -0.237 OA
ATOM     80  O   UNL A   1      44.581  20.625  23.594  1.00  0.00    -0.237 OA
ATOM     81  O   UNL A   1      46.071  20.759  25.552  1.00  0.00    -0.744 OA
ENDBRANCH  77  78
ENDBRANCH  49  72
BRANCH  61  82
ATOM     82  C   UNL A   1      45.132  30.883  28.268  1.00  0.00    -0.014 A 
ATOM     83  C   UNL A   1      44.093  31.438  27.492  1.00  0.00     0.010 A 
ATOM     84  C   UNL A   1      46.408  31.466  28.191  1.00  0.00     0.010 A 
ATOM     85  C   UNL A   1      44.335  32.550  26.661  1.00  0.00     0.020 A 
ATOM     86  C   UNL A   1      46.650  32.576  27.383  1.00  0.00     0.020 A 
ATOM     87  C   UNL A   1      45.613  33.117  26.621  1.00  0.00     0.054 A 
BRANCH  87  88
ATOM     88  S   UNL A   1      45.927  34.578  25.586  1.00  0.00     0.124 S 
ATOM     89  O   UNL A   1      47.360  34.483  25.319  1.00  0.00    -0.237 OA
ATOM     90  O   UNL A   1      45.056  34.350  24.436  1.00  0.00    -0.237 OA
ATOM     91  O   UNL A   1      45.535  35.701  26.438  1.00  0.00    -0.744 OA
ENDBRANCH  87  88
ENDBRANCH  61  82
ENDBRANCH  35  36
ENDBRANCH  28  30
ENDBRANCH  27  28
ENDBRANCH  26  27
ENDBRANCH  25  26
ENDBRANCH   1  25
TORSDOF 20
ENDMDL
MODEL 2
REMARK VINA RESULT:     -12.4      1.318      3.084
REMARK SMILES Cc1ccc(-c2cc3cccnc3n2CCC(=O)OCCOCCOC(=O)c2ccc(-c3c4nc(c(-c5ccc(S(=O)(=O)[O-])cc5)c5ccc([nH]5)c(-c5ccc(S(=O)(=O)[O-])cc5)c5nc(c(-c6ccc(S(=O)(=O)[O-])cc6)c6ccc3[nH]6)C=C5)C=C4)cc2)cn1
REMARK SMILES IDX 22 1 21 2 20 3 19 4 17 5 18 6 16 7 15 8 14 9 6 10 7 11 8 12
REMARK SMILES IDX 13 13 9 14 12 15 10 16 11 17 5 18 1 19 2 20 3 21 89 22 4 23
REMARK SMILES IDX 88 24 23 25 24 26 25 27 26 28 27 29 28 30 29 31 87 32 30 33
REMARK SMILES IDX 86 34 31 35 32 36 33 37 80 38 34 39 85 40 79 41 81 42 35 43
REMARK SMILES IDX 84 44 78 45 77 46 36 48 66 49 47 50 65 51 48 52 51 53 64 54
REMARK SMILES IDX 82 55 49 56 50 57 63 59 83 60 52 61 37 62 38 63 46 64 39 65
REMARK SMILES IDX 45 66 40 67 41 68 42 69 43 70 44 71 67 72 68 73 76 74 69 75
REMARK SMILES IDX 75 76 70 77 71 78 72 79 73 80 74 81 53 82 54 83 62 84 55 85
REMARK SMILES IDX 61 86 56 87 57 88 58 89 59 90 60 91
REMARK H PARENT 81 47 51 58
REMARK Flexibility Score: inf
ROOT
ATOM      1  O   UNL A   1      35.281  33.723  28.845  1.00  0.00    -0.374 OA
ENDROOT
BRANCH   1   2
ATOM      2  C   UNL A   1      34.303  32.920  27.817  1.00  0.00     0.202 C 
BRANCH   2   3
ATOM      3  C   UNL A   1      33.949  30.774  27.638  1.00  0.00     0.261 C 
BRANCH   3   4
ATOM      4  O   UNL A   1      32.506  30.071  27.014  1.00  0.00    -0.463 OA
BRANCH   4   5
ATOM      5  C   UNL A   1      32.439  29.169  25.995  1.00  0.00     0.307 C 
ATOM      6  O   UNL A   1      32.657  29.484  24.827  1.00  0.00    -0.252 OA
BRANCH   5   7
ATOM      7  C   UNL A   1      32.134  27.685  26.386  1.00  0.00     0.144 C 
BRANCH   7   8
ATOM      8  C   UNL A   1      30.748  26.998  26.328  1.00  0.00     0.136 C 
BRANCH   8   9
ATOM      9  N   UNL A   1      30.704  25.781  25.560  1.00  0.00    -0.325 N 
ATOM     10  C   UNL A   1      30.138  25.685  24.317  1.00  0.00     0.052 A 
ATOM     11  C   UNL A   1      30.542  24.456  23.806  1.00  0.00     0.039 A 
ATOM     12  C   UNL A   1      31.242  23.755  24.808  1.00  0.00     0.020 A 
ATOM     13  C   UNL A   1      31.262  24.578  25.927  1.00  0.00     0.140 A 
ATOM     14  C   UNL A   1      31.878  22.508  24.879  1.00  0.00     0.013 A 
ATOM     15  N   UNL A   1      31.787  24.274  27.131  1.00  0.00    -0.238 NA
ATOM     16  C   UNL A   1      32.425  22.144  26.104  1.00  0.00     0.021 A 
ATOM     17  C   UNL A   1      32.328  23.031  27.170  1.00  0.00     0.113 A 
BRANCH  10  18
ATOM     18  C   UNL A   1      29.494  26.779  23.588  1.00  0.00     0.017 A 
ATOM     19  C   UNL A   1      28.101  30.751  20.946  1.00  0.00     0.066 C 
ATOM     20  C   UNL A   1      28.529  29.893  22.109  1.00  0.00     0.037 A 
ATOM     21  C   UNL A   1      27.302  29.012  23.048  1.00  0.00     0.024 A 
ATOM     22  N   UNL A   1      30.155  29.294  21.953  1.00  0.00    -0.261 NA
ATOM     23  C   UNL A   1      27.781  27.417  23.772  1.00  0.00     0.014 A 
ATOM     24  C   UNL A   1      30.622  27.776  22.649  1.00  0.00     0.121 A 
ENDBRANCH  10  18
ENDBRANCH   8   9
ENDBRANCH   7   8
ENDBRANCH   5   7
ENDBRANCH   4   5
ENDBRANCH   3   4
ENDBRANCH   2   3
ENDBRANCH   1   2
BRANCH   1  25
ATOM     25  C   UNL A   1      34.935  33.853  30.244  1.00  0.00     0.202 C 
BRANCH  25  26
ATOM     26  C   UNL A   1      34.808  32.588  31.076  1.00  0.00     0.261 C 
BRANCH  26  27
ATOM     27  O   UNL A   1      36.075  32.212  31.559  1.00  0.00    -0.460 OA
BRANCH  27  28
ATOM     28  C   UNL A   1      36.376  30.901  31.392  1.00  0.00     0.338 C 
ATOM     29  O   UNL A   1      36.204  29.992  32.180  1.00  0.00    -0.246 OA
BRANCH  28  30
ATOM     30  C   UNL A   1      37.005  30.792  30.058  1.00  0.00     0.060 A 
ATOM     31  C   UNL A   1      36.849  29.548  29.469  1.00  0.00     0.016 A 
ATOM     32  C   UNL A   1      38.120  31.612  29.812  1.00  0.00     0.016 A 
ATOM     33  C   UNL A   1      38.015  28.918  29.130  1.00  0.00     0.010 A 
ATOM     34  C   UNL A   1      39.282  30.986  29.493  1.00  0.00     0.010 A 
ATOM     35  C   UNL A   1      39.215  29.614  29.329  1.00  0.00    -0.014 A 
BRANCH  35  36
ATOM     36  C   UNL A   1      40.450  28.885  29.313  1.00  0.00     0.031 A 
ATOM     37  C   UNL A   1      40.940  28.723  30.685  1.00  0.00     0.074 A 
ATOM     38  C   UNL A   1      41.014  28.425  28.182  1.00  0.00     0.049 A 
ATOM     39  N   UNL A   1      41.745  29.533  31.281  1.00  0.00    -0.248 NA
ATOM     40  C   UNL A   1      40.230  27.797  31.584  1.00  0.00     0.031 C 
ATOM     41  C   UNL A   1      40.499  28.359  26.811  1.00  0.00     0.029 A 
ATOM     42  N   UNL A   1      42.239  27.862  28.057  1.00  0.00    -0.354 N 
ATOM     43  C   UNL A   1      41.865  29.033  32.561  1.00  0.00     0.074 A 
ATOM     44  C   UNL A   1      40.736  28.161  32.764  1.00  0.00     0.031 C 
ATOM     45  C   UNL A   1      41.320  27.583  26.056  1.00  0.00     0.029 A 
ATOM     46  C   UNL A   1      42.491  27.233  26.843  1.00  0.00     0.049 A 
ATOM     47  H   UNL A   1      42.907  27.895  28.779  1.00  0.00     0.167 HD
ATOM     48  C   UNL A   1      43.056  29.104  33.209  1.00  0.00     0.031 A 
ATOM     49  C   UNL A   1      43.586  26.471  26.565  1.00  0.00     0.031 A 
ATOM     50  C   UNL A   1      43.954  30.034  32.569  1.00  0.00     0.049 A 
ATOM     51  C   UNL A   1      44.637  26.907  27.531  1.00  0.00     0.074 A 
ATOM     52  C   UNL A   1      43.909  31.390  32.312  1.00  0.00     0.029 A 
ATOM     53  N   UNL A   1      44.857  29.501  31.673  1.00  0.00    -0.354 N 
ATOM     54  N   UNL A   1      45.156  28.106  27.511  1.00  0.00    -0.248 NA
ATOM     55  C   UNL A   1      44.706  26.217  28.812  1.00  0.00     0.031 C 
ATOM     56  C   UNL A   1      44.433  31.535  30.993  1.00  0.00     0.029 A 
ATOM     57  C   UNL A   1      44.856  30.284  30.543  1.00  0.00     0.049 A 
ATOM     58  H   UNL A   1      45.407  28.698  31.818  1.00  0.00     0.167 HD
ATOM     59  C   UNL A   1      45.227  28.487  28.845  1.00  0.00     0.074 A 
ATOM     60  C   UNL A   1      44.982  27.258  29.605  1.00  0.00     0.031 C 
ATOM     61  C   UNL A   1      45.170  29.802  29.213  1.00  0.00     0.031 A 
BRANCH  48  62
ATOM     62  C   UNL A   1      43.526  28.002  34.111  1.00  0.00    -0.014 A 
ATOM     63  C   UNL A   1      44.334  28.323  35.212  1.00  0.00     0.010 A 
ATOM     64  C   UNL A   1      43.409  26.638  33.763  1.00  0.00     0.010 A 
ATOM     65  C   UNL A   1      45.012  27.320  35.916  1.00  0.00     0.020 A 
ATOM     66  C   UNL A   1      44.042  25.631  34.482  1.00  0.00     0.020 A 
ATOM     67  C   UNL A   1      44.859  25.981  35.546  1.00  0.00     0.054 A 
BRANCH  67  68
ATOM     68  S   UNL A   1      45.802  24.708  36.412  1.00  0.00     0.124 S 
ATOM     69  O   UNL A   1      44.809  24.168  37.336  1.00  0.00    -0.237 OA
ATOM     70  O   UNL A   1      46.196  23.827  35.316  1.00  0.00    -0.237 OA
ATOM     71  O   UNL A   1      46.894  25.452  37.034  1.00  0.00    -0.744 OA
ENDBRANCH  67  68
ENDBRANCH  48  62
BRANCH  49  72
ATOM     72  C   UNL A   1      43.617  25.123  25.920  1.00  0.00    -0.014 A 
ATOM     73  C   UNL A   1      44.603  24.806  24.958  1.00  0.00     0.010 A 
ATOM     74  C   UNL A   1      42.883  24.049  26.462  1.00  0.00     0.010 A 
ATOM     75  C   UNL A   1      44.906  23.471  24.630  1.00  0.00     0.020 A 
ATOM     76  C   UNL A   1      43.176  22.715  26.136  1.00  0.00     0.020 A 
ATOM     77  C   UNL A   1      44.212  22.430  25.249  1.00  0.00     0.054 A 
BRANCH  77  78
ATOM     78  S   UNL A   1      44.736  20.708  24.972  1.00  0.00     0.124 S 
ATOM     79  O   UNL A   1      44.602  20.564  23.525  1.00  0.00    -0.237 OA
ATOM     80  O   UNL A   1      46.103  20.713  25.484  1.00  0.00    -0.237 OA
ATOM     81  O   UNL A   1      43.784  19.927  25.761  1.00  0.00    -0.744 OA
ENDBRANCH  77  78
ENDBRANCH  49  72
BRANCH  61  82
ATOM     82  C   UNL A   1      45.275  30.860  28.135  1.00  0.00    -0.014 A 
ATOM     83  C   UNL A   1      44.180  31.377  27.412  1.00  0.00     0.010 A 
ATOM     84  C   UNL A   1      46.523  31.490  27.999  1.00  0.00     0.010 A 
ATOM     85  C   UNL A   1      44.340  32.498  26.574  1.00  0.00     0.020 A 
ATOM     86  C   UNL A   1      46.685  32.610  27.183  1.00  0.00     0.020 A 
ATOM     87  C   UNL A   1      45.593  33.112  26.473  1.00  0.00     0.054 A 
BRANCH  87  88
ATOM     88  S   UNL A   1      45.802  34.586  25.429  1.00  0.00     0.124 S 
ATOM     89  O   UNL A   1      47.239  34.594  25.167  1.00  0.00    -0.237 OA
ATOM     90  O   UNL A   1      44.954  34.285  24.279  1.00  0.00    -0.237 OA
ATOM     91  O   UNL A   1      45.325  35.682  26.272  1.00  0.00    -0.744 OA
ENDBRANCH  87  88
ENDBRANCH  61  82
ENDBRANCH  35  36
ENDBRANCH  28  30
ENDBRANCH  27  28
ENDBRANCH  26  27
ENDBRANCH  25  26
ENDBRANCH   1  25
TORSDOF 20
ENDMDL
MODEL 3
REMARK VINA RESULT:     -12.3      1.785      3.478
REMARK SMILES Cc1ccc(-c2cc3cccnc3n2CCC(=O)OCCOCCOC(=O)c2ccc(-c3c4nc(c(-c5ccc(S(=O)(=O)[O-])cc5)c5ccc([nH]5)c(-c5ccc(S(=O)(=O)[O-])cc5)c5nc(c(-c6ccc(S(=O)(=O)[O-])cc6)c6ccc3[nH]6)C=C5)C=C4)cc2)cn1
REMARK SMILES IDX 22 1 21 2 20 3 19 4 17 5 18 6 16 7 15 8 14 9 6 10 7 11 8 12
REMARK SMILES IDX 13 13 9 14 12 15 10 16 11 17 5 18 1 19 2 20 3 21 89 22 4 23
REMARK SMILES IDX 88 24 23 25 24 26 25 27 26 28 27 29 28 30 29 31 87 32 30 33
REMARK SMILES IDX 86 34 31 35 32 36 33 37 80 38 34 39 85 40 79 41 81 42 35 43
REMARK SMILES IDX 84 44 78 45 77 46 36 48 66 49 47 50 65 51 48 52 51 53 64 54
REMARK SMILES IDX 82 55 49 56 50 57 63 59 83 60 52 61 37 62 38 63 46 64 39 65
REMARK SMILES IDX 45 66 40 67 41 68 42 69 43 70 44 71 67 72 68 73 76 74 69 75
REMARK SMILES IDX 75 76 70 77 71 78 72 79 73 80 74 81 53 82 54 83 62 84 55 85
REMARK SMILES IDX 61 86 56 87 57 88 58 89 59 90 60 91
REMARK H PARENT 81 47 51 58
REMARK Flexibility Score: inf
ROOT
ATOM      1  O   UNL A   1      32.316  33.852  27.851  1.00  0.00    -0.374 OA
ENDROOT
BRANCH   1   2
ATOM      2  C   UNL A   1      32.113  32.575  26.859  1.00  0.00     0.202 C 
BRANCH   2   3
ATOM      3  C   UNL A   1      32.710  30.495  27.141  1.00  0.00     0.261 C 
BRANCH   3   4
ATOM      4  O   UNL A   1      31.893  29.143  26.456  1.00  0.00    -0.463 OA
BRANCH   4   5
ATOM      5  C   UNL A   1      31.579  27.990  27.111  1.00  0.00     0.307 C 
ATOM      6  O   UNL A   1      31.048  27.990  28.219  1.00  0.00    -0.252 OA
BRANCH   5   7
ATOM      7  C   UNL A   1      31.865  26.650  26.354  1.00  0.00     0.144 C 
BRANCH   7   8
ATOM      8  C   UNL A   1      30.919  25.425  26.292  1.00  0.00     0.136 C 
BRANCH   8   9
ATOM      9  N   UNL A   1      30.953  24.695  25.051  1.00  0.00    -0.325 N 
ATOM     10  C   UNL A   1      30.565  25.220  23.847  1.00  0.00     0.052 A 
ATOM     11  C   UNL A   1      31.006  24.324  22.879  1.00  0.00     0.039 A 
ATOM     12  C   UNL A   1      31.539  23.188  23.519  1.00  0.00     0.020 A 
ATOM     13  C   UNL A   1      31.422  23.412  24.885  1.00  0.00     0.140 A 
ATOM     14  C   UNL A   1      32.126  21.994  23.080  1.00  0.00     0.013 A 
ATOM     15  N   UNL A   1      31.765  22.553  25.866  1.00  0.00    -0.238 NA
ATOM     16  C   UNL A   1      32.485  21.069  24.055  1.00  0.00     0.021 A 
ATOM     17  C   UNL A   1      32.262  21.384  25.390  1.00  0.00     0.113 A 
BRANCH  10  18
ATOM     18  C   UNL A   1      30.059  26.578  23.634  1.00  0.00     0.017 A 
ATOM     19  C   UNL A   1      27.570  30.827  22.965  1.00  0.00     0.066 C 
ATOM     20  C   UNL A   1      28.257  29.518  22.673  1.00  0.00     0.037 A 
ATOM     21  C   UNL A   1      30.011  29.493  22.378  1.00  0.00     0.024 A 
ATOM     22  N   UNL A   1      27.433  28.146  23.356  1.00  0.00    -0.261 NA
ATOM     23  C   UNL A   1      30.931  28.015  22.896  1.00  0.00     0.014 A 
ATOM     24  C   UNL A   1      28.303  26.729  23.843  1.00  0.00     0.121 A 
ENDBRANCH  10  18
ENDBRANCH   8   9
ENDBRANCH   7   8
ENDBRANCH   5   7
ENDBRANCH   4   5
ENDBRANCH   3   4
ENDBRANCH   2   3
ENDBRANCH   1   2
BRANCH   1  25
ATOM     25  C   UNL A   1      33.580  34.074  28.519  1.00  0.00     0.202 C 
BRANCH  25  26
ATOM     26  C   UNL A   1      34.819  33.393  27.964  1.00  0.00     0.261 C 
BRANCH  26  27
ATOM     27  O   UNL A   1      35.567  32.841  29.020  1.00  0.00    -0.460 OA
BRANCH  27  28
ATOM     28  C   UNL A   1      36.107  31.626  28.753  1.00  0.00     0.338 C 
ATOM     29  O   UNL A   1      36.106  31.028  27.695  1.00  0.00    -0.246 OA
BRANCH  28  30
ATOM     30  C   UNL A   1      36.669  31.138  30.030  1.00  0.00     0.060 A 
ATOM     31  C   UNL A   1      37.865  31.744  30.380  1.00  0.00     0.016 A 
ATOM     32  C   UNL A   1      36.351  29.820  30.404  1.00  0.00     0.016 A 
ATOM     33  C   UNL A   1      38.914  30.888  30.572  1.00  0.00     0.010 A 
ATOM     34  C   UNL A   1      37.392  28.965  30.577  1.00  0.00     0.010 A 
ATOM     35  C   UNL A   1      38.659  29.512  30.483  1.00  0.00    -0.014 A 
BRANCH  35  36
ATOM     36  C   UNL A   1      39.764  28.610  30.339  1.00  0.00     0.031 A 
ATOM     37  C   UNL A   1      40.400  28.404  31.643  1.00  0.00     0.074 A 
ATOM     38  C   UNL A   1      40.104  28.053  29.163  1.00  0.00     0.049 A 
ATOM     39  N   UNL A   1      41.383  29.098  32.102  1.00  0.00    -0.248 NA
ATOM     40  C   UNL A   1      39.689  27.608  32.658  1.00  0.00     0.031 C 
ATOM     41  C   UNL A   1      39.411  28.038  27.872  1.00  0.00     0.029 A 
ATOM     42  N   UNL A   1      41.209  27.314  28.905  1.00  0.00    -0.354 N 
ATOM     43  C   UNL A   1      41.597  28.609  33.374  1.00  0.00     0.074 A 
ATOM     44  C   UNL A   1      40.391  27.915  33.750  1.00  0.00     0.031 C 
ATOM     45  C   UNL A   1      40.007  27.136  27.048  1.00  0.00     0.029 A 
ATOM     46  C   UNL A   1      41.209  26.633  27.693  1.00  0.00     0.049 A 
ATOM     47  H   UNL A   1      41.964  27.263  29.535  1.00  0.00     0.167 HD
ATOM     48  C   UNL A   1      42.860  28.516  33.863  1.00  0.00     0.031 A 
ATOM     49  C   UNL A   1      42.138  25.714  27.307  1.00  0.00     0.031 A 
ATOM     50  C   UNL A   1      43.790  29.293  33.081  1.00  0.00     0.049 A 
ATOM     51  C   UNL A   1      43.358  26.010  28.116  1.00  0.00     0.074 A 
ATOM     52  C   UNL A   1      43.907  30.636  32.782  1.00  0.00     0.029 A 
ATOM     53  N   UNL A   1      44.484  28.618  32.098  1.00  0.00    -0.354 N 
ATOM     54  N   UNL A   1      44.035  27.120  27.986  1.00  0.00    -0.248 NA
ATOM     55  C   UNL A   1      43.494  25.341  29.402  1.00  0.00     0.031 C 
ATOM     56  C   UNL A   1      44.269  30.680  31.403  1.00  0.00     0.029 A 
ATOM     57  C   UNL A   1      44.447  29.372  30.950  1.00  0.00     0.049 A 
ATOM     58  H   UNL A   1      44.928  27.746  32.202  1.00  0.00     0.167 HD
ATOM     59  C   UNL A   1      44.333  27.510  29.285  1.00  0.00     0.074 A 
ATOM     60  C   UNL A   1      44.017  26.344  30.115  1.00  0.00     0.031 C 
ATOM     61  C   UNL A   1      44.513  28.825  29.609  1.00  0.00     0.031 A 
BRANCH  48  62
ATOM     62  C   UNL A   1      43.281  27.374  34.739  1.00  0.00    -0.014 A 
ATOM     63  C   UNL A   1      43.855  27.651  35.989  1.00  0.00     0.010 A 
ATOM     64  C   UNL A   1      43.366  26.047  34.262  1.00  0.00     0.010 A 
ATOM     65  C   UNL A   1      44.504  26.645  36.715  1.00  0.00     0.020 A 
ATOM     66  C   UNL A   1      43.969  25.031  34.995  1.00  0.00     0.020 A 
ATOM     67  C   UNL A   1      44.554  25.343  36.212  1.00  0.00     0.054 A 
BRANCH  67  68
ATOM     68  S   UNL A   1      45.463  24.075  37.122  1.00  0.00     0.124 S 
ATOM     69  O   UNL A   1      46.845  24.517  36.966  1.00  0.00    -0.237 OA
ATOM     70  O   UNL A   1      44.901  24.208  38.464  1.00  0.00    -0.237 OA
ATOM     71  O   UNL A   1      45.120  22.838  36.426  1.00  0.00    -0.744 OA
ENDBRANCH  67  68
ENDBRANCH  48  62
BRANCH  49  72
ATOM     72  C   UNL A   1      41.893  24.365  26.713  1.00  0.00    -0.014 A 
ATOM     73  C   UNL A   1      42.943  23.645  26.100  1.00  0.00     0.010 A 
ATOM     74  C   UNL A   1      40.716  23.650  27.015  1.00  0.00     0.010 A 
ATOM     75  C   UNL A   1      42.855  22.255  25.890  1.00  0.00     0.020 A 
ATOM     76  C   UNL A   1      40.620  22.265  26.804  1.00  0.00     0.020 A 
ATOM     77  C   UNL A   1      41.704  21.567  26.277  1.00  0.00     0.054 A 
BRANCH  77  78
ATOM     78  S   UNL A   1      41.669  19.748  26.187  1.00  0.00     0.124 S 
ATOM     79  O   UNL A   1      40.263  19.471  25.905  1.00  0.00    -0.237 OA
ATOM     80  O   UNL A   1      42.599  19.473  25.095  1.00  0.00    -0.237 OA
ATOM     81  O   UNL A   1      42.128  19.329  27.510  1.00  0.00    -0.744 OA
ENDBRANCH  77  78
ENDBRANCH  49  72
BRANCH  61  82
ATOM     82  C   UNL A   1      44.627  29.837  28.489  1.00  0.00    -0.014 A 
ATOM     83  C   UNL A   1      43.628  30.074  27.520  1.00  0.00     0.010 A 
ATOM     84  C   UNL A   1      45.719  30.718  28.551  1.00  0.00     0.010 A 
ATOM     85  C   UNL A   1      43.730  31.169  26.639  1.00  0.00     0.020 A 
ATOM     86  C   UNL A   1      45.818  31.813  27.692  1.00  0.00     0.020 A 
ATOM     87  C   UNL A   1      44.823  32.036  26.739  1.00  0.00     0.054 A 
BRANCH  87  88
ATOM     88  S   UNL A   1      44.944  33.477  25.637  1.00  0.00     0.124 S 
ATOM     89  O   UNL A   1      46.385  33.707  25.563  1.00  0.00    -0.237 OA
ATOM     90  O   UNL A   1      44.320  32.993  24.408  1.00  0.00    -0.237 OA
ATOM     91  O   UNL A   1      44.191  34.517  26.338  1.00  0.00    -0.744 OA
ENDBRANCH  87  88
ENDBRANCH  61  82
ENDBRANCH  35  36
ENDBRANCH  28  30
ENDBRANCH  27  28
ENDBRANCH  26  27
ENDBRANCH  25  26
ENDBRANCH   1  25
TORSDOF 20
ENDMDL
