MODEL 1
REMARK VINA RESULT:     -11.1      0.000      0.000
REMARK SMILES Cc1cccc(-c2cc(C(=O)OCCOCCOC(=O)c3ccc(-c4c5nc(c(-c6ccc(S(=O)(=O)[O-])cc6)c6ccc([nH]6)c(-c6ccc(S(=O)(=O)[O-])cc6)c6nc(c(-c7ccc(S(=O)(=O)[O-])cc7)c7ccc4[nH]7)C=C6)C=C5)cc3)ccn2)c1
REMARK SMILES IDX 16 1 15 2 14 3 13 4 12 5 10 6 11 7 9 8 7 9 8 10 83 11 82 12
REMARK SMILES IDX 81 13 6 14 1 15 2 16 3 17 84 18 4 19 5 20 17 21 18 22 19 23
REMARK SMILES IDX 20 24 21 25 22 26 80 27 23 28 79 29 24 30 25 31 26 32 73 33
REMARK SMILES IDX 27 34 78 35 72 36 74 37 28 38 77 39 71 40 70 41 29 43 59 44
REMARK SMILES IDX 40 45 58 46 41 47 44 48 57 49 75 50 42 51 43 52 56 54 76 55
REMARK SMILES IDX 45 56 30 57 31 58 39 59 32 60 38 61 33 62 34 63 35 64 36 65
REMARK SMILES IDX 37 66 60 67 61 68 69 69 62 70 68 71 63 72 64 73 65 74 66 75
REMARK SMILES IDX 67 76 46 77 47 78 55 79 48 80 54 81 49 82 50 83 51 84 52 85
REMARK SMILES IDX 53 86
REMARK H PARENT 74 42 44 53
REMARK Flexibility Score: inf
ROOT
ATOM      1  C   UNL A   1      36.250  20.588  25.312  1.00  0.00     0.202 C 
ENDROOT
BRANCH   1   2
ATOM      2  O   UNL A   1      35.016  21.135  24.927  1.00  0.00    -0.374 OA
BRANCH   2   3
ATOM      3  C   UNL A   1      34.221  21.689  25.961  1.00  0.00     0.202 C 
BRANCH   3   4
ATOM      4  C   UNL A   1      33.254  22.585  25.258  1.00  0.00     0.261 C 
BRANCH   4   5
ATOM      5  O   UNL A   1      33.903  23.750  24.691  1.00  0.00    -0.460 OA
BRANCH   5   6
ATOM      6  C   UNL A   1      33.836  24.201  23.410  1.00  0.00     0.338 C 
ATOM      7  O   UNL A   1      34.285  23.750  22.385  1.00  0.00    -0.246 OA
BRANCH   6   8
ATOM      8  C   UNL A   1      32.935  25.375  23.470  1.00  0.00     0.063 A 
ATOM      9  C   UNL A   1      32.275  27.365  24.628  1.00  0.00     0.071 A 
ATOM     10  C   UNL A   1      33.217  26.390  24.373  1.00  0.00     0.044 A 
ATOM     11  N   UNL A   1      31.079  27.391  23.999  1.00  0.00    -0.256 NA
ATOM     12  C   UNL A   1      30.861  26.432  23.058  1.00  0.00     0.112 A 
ATOM     13  C   UNL A   1      31.748  25.411  22.754  1.00  0.00     0.036 A 
BRANCH   9  14
ATOM     14  C   UNL A   1      32.593  28.350  25.663  1.00  0.00     0.000 A 
ATOM     15  C   UNL A   1      31.384  31.859  26.557  1.00  0.00     0.044 C 
ATOM     16  C   UNL A   1      32.205  30.606  26.545  1.00  0.00    -0.050 A 
ATOM     17  C   UNL A   1      33.367  30.490  27.311  1.00  0.00     0.003 A 
ATOM     18  C   UNL A   1      31.819  29.525  25.751  1.00  0.00     0.013 A 
ATOM     19  C   UNL A   1      34.138  29.324  27.257  1.00  0.00     0.001 A 
ATOM     20  C   UNL A   1      33.755  28.260  26.436  1.00  0.00     0.010 A 
ENDBRANCH   9  14
ENDBRANCH   6   8
ENDBRANCH   5   6
ENDBRANCH   4   5
ENDBRANCH   3   4
ENDBRANCH   2   3
ENDBRANCH   1   2
BRANCH   1  21
ATOM     21  C   UNL A   1      37.411  21.332  24.661  1.00  0.00     0.261 C 
BRANCH  21  22
ATOM     22  O   UNL A   1      38.148  22.104  25.637  1.00  0.00    -0.460 OA
BRANCH  22  23
ATOM     23  C   UNL A   1      37.901  23.451  25.648  1.00  0.00     0.338 C 
ATOM     24  O   UNL A   1      36.969  23.971  25.061  1.00  0.00    -0.246 OA
BRANCH  23  25
ATOM     25  C   UNL A   1      38.920  24.169  26.471  1.00  0.00     0.060 A 
ATOM     26  C   UNL A   1      38.807  24.260  27.872  1.00  0.00     0.016 A 
ATOM     27  C   UNL A   1      39.855  24.952  25.804  1.00  0.00     0.016 A 
ATOM     28  C   UNL A   1      39.519  25.248  28.582  1.00  0.00     0.010 A 
ATOM     29  C   UNL A   1      40.439  25.997  26.481  1.00  0.00     0.010 A 
ATOM     30  C   UNL A   1      40.276  26.171  27.869  1.00  0.00    -0.014 A 
BRANCH  30  31
ATOM     31  C   UNL A   1      40.956  27.372  28.373  1.00  0.00     0.031 A 
ATOM     32  C   UNL A   1      40.093  28.549  28.648  1.00  0.00     0.074 A 
ATOM     33  C   UNL A   1      42.182  27.288  28.949  1.00  0.00     0.049 A 
ATOM     34  N   UNL A   1      40.510  29.646  29.167  1.00  0.00    -0.248 NA
ATOM     35  C   UNL A   1      38.658  28.589  28.354  1.00  0.00     0.031 C 
ATOM     36  C   UNL A   1      42.712  28.052  30.082  1.00  0.00     0.029 A 
ATOM     37  N   UNL A   1      43.251  26.456  28.626  1.00  0.00    -0.354 N 
ATOM     38  C   UNL A   1      39.412  30.346  29.607  1.00  0.00     0.074 A 
ATOM     39  C   UNL A   1      38.282  29.703  28.991  1.00  0.00     0.031 C 
ATOM     40  C   UNL A   1      44.038  27.844  30.197  1.00  0.00     0.029 A 
ATOM     41  C   UNL A   1      44.449  27.040  29.058  1.00  0.00     0.049 A 
ATOM     42  H   UNL A   1      43.176  25.590  28.165  1.00  0.00     0.167 HD
ATOM     43  C   UNL A   1      39.611  31.304  30.555  1.00  0.00     0.031 A 
ATOM     44  C   UNL A   1      45.431  27.313  28.157  1.00  0.00     0.031 A 
ATOM     45  C   UNL A   1      41.050  31.516  30.771  1.00  0.00     0.049 A 
ATOM     46  C   UNL A   1      45.517  28.811  28.040  1.00  0.00     0.074 A 
ATOM     47  C   UNL A   1      41.925  31.167  31.785  1.00  0.00     0.029 A 
ATOM     48  N   UNL A   1      41.840  31.857  29.673  1.00  0.00    -0.354 N 
ATOM     49  N   UNL A   1      44.517  29.594  28.349  1.00  0.00    -0.248 NA
ATOM     50  C   UNL A   1      46.735  29.553  27.732  1.00  0.00     0.031 C 
ATOM     51  C   UNL A   1      43.246  31.199  31.244  1.00  0.00     0.029 A 
ATOM     52  C   UNL A   1      43.175  31.596  29.915  1.00  0.00     0.049 A 
ATOM     53  H   UNL A   1      41.492  32.235  28.834  1.00  0.00     0.167 HD
ATOM     54  C   UNL A   1      44.952  30.877  28.425  1.00  0.00     0.074 A 
ATOM     55  C   UNL A   1      46.332  30.816  27.967  1.00  0.00     0.031 C 
ATOM     56  C   UNL A   1      44.182  31.896  28.900  1.00  0.00     0.031 A 
BRANCH  43  57
ATOM     57  C   UNL A   1      38.530  31.910  31.427  1.00  0.00    -0.014 A 
ATOM     58  C   UNL A   1      38.461  33.313  31.555  1.00  0.00     0.010 A 
ATOM     59  C   UNL A   1      37.591  31.180  32.184  1.00  0.00     0.010 A 
ATOM     60  C   UNL A   1      37.527  33.945  32.392  1.00  0.00     0.020 A 
ATOM     61  C   UNL A   1      36.648  31.798  33.024  1.00  0.00     0.020 A 
ATOM     62  C   UNL A   1      36.623  33.182  33.124  1.00  0.00     0.054 A 
BRANCH  62  63
ATOM     63  S   UNL A   1      35.414  34.016  34.185  1.00  0.00     0.124 S 
ATOM     64  O   UNL A   1      35.556  35.413  33.782  1.00  0.00    -0.237 OA
ATOM     65  O   UNL A   1      34.162  33.373  33.801  1.00  0.00    -0.237 OA
ATOM     66  O   UNL A   1      35.874  33.715  35.540  1.00  0.00    -0.744 OA
ENDBRANCH  62  63
ENDBRANCH  43  57
BRANCH  44  67
ATOM     67  C   UNL A   1      45.535  26.250  27.097  1.00  0.00    -0.014 A 
ATOM     68  C   UNL A   1      45.922  24.957  27.536  1.00  0.00     0.010 A 
ATOM     69  C   UNL A   1      44.777  26.339  25.913  1.00  0.00     0.010 A 
ATOM     70  C   UNL A   1      45.417  23.796  26.923  1.00  0.00     0.020 A 
ATOM     71  C   UNL A   1      44.255  25.177  25.309  1.00  0.00     0.020 A 
ATOM     72  C   UNL A   1      44.535  23.916  25.848  1.00  0.00     0.054 A 
BRANCH  72  73
ATOM     73  S   UNL A   1      43.536  22.460  25.357  1.00  0.00     0.124 S 
ATOM     74  O   UNL A   1      44.330  21.349  25.864  1.00  0.00    -0.237 OA
ATOM     75  O   UNL A   1      42.263  22.682  26.044  1.00  0.00    -0.237 OA
ATOM     76  O   UNL A   1      43.462  22.584  23.904  1.00  0.00    -0.744 OA
ENDBRANCH  72  73
ENDBRANCH  44  67
BRANCH  56  77
ATOM     77  C   UNL A   1      44.381  33.317  28.465  1.00  0.00    -0.014 A 
ATOM     78  C   UNL A   1      43.920  33.799  27.230  1.00  0.00     0.010 A 
ATOM     79  C   UNL A   1      44.887  34.261  29.386  1.00  0.00     0.010 A 
ATOM     80  C   UNL A   1      44.058  35.141  26.885  1.00  0.00     0.020 A 
ATOM     81  C   UNL A   1      44.963  35.617  29.078  1.00  0.00     0.020 A 
ATOM     82  C   UNL A   1      44.587  36.039  27.809  1.00  0.00     0.054 A 
BRANCH  82  83
ATOM     83  S   UNL A   1      44.757  37.769  27.335  1.00  0.00     0.124 S 
ATOM     84  O   UNL A   1      45.904  37.713  26.432  1.00  0.00    -0.237 OA
ATOM     85  O   UNL A   1      43.474  38.058  26.701  1.00  0.00    -0.237 OA
ATOM     86  O   UNL A   1      44.989  38.453  28.604  1.00  0.00    -0.744 OA
ENDBRANCH  82  83
ENDBRANCH  56  77
ENDBRANCH  30  31
ENDBRANCH  23  25
ENDBRANCH  22  23
ENDBRANCH  21  22
ENDBRANCH   1  21
TORSDOF 18
ENDMDL
MODEL 2
REMARK VINA RESULT:     -10.9      1.213      2.042
REMARK SMILES Cc1cccc(-c2cc(C(=O)OCCOCCOC(=O)c3ccc(-c4c5nc(c(-c6ccc(S(=O)(=O)[O-])cc6)c6ccc([nH]6)c(-c6ccc(S(=O)(=O)[O-])cc6)c6nc(c(-c7ccc(S(=O)(=O)[O-])cc7)c7ccc4[nH]7)C=C6)C=C5)cc3)ccn2)c1
REMARK SMILES IDX 16 1 15 2 14 3 13 4 12 5 10 6 11 7 9 8 7 9 8 10 83 11 82 12
REMARK SMILES IDX 81 13 6 14 1 15 2 16 3 17 84 18 4 19 5 20 17 21 18 22 19 23
REMARK SMILES IDX 20 24 21 25 22 26 80 27 23 28 79 29 24 30 25 31 26 32 73 33
REMARK SMILES IDX 27 34 78 35 72 36 74 37 28 38 77 39 71 40 70 41 29 43 59 44
REMARK SMILES IDX 40 45 58 46 41 47 44 48 57 49 75 50 42 51 43 52 56 54 76 55
REMARK SMILES IDX 45 56 30 57 31 58 39 59 32 60 38 61 33 62 34 63 35 64 36 65
REMARK SMILES IDX 37 66 60 67 61 68 69 69 62 70 68 71 63 72 64 73 65 74 66 75
REMARK SMILES IDX 67 76 46 77 47 78 55 79 48 80 54 81 49 82 50 83 51 84 52 85
REMARK SMILES IDX 53 86
REMARK H PARENT 74 42 44 53
REMARK Flexibility Score: inf
ROOT
ATOM      1  C   UNL A   1      35.599  21.367  25.729  1.00  0.00     0.202 C 
ENDROOT
BRANCH   1   2
ATOM      2  O   UNL A   1      34.645  20.695  24.949  1.00  0.00    -0.374 OA
BRANCH   2   3
ATOM      3  C   UNL A   1      33.417  21.369  24.735  1.00  0.00     0.202 C 
BRANCH   3   4
ATOM      4  C   UNL A   1      33.272  22.278  25.911  1.00  0.00     0.261 C 
BRANCH   4   5
ATOM      5  O   UNL A   1      32.725  23.568  25.541  1.00  0.00    -0.460 OA
BRANCH   5   6
ATOM      6  C   UNL A   1      31.938  24.386  26.288  1.00  0.00     0.338 C 
ATOM      7  O   UNL A   1      31.244  24.158  27.250  1.00  0.00    -0.246 OA
BRANCH   6   8
ATOM      8  C   UNL A   1      32.192  25.744  25.757  1.00  0.00     0.063 A 
ATOM      9  C   UNL A   1      31.386  27.605  24.482  1.00  0.00     0.071 A 
ATOM     10  C   UNL A   1      31.138  26.455  25.202  1.00  0.00     0.044 A 
ATOM     11  N   UNL A   1      32.635  28.094  24.319  1.00  0.00    -0.256 NA
ATOM     12  C   UNL A   1      33.643  27.424  24.943  1.00  0.00     0.112 A 
ATOM     13  C   UNL A   1      33.478  26.256  25.671  1.00  0.00     0.036 A 
BRANCH   9  14
ATOM     14  C   UNL A   1      30.243  28.253  23.838  1.00  0.00     0.000 A 
ATOM     15  C   UNL A   1      28.957  31.833  23.521  1.00  0.00     0.044 C 
ATOM     16  C   UNL A   1      29.009  30.338  23.452  1.00  0.00    -0.050 A 
ATOM     17  C   UNL A   1      27.910  29.591  23.024  1.00  0.00     0.003 A 
ATOM     18  C   UNL A   1      30.170  29.661  23.830  1.00  0.00     0.013 A 
ATOM     19  C   UNL A   1      27.968  28.193  23.002  1.00  0.00     0.001 A 
ATOM     20  C   UNL A   1      29.127  27.527  23.410  1.00  0.00     0.010 A 
ENDBRANCH   9  14
ENDBRANCH   6   8
ENDBRANCH   5   6
ENDBRANCH   4   5
ENDBRANCH   3   4
ENDBRANCH   2   3
ENDBRANCH   1   2
BRANCH   1  21
ATOM     21  C   UNL A   1      36.975  21.329  25.072  1.00  0.00     0.261 C 
BRANCH  21  22
ATOM     22  O   UNL A   1      37.934  22.108  25.824  1.00  0.00    -0.460 OA
BRANCH  22  23
ATOM     23  C   UNL A   1      37.904  23.461  25.614  1.00  0.00     0.338 C 
ATOM     24  O   UNL A   1      37.165  24.004  24.814  1.00  0.00    -0.246 OA
BRANCH  23  25
ATOM     25  C   UNL A   1      38.891  24.154  26.497  1.00  0.00     0.060 A 
ATOM     26  C   UNL A   1      38.682  24.278  27.884  1.00  0.00     0.016 A 
ATOM     27  C   UNL A   1      39.902  24.887  25.885  1.00  0.00     0.016 A 
ATOM     28  C   UNL A   1      39.381  25.251  28.626  1.00  0.00     0.010 A 
ATOM     29  C   UNL A   1      40.479  25.921  26.585  1.00  0.00     0.010 A 
ATOM     30  C   UNL A   1      40.224  26.128  27.954  1.00  0.00    -0.014 A 
BRANCH  30  31
ATOM     31  C   UNL A   1      40.916  27.312  28.485  1.00  0.00     0.031 A 
ATOM     32  C   UNL A   1      40.076  28.515  28.713  1.00  0.00     0.074 A 
ATOM     33  C   UNL A   1      42.109  27.193  29.121  1.00  0.00     0.049 A 
ATOM     34  N   UNL A   1      40.500  29.602  29.247  1.00  0.00    -0.248 NA
ATOM     35  C   UNL A   1      38.659  28.597  28.349  1.00  0.00     0.031 C 
ATOM     36  C   UNL A   1      42.606  27.948  30.275  1.00  0.00     0.029 A 
ATOM     37  N   UNL A   1      43.166  26.328  28.854  1.00  0.00    -0.354 N 
ATOM     38  C   UNL A   1      39.405  30.338  29.630  1.00  0.00     0.074 A 
ATOM     39  C   UNL A   1      38.287  29.725  28.962  1.00  0.00     0.031 C 
ATOM     40  C   UNL A   1      43.918  27.701  30.455  1.00  0.00     0.029 A 
ATOM     41  C   UNL A   1      44.359  26.878  29.341  1.00  0.00     0.049 A 
ATOM     42  H   UNL A   1      43.087  25.462  28.393  1.00  0.00     0.167 HD
ATOM     43  C   UNL A   1      39.586  31.295  30.582  1.00  0.00     0.031 A 
ATOM     44  C   UNL A   1      45.392  27.116  28.488  1.00  0.00     0.031 A 
ATOM     45  C   UNL A   1      41.019  31.464  30.867  1.00  0.00     0.049 A 
ATOM     46  C   UNL A   1      45.529  28.610  28.369  1.00  0.00     0.074 A 
ATOM     47  C   UNL A   1      41.833  31.095  31.924  1.00  0.00     0.029 A 
ATOM     48  N   UNL A   1      41.871  31.775  29.808  1.00  0.00    -0.354 N 
ATOM     49  N   UNL A   1      44.539  29.424  28.625  1.00  0.00    -0.248 NA
ATOM     50  C   UNL A   1      46.782  29.313  28.118  1.00  0.00     0.031 C 
ATOM     51  C   UNL A   1      43.178  31.084  31.448  1.00  0.00     0.029 A 
ATOM     52  C   UNL A   1      43.185  31.475  30.115  1.00  0.00     0.049 A 
ATOM     53  H   UNL A   1      41.576  32.159  28.951  1.00  0.00     0.167 HD
ATOM     54  C   UNL A   1      45.009  30.694  28.717  1.00  0.00     0.074 A 
ATOM     55  C   UNL A   1      46.407  30.589  28.327  1.00  0.00     0.031 C 
ATOM     56  C   UNL A   1      44.248  31.739  29.150  1.00  0.00     0.031 A 
BRANCH  43  57
ATOM     57  C   UNL A   1      38.483  31.938  31.398  1.00  0.00    -0.014 A 
ATOM     58  C   UNL A   1      38.663  33.254  31.875  1.00  0.00     0.010 A 
ATOM     59  C   UNL A   1      37.279  31.310  31.778  1.00  0.00     0.010 A 
ATOM     60  C   UNL A   1      37.714  33.894  32.688  1.00  0.00     0.020 A 
ATOM     61  C   UNL A   1      36.318  31.938  32.588  1.00  0.00     0.020 A 
ATOM     62  C   UNL A   1      36.543  33.230  33.040  1.00  0.00     0.054 A 
BRANCH  62  63
ATOM     63  S   UNL A   1      35.322  34.079  34.075  1.00  0.00     0.124 S 
ATOM     64  O   UNL A   1      34.074  33.426  33.687  1.00  0.00    -0.237 OA
ATOM     65  O   UNL A   1      35.794  33.785  35.424  1.00  0.00    -0.237 OA
ATOM     66  O   UNL A   1      35.436  35.480  33.671  1.00  0.00    -0.744 OA
ENDBRANCH  62  63
ENDBRANCH  43  57
BRANCH  44  67
ATOM     67  C   UNL A   1      45.514  26.044  27.439  1.00  0.00    -0.014 A 
ATOM     68  C   UNL A   1      45.765  24.728  27.908  1.00  0.00     0.010 A 
ATOM     69  C   UNL A   1      44.876  26.183  26.191  1.00  0.00     0.010 A 
ATOM     70  C   UNL A   1      45.236  23.604  27.249  1.00  0.00     0.020 A 
ATOM     71  C   UNL A   1      44.329  25.059  25.539  1.00  0.00     0.020 A 
ATOM     72  C   UNL A   1      44.467  23.784  26.098  1.00  0.00     0.054 A 
BRANCH  72  73
ATOM     73  S   UNL A   1      43.413  22.402  25.514  1.00  0.00     0.124 S 
ATOM     74  O   UNL A   1      43.172  22.757  24.122  1.00  0.00    -0.237 OA
ATOM     75  O   UNL A   1      44.261  21.226  25.720  1.00  0.00    -0.237 OA
ATOM     76  O   UNL A   1      42.256  22.470  26.401  1.00  0.00    -0.744 OA
ENDBRANCH  72  73
ENDBRANCH  44  67
BRANCH  56  77
ATOM     77  C   UNL A   1      44.511  33.151  28.718  1.00  0.00    -0.014 A 
ATOM     78  C   UNL A   1      44.999  34.130  29.596  1.00  0.00     0.010 A 
ATOM     79  C   UNL A   1      44.441  33.480  27.346  1.00  0.00     0.010 A 
ATOM     80  C   UNL A   1      45.299  35.414  29.147  1.00  0.00     0.020 A 
ATOM     81  C   UNL A   1      44.807  34.739  26.876  1.00  0.00     0.020 A 
ATOM     82  C   UNL A   1      45.192  35.711  27.790  1.00  0.00     0.054 A 
BRANCH  82  83
ATOM     83  S   UNL A   1      45.583  37.381  27.237  1.00  0.00     0.124 S 
ATOM     84  O   UNL A   1      46.414  37.113  26.065  1.00  0.00    -0.237 OA
ATOM     85  O   UNL A   1      44.265  37.943  26.955  1.00  0.00    -0.237 OA
ATOM     86  O   UNL A   1      46.276  37.970  28.379  1.00  0.00    -0.744 OA
ENDBRANCH  82  83
ENDBRANCH  56  77
ENDBRANCH  30  31
ENDBRANCH  23  25
ENDBRANCH  22  23
ENDBRANCH  21  22
ENDBRANCH   1  21
TORSDOF 18
ENDMDL
MODEL 3
REMARK VINA RESULT:     -10.8      1.328      2.000
REMARK SMILES Cc1cccc(-c2cc(C(=O)OCCOCCOC(=O)c3ccc(-c4c5nc(c(-c6ccc(S(=O)(=O)[O-])cc6)c6ccc([nH]6)c(-c6ccc(S(=O)(=O)[O-])cc6)c6nc(c(-c7ccc(S(=O)(=O)[O-])cc7)c7ccc4[nH]7)C=C6)C=C5)cc3)ccn2)c1
REMARK SMILES IDX 16 1 15 2 14 3 13 4 12 5 10 6 11 7 9 8 7 9 8 10 83 11 82 12
REMARK SMILES IDX 81 13 6 14 1 15 2 16 3 17 84 18 4 19 5 20 17 21 18 22 19 23
REMARK SMILES IDX 20 24 21 25 22 26 80 27 23 28 79 29 24 30 25 31 26 32 73 33
REMARK SMILES IDX 27 34 78 35 72 36 74 37 28 38 77 39 71 40 70 41 29 43 59 44
REMARK SMILES IDX 40 45 58 46 41 47 44 48 57 49 75 50 42 51 43 52 56 54 76 55
REMARK SMILES IDX 45 56 30 57 31 58 39 59 32 60 38 61 33 62 34 63 35 64 36 65
REMARK SMILES IDX 37 66 60 67 61 68 69 69 62 70 68 71 63 72 64 73 65 74 66 75
REMARK SMILES IDX 67 76 46 77 47 78 55 79 48 80 54 81 49 82 50 83 51 84 52 85
REMARK SMILES IDX 53 86
REMARK H PARENT 74 42 44 53
REMARK Flexibility Score: inf
ROOT
ATOM      1  C   UNL A   1      36.476  21.535  24.665  1.00  0.00     0.202 C 
ENDROOT
BRANCH   1   2
ATOM      2  O   UNL A   1      35.648  20.550  25.225  1.00  0.00    -0.374 OA
BRANCH   2   3
ATOM      3  C   UNL A   1      34.422  20.996  25.779  1.00  0.00     0.202 C 
BRANCH   3   4
ATOM      4  C   UNL A   1      33.387  20.105  25.177  1.00  0.00     0.261 C 
BRANCH   4   5
ATOM      5  O   UNL A   1      32.271  20.853  24.633  1.00  0.00    -0.460 OA
BRANCH   5   6
ATOM      6  C   UNL A   1      32.292  22.093  24.075  1.00  0.00     0.338 C 
ATOM      7  O   UNL A   1      32.819  22.500  23.068  1.00  0.00    -0.246 OA
BRANCH   6   8
ATOM      8  C   UNL A   1      31.378  22.901  24.913  1.00  0.00     0.063 A 
ATOM      9  C   UNL A   1      30.692  25.076  25.646  1.00  0.00     0.071 A 
ATOM     10  C   UNL A   1      31.338  24.275  24.727  1.00  0.00     0.044 A 
ATOM     11  N   UNL A   1      30.059  24.564  26.725  1.00  0.00    -0.256 NA
ATOM     12  C   UNL A   1      30.043  23.208  26.840  1.00  0.00     0.112 A 
ATOM     13  C   UNL A   1      30.678  22.337  25.969  1.00  0.00     0.036 A 
BRANCH   9  14
ATOM     14  C   UNL A   1      30.770  26.524  25.447  1.00  0.00     0.000 A 
ATOM     15  C   UNL A   1      30.173  28.913  22.530  1.00  0.00     0.044 C 
ATOM     16  C   UNL A   1      30.598  28.395  23.870  1.00  0.00    -0.050 A 
ATOM     17  C   UNL A   1      31.266  29.210  24.787  1.00  0.00     0.003 A 
ATOM     18  C   UNL A   1      30.336  27.070  24.222  1.00  0.00     0.013 A 
ATOM     19  C   UNL A   1      31.685  28.695  26.018  1.00  0.00     0.001 A 
ATOM     20  C   UNL A   1      31.442  27.358  26.346  1.00  0.00     0.010 A 
ENDBRANCH   9  14
ENDBRANCH   6   8
ENDBRANCH   5   6
ENDBRANCH   4   5
ENDBRANCH   3   4
ENDBRANCH   2   3
ENDBRANCH   1   2
BRANCH   1  21
ATOM     21  C   UNL A   1      37.863  21.518  25.300  1.00  0.00     0.261 C 
BRANCH  21  22
ATOM     22  O   UNL A   1      38.023  22.612  26.232  1.00  0.00    -0.460 OA
BRANCH  22  23
ATOM     23  C   UNL A   1      39.302  22.859  26.653  1.00  0.00     0.338 C 
ATOM     24  O   UNL A   1      40.123  21.985  26.869  1.00  0.00    -0.246 OA
BRANCH  23  25
ATOM     25  C   UNL A   1      39.537  24.327  26.801  1.00  0.00     0.060 A 
ATOM     26  C   UNL A   1      40.234  25.066  25.825  1.00  0.00     0.016 A 
ATOM     27  C   UNL A   1      39.263  24.904  28.035  1.00  0.00     0.016 A 
ATOM     28  C   UNL A   1      40.792  26.320  26.144  1.00  0.00     0.010 A 
ATOM     29  C   UNL A   1      39.922  26.061  28.380  1.00  0.00     0.010 A 
ATOM     30  C   UNL A   1      40.701  26.779  27.453  1.00  0.00    -0.014 A 
BRANCH  30  31
ATOM     31  C   UNL A   1      41.344  27.960  28.049  1.00  0.00     0.031 A 
ATOM     32  C   UNL A   1      40.441  29.075  28.433  1.00  0.00     0.074 A 
ATOM     33  C   UNL A   1      42.580  27.874  28.602  1.00  0.00     0.049 A 
ATOM     34  N   UNL A   1      40.824  30.139  29.039  1.00  0.00    -0.248 NA
ATOM     35  C   UNL A   1      39.001  29.084  28.160  1.00  0.00     0.031 C 
ATOM     36  C   UNL A   1      43.098  28.560  29.790  1.00  0.00     0.029 A 
ATOM     37  N   UNL A   1      43.674  27.115  28.198  1.00  0.00    -0.354 N 
ATOM     38  C   UNL A   1      39.707  30.757  29.550  1.00  0.00     0.074 A 
ATOM     39  C   UNL A   1      38.593  30.125  28.894  1.00  0.00     0.031 C 
ATOM     40  C   UNL A   1      44.432  28.395  29.871  1.00  0.00     0.029 A 
ATOM     41  C   UNL A   1      44.855  27.706  28.663  1.00  0.00     0.049 A 
ATOM     42  H   UNL A   1      43.625  26.288  27.666  1.00  0.00     0.167 HD
ATOM     43  C   UNL A   1      39.884  31.639  30.572  1.00  0.00     0.031 A 
ATOM     44  C   UNL A   1      45.813  28.092  27.777  1.00  0.00     0.031 A 
ATOM     45  C   UNL A   1      41.317  31.887  30.789  1.00  0.00     0.049 A 
ATOM     46  C   UNL A   1      45.842  29.596  27.787  1.00  0.00     0.074 A 
ATOM     47  C   UNL A   1      42.220  31.488  31.759  1.00  0.00     0.029 A 
ATOM     48  N   UNL A   1      42.078  32.349  29.715  1.00  0.00    -0.354 N 
ATOM     49  N   UNL A   1      44.818  30.311  28.173  1.00  0.00    -0.248 NA
ATOM     50  C   UNL A   1      47.026  30.408  27.529  1.00  0.00     0.031 C 
ATOM     51  C   UNL A   1      43.530  31.616  31.208  1.00  0.00     0.029 A 
ATOM     52  C   UNL A   1      43.425  32.121  29.918  1.00  0.00     0.049 A 
ATOM     53  H   UNL A   1      41.703  32.783  28.915  1.00  0.00     0.167 HD
ATOM     54  C   UNL A   1      45.205  31.599  28.353  1.00  0.00     0.074 A 
ATOM     55  C   UNL A   1      46.580  31.631  27.875  1.00  0.00     0.031 C 
ATOM     56  C   UNL A   1      44.405  32.545  28.921  1.00  0.00     0.031 A 
BRANCH  43  57
ATOM     57  C   UNL A   1      38.794  32.127  31.505  1.00  0.00    -0.014 A 
ATOM     58  C   UNL A   1      37.811  33.008  31.007  1.00  0.00     0.010 A 
ATOM     59  C   UNL A   1      38.695  31.814  32.876  1.00  0.00     0.010 A 
ATOM     60  C   UNL A   1      36.806  33.551  31.824  1.00  0.00     0.020 A 
ATOM     61  C   UNL A   1      37.694  32.345  33.706  1.00  0.00     0.020 A 
ATOM     62  C   UNL A   1      36.753  33.215  33.174  1.00  0.00     0.054 A 
BRANCH  62  63
ATOM     63  S   UNL A   1      35.439  33.911  34.208  1.00  0.00     0.124 S 
ATOM     64  O   UNL A   1      35.521  35.337  33.901  1.00  0.00    -0.237 OA
ATOM     65  O   UNL A   1      34.250  33.227  33.710  1.00  0.00    -0.237 OA
ATOM     66  O   UNL A   1      35.837  33.550  35.568  1.00  0.00    -0.744 OA
ENDBRANCH  62  63
ENDBRANCH  43  57
BRANCH  44  67
ATOM     67  C   UNL A   1      45.941  27.126  26.631  1.00  0.00    -0.014 A 
ATOM     68  C   UNL A   1      46.670  25.936  26.885  1.00  0.00     0.010 A 
ATOM     69  C   UNL A   1      44.974  27.094  25.608  1.00  0.00     0.010 A 
ATOM     70  C   UNL A   1      46.319  24.719  26.274  1.00  0.00     0.020 A 
ATOM     71  C   UNL A   1      44.608  25.872  25.007  1.00  0.00     0.020 A 
ATOM     72  C   UNL A   1      45.247  24.684  25.382  1.00  0.00     0.054 A 
BRANCH  72  73
ATOM     73  S   UNL A   1      44.507  23.063  24.951  1.00  0.00     0.124 S 
ATOM     74  O   UNL A   1      45.079  22.179  25.958  1.00  0.00    -0.237 OA
ATOM     75  O   UNL A   1      43.070  23.308  25.079  1.00  0.00    -0.237 OA
ATOM     76  O   UNL A   1      44.958  22.848  23.580  1.00  0.00    -0.744 OA
ENDBRANCH  72  73
ENDBRANCH  44  67
BRANCH  56  77
ATOM     77  C   UNL A   1      44.543  34.004  28.605  1.00  0.00    -0.014 A 
ATOM     78  C   UNL A   1      45.154  34.912  29.484  1.00  0.00     0.010 A 
ATOM     79  C   UNL A   1      44.216  34.467  27.311  1.00  0.00     0.010 A 
ATOM     80  C   UNL A   1      45.330  36.247  29.130  1.00  0.00     0.020 A 
ATOM     81  C   UNL A   1      44.454  35.783  26.923  1.00  0.00     0.020 A 
ATOM     82  C   UNL A   1      44.970  36.674  27.855  1.00  0.00     0.054 A 
BRANCH  82  83
ATOM     83  S   UNL A   1      45.205  38.409  27.424  1.00  0.00     0.124 S 
ATOM     84  O   UNL A   1      43.865  38.784  26.981  1.00  0.00    -0.237 OA
ATOM     85  O   UNL A   1      45.635  38.999  28.689  1.00  0.00    -0.237 OA
ATOM     86  O   UNL A   1      46.226  38.370  26.381  1.00  0.00    -0.744 OA
ENDBRANCH  82  83
ENDBRANCH  56  77
ENDBRANCH  30  31
ENDBRANCH  23  25
ENDBRANCH  22  23
ENDBRANCH  21  22
ENDBRANCH   1  21
TORSDOF 18
ENDMDL
