MODEL 1
REMARK VINA RESULT:     -10.1      0.000      0.000
REMARK SMILES O=C(OCCOCCOC(=O)[C@H]1CCC[N@@H+]1Cc1ccccc1[N+](=O)[O-])c1ccc(-c2c3nc(c(-c4ccc(S(=O)(=O)[O-])cc4)c4ccc([nH]4)c(-c4ccc(S(=O)(=O)[O-])cc4)c4nc(c(-c5ccc(S(=O)(=O)[O-])cc5)c5ccc2[nH]5)C=C4)C=C3)cc1
REMARK SMILES IDX 6 1 5 2 4 3 3 4 2 5 1 6 27 7 28 8 86 9 29 10 85 11 30 12
REMARK SMILES IDX 31 13 32 14 79 15 33 16 84 17 78 18 80 19 34 20 83 21 77 22
REMARK SMILES IDX 76 23 35 25 65 26 46 27 64 28 47 29 50 30 63 31 81 32 48 33
REMARK SMILES IDX 49 34 62 36 82 37 51 38 36 39 37 40 45 41 38 42 44 43 39 44
REMARK SMILES IDX 40 45 41 46 42 47 43 48 66 49 67 50 75 51 68 52 74 53 69 54
REMARK SMILES IDX 70 55 71 56 72 57 73 58 52 59 53 60 61 61 54 62 60 63 55 64
REMARK SMILES IDX 56 65 57 66 58 67 59 68 7 69 8 70 9 71 10 72 11 73 12 74
REMARK SMILES IDX 13 75 16 76 14 77 15 78 17 80 18 81 19 82 23 83 20 84 22 85
REMARK SMILES IDX 21 86 24 87 25 88 26 89
REMARK H PARENT 80 24 50 35 16 79
REMARK Flexibility Score: inf
ROOT
ATOM      1  O   UNL A   1      37.542  21.749  24.812  1.00  0.00    -0.374 OA
ENDROOT
BRANCH   1   2
ATOM      2  C   UNL A   1      37.600  22.865  25.701  1.00  0.00     0.202 C 
BRANCH   2   3
ATOM      3  C   UNL A   1      39.009  23.204  26.197  1.00  0.00     0.261 C 
BRANCH   3   4
ATOM      4  O   UNL A   1      39.175  24.620  26.338  1.00  0.00    -0.460 OA
BRANCH   4   5
ATOM      5  C   UNL A   1      40.292  25.274  26.738  1.00  0.00     0.338 C 
ATOM      6  O   UNL A   1      41.319  25.132  26.074  1.00  0.00    -0.246 OA
BRANCH   5   7
ATOM      7  C   UNL A   1      40.349  26.178  27.930  1.00  0.00     0.060 A 
ATOM      8  C   UNL A   1      41.228  27.253  28.086  1.00  0.00     0.016 A 
ATOM      9  C   UNL A   1      39.369  25.986  28.918  1.00  0.00     0.016 A 
ATOM     10  C   UNL A   1      41.157  28.105  29.169  1.00  0.00     0.010 A 
ATOM     11  C   UNL A   1      39.271  26.855  30.008  1.00  0.00     0.010 A 
ATOM     12  C   UNL A   1      40.166  27.923  30.122  1.00  0.00    -0.014 A 
BRANCH  12  13
ATOM     13  C   UNL A   1      40.164  28.848  31.260  1.00  0.00     0.031 A 
ATOM     14  C   UNL A   1      39.137  29.932  31.282  1.00  0.00     0.074 A 
ATOM     15  C   UNL A   1      40.976  28.596  32.302  1.00  0.00     0.049 A 
ATOM     16  N   UNL A   1      38.968  30.881  32.156  1.00  0.00    -0.248 NA
ATOM     17  C   UNL A   1      38.156  29.937  30.180  1.00  0.00     0.031 C 
ATOM     18  C   UNL A   1      41.892  27.453  32.403  1.00  0.00     0.029 A 
ATOM     19  N   UNL A   1      41.140  29.256  33.488  1.00  0.00    -0.354 N 
ATOM     20  C   UNL A   1      37.890  31.623  31.693  1.00  0.00     0.074 A 
ATOM     21  C   UNL A   1      37.431  31.008  30.470  1.00  0.00     0.031 C 
ATOM     22  C   UNL A   1      42.515  27.492  33.593  1.00  0.00     0.029 A 
ATOM     23  C   UNL A   1      42.100  28.697  34.299  1.00  0.00     0.049 A 
ATOM     24  H   UNL A   1      40.621  30.054  33.739  1.00  0.00     0.167 HD
ATOM     25  C   UNL A   1      37.359  32.734  32.245  1.00  0.00     0.031 A 
ATOM     26  C   UNL A   1      42.618  29.150  35.456  1.00  0.00     0.031 A 
ATOM     27  C   UNL A   1      37.857  33.311  33.464  1.00  0.00     0.049 A 
ATOM     28  C   UNL A   1      42.079  30.453  35.984  1.00  0.00     0.074 A 
ATOM     29  C   UNL A   1      37.442  34.461  34.104  1.00  0.00     0.029 A 
ATOM     30  N   UNL A   1      38.889  32.772  34.220  1.00  0.00    -0.354 N 
ATOM     31  N   UNL A   1      41.092  31.185  35.516  1.00  0.00    -0.248 NA
ATOM     32  C   UNL A   1      42.727  31.004  37.178  1.00  0.00     0.031 C 
ATOM     33  C   UNL A   1      38.269  34.652  35.215  1.00  0.00     0.029 A 
ATOM     34  C   UNL A   1      39.152  33.586  35.305  1.00  0.00     0.049 A 
ATOM     35  H   UNL A   1      39.363  31.934  34.016  1.00  0.00     0.167 HD
ATOM     36  C   UNL A   1      40.995  32.278  36.366  1.00  0.00     0.074 A 
ATOM     37  C   UNL A   1      42.001  32.092  37.395  1.00  0.00     0.031 C 
ATOM     38  C   UNL A   1      40.163  33.348  36.304  1.00  0.00     0.031 A 
BRANCH  25  39
ATOM     39  C   UNL A   1      36.267  33.436  31.491  1.00  0.00    -0.014 A 
ATOM     40  C   UNL A   1      35.038  33.760  32.093  1.00  0.00     0.010 A 
ATOM     41  C   UNL A   1      36.495  33.804  30.153  1.00  0.00     0.010 A 
ATOM     42  C   UNL A   1      34.053  34.432  31.362  1.00  0.00     0.020 A 
ATOM     43  C   UNL A   1      35.523  34.495  29.427  1.00  0.00     0.020 A 
ATOM     44  C   UNL A   1      34.305  34.800  30.036  1.00  0.00     0.054 A 
BRANCH  44  45
ATOM     45  S   UNL A   1      33.035  35.728  29.133  1.00  0.00     0.124 S 
ATOM     46  O   UNL A   1      33.837  36.690  28.381  1.00  0.00    -0.237 OA
ATOM     47  O   UNL A   1      32.388  34.689  28.335  1.00  0.00    -0.237 OA
ATOM     48  O   UNL A   1      32.206  36.302  30.191  1.00  0.00    -0.744 OA
ENDBRANCH  44  45
ENDBRANCH  25  39
BRANCH  26  49
ATOM     49  C   UNL A   1      43.756  28.449  36.115  1.00  0.00    -0.014 A 
ATOM     50  C   UNL A   1      43.540  27.417  37.045  1.00  0.00     0.010 A 
ATOM     51  C   UNL A   1      45.079  28.852  35.849  1.00  0.00     0.010 A 
ATOM     52  C   UNL A   1      44.618  26.837  37.726  1.00  0.00     0.020 A 
ATOM     53  C   UNL A   1      46.161  28.250  36.497  1.00  0.00     0.020 A 
ATOM     54  C   UNL A   1      45.921  27.264  37.453  1.00  0.00     0.054 A 
BRANCH  54  55
ATOM     55  S   UNL A   1      47.304  26.515  38.360  1.00  0.00     0.124 S 
ATOM     56  O   UNL A   1      48.268  27.610  38.399  1.00  0.00    -0.237 OA
ATOM     57  O   UNL A   1      46.691  26.164  39.638  1.00  0.00    -0.237 OA
ATOM     58  O   UNL A   1      47.683  25.376  37.526  1.00  0.00    -0.744 OA
ENDBRANCH  54  55
ENDBRANCH  26  49
BRANCH  38  59
ATOM     59  C   UNL A   1      40.297  34.374  37.393  1.00  0.00    -0.014 A 
ATOM     60  C   UNL A   1      41.170  35.466  37.254  1.00  0.00     0.010 A 
ATOM     61  C   UNL A   1      39.483  34.274  38.535  1.00  0.00     0.010 A 
ATOM     62  C   UNL A   1      41.246  36.431  38.257  1.00  0.00     0.020 A 
ATOM     63  C   UNL A   1      39.532  35.257  39.522  1.00  0.00     0.020 A 
ATOM     64  C   UNL A   1      40.422  36.323  39.383  1.00  0.00     0.054 A 
BRANCH  64  65
ATOM     65  S   UNL A   1      40.497  37.624  40.641  1.00  0.00     0.124 S 
ATOM     66  O   UNL A   1      39.120  37.661  41.122  1.00  0.00    -0.237 OA
ATOM     67  O   UNL A   1      41.480  37.099  41.586  1.00  0.00    -0.237 OA
ATOM     68  O   UNL A   1      40.929  38.804  39.894  1.00  0.00    -0.744 OA
ENDBRANCH  64  65
ENDBRANCH  38  59
ENDBRANCH  12  13
ENDBRANCH   5   7
ENDBRANCH   4   5
ENDBRANCH   3   4
ENDBRANCH   2   3
ENDBRANCH   1   2
BRANCH   1  69
ATOM     69  C   UNL A   1      36.586  20.734  25.124  1.00  0.00     0.202 C 
BRANCH  69  70
ATOM     70  C   UNL A   1      35.334  21.376  25.714  1.00  0.00     0.261 C 
BRANCH  70  71
ATOM     71  O   UNL A   1      34.195  20.747  25.108  1.00  0.00    -0.459 OA
BRANCH  71  72
ATOM     72  C   UNL A   1      33.093  21.557  25.063  1.00  0.00     0.365 C 
ATOM     73  O   UNL A   1      31.956  21.212  25.346  1.00  0.00    -0.245 OA
BRANCH  72  74
ATOM     74  C   UNL A   1      33.500  22.968  24.603  1.00  0.00     0.295 C 
ATOM     75  C   UNL A   1      34.168  22.816  23.248  1.00  0.00     0.083 C 
ATOM     76  N   UNL A   1      32.304  23.807  24.348  1.00  0.00    -0.319 N 
ATOM     77  C   UNL A   1      33.008  22.859  22.258  1.00  0.00     0.068 C 
ATOM     78  C   UNL A   1      31.812  23.420  23.025  1.00  0.00     0.263 C 
ATOM     79  H   UNL A   1      31.611  23.612  25.071  1.00  0.00     0.349 HD
BRANCH  76  80
ATOM     80  C   UNL A   1      32.416  25.254  24.587  1.00  0.00     0.307 C 
BRANCH  80  81
ATOM     81  C   UNL A   1      31.476  26.138  23.797  1.00  0.00     0.084 A 
ATOM     82  C   UNL A   1      30.104  26.091  24.115  1.00  0.00     0.017 A 
ATOM     83  C   UNL A   1      31.895  27.115  22.874  1.00  0.00     0.278 A 
ATOM     84  C   UNL A   1      29.220  27.060  23.638  1.00  0.00     0.001 A 
ATOM     85  C   UNL A   1      31.019  28.115  22.428  1.00  0.00     0.086 A 
ATOM     86  C   UNL A   1      29.686  28.096  22.832  1.00  0.00     0.007 A 
BRANCH  83  87
ATOM     87  N   UNL A   1      33.244  27.120  22.322  1.00  0.00     0.063 N 
ATOM     88  O   UNL A   1      33.503  26.294  21.437  1.00  0.00    -0.258 OA
ATOM     89  O   UNL A   1      34.057  27.913  22.815  1.00  0.00    -0.258 OA
ENDBRANCH  83  87
ENDBRANCH  80  81
ENDBRANCH  76  80
ENDBRANCH  72  74
ENDBRANCH  71  72
ENDBRANCH  70  71
ENDBRANCH  69  70
ENDBRANCH   1  69
TORSDOF 20
ENDMDL
MODEL 2
REMARK VINA RESULT:     -10.0      6.540      8.525
REMARK SMILES O=C(OCCOCCOC(=O)[C@H]1CCC[N@@H+]1Cc1ccccc1[N+](=O)[O-])c1ccc(-c2c3nc(c(-c4ccc(S(=O)(=O)[O-])cc4)c4ccc([nH]4)c(-c4ccc(S(=O)(=O)[O-])cc4)c4nc(c(-c5ccc(S(=O)(=O)[O-])cc5)c5ccc2[nH]5)C=C4)C=C3)cc1
REMARK SMILES IDX 6 1 5 2 4 3 3 4 2 5 1 6 27 7 28 8 86 9 29 10 85 11 30 12
REMARK SMILES IDX 31 13 32 14 79 15 33 16 84 17 78 18 80 19 34 20 83 21 77 22
REMARK SMILES IDX 76 23 35 25 65 26 46 27 64 28 47 29 50 30 63 31 81 32 48 33
REMARK SMILES IDX 49 34 62 36 82 37 51 38 36 39 37 40 45 41 38 42 44 43 39 44
REMARK SMILES IDX 40 45 41 46 42 47 43 48 66 49 67 50 75 51 68 52 74 53 69 54
REMARK SMILES IDX 70 55 71 56 72 57 73 58 52 59 53 60 61 61 54 62 60 63 55 64
REMARK SMILES IDX 56 65 57 66 58 67 59 68 7 69 8 70 9 71 10 72 11 73 12 74
REMARK SMILES IDX 13 75 16 76 14 77 15 78 17 80 18 81 19 82 23 83 20 84 22 85
REMARK SMILES IDX 21 86 24 87 25 88 26 89
REMARK H PARENT 80 24 50 35 16 79
REMARK Flexibility Score: inf
ROOT
ATOM      1  O   UNL A   1      36.385  20.965  25.230  1.00  0.00    -0.374 OA
ENDROOT
BRANCH   1   2
ATOM      2  C   UNL A   1      37.668  20.422  24.919  1.00  0.00     0.202 C 
BRANCH   2   3
ATOM      3  C   UNL A   1      38.811  20.971  25.779  1.00  0.00     0.261 C 
BRANCH   3   4
ATOM      4  O   UNL A   1      39.900  20.042  25.837  1.00  0.00    -0.460 OA
BRANCH   4   5
ATOM      5  C   UNL A   1      41.071  20.198  26.501  1.00  0.00     0.338 C 
ATOM      6  O   UNL A   1      41.675  19.188  26.861  1.00  0.00    -0.246 OA
BRANCH   5   7
ATOM      7  C   UNL A   1      41.686  21.528  26.805  1.00  0.00     0.060 A 
ATOM      8  C   UNL A   1      42.189  21.918  28.050  1.00  0.00     0.016 A 
ATOM      9  C   UNL A   1      41.862  22.407  25.725  1.00  0.00     0.016 A 
ATOM     10  C   UNL A   1      42.834  23.125  28.233  1.00  0.00     0.010 A 
ATOM     11  C   UNL A   1      42.533  23.622  25.891  1.00  0.00     0.010 A 
ATOM     12  C   UNL A   1      43.026  23.971  27.151  1.00  0.00    -0.014 A 
BRANCH  12  13
ATOM     13  C   UNL A   1      43.696  25.248  27.422  1.00  0.00     0.031 A 
ATOM     14  C   UNL A   1      42.893  26.345  28.039  1.00  0.00     0.074 A 
ATOM     15  C   UNL A   1      45.027  25.330  27.251  1.00  0.00     0.049 A 
ATOM     16  N   UNL A   1      43.257  27.560  28.331  1.00  0.00    -0.248 NA
ATOM     17  C   UNL A   1      41.496  26.026  28.393  1.00  0.00     0.031 C 
ATOM     18  C   UNL A   1      45.891  24.233  26.798  1.00  0.00     0.029 A 
ATOM     19  N   UNL A   1      45.895  26.365  27.468  1.00  0.00    -0.354 N 
ATOM     20  C   UNL A   1      42.128  28.166  28.863  1.00  0.00     0.074 A 
ATOM     21  C   UNL A   1      41.068  27.184  28.872  1.00  0.00     0.031 C 
ATOM     22  C   UNL A   1      47.166  24.654  26.781  1.00  0.00     0.029 A 
ATOM     23  C   UNL A   1      47.197  26.065  27.144  1.00  0.00     0.049 A 
ATOM     24  H   UNL A   1      45.614  27.240  27.822  1.00  0.00     0.167 HD
ATOM     25  C   UNL A   1      42.001  29.443  29.282  1.00  0.00     0.031 A 
ATOM     26  C   UNL A   1      48.277  26.868  27.097  1.00  0.00     0.031 A 
ATOM     27  C   UNL A   1      43.085  30.384  29.248  1.00  0.00     0.049 A 
ATOM     28  C   UNL A   1      48.073  28.314  27.464  1.00  0.00     0.074 A 
ATOM     29  C   UNL A   1      43.078  31.720  29.596  1.00  0.00     0.029 A 
ATOM     30  N   UNL A   1      44.375  30.078  28.833  1.00  0.00    -0.354 N 
ATOM     31  N   UNL A   1      46.988  28.902  27.918  1.00  0.00    -0.248 NA
ATOM     32  C   UNL A   1      49.221  29.210  27.295  1.00  0.00     0.031 C 
ATOM     33  C   UNL A   1      44.349  32.237  29.329  1.00  0.00     0.029 A 
ATOM     34  C   UNL A   1      45.166  31.209  28.881  1.00  0.00     0.049 A 
ATOM     35  H   UNL A   1      44.681  29.187  28.548  1.00  0.00     0.167 HD
ATOM     36  C   UNL A   1      47.328  30.235  28.101  1.00  0.00     0.074 A 
ATOM     37  C   UNL A   1      48.728  30.358  27.740  1.00  0.00     0.031 C 
ATOM     38  C   UNL A   1      46.559  31.272  28.516  1.00  0.00     0.031 A 
BRANCH  25  39
ATOM     39  C   UNL A   1      40.637  29.906  29.708  1.00  0.00    -0.014 A 
ATOM     40  C   UNL A   1      39.648  30.261  28.774  1.00  0.00     0.010 A 
ATOM     41  C   UNL A   1      40.336  29.958  31.081  1.00  0.00     0.010 A 
ATOM     42  C   UNL A   1      38.383  30.669  29.211  1.00  0.00     0.020 A 
ATOM     43  C   UNL A   1      39.068  30.343  31.519  1.00  0.00     0.020 A 
ATOM     44  C   UNL A   1      38.100  30.701  30.580  1.00  0.00     0.054 A 
BRANCH  44  45
ATOM     45  S   UNL A   1      36.432  31.171  31.114  1.00  0.00     0.124 S 
ATOM     46  O   UNL A   1      36.642  32.532  31.604  1.00  0.00    -0.237 OA
ATOM     47  O   UNL A   1      35.659  31.060  29.879  1.00  0.00    -0.237 OA
ATOM     48  O   UNL A   1      36.104  30.185  32.142  1.00  0.00    -0.744 OA
ENDBRANCH  44  45
ENDBRANCH  25  39
BRANCH  26  49
ATOM     49  C   UNL A   1      49.586  26.366  26.589  1.00  0.00    -0.014 A 
ATOM     50  C   UNL A   1      50.562  25.855  27.462  1.00  0.00     0.010 A 
ATOM     51  C   UNL A   1      49.884  26.446  25.215  1.00  0.00     0.010 A 
ATOM     52  C   UNL A   1      51.822  25.479  26.978  1.00  0.00     0.020 A 
ATOM     53  C   UNL A   1      51.126  26.037  24.721  1.00  0.00     0.020 A 
ATOM     54  C   UNL A   1      52.097  25.581  25.610  1.00  0.00     0.054 A 
BRANCH  54  55
ATOM     55  S   UNL A   1      53.741  25.108  25.004  1.00  0.00     0.124 S 
ATOM     56  O   UNL A   1      53.611  23.660  24.878  1.00  0.00    -0.237 OA
ATOM     57  O   UNL A   1      53.841  25.846  23.748  1.00  0.00    -0.237 OA
ATOM     58  O   UNL A   1      54.641  25.567  26.061  1.00  0.00    -0.744 OA
ENDBRANCH  54  55
ENDBRANCH  26  49
BRANCH  38  59
ATOM     59  C   UNL A   1      47.229  32.612  28.623  1.00  0.00    -0.014 A 
ATOM     60  C   UNL A   1      47.209  33.518  27.549  1.00  0.00     0.010 A 
ATOM     61  C   UNL A   1      47.822  32.989  29.841  1.00  0.00     0.010 A 
ATOM     62  C   UNL A   1      47.798  34.775  27.685  1.00  0.00     0.020 A 
ATOM     63  C   UNL A   1      48.380  34.257  29.990  1.00  0.00     0.020 A 
ATOM     64  C   UNL A   1      48.376  35.138  28.906  1.00  0.00     0.054 A 
BRANCH  64  65
ATOM     65  S   UNL A   1      49.079  36.799  29.074  1.00  0.00     0.124 S 
ATOM     66  O   UNL A   1      48.849  37.361  27.746  1.00  0.00    -0.237 OA
ATOM     67  O   UNL A   1      48.278  37.379  30.150  1.00  0.00    -0.237 OA
ATOM     68  O   UNL A   1      50.479  36.550  29.412  1.00  0.00    -0.744 OA
ENDBRANCH  64  65
ENDBRANCH  38  59
ENDBRANCH  12  13
ENDBRANCH   5   7
ENDBRANCH   4   5
ENDBRANCH   3   4
ENDBRANCH   2   3
ENDBRANCH   1   2
BRANCH   1  69
ATOM     69  C   UNL A   1      35.969  22.098  24.466  1.00  0.00     0.202 C 
BRANCH  69  70
ATOM     70  C   UNL A   1      36.090  23.359  25.316  1.00  0.00     0.261 C 
BRANCH  70  71
ATOM     71  O   UNL A   1      35.327  24.392  24.674  1.00  0.00    -0.459 OA
BRANCH  71  72
ATOM     72  C   UNL A   1      34.132  24.640  25.292  1.00  0.00     0.365 C 
ATOM     73  O   UNL A   1      33.797  24.192  26.377  1.00  0.00    -0.245 OA
BRANCH  72  74
ATOM     74  C   UNL A   1      33.273  25.568  24.415  1.00  0.00     0.295 C 
ATOM     75  C   UNL A   1      33.629  25.268  22.970  1.00  0.00     0.083 C 
ATOM     76  N   UNL A   1      31.834  25.226  24.534  1.00  0.00    -0.319 N 
ATOM     77  C   UNL A   1      32.709  24.110  22.596  1.00  0.00     0.068 C 
ATOM     78  C   UNL A   1      31.622  24.064  23.669  1.00  0.00     0.263 C 
ATOM     79  H   UNL A   1      31.633  25.002  25.508  1.00  0.00     0.349 HD
BRANCH  76  80
ATOM     80  C   UNL A   1      30.855  26.314  24.389  1.00  0.00     0.307 C 
BRANCH  80  81
ATOM     81  C   UNL A   1      31.057  27.520  25.279  1.00  0.00     0.084 A 
ATOM     82  C   UNL A   1      31.328  27.294  26.643  1.00  0.00     0.017 A 
ATOM     83  C   UNL A   1      31.144  28.845  24.811  1.00  0.00     0.278 A 
ATOM     84  C   UNL A   1      31.796  28.321  27.464  1.00  0.00     0.001 A 
ATOM     85  C   UNL A   1      31.654  29.869  25.622  1.00  0.00     0.086 A 
ATOM     86  C   UNL A   1      32.001  29.596  26.943  1.00  0.00     0.007 A 
BRANCH  83  87
ATOM     87  N   UNL A   1      30.688  29.219  23.478  1.00  0.00     0.063 N 
ATOM     88  O   UNL A   1      29.490  29.501  23.342  1.00  0.00    -0.258 OA
ATOM     89  O   UNL A   1      31.517  29.174  22.560  1.00  0.00    -0.258 OA
ENDBRANCH  83  87
ENDBRANCH  80  81
ENDBRANCH  76  80
ENDBRANCH  72  74
ENDBRANCH  71  72
ENDBRANCH  70  71
ENDBRANCH  69  70
ENDBRANCH   1  69
TORSDOF 20
ENDMDL
MODEL 3
REMARK VINA RESULT:      -9.9      2.159      8.735
REMARK SMILES O=C(OCCOCCOC(=O)[C@H]1CCC[N@@H+]1Cc1ccccc1[N+](=O)[O-])c1ccc(-c2c3nc(c(-c4ccc(S(=O)(=O)[O-])cc4)c4ccc([nH]4)c(-c4ccc(S(=O)(=O)[O-])cc4)c4nc(c(-c5ccc(S(=O)(=O)[O-])cc5)c5ccc2[nH]5)C=C4)C=C3)cc1
REMARK SMILES IDX 6 1 5 2 4 3 3 4 2 5 1 6 27 7 28 8 86 9 29 10 85 11 30 12
REMARK SMILES IDX 31 13 32 14 79 15 33 16 84 17 78 18 80 19 34 20 83 21 77 22
REMARK SMILES IDX 76 23 35 25 65 26 46 27 64 28 47 29 50 30 63 31 81 32 48 33
REMARK SMILES IDX 49 34 62 36 82 37 51 38 36 39 37 40 45 41 38 42 44 43 39 44
REMARK SMILES IDX 40 45 41 46 42 47 43 48 66 49 67 50 75 51 68 52 74 53 69 54
REMARK SMILES IDX 70 55 71 56 72 57 73 58 52 59 53 60 61 61 54 62 60 63 55 64
REMARK SMILES IDX 56 65 57 66 58 67 59 68 7 69 8 70 9 71 10 72 11 73 12 74
REMARK SMILES IDX 13 75 16 76 14 77 15 78 17 80 18 81 19 82 23 83 20 84 22 85
REMARK SMILES IDX 21 86 24 87 25 88 26 89
REMARK H PARENT 80 24 50 35 16 79
REMARK Flexibility Score: inf
ROOT
ATOM      1  O   UNL A   1      34.014  31.495  28.309  1.00  0.00    -0.374 OA
ENDROOT
BRANCH   1   2
ATOM      2  C   UNL A   1      33.039  32.348  27.709  1.00  0.00     0.202 C 
BRANCH   2   3
ATOM      3  C   UNL A   1      33.401  33.837  27.735  1.00  0.00     0.261 C 
BRANCH   3   4
ATOM      4  O   UNL A   1      32.688  34.518  28.775  1.00  0.00    -0.460 OA
BRANCH   4   5
ATOM      5  C   UNL A   1      33.175  34.907  29.978  1.00  0.00     0.338 C 
ATOM      6  O   UNL A   1      32.618  35.839  30.558  1.00  0.00    -0.246 OA
BRANCH   5   7
ATOM      7  C   UNL A   1      34.341  34.258  30.655  1.00  0.00     0.060 A 
ATOM      8  C   UNL A   1      34.258  33.204  31.569  1.00  0.00     0.016 A 
ATOM      9  C   UNL A   1      35.620  34.680  30.257  1.00  0.00     0.016 A 
ATOM     10  C   UNL A   1      35.383  32.588  32.079  1.00  0.00     0.010 A 
ATOM     11  C   UNL A   1      36.767  34.050  30.749  1.00  0.00     0.010 A 
ATOM     12  C   UNL A   1      36.640  32.994  31.656  1.00  0.00    -0.014 A 
BRANCH  12  13
ATOM     13  C   UNL A   1      37.791  32.314  32.257  1.00  0.00     0.031 A 
ATOM     14  C   UNL A   1      38.195  32.707  33.640  1.00  0.00     0.074 A 
ATOM     15  C   UNL A   1      38.337  31.268  31.611  1.00  0.00     0.049 A 
ATOM     16  N   UNL A   1      39.194  32.275  34.354  1.00  0.00    -0.248 NA
ATOM     17  C   UNL A   1      37.349  33.707  34.319  1.00  0.00     0.031 C 
ATOM     18  C   UNL A   1      37.878  30.738  30.321  1.00  0.00     0.029 A 
ATOM     19  N   UNL A   1      39.369  30.441  31.959  1.00  0.00    -0.354 N 
ATOM     20  C   UNL A   1      39.126  32.978  35.549  1.00  0.00     0.074 A 
ATOM     21  C   UNL A   1      37.979  33.853  35.475  1.00  0.00     0.031 C 
ATOM     22  C   UNL A   1      38.622  29.669  29.994  1.00  0.00     0.029 A 
ATOM     23  C   UNL A   1      39.654  29.490  31.007  1.00  0.00     0.049 A 
ATOM     24  H   UNL A   1      39.861  30.519  32.808  1.00  0.00     0.167 HD
ATOM     25  C   UNL A   1      39.972  32.901  36.597  1.00  0.00     0.031 A 
ATOM     26  C   UNL A   1      40.673  28.614  30.947  1.00  0.00     0.031 A 
ATOM     27  C   UNL A   1      41.104  32.016  36.620  1.00  0.00     0.049 A 
ATOM     28  C   UNL A   1      41.663  28.634  32.082  1.00  0.00     0.074 A 
ATOM     29  C   UNL A   1      42.069  31.876  37.598  1.00  0.00     0.029 A 
ATOM     30  N   UNL A   1      41.420  31.123  35.604  1.00  0.00    -0.354 N 
ATOM     31  N   UNL A   1      41.627  29.338  33.191  1.00  0.00    -0.248 NA
ATOM     32  C   UNL A   1      42.837  27.764  31.955  1.00  0.00     0.031 C 
ATOM     33  C   UNL A   1      43.005  30.943  37.142  1.00  0.00     0.029 A 
ATOM     34  C   UNL A   1      42.587  30.452  35.914  1.00  0.00     0.049 A 
ATOM     35  H   UNL A   1      40.891  30.988  34.785  1.00  0.00     0.167 HD
ATOM     36  C   UNL A   1      42.768  28.988  33.900  1.00  0.00     0.074 A 
ATOM     37  C   UNL A   1      43.454  27.983  33.109  1.00  0.00     0.031 C 
ATOM     38  C   UNL A   1      43.222  29.455  35.090  1.00  0.00     0.031 A 
BRANCH  25  39
ATOM     39  C   UNL A   1      39.761  33.855  37.737  1.00  0.00    -0.014 A 
ATOM     40  C   UNL A   1      39.038  33.491  38.887  1.00  0.00     0.010 A 
ATOM     41  C   UNL A   1      40.330  35.139  37.661  1.00  0.00     0.010 A 
ATOM     42  C   UNL A   1      38.881  34.402  39.937  1.00  0.00     0.020 A 
ATOM     43  C   UNL A   1      40.193  36.044  38.716  1.00  0.00     0.020 A 
ATOM     44  C   UNL A   1      39.465  35.670  39.846  1.00  0.00     0.054 A 
BRANCH  44  45
ATOM     45  S   UNL A   1      39.299  36.808  41.249  1.00  0.00     0.124 S 
ATOM     46  O   UNL A   1      40.694  37.104  41.567  1.00  0.00    -0.237 OA
ATOM     47  O   UNL A   1      38.537  37.914  40.674  1.00  0.00    -0.237 OA
ATOM     48  O   UNL A   1      38.587  36.020  42.253  1.00  0.00    -0.744 OA
ENDBRANCH  44  45
ENDBRANCH  25  39
BRANCH  26  49
ATOM     49  C   UNL A   1      40.873  27.748  29.750  1.00  0.00    -0.014 A 
ATOM     50  C   UNL A   1      40.061  26.624  29.516  1.00  0.00     0.010 A 
ATOM     51  C   UNL A   1      41.925  28.019  28.853  1.00  0.00     0.010 A 
ATOM     52  C   UNL A   1      40.325  25.768  28.439  1.00  0.00     0.020 A 
ATOM     53  C   UNL A   1      42.170  27.188  27.756  1.00  0.00     0.020 A 
ATOM     54  C   UNL A   1      41.384  26.052  27.571  1.00  0.00     0.054 A 
BRANCH  54  55
ATOM     55  S   UNL A   1      41.723  24.920  26.194  1.00  0.00     0.124 S 
ATOM     56  O   UNL A   1      41.416  25.754  25.035  1.00  0.00    -0.237 OA
ATOM     57  O   UNL A   1      43.135  24.601  26.386  1.00  0.00    -0.237 OA
ATOM     58  O   UNL A   1      40.803  23.809  26.428  1.00  0.00    -0.744 OA
ENDBRANCH  54  55
ENDBRANCH  26  49
BRANCH  38  59
ATOM     59  C   UNL A   1      44.501  28.861  35.606  1.00  0.00    -0.014 A 
ATOM     60  C   UNL A   1      45.741  29.461  35.328  1.00  0.00     0.010 A 
ATOM     61  C   UNL A   1      44.447  27.729  36.438  1.00  0.00     0.010 A 
ATOM     62  C   UNL A   1      46.913  28.920  35.855  1.00  0.00     0.020 A 
ATOM     63  C   UNL A   1      45.614  27.207  36.995  1.00  0.00     0.020 A 
ATOM     64  C   UNL A   1      46.841  27.799  36.690  1.00  0.00     0.054 A 
BRANCH  64  65
ATOM     65  S   UNL A   1      48.372  27.153  37.410  1.00  0.00     0.124 S 
ATOM     66  O   UNL A   1      48.863  26.280  36.348  1.00  0.00    -0.237 OA
ATOM     67  O   UNL A   1      49.155  28.367  37.638  1.00  0.00    -0.237 OA
ATOM     68  O   UNL A   1      47.925  26.471  38.622  1.00  0.00    -0.744 OA
ENDBRANCH  64  65
ENDBRANCH  38  59
ENDBRANCH  12  13
ENDBRANCH   5   7
ENDBRANCH   4   5
ENDBRANCH   3   4
ENDBRANCH   2   3
ENDBRANCH   1   2
BRANCH   1  69
ATOM     69  C   UNL A   1      34.945  30.868  27.424  1.00  0.00     0.202 C 
BRANCH  69  70
ATOM     70  C   UNL A   1      34.673  29.367  27.380  1.00  0.00     0.261 C 
BRANCH  70  71
ATOM     71  O   UNL A   1      33.447  29.167  26.661  1.00  0.00    -0.459 OA
BRANCH  71  72
ATOM     72  C   UNL A   1      33.553  28.236  25.665  1.00  0.00     0.365 C 
ATOM     73  O   UNL A   1      33.892  28.473  24.516  1.00  0.00    -0.245 OA
BRANCH  72  74
ATOM     74  C   UNL A   1      33.180  26.845  26.208  1.00  0.00     0.295 C 
ATOM     75  C   UNL A   1      31.824  26.979  26.878  1.00  0.00     0.083 C 
ATOM     76  N   UNL A   1      32.965  25.884  25.099  1.00  0.00    -0.319 N 
ATOM     77  C   UNL A   1      30.829  26.771  25.742  1.00  0.00     0.068 C 
ATOM     78  C   UNL A   1      31.617  26.146  24.592  1.00  0.00     0.263 C 
ATOM     79  H   UNL A   1      33.669  26.055  24.380  1.00  0.00     0.349 HD
BRANCH  76  80
ATOM     80  C   UNL A   1      33.289  24.470  25.342  1.00  0.00     0.307 C 
BRANCH  80  81
ATOM     81  C   UNL A   1      34.647  24.002  24.866  1.00  0.00     0.084 A 
ATOM     82  C   UNL A   1      35.635  23.748  25.837  1.00  0.00     0.017 A 
ATOM     83  C   UNL A   1      34.943  23.657  23.534  1.00  0.00     0.278 A 
ATOM     84  C   UNL A   1      36.804  23.058  25.514  1.00  0.00     0.001 A 
ATOM     85  C   UNL A   1      36.097  22.926  23.213  1.00  0.00     0.086 A 
ATOM     86  C   UNL A   1      37.014  22.609  24.212  1.00  0.00     0.007 A 
BRANCH  83  87
ATOM     87  N   UNL A   1      34.084  24.061  22.427  1.00  0.00     0.063 N 
ATOM     88  O   UNL A   1      33.483  23.167  21.816  1.00  0.00    -0.258 OA
ATOM     89  O   UNL A   1      34.057  25.264  22.138  1.00  0.00    -0.258 OA
ENDBRANCH  83  87
ENDBRANCH  80  81
ENDBRANCH  76  80
ENDBRANCH  72  74
ENDBRANCH  71  72
ENDBRANCH  70  71
ENDBRANCH  69  70
ENDBRANCH   1  69
TORSDOF 20
ENDMDL
