MODEL 1
REMARK VINA RESULT:     -10.2      0.000      0.000
REMARK SMILES O=C(CCn1ccnc1)N[C@H]1C=C[C@H](C(=O)OCCOCCOC(=O)c2ccc(-c3c4nc(c(-c5ccc(S(=O)(=O)[O-])cc5)c5ccc([nH]5)c(-c5ccc(S(=O)(=O)[O-])cc5)c5nc(c(-c6ccc(S(=O)(=O)[O-])cc6)c6ccc3[nH]6)C=C5)C=C4)cc2)C1
REMARK SMILES IDX 19 1 18 2 17 3 15 4 16 5 14 6 11 7 12 8 86 9 13 10 10 11
REMARK SMILES IDX 1 12 2 13 3 15 4 16 5 17 6 18 9 19 7 20 8 21 20 22 21 23
REMARK SMILES IDX 22 24 23 25 24 26 25 27 26 28 27 29 85 30 28 31 84 32 29 33
REMARK SMILES IDX 30 34 31 35 78 36 32 37 83 38 77 39 79 40 33 41 82 42 76 43
REMARK SMILES IDX 75 44 34 46 64 47 45 48 63 49 46 50 49 51 62 52 80 53 47 54
REMARK SMILES IDX 48 55 61 57 81 58 50 59 35 60 36 61 44 62 37 63 43 64 38 65
REMARK SMILES IDX 39 66 40 67 41 68 42 69 65 70 66 71 74 72 67 73 73 74 68 75
REMARK SMILES IDX 69 76 70 77 71 78 72 79 51 80 52 81 60 82 53 83 59 84 54 85
REMARK SMILES IDX 55 86 56 87 57 88 58 89
REMARK H PARENT 10 14 79 45 49 56
REMARK Flexibility Score: inf
ROOT
ATOM      1  C   UNL A   1      40.697  20.787  27.024  1.00  0.00     0.202 C 
ENDROOT
BRANCH   1   2
ATOM      2  C   UNL A   1      40.131  21.882  26.119  1.00  0.00     0.261 C 
BRANCH   2   3
ATOM      3  O   UNL A   1      38.716  21.739  25.901  1.00  0.00    -0.463 OA
BRANCH   3   4
ATOM      4  C   UNL A   1      37.990  22.890  25.940  1.00  0.00     0.312 C 
ATOM      5  O   UNL A   1      38.278  23.870  26.619  1.00  0.00    -0.252 OA
BRANCH   4   6
ATOM      6  C   UNL A   1      36.726  22.793  25.083  1.00  0.00     0.124 C 
ATOM      7  C   UNL A   1      34.560  22.351  26.203  1.00  0.00     0.106 C 
ATOM      8  C   UNL A   1      35.122  21.123  25.569  1.00  0.00    -0.006 C 
ATOM      9  C   UNL A   1      35.463  23.465  25.643  1.00  0.00     0.048 C 
ATOM     10  C   UNL A   1      36.289  21.361  24.961  1.00  0.00    -0.014 C 
BRANCH   7  11
ATOM     11  N   UNL A   1      33.173  22.481  25.828  1.00  0.00    -0.350 N 
ATOM     12  O   UNL A   1      32.396  22.750  27.963  1.00  0.00    -0.275 OA
ATOM     13  C   UNL A   1      32.185  22.713  26.755  1.00  0.00     0.222 C 
ATOM     14  H   UNL A   1      32.927  22.403  24.879  1.00  0.00     0.164 HD
BRANCH  13  15
ATOM     15  C   UNL A   1      30.811  22.975  26.177  1.00  0.00     0.122 C 
BRANCH  15  16
ATOM     16  C   UNL A   1      30.894  23.572  24.772  1.00  0.00     0.133 C 
BRANCH  16  17
ATOM     17  N   UNL A   1      30.743  25.016  24.768  1.00  0.00    -0.337 N 
ATOM     18  C   UNL A   1      30.654  25.811  23.658  1.00  0.00     0.107 A 
ATOM     19  C   UNL A   1      30.769  25.836  25.861  1.00  0.00     0.199 A 
ATOM     20  C   UNL A   1      30.711  27.099  24.139  1.00  0.00     0.130 A 
ATOM     21  N   UNL A   1      30.797  27.102  25.507  1.00  0.00    -0.245 NA
ENDBRANCH  16  17
ENDBRANCH  15  16
ENDBRANCH  13  15
ENDBRANCH   7  11
ENDBRANCH   4   6
ENDBRANCH   3   4
ENDBRANCH   2   3
ENDBRANCH   1   2
BRANCH   1  22
ATOM     22  O   UNL A   1      42.065  20.428  26.832  1.00  0.00    -0.374 OA
BRANCH  22  23
ATOM     23  C   UNL A   1      42.383  19.075  26.519  1.00  0.00     0.202 C 
BRANCH  23  24
ATOM     24  C   UNL A   1      43.522  18.837  25.539  1.00  0.00     0.261 C 
BRANCH  24  25
ATOM     25  O   UNL A   1      43.631  19.907  24.612  1.00  0.00    -0.460 OA
BRANCH  25  26
ATOM     26  C   UNL A   1      44.899  20.315  24.365  1.00  0.00     0.338 C 
ATOM     27  O   UNL A   1      45.862  19.617  24.130  1.00  0.00    -0.246 OA
BRANCH  26  28
ATOM     28  C   UNL A   1      44.956  21.764  24.589  1.00  0.00     0.060 A 
ATOM     29  C   UNL A   1      45.980  22.204  25.427  1.00  0.00     0.016 A 
ATOM     30  C   UNL A   1      43.866  22.580  24.248  1.00  0.00     0.016 A 
ATOM     31  C   UNL A   1      45.781  23.368  26.127  1.00  0.00     0.010 A 
ATOM     32  C   UNL A   1      43.665  23.740  24.953  1.00  0.00     0.010 A 
ATOM     33  C   UNL A   1      44.577  24.064  25.950  1.00  0.00    -0.014 A 
BRANCH  33  34
ATOM     34  C   UNL A   1      44.356  25.231  26.772  1.00  0.00     0.031 A 
ATOM     35  C   UNL A   1      45.401  26.252  26.560  1.00  0.00     0.074 A 
ATOM     36  C   UNL A   1      43.287  25.371  27.576  1.00  0.00     0.049 A 
ATOM     37  N   UNL A   1      46.354  26.563  27.371  1.00  0.00    -0.248 NA
ATOM     38  C   UNL A   1      45.542  26.820  25.208  1.00  0.00     0.031 C 
ATOM     39  C   UNL A   1      42.090  24.532  27.669  1.00  0.00     0.029 A 
ATOM     40  N   UNL A   1      43.005  26.388  28.429  1.00  0.00    -0.354 N 
ATOM     41  C   UNL A   1      47.082  27.548  26.720  1.00  0.00     0.074 A 
ATOM     42  C   UNL A   1      46.680  27.504  25.337  1.00  0.00     0.031 C 
ATOM     43  C   UNL A   1      41.122  25.213  28.327  1.00  0.00     0.029 A 
ATOM     44  C   UNL A   1      41.672  26.471  28.808  1.00  0.00     0.049 A 
ATOM     45  H   UNL A   1      43.690  27.016  28.752  1.00  0.00     0.167 HD
ATOM     46  C   UNL A   1      47.736  28.511  27.421  1.00  0.00     0.031 A 
ATOM     47  C   UNL A   1      41.067  27.540  29.394  1.00  0.00     0.031 A 
ATOM     48  C   UNL A   1      47.892  28.147  28.806  1.00  0.00     0.049 A 
ATOM     49  C   UNL A   1      42.145  28.370  29.998  1.00  0.00     0.074 A 
ATOM     50  C   UNL A   1      48.502  27.096  29.462  1.00  0.00     0.029 A 
ATOM     51  N   UNL A   1      47.000  28.692  29.702  1.00  0.00    -0.354 N 
ATOM     52  N   UNL A   1      42.872  27.963  31.002  1.00  0.00    -0.248 NA
ATOM     53  C   UNL A   1      42.751  29.409  29.175  1.00  0.00     0.031 C 
ATOM     54  C   UNL A   1      47.617  26.765  30.529  1.00  0.00     0.029 A 
ATOM     55  C   UNL A   1      46.564  27.681  30.522  1.00  0.00     0.049 A 
ATOM     56  H   UNL A   1      46.725  29.636  29.746  1.00  0.00     0.167 HD
ATOM     57  C   UNL A   1      44.168  28.347  30.682  1.00  0.00     0.074 A 
ATOM     58  C   UNL A   1      44.019  29.308  29.588  1.00  0.00     0.031 C 
ATOM     59  C   UNL A   1      45.249  27.638  31.128  1.00  0.00     0.031 A 
BRANCH  46  60
ATOM     60  C   UNL A   1      47.817  29.937  26.945  1.00  0.00    -0.014 A 
ATOM     61  C   UNL A   1      49.037  30.624  27.072  1.00  0.00     0.010 A 
ATOM     62  C   UNL A   1      46.673  30.707  26.641  1.00  0.00     0.010 A 
ATOM     63  C   UNL A   1      49.094  32.020  26.966  1.00  0.00     0.020 A 
ATOM     64  C   UNL A   1      46.724  32.090  26.491  1.00  0.00     0.020 A 
ATOM     65  C   UNL A   1      47.932  32.742  26.688  1.00  0.00     0.054 A 
BRANCH  65  66
ATOM     66  S   UNL A   1      47.996  34.547  26.648  1.00  0.00     0.124 S 
ATOM     67  O   UNL A   1      47.862  34.820  25.221  1.00  0.00    -0.237 OA
ATOM     68  O   UNL A   1      46.852  34.913  27.477  1.00  0.00    -0.237 OA
ATOM     69  O   UNL A   1      49.303  34.855  27.226  1.00  0.00    -0.744 OA
ENDBRANCH  65  66
ENDBRANCH  46  60
BRANCH  47  70
ATOM     70  C   UNL A   1      39.696  28.060  29.134  1.00  0.00    -0.014 A 
ATOM     71  C   UNL A   1      38.736  28.162  30.160  1.00  0.00     0.010 A 
ATOM     72  C   UNL A   1      39.415  28.720  27.919  1.00  0.00     0.010 A 
ATOM     73  C   UNL A   1      37.574  28.944  29.997  1.00  0.00     0.020 A 
ATOM     74  C   UNL A   1      38.261  29.494  27.748  1.00  0.00     0.020 A 
ATOM     75  C   UNL A   1      37.355  29.622  28.796  1.00  0.00     0.054 A 
BRANCH  75  76
ATOM     76  S   UNL A   1      35.956  30.775  28.644  1.00  0.00     0.124 S 
ATOM     77  O   UNL A   1      36.526  31.855  27.844  1.00  0.00    -0.237 OA
ATOM     78  O   UNL A   1      34.941  29.962  27.982  1.00  0.00    -0.237 OA
ATOM     79  O   UNL A   1      35.653  31.130  30.031  1.00  0.00    -0.744 OA
ENDBRANCH  75  76
ENDBRANCH  47  70
BRANCH  59  80
ATOM     80  C   UNL A   1      45.033  26.576  32.183  1.00  0.00    -0.014 A 
ATOM     81  C   UNL A   1      44.738  25.225  31.900  1.00  0.00     0.010 A 
ATOM     82  C   UNL A   1      45.295  26.934  33.516  1.00  0.00     0.010 A 
ATOM     83  C   UNL A   1      44.673  24.274  32.932  1.00  0.00     0.020 A 
ATOM     84  C   UNL A   1      45.252  25.990  34.544  1.00  0.00     0.020 A 
ATOM     85  C   UNL A   1      44.928  24.666  34.249  1.00  0.00     0.054 A 
BRANCH  85  86
ATOM     86  S   UNL A   1      44.864  23.435  35.582  1.00  0.00     0.124 S 
ATOM     87  O   UNL A   1      45.150  24.237  36.768  1.00  0.00    -0.237 OA
ATOM     88  O   UNL A   1      43.501  22.919  35.485  1.00  0.00    -0.237 OA
ATOM     89  O   UNL A   1      45.908  22.475  35.220  1.00  0.00    -0.744 OA
ENDBRANCH  85  86
ENDBRANCH  59  80
ENDBRANCH  33  34
ENDBRANCH  26  28
ENDBRANCH  25  26
ENDBRANCH  24  25
ENDBRANCH  23  24
ENDBRANCH  22  23
ENDBRANCH   1  22
TORSDOF 21
ENDMDL
MODEL 2
REMARK VINA RESULT:      -9.7      1.702      2.443
REMARK SMILES O=C(CCn1ccnc1)N[C@H]1C=C[C@H](C(=O)OCCOCCOC(=O)c2ccc(-c3c4nc(c(-c5ccc(S(=O)(=O)[O-])cc5)c5ccc([nH]5)c(-c5ccc(S(=O)(=O)[O-])cc5)c5nc(c(-c6ccc(S(=O)(=O)[O-])cc6)c6ccc3[nH]6)C=C5)C=C4)cc2)C1
REMARK SMILES IDX 19 1 18 2 17 3 15 4 16 5 14 6 11 7 12 8 86 9 13 10 10 11
REMARK SMILES IDX 1 12 2 13 3 15 4 16 5 17 6 18 9 19 7 20 8 21 20 22 21 23
REMARK SMILES IDX 22 24 23 25 24 26 25 27 26 28 27 29 85 30 28 31 84 32 29 33
REMARK SMILES IDX 30 34 31 35 78 36 32 37 83 38 77 39 79 40 33 41 82 42 76 43
REMARK SMILES IDX 75 44 34 46 64 47 45 48 63 49 46 50 49 51 62 52 80 53 47 54
REMARK SMILES IDX 48 55 61 57 81 58 50 59 35 60 36 61 44 62 37 63 43 64 38 65
REMARK SMILES IDX 39 66 40 67 41 68 42 69 65 70 66 71 74 72 67 73 73 74 68 75
REMARK SMILES IDX 69 76 70 77 71 78 72 79 51 80 52 81 60 82 53 83 59 84 54 85
REMARK SMILES IDX 55 86 56 87 57 88 58 89
REMARK H PARENT 10 14 79 45 49 56
REMARK Flexibility Score: inf
ROOT
ATOM      1  C   UNL A   1      43.050  18.459  25.565  1.00  0.00     0.202 C 
ENDROOT
BRANCH   1   2
ATOM      2  C   UNL A   1      42.758  19.841  26.150  1.00  0.00     0.261 C 
BRANCH   2   3
ATOM      3  O   UNL A   1      41.454  20.328  25.789  1.00  0.00    -0.463 OA
BRANCH   3   4
ATOM      4  C   UNL A   1      41.157  21.593  26.197  1.00  0.00     0.312 C 
ATOM      5  O   UNL A   1      41.964  22.516  26.236  1.00  0.00    -0.252 OA
BRANCH   4   6
ATOM      6  C   UNL A   1      39.707  21.712  26.667  1.00  0.00     0.124 C 
ATOM      7  C   UNL A   1      37.961  22.286  25.004  1.00  0.00     0.106 C 
ATOM      8  C   UNL A   1      38.357  23.465  25.828  1.00  0.00    -0.006 C 
ATOM      9  C   UNL A   1      38.634  21.115  25.743  1.00  0.00     0.048 C 
ATOM     10  C   UNL A   1      39.296  23.156  26.728  1.00  0.00    -0.014 C 
BRANCH   7  11
ATOM     11  N   UNL A   1      36.522  22.202  24.966  1.00  0.00    -0.350 N 
ATOM     12  O   UNL A   1      36.303  23.146  22.894  1.00  0.00    -0.275 OA
ATOM     13  C   UNL A   1      35.794  22.612  23.875  1.00  0.00     0.222 C 
ATOM     14  H   UNL A   1      36.046  21.837  25.747  1.00  0.00     0.164 HD
BRANCH  13  15
ATOM     15  C   UNL A   1      34.312  22.312  23.940  1.00  0.00     0.122 C 
BRANCH  15  16
ATOM     16  C   UNL A   1      33.865  21.984  25.365  1.00  0.00     0.133 C 
BRANCH  16  17
ATOM     17  N   UNL A   1      32.832  22.883  25.848  1.00  0.00    -0.337 N 
ATOM     18  C   UNL A   1      32.250  23.895  25.135  1.00  0.00     0.107 A 
ATOM     19  C   UNL A   1      32.341  22.942  27.122  1.00  0.00     0.199 A 
ATOM     20  C   UNL A   1      31.480  24.576  26.050  1.00  0.00     0.130 A 
ATOM     21  N   UNL A   1      31.557  23.985  27.284  1.00  0.00    -0.245 NA
ENDBRANCH  16  17
ENDBRANCH  15  16
ENDBRANCH  13  15
ENDBRANCH   7  11
ENDBRANCH   4   6
ENDBRANCH   3   4
ENDBRANCH   2   3
ENDBRANCH   1   2
BRANCH   1  22
ATOM     22  O   UNL A   1      44.347  18.249  25.007  1.00  0.00    -0.374 OA
BRANCH  22  23
ATOM     23  C   UNL A   1      45.484  18.738  25.713  1.00  0.00     0.202 C 
BRANCH  23  24
ATOM     24  C   UNL A   1      46.361  19.757  24.999  1.00  0.00     0.261 C 
BRANCH  24  25
ATOM     25  O   UNL A   1      46.104  21.071  25.471  1.00  0.00    -0.460 OA
BRANCH  25  26
ATOM     26  C   UNL A   1      45.259  21.794  24.698  1.00  0.00     0.338 C 
ATOM     27  O   UNL A   1      44.631  21.408  23.736  1.00  0.00    -0.246 OA
BRANCH  26  28
ATOM     28  C   UNL A   1      45.350  23.195  25.124  1.00  0.00     0.060 A 
ATOM     29  C   UNL A   1      45.977  23.413  26.351  1.00  0.00     0.016 A 
ATOM     30  C   UNL A   1      44.573  24.182  24.496  1.00  0.00     0.016 A 
ATOM     31  C   UNL A   1      45.614  24.526  27.069  1.00  0.00     0.010 A 
ATOM     32  C   UNL A   1      44.207  25.291  25.217  1.00  0.00     0.010 A 
ATOM     33  C   UNL A   1      44.657  25.394  26.528  1.00  0.00    -0.014 A 
BRANCH  33  34
ATOM     34  C   UNL A   1      44.225  26.503  27.347  1.00  0.00     0.031 A 
ATOM     35  C   UNL A   1      45.175  27.631  27.281  1.00  0.00     0.074 A 
ATOM     36  C   UNL A   1      43.065  26.505  28.028  1.00  0.00     0.049 A 
ATOM     37  N   UNL A   1      45.994  28.008  28.202  1.00  0.00    -0.248 NA
ATOM     38  C   UNL A   1      45.405  28.259  25.969  1.00  0.00     0.031 C 
ATOM     39  C   UNL A   1      41.959  25.546  27.964  1.00  0.00     0.029 A 
ATOM     40  N   UNL A   1      42.586  27.456  28.868  1.00  0.00    -0.354 N 
ATOM     41  C   UNL A   1      46.682  29.084  27.663  1.00  0.00     0.074 A 
ATOM     42  C   UNL A   1      46.444  29.049  26.242  1.00  0.00     0.031 C 
ATOM     43  C   UNL A   1      40.859  26.101  28.523  1.00  0.00     0.029 A 
ATOM     44  C   UNL A   1      41.217  27.391  29.095  1.00  0.00     0.049 A 
ATOM     45  H   UNL A   1      43.162  28.139  29.283  1.00  0.00     0.167 HD
ATOM     46  C   UNL A   1      47.151  30.083  28.457  1.00  0.00     0.031 A 
ATOM     47  C   UNL A   1      40.443  28.371  29.634  1.00  0.00     0.031 A 
ATOM     48  C   UNL A   1      47.189  29.687  29.842  1.00  0.00     0.049 A 
ATOM     49  C   UNL A   1      41.355  29.283  30.377  1.00  0.00     0.074 A 
ATOM     50  C   UNL A   1      47.830  28.679  30.537  1.00  0.00     0.029 A 
ATOM     51  N   UNL A   1      46.152  30.106  30.643  1.00  0.00    -0.354 N 
ATOM     52  N   UNL A   1      42.005  28.916  31.447  1.00  0.00    -0.248 NA
ATOM     53  C   UNL A   1      41.936  30.407  29.654  1.00  0.00     0.031 C 
ATOM     54  C   UNL A   1      46.872  28.223  31.488  1.00  0.00     0.029 A 
ATOM     55  C   UNL A   1      45.736  29.027  31.383  1.00  0.00     0.049 A 
ATOM     56  H   UNL A   1      45.776  31.015  30.679  1.00  0.00     0.167 HD
ATOM     57  C   UNL A   1      43.281  29.441  31.286  1.00  0.00     0.074 A 
ATOM     58  C   UNL A   1      43.154  30.420  30.206  1.00  0.00     0.031 C 
ATOM     59  C   UNL A   1      44.374  28.829  31.834  1.00  0.00     0.031 A 
BRANCH  46  60
ATOM     60  C   UNL A   1      47.134  31.526  28.029  1.00  0.00    -0.014 A 
ATOM     61  C   UNL A   1      48.267  32.053  27.385  1.00  0.00     0.010 A 
ATOM     62  C   UNL A   1      46.165  32.446  28.483  1.00  0.00     0.010 A 
ATOM     63  C   UNL A   1      48.450  33.437  27.265  1.00  0.00     0.020 A 
ATOM     64  C   UNL A   1      46.315  33.822  28.331  1.00  0.00     0.020 A 
ATOM     65  C   UNL A   1      47.476  34.310  27.751  1.00  0.00     0.054 A 
BRANCH  65  66
ATOM     66  S   UNL A   1      47.764  36.092  27.678  1.00  0.00     0.124 S 
ATOM     67  O   UNL A   1      48.464  36.230  26.405  1.00  0.00    -0.237 OA
ATOM     68  O   UNL A   1      46.405  36.624  27.719  1.00  0.00    -0.237 OA
ATOM     69  O   UNL A   1      48.569  36.358  28.869  1.00  0.00    -0.744 OA
ENDBRANCH  65  66
ENDBRANCH  46  60
BRANCH  47  70
ATOM     70  C   UNL A   1      39.062  28.758  29.232  1.00  0.00    -0.014 A 
ATOM     71  C   UNL A   1      38.005  28.801  30.163  1.00  0.00     0.010 A 
ATOM     72  C   UNL A   1      38.840  29.358  27.975  1.00  0.00     0.010 A 
ATOM     73  C   UNL A   1      36.800  29.471  29.867  1.00  0.00     0.020 A 
ATOM     74  C   UNL A   1      37.644  30.020  27.672  1.00  0.00     0.020 A 
ATOM     75  C   UNL A   1      36.636  30.095  28.628  1.00  0.00     0.054 A 
BRANCH  75  76
ATOM     76  S   UNL A   1      35.163  31.113  28.311  1.00  0.00     0.124 S 
ATOM     77  O   UNL A   1      35.682  32.144  27.417  1.00  0.00    -0.237 OA
ATOM     78  O   UNL A   1      34.237  30.158  27.707  1.00  0.00    -0.237 OA
ATOM     79  O   UNL A   1      34.779  31.586  29.641  1.00  0.00    -0.744 OA
ENDBRANCH  75  76
ENDBRANCH  47  70
BRANCH  59  80
ATOM     80  C   UNL A   1      44.154  27.713  32.832  1.00  0.00    -0.014 A 
ATOM     81  C   UNL A   1      44.069  26.347  32.488  1.00  0.00     0.010 A 
ATOM     82  C   UNL A   1      44.192  28.055  34.195  1.00  0.00     0.010 A 
ATOM     83  C   UNL A   1      43.989  25.360  33.484  1.00  0.00     0.020 A 
ATOM     84  C   UNL A   1      44.132  27.077  35.190  1.00  0.00     0.020 A 
ATOM     85  C   UNL A   1      44.017  25.735  34.831  1.00  0.00     0.054 A 
BRANCH  85  86
ATOM     86  S   UNL A   1      43.932  24.460  36.121  1.00  0.00     0.124 S 
ATOM     87  O   UNL A   1      43.879  23.225  35.343  1.00  0.00    -0.237 OA
ATOM     88  O   UNL A   1      45.165  24.676  36.875  1.00  0.00    -0.237 OA
ATOM     89  O   UNL A   1      42.705  24.783  36.850  1.00  0.00    -0.744 OA
ENDBRANCH  85  86
ENDBRANCH  59  80
ENDBRANCH  33  34
ENDBRANCH  26  28
ENDBRANCH  25  26
ENDBRANCH  24  25
ENDBRANCH  23  24
ENDBRANCH  22  23
ENDBRANCH   1  22
TORSDOF 21
ENDMDL
MODEL 3
REMARK VINA RESULT:      -9.6      4.698     12.206
REMARK SMILES O=C(CCn1ccnc1)N[C@H]1C=C[C@H](C(=O)OCCOCCOC(=O)c2ccc(-c3c4nc(c(-c5ccc(S(=O)(=O)[O-])cc5)c5ccc([nH]5)c(-c5ccc(S(=O)(=O)[O-])cc5)c5nc(c(-c6ccc(S(=O)(=O)[O-])cc6)c6ccc3[nH]6)C=C5)C=C4)cc2)C1
REMARK SMILES IDX 19 1 18 2 17 3 15 4 16 5 14 6 11 7 12 8 86 9 13 10 10 11
REMARK SMILES IDX 1 12 2 13 3 15 4 16 5 17 6 18 9 19 7 20 8 21 20 22 21 23
REMARK SMILES IDX 22 24 23 25 24 26 25 27 26 28 27 29 85 30 28 31 84 32 29 33
REMARK SMILES IDX 30 34 31 35 78 36 32 37 83 38 77 39 79 40 33 41 82 42 76 43
REMARK SMILES IDX 75 44 34 46 64 47 45 48 63 49 46 50 49 51 62 52 80 53 47 54
REMARK SMILES IDX 48 55 61 57 81 58 50 59 35 60 36 61 44 62 37 63 43 64 38 65
REMARK SMILES IDX 39 66 40 67 41 68 42 69 65 70 66 71 74 72 67 73 73 74 68 75
REMARK SMILES IDX 69 76 70 77 71 78 72 79 51 80 52 81 60 82 53 83 59 84 54 85
REMARK SMILES IDX 55 86 56 87 57 88 58 89
REMARK H PARENT 10 14 79 45 49 56
REMARK Flexibility Score: inf
ROOT
ATOM      1  C   UNL A   1      33.515  36.442  30.700  1.00  0.00     0.202 C 
ENDROOT
BRANCH   1   2
ATOM      2  C   UNL A   1      33.202  35.341  31.714  1.00  0.00     0.261 C 
BRANCH   2   3
ATOM      3  O   UNL A   1      34.380  34.850  32.375  1.00  0.00    -0.463 OA
BRANCH   3   4
ATOM      4  C   UNL A   1      34.536  33.496  32.386  1.00  0.00     0.312 C 
ATOM      5  O   UNL A   1      34.010  32.732  31.585  1.00  0.00    -0.252 OA
BRANCH   4   6
ATOM      6  C   UNL A   1      35.396  33.034  33.563  1.00  0.00     0.124 C 
ATOM      7  C   UNL A   1      37.607  34.098  33.912  1.00  0.00     0.106 C 
ATOM      8  C   UNL A   1      37.727  32.763  33.259  1.00  0.00    -0.006 C 
ATOM      9  C   UNL A   1      36.131  34.130  34.350  1.00  0.00     0.048 C 
ATOM     10  C   UNL A   1      36.535  32.185  33.074  1.00  0.00    -0.014 C 
BRANCH   7  11
ATOM     11  N   UNL A   1      38.541  34.172  35.008  1.00  0.00    -0.350 N 
ATOM     12  O   UNL A   1      40.271  35.004  33.763  1.00  0.00    -0.275 OA
ATOM     13  C   UNL A   1      39.814  34.665  34.851  1.00  0.00     0.222 C 
ATOM     14  H   UNL A   1      38.257  33.860  35.898  1.00  0.00     0.164 HD
BRANCH  13  15
ATOM     15  C   UNL A   1      40.609  34.813  36.130  1.00  0.00     0.122 C 
BRANCH  15  16
ATOM     16  C   UNL A   1      39.824  34.313  37.343  1.00  0.00     0.133 C 
BRANCH  16  17
ATOM     17  N   UNL A   1      40.584  33.380  38.156  1.00  0.00    -0.337 N 
ATOM     18  C   UNL A   1      40.649  33.373  39.522  1.00  0.00     0.107 A 
ATOM     19  C   UNL A   1      41.442  32.420  37.698  1.00  0.00     0.199 A 
ATOM     20  C   UNL A   1      41.619  32.446  39.826  1.00  0.00     0.130 A 
ATOM     21  N   UNL A   1      42.116  31.872  38.685  1.00  0.00    -0.245 NA
ENDBRANCH  16  17
ENDBRANCH  15  16
ENDBRANCH  13  15
ENDBRANCH   7  11
ENDBRANCH   4   6
ENDBRANCH   3   4
ENDBRANCH   2   3
ENDBRANCH   1   2
BRANCH   1  22
ATOM     22  O   UNL A   1      33.517  36.076  29.321  1.00  0.00    -0.374 OA
BRANCH  22  23
ATOM     23  C   UNL A   1      32.992  34.806  28.948  1.00  0.00     0.202 C 
BRANCH  23  24
ATOM     24  C   UNL A   1      33.781  33.999  27.927  1.00  0.00     0.261 C 
BRANCH  24  25
ATOM     25  O   UNL A   1      34.835  33.280  28.549  1.00  0.00    -0.460 OA
BRANCH  25  26
ATOM     26  C   UNL A   1      34.990  32.009  28.109  1.00  0.00     0.338 C 
ATOM     27  O   UNL A   1      34.319  31.432  27.281  1.00  0.00    -0.246 OA
BRANCH  26  28
ATOM     28  C   UNL A   1      36.024  31.372  28.932  1.00  0.00     0.060 A 
ATOM     29  C   UNL A   1      37.057  32.208  29.355  1.00  0.00     0.016 A 
ATOM     30  C   UNL A   1      36.121  29.973  28.997  1.00  0.00     0.016 A 
ATOM     31  C   UNL A   1      38.283  31.640  29.601  1.00  0.00     0.010 A 
ATOM     32  C   UNL A   1      37.348  29.407  29.237  1.00  0.00     0.010 A 
ATOM     33  C   UNL A   1      38.429  30.256  29.439  1.00  0.00    -0.014 A 
BRANCH  33  34
ATOM     34  C   UNL A   1      39.752  29.702  29.611  1.00  0.00     0.031 A 
ATOM     35  C   UNL A   1      40.159  29.695  31.029  1.00  0.00     0.074 A 
ATOM     36  C   UNL A   1      40.478  29.204  28.594  1.00  0.00     0.049 A 
ATOM     37  N   UNL A   1      41.029  30.465  31.589  1.00  0.00    -0.248 NA
ATOM     38  C   UNL A   1      39.346  28.909  31.974  1.00  0.00     0.031 C 
ATOM     39  C   UNL A   1      40.068  28.949  27.210  1.00  0.00     0.029 A 
ATOM     40  N   UNL A   1      41.743  28.714  28.624  1.00  0.00    -0.354 N 
ATOM     41  C   UNL A   1      41.042  30.093  32.925  1.00  0.00     0.074 A 
ATOM     42  C   UNL A   1      39.854  29.307  33.141  1.00  0.00     0.031 C 
ATOM     43  C   UNL A   1      40.970  28.126  26.626  1.00  0.00     0.029 A 
ATOM     44  C   UNL A   1      42.076  27.906  27.546  1.00  0.00     0.049 A 
ATOM     45  H   UNL A   1      42.373  28.916  29.353  1.00  0.00     0.167 HD
ATOM     46  C   UNL A   1      42.171  30.213  33.672  1.00  0.00     0.031 A 
ATOM     47  C   UNL A   1      43.139  27.060  27.472  1.00  0.00     0.031 A 
ATOM     48  C   UNL A   1      43.132  31.087  33.047  1.00  0.00     0.049 A 
ATOM     49  C   UNL A   1      44.123  27.513  28.493  1.00  0.00     0.074 A 
ATOM     50  C   UNL A   1      43.114  32.411  32.654  1.00  0.00     0.029 A 
ATOM     51  N   UNL A   1      44.160  30.493  32.350  1.00  0.00    -0.354 N 
ATOM     52  N   UNL A   1      44.755  28.652  28.411  1.00  0.00    -0.248 NA
ATOM     53  C   UNL A   1      44.021  26.957  29.836  1.00  0.00     0.031 C 
ATOM     54  C   UNL A   1      43.805  32.433  31.407  1.00  0.00     0.029 A 
ATOM     55  C   UNL A   1      44.279  31.146  31.149  1.00  0.00     0.049 A 
ATOM     56  H   UNL A   1      44.710  29.737  32.659  1.00  0.00     0.167 HD
ATOM     57  C   UNL A   1      44.727  29.168  29.700  1.00  0.00     0.074 A 
ATOM     58  C   UNL A   1      44.338  28.042  30.551  1.00  0.00     0.031 C 
ATOM     59  C   UNL A   1      44.733  30.517  29.925  1.00  0.00     0.031 A 
BRANCH  46  60
ATOM     60  C   UNL A   1      42.560  29.196  34.711  1.00  0.00    -0.014 A 
ATOM     61  C   UNL A   1      43.361  29.606  35.792  1.00  0.00     0.010 A 
ATOM     62  C   UNL A   1      42.402  27.806  34.517  1.00  0.00     0.010 A 
ATOM     63  C   UNL A   1      44.025  28.668  36.594  1.00  0.00     0.020 A 
ATOM     64  C   UNL A   1      43.021  26.865  35.335  1.00  0.00     0.020 A 
ATOM     65  C   UNL A   1      43.857  27.304  36.349  1.00  0.00     0.054 A 
BRANCH  65  66
ATOM     66  S   UNL A   1      44.791  26.106  37.327  1.00  0.00     0.124 S 
ATOM     67  O   UNL A   1      46.049  26.813  37.546  1.00  0.00    -0.237 OA
ATOM     68  O   UNL A   1      43.941  25.940  38.502  1.00  0.00    -0.237 OA
ATOM     69  O   UNL A   1      44.872  24.939  36.452  1.00  0.00    -0.744 OA
ENDBRANCH  65  66
ENDBRANCH  46  60
BRANCH  47  70
ATOM     70  C   UNL A   1      43.177  25.705  26.857  1.00  0.00    -0.014 A 
ATOM     71  C   UNL A   1      43.282  25.527  25.463  1.00  0.00     0.010 A 
ATOM     72  C   UNL A   1      43.391  24.572  27.669  1.00  0.00     0.010 A 
ATOM     73  C   UNL A   1      43.645  24.282  24.911  1.00  0.00     0.020 A 
ATOM     74  C   UNL A   1      43.746  23.330  27.129  1.00  0.00     0.020 A 
ATOM     75  C   UNL A   1      43.895  23.194  25.752  1.00  0.00     0.054 A 
BRANCH  75  76
ATOM     76  S   UNL A   1      44.540  21.640  25.062  1.00  0.00     0.124 S 
ATOM     77  O   UNL A   1      44.498  21.895  23.625  1.00  0.00    -0.237 OA
ATOM     78  O   UNL A   1      45.873  21.556  25.652  1.00  0.00    -0.237 OA
ATOM     79  O   UNL A   1      43.592  20.634  25.538  1.00  0.00    -0.744 OA
ENDBRANCH  75  76
ENDBRANCH  47  70
BRANCH  59  80
ATOM     80  C   UNL A   1      45.025  31.443  28.765  1.00  0.00    -0.014 A 
ATOM     81  C   UNL A   1      44.210  31.561  27.620  1.00  0.00     0.010 A 
ATOM     82  C   UNL A   1      46.092  32.345  28.918  1.00  0.00     0.010 A 
ATOM     83  C   UNL A   1      44.483  32.533  26.642  1.00  0.00     0.020 A 
ATOM     84  C   UNL A   1      46.357  33.325  27.961  1.00  0.00     0.020 A 
ATOM     85  C   UNL A   1      45.560  33.407  26.820  1.00  0.00     0.054 A 
BRANCH  85  86
ATOM     86  S   UNL A   1      45.903  34.676  25.567  1.00  0.00     0.124 S 
ATOM     87  O   UNL A   1      47.308  34.438  25.252  1.00  0.00    -0.237 OA
ATOM     88  O   UNL A   1      44.955  34.350  24.504  1.00  0.00    -0.237 OA
ATOM     89  O   UNL A   1      45.631  35.934  26.264  1.00  0.00    -0.744 OA
ENDBRANCH  85  86
ENDBRANCH  59  80
ENDBRANCH  33  34
ENDBRANCH  26  28
ENDBRANCH  25  26
ENDBRANCH  24  25
ENDBRANCH  23  24
ENDBRANCH  22  23
ENDBRANCH   1  22
TORSDOF 21
ENDMDL
