MODEL 1
REMARK VINA RESULT:     -11.9      0.000      0.000
REMARK SMILES Cc1ccc(C)c(-c2cc(C(=O)OCCOCCOC(=O)c3ccc(-c4c5nc(c(-c6ccc(S(=O)(=O)[O-])cc6)c6ccc([nH]6)c(-c6ccc(S(=O)(=O)[O-])cc6)c6nc(c(-c7ccc(S(=O)(=O)[O-])cc7)c7ccc4[nH]7)C=C6)C=C5)cc3)c3cc(C)ccc3n2)c1
REMARK SMILES IDX 17 1 16 2 15 3 14 4 13 5 11 6 12 7 10 8 8 9 9 10 89 11 88 12
REMARK SMILES IDX 82 13 87 14 83 15 86 16 84 17 85 18 7 19 1 20 2 21 3 22
REMARK SMILES IDX 90 23 4 24 5 25 6 26 18 27 19 28 20 29 21 30 22 31 23 32
REMARK SMILES IDX 81 33 24 34 80 35 25 36 26 37 27 38 74 39 28 40 79 41 73 42
REMARK SMILES IDX 75 43 29 44 78 45 72 46 71 47 30 49 60 50 41 51 59 52 42 53
REMARK SMILES IDX 45 54 58 55 76 56 43 57 44 58 57 60 77 61 46 62 31 63 32 64
REMARK SMILES IDX 40 65 33 66 39 67 34 68 35 69 36 70 37 71 38 72 61 73 62 74
REMARK SMILES IDX 70 75 63 76 69 77 64 78 65 79 66 80 67 81 68 82 47 83 48 84
REMARK SMILES IDX 56 85 49 86 55 87 50 88 51 89 52 90 53 91 54 92
REMARK H PARENT 75 48 45 59
REMARK Flexibility Score: inf
ROOT
ATOM      1  C   UNL A   1      41.881  21.874  26.761  1.00  0.00     0.202 C 
ENDROOT
BRANCH   1   2
ATOM      2  O   UNL A   1      40.759  22.119  25.933  1.00  0.00    -0.374 OA
BRANCH   2   3
ATOM      3  C   UNL A   1      39.542  22.523  26.513  1.00  0.00     0.202 C 
BRANCH   3   4
ATOM      4  C   UNL A   1      38.430  21.734  25.814  1.00  0.00     0.261 C 
BRANCH   4   5
ATOM      5  O   UNL A   1      37.176  22.447  25.800  1.00  0.00    -0.460 OA
BRANCH   5   6
ATOM      6  C   UNL A   1      36.696  22.966  24.660  1.00  0.00     0.338 C 
ATOM      7  O   UNL A   1      37.328  23.329  23.668  1.00  0.00    -0.246 OA
BRANCH   6   8
ATOM      8  C   UNL A   1      35.243  23.138  24.700  1.00  0.00     0.071 A 
ATOM      9  C   UNL A   1      33.465  24.724  24.817  1.00  0.00     0.072 A 
ATOM     10  C   UNL A   1      34.813  24.461  24.767  1.00  0.00     0.045 A 
ATOM     11  N   UNL A   1      32.550  23.719  24.779  1.00  0.00    -0.248 NA
ATOM     12  C   UNL A   1      32.970  22.428  24.725  1.00  0.00     0.072 A 
ATOM     13  C   UNL A   1      34.323  22.074  24.659  1.00  0.00     0.015 A 
ATOM     14  C   UNL A   1      32.045  21.382  24.742  1.00  0.00     0.029 A 
ATOM     15  C   UNL A   1      34.676  20.704  24.561  1.00  0.00     0.014 A 
ATOM     16  C   UNL A   1      32.417  20.023  24.714  1.00  0.00     0.005 A 
ATOM     17  C   UNL A   1      33.752  19.672  24.624  1.00  0.00    -0.050 A 
ATOM     18  C   UNL A   1      34.274  18.268  24.655  1.00  0.00     0.044 C 
BRANCH   9  19
ATOM     19  C   UNL A   1      33.005  26.120  24.961  1.00  0.00     0.003 A 
ATOM     20  C   UNL A   1      31.503  28.277  27.776  1.00  0.00     0.044 C 
ATOM     21  C   UNL A   1      32.041  27.853  26.441  1.00  0.00    -0.050 A 
ATOM     22  C   UNL A   1      31.934  28.712  25.351  1.00  0.00     0.004 A 
ATOM     23  C   UNL A   1      32.606  26.585  26.244  1.00  0.00     0.014 A 
ATOM     24  C   UNL A   1      32.319  28.283  24.081  1.00  0.00     0.004 A 
ATOM     25  C   UNL A   1      32.806  26.981  23.863  1.00  0.00    -0.042 A 
ATOM     26  C   UNL A   1      33.006  26.560  22.431  1.00  0.00     0.045 C 
ENDBRANCH   9  19
ENDBRANCH   6   8
ENDBRANCH   5   6
ENDBRANCH   4   5
ENDBRANCH   3   4
ENDBRANCH   2   3
ENDBRANCH   1   2
BRANCH   1  27
ATOM     27  C   UNL A   1      43.103  21.769  25.851  1.00  0.00     0.261 C 
BRANCH  27  28
ATOM     28  O   UNL A   1      42.966  22.624  24.691  1.00  0.00    -0.460 OA
BRANCH  28  29
ATOM     29  C   UNL A   1      44.029  23.455  24.468  1.00  0.00     0.338 C 
ATOM     30  O   UNL A   1      45.060  23.123  23.906  1.00  0.00    -0.246 OA
BRANCH  29  31
ATOM     31  C   UNL A   1      43.825  24.746  25.203  1.00  0.00     0.060 A 
ATOM     32  C   UNL A   1      44.674  25.067  26.272  1.00  0.00     0.016 A 
ATOM     33  C   UNL A   1      42.639  25.465  25.024  1.00  0.00     0.016 A 
ATOM     34  C   UNL A   1      44.269  26.011  27.230  1.00  0.00     0.010 A 
ATOM     35  C   UNL A   1      42.220  26.358  26.005  1.00  0.00     0.010 A 
ATOM     36  C   UNL A   1      43.002  26.601  27.144  1.00  0.00    -0.014 A 
BRANCH  36  37
ATOM     37  C   UNL A   1      42.622  27.762  27.963  1.00  0.00     0.031 A 
ATOM     38  C   UNL A   1      43.645  28.799  27.846  1.00  0.00     0.074 A 
ATOM     39  C   UNL A   1      41.532  28.052  28.710  1.00  0.00     0.049 A 
ATOM     40  N   UNL A   1      44.523  29.029  28.765  1.00  0.00    -0.248 NA
ATOM     41  C   UNL A   1      43.863  29.491  26.573  1.00  0.00     0.031 C 
ATOM     42  C   UNL A   1      40.509  27.146  29.193  1.00  0.00     0.029 A 
ATOM     43  N   UNL A   1      41.076  29.269  29.177  1.00  0.00    -0.354 N 
ATOM     44  C   UNL A   1      45.215  30.114  28.292  1.00  0.00     0.074 A 
ATOM     45  C   UNL A   1      44.966  30.182  26.869  1.00  0.00     0.031 C 
ATOM     46  C   UNL A   1      39.437  27.828  29.650  1.00  0.00     0.029 A 
ATOM     47  C   UNL A   1      39.748  29.249  29.597  1.00  0.00     0.049 A 
ATOM     48  H   UNL A   1      41.638  30.077  29.210  1.00  0.00     0.167 HD
ATOM     49  C   UNL A   1      45.577  31.101  29.147  1.00  0.00     0.031 A 
ATOM     50  C   UNL A   1      39.032  30.160  30.301  1.00  0.00     0.031 A 
ATOM     51  C   UNL A   1      45.465  30.736  30.537  1.00  0.00     0.049 A 
ATOM     52  C   UNL A   1      39.944  30.854  31.222  1.00  0.00     0.074 A 
ATOM     53  C   UNL A   1      46.157  29.939  31.422  1.00  0.00     0.029 A 
ATOM     54  N   UNL A   1      44.241  30.988  31.100  1.00  0.00    -0.354 N 
ATOM     55  N   UNL A   1      40.434  30.289  32.288  1.00  0.00    -0.248 NA
ATOM     56  C   UNL A   1      40.559  32.118  30.834  1.00  0.00     0.031 C 
ATOM     57  C   UNL A   1      45.278  29.667  32.513  1.00  0.00     0.029 A 
ATOM     58  C   UNL A   1      44.063  30.299  32.278  1.00  0.00     0.049 A 
ATOM     59  H   UNL A   1      43.568  31.592  30.709  1.00  0.00     0.167 HD
ATOM     60  C   UNL A   1      41.674  30.874  32.426  1.00  0.00     0.074 A 
ATOM     61  C   UNL A   1      41.629  32.091  31.631  1.00  0.00     0.031 C 
ATOM     62  C   UNL A   1      42.742  30.146  32.856  1.00  0.00     0.031 A 
BRANCH  49  63
ATOM     63  C   UNL A   1      45.541  32.524  28.691  1.00  0.00    -0.014 A 
ATOM     64  C   UNL A   1      46.726  33.263  28.631  1.00  0.00     0.010 A 
ATOM     65  C   UNL A   1      44.319  33.210  28.498  1.00  0.00     0.010 A 
ATOM     66  C   UNL A   1      46.691  34.628  28.332  1.00  0.00     0.020 A 
ATOM     67  C   UNL A   1      44.275  34.553  28.150  1.00  0.00     0.020 A 
ATOM     68  C   UNL A   1      45.467  35.258  28.079  1.00  0.00     0.054 A 
BRANCH  68  69
ATOM     69  S   UNL A   1      45.438  37.016  27.671  1.00  0.00     0.124 S 
ATOM     70  O   UNL A   1      44.054  37.202  27.248  1.00  0.00    -0.237 OA
ATOM     71  O   UNL A   1      45.805  37.637  28.941  1.00  0.00    -0.237 OA
ATOM     72  O   UNL A   1      46.442  37.137  26.616  1.00  0.00    -0.744 OA
ENDBRANCH  68  69
ENDBRANCH  49  63
BRANCH  50  73
ATOM     73  C   UNL A   1      37.754  30.771  29.865  1.00  0.00    -0.014 A 
ATOM     74  C   UNL A   1      36.980  31.521  30.771  1.00  0.00     0.010 A 
ATOM     75  C   UNL A   1      37.377  30.776  28.510  1.00  0.00     0.010 A 
ATOM     76  C   UNL A   1      35.879  32.273  30.334  1.00  0.00     0.020 A 
ATOM     77  C   UNL A   1      36.292  31.542  28.065  1.00  0.00     0.020 A 
ATOM     78  C   UNL A   1      35.552  32.292  28.977  1.00  0.00     0.054 A 
BRANCH  78  79
ATOM     79  S   UNL A   1      34.134  33.277  28.414  1.00  0.00     0.124 S 
ATOM     80  O   UNL A   1      33.275  32.273  27.790  1.00  0.00    -0.237 OA
ATOM     81  O   UNL A   1      33.638  33.846  29.663  1.00  0.00    -0.237 OA
ATOM     82  O   UNL A   1      34.730  34.234  27.483  1.00  0.00    -0.744 OA
ENDBRANCH  78  79
ENDBRANCH  50  73
BRANCH  62  83
ATOM     83  C   UNL A   1      42.481  29.057  33.859  1.00  0.00    -0.014 A 
ATOM     84  C   UNL A   1      42.477  27.682  33.565  1.00  0.00     0.010 A 
ATOM     85  C   UNL A   1      42.224  29.460  35.183  1.00  0.00     0.010 A 
ATOM     86  C   UNL A   1      42.208  26.736  34.566  1.00  0.00     0.020 A 
ATOM     87  C   UNL A   1      41.972  28.523  36.188  1.00  0.00     0.020 A 
ATOM     88  C   UNL A   1      41.958  27.164  35.874  1.00  0.00     0.054 A 
BRANCH  88  89
ATOM     89  S   UNL A   1      41.658  25.935  37.175  1.00  0.00     0.124 S 
ATOM     90  O   UNL A   1      41.802  24.670  36.459  1.00  0.00    -0.237 OA
ATOM     91  O   UNL A   1      42.707  26.230  38.149  1.00  0.00    -0.237 OA
ATOM     92  O   UNL A   1      40.300  26.235  37.631  1.00  0.00    -0.744 OA
ENDBRANCH  88  89
ENDBRANCH  62  83
ENDBRANCH  36  37
ENDBRANCH  29  31
ENDBRANCH  28  29
ENDBRANCH  27  28
ENDBRANCH   1  27
TORSDOF 18
ENDMDL
MODEL 2
REMARK VINA RESULT:     -11.7      1.517      3.754
REMARK SMILES Cc1ccc(C)c(-c2cc(C(=O)OCCOCCOC(=O)c3ccc(-c4c5nc(c(-c6ccc(S(=O)(=O)[O-])cc6)c6ccc([nH]6)c(-c6ccc(S(=O)(=O)[O-])cc6)c6nc(c(-c7ccc(S(=O)(=O)[O-])cc7)c7ccc4[nH]7)C=C6)C=C5)cc3)c3cc(C)ccc3n2)c1
REMARK SMILES IDX 17 1 16 2 15 3 14 4 13 5 11 6 12 7 10 8 8 9 9 10 89 11 88 12
REMARK SMILES IDX 82 13 87 14 83 15 86 16 84 17 85 18 7 19 1 20 2 21 3 22
REMARK SMILES IDX 90 23 4 24 5 25 6 26 18 27 19 28 20 29 21 30 22 31 23 32
REMARK SMILES IDX 81 33 24 34 80 35 25 36 26 37 27 38 74 39 28 40 79 41 73 42
REMARK SMILES IDX 75 43 29 44 78 45 72 46 71 47 30 49 60 50 41 51 59 52 42 53
REMARK SMILES IDX 45 54 58 55 76 56 43 57 44 58 57 60 77 61 46 62 31 63 32 64
REMARK SMILES IDX 40 65 33 66 39 67 34 68 35 69 36 70 37 71 38 72 61 73 62 74
REMARK SMILES IDX 70 75 63 76 69 77 64 78 65 79 66 80 67 81 68 82 47 83 48 84
REMARK SMILES IDX 56 85 49 86 55 87 50 88 51 89 52 90 53 91 54 92
REMARK H PARENT 75 48 45 59
REMARK Flexibility Score: inf
ROOT
ATOM      1  C   UNL A   1      40.768  20.300  26.966  1.00  0.00     0.202 C 
ENDROOT
BRANCH   1   2
ATOM      2  O   UNL A   1      40.307  21.318  26.096  1.00  0.00    -0.374 OA
BRANCH   2   3
ATOM      3  C   UNL A   1      38.923  21.523  25.938  1.00  0.00     0.202 C 
BRANCH   3   4
ATOM      4  C   UNL A   1      38.674  23.028  26.082  1.00  0.00     0.261 C 
BRANCH   4   5
ATOM      5  O   UNL A   1      37.278  23.368  25.960  1.00  0.00    -0.460 OA
BRANCH   5   6
ATOM      6  C   UNL A   1      36.666  23.329  24.768  1.00  0.00     0.338 C 
ATOM      7  O   UNL A   1      37.134  23.618  23.666  1.00  0.00    -0.246 OA
BRANCH   6   8
ATOM      8  C   UNL A   1      35.260  22.937  24.881  1.00  0.00     0.071 A 
ATOM      9  C   UNL A   1      33.701  21.152  24.607  1.00  0.00     0.072 A 
ATOM     10  C   UNL A   1      34.994  21.612  24.542  1.00  0.00     0.045 A 
ATOM     11  N   UNL A   1      32.686  21.959  25.018  1.00  0.00    -0.248 NA
ATOM     12  C   UNL A   1      32.944  23.254  25.338  1.00  0.00     0.072 A 
ATOM     13  C   UNL A   1      34.234  23.799  25.309  1.00  0.00     0.015 A 
ATOM     14  C   UNL A   1      31.906  24.111  25.707  1.00  0.00     0.029 A 
ATOM     15  C   UNL A   1      34.424  25.149  25.700  1.00  0.00     0.014 A 
ATOM     16  C   UNL A   1      32.105  25.471  26.026  1.00  0.00     0.005 A 
ATOM     17  C   UNL A   1      33.381  26.003  26.023  1.00  0.00    -0.050 A 
ATOM     18  C   UNL A   1      33.709  27.443  26.275  1.00  0.00     0.044 C 
BRANCH   9  19
ATOM     19  C   UNL A   1      33.402  19.770  24.180  1.00  0.00     0.003 A 
ATOM     20  C   UNL A   1      34.756  16.256  24.981  1.00  0.00     0.044 C 
ATOM     21  C   UNL A   1      33.939  17.364  24.385  1.00  0.00    -0.050 A 
ATOM     22  C   UNL A   1      33.061  17.088  23.341  1.00  0.00     0.004 A 
ATOM     23  C   UNL A   1      34.073  18.692  24.817  1.00  0.00     0.014 A 
ATOM     24  C   UNL A   1      32.388  18.127  22.698  1.00  0.00     0.004 A 
ATOM     25  C   UNL A   1      32.584  19.469  23.072  1.00  0.00    -0.042 A 
ATOM     26  C   UNL A   1      31.962  20.518  22.188  1.00  0.00     0.045 C 
ENDBRANCH   9  19
ENDBRANCH   6   8
ENDBRANCH   5   6
ENDBRANCH   4   5
ENDBRANCH   3   4
ENDBRANCH   2   3
ENDBRANCH   1   2
BRANCH   1  27
ATOM     27  C   UNL A   1      42.231  20.034  26.619  1.00  0.00     0.261 C 
BRANCH  27  28
ATOM     28  O   UNL A   1      42.619  20.738  25.414  1.00  0.00    -0.460 OA
BRANCH  28  29
ATOM     29  C   UNL A   1      43.710  21.549  25.557  1.00  0.00     0.338 C 
ATOM     30  O   UNL A   1      44.855  21.221  25.290  1.00  0.00    -0.246 OA
BRANCH  29  31
ATOM     31  C   UNL A   1      43.320  22.799  26.286  1.00  0.00     0.060 A 
ATOM     32  C   UNL A   1      42.518  23.750  25.637  1.00  0.00     0.016 A 
ATOM     33  C   UNL A   1      43.982  23.148  27.468  1.00  0.00     0.016 A 
ATOM     34  C   UNL A   1      42.491  25.076  26.097  1.00  0.00     0.010 A 
ATOM     35  C   UNL A   1      43.995  24.474  27.886  1.00  0.00     0.010 A 
ATOM     36  C   UNL A   1      43.295  25.463  27.177  1.00  0.00    -0.014 A 
BRANCH  36  37
ATOM     37  C   UNL A   1      43.128  26.758  27.853  1.00  0.00     0.031 A 
ATOM     38  C   UNL A   1      44.306  27.590  27.614  1.00  0.00     0.074 A 
ATOM     39  C   UNL A   1      42.116  27.311  28.561  1.00  0.00     0.049 A 
ATOM     40  N   UNL A   1      45.228  27.776  28.499  1.00  0.00    -0.248 NA
ATOM     41  C   UNL A   1      44.610  28.083  26.269  1.00  0.00     0.031 C 
ATOM     42  C   UNL A   1      40.967  26.649  29.147  1.00  0.00     0.029 A 
ATOM     43  N   UNL A   1      41.877  28.632  28.881  1.00  0.00    -0.354 N 
ATOM     44  C   UNL A   1      46.080  28.668  27.901  1.00  0.00     0.074 A 
ATOM     45  C   UNL A   1      45.817  28.610  26.480  1.00  0.00     0.031 C 
ATOM     46  C   UNL A   1      40.032  27.549  29.521  1.00  0.00     0.029 A 
ATOM     47  C   UNL A   1      40.573  28.883  29.301  1.00  0.00     0.049 A 
ATOM     48  H   UNL A   1      42.565  29.334  28.818  1.00  0.00     0.167 HD
ATOM     49  C   UNL A   1      46.617  29.674  28.634  1.00  0.00     0.031 A 
ATOM     50  C   UNL A   1      40.031  29.976  29.892  1.00  0.00     0.031 A 
ATOM     51  C   UNL A   1      46.474  29.497  30.057  1.00  0.00     0.049 A 
ATOM     52  C   UNL A   1      41.063  30.610  30.725  1.00  0.00     0.074 A 
ATOM     53  C   UNL A   1      47.042  28.704  31.030  1.00  0.00     0.029 A 
ATOM     54  N   UNL A   1      45.320  30.013  30.587  1.00  0.00    -0.354 N 
ATOM     55  N   UNL A   1      41.474  30.100  31.850  1.00  0.00    -0.248 NA
ATOM     56  C   UNL A   1      41.871  31.700  30.190  1.00  0.00     0.031 C 
ATOM     57  C   UNL A   1      46.152  28.711  32.146  1.00  0.00     0.029 A 
ATOM     58  C   UNL A   1      45.054  29.505  31.837  1.00  0.00     0.049 A 
ATOM     59  H   UNL A   1      44.748  30.670  30.127  1.00  0.00     0.167 HD
ATOM     60  C   UNL A   1      42.796  30.482  31.917  1.00  0.00     0.074 A 
ATOM     61  C   UNL A   1      42.937  31.589  30.984  1.00  0.00     0.031 C 
ATOM     62  C   UNL A   1      43.737  29.642  32.430  1.00  0.00     0.031 A 
BRANCH  49  63
ATOM     63  C   UNL A   1      46.808  31.020  28.013  1.00  0.00    -0.014 A 
ATOM     64  C   UNL A   1      45.713  31.878  27.868  1.00  0.00     0.010 A 
ATOM     65  C   UNL A   1      48.026  31.383  27.391  1.00  0.00     0.010 A 
ATOM     66  C   UNL A   1      45.851  33.083  27.174  1.00  0.00     0.020 A 
ATOM     67  C   UNL A   1      48.187  32.601  26.744  1.00  0.00     0.020 A 
ATOM     68  C   UNL A   1      47.090  33.442  26.631  1.00  0.00     0.054 A 
BRANCH  68  69
ATOM     69  S   UNL A   1      47.259  35.012  25.757  1.00  0.00     0.124 S 
ATOM     70  O   UNL A   1      48.406  34.752  24.893  1.00  0.00    -0.237 OA
ATOM     71  O   UNL A   1      45.969  35.135  25.084  1.00  0.00    -0.237 OA
ATOM     72  O   UNL A   1      47.485  35.977  26.832  1.00  0.00    -0.744 OA
ENDBRANCH  68  69
ENDBRANCH  49  63
BRANCH  50  73
ATOM     73  C   UNL A   1      38.863  30.735  29.387  1.00  0.00    -0.014 A 
ATOM     74  C   UNL A   1      37.977  30.145  28.465  1.00  0.00     0.010 A 
ATOM     75  C   UNL A   1      38.508  31.976  29.946  1.00  0.00     0.010 A 
ATOM     76  C   UNL A   1      36.762  30.763  28.131  1.00  0.00     0.020 A 
ATOM     77  C   UNL A   1      37.287  32.587  29.632  1.00  0.00     0.020 A 
ATOM     78  C   UNL A   1      36.416  31.974  28.732  1.00  0.00     0.054 A 
BRANCH  78  79
ATOM     79  S   UNL A   1      34.837  32.764  28.306  1.00  0.00     0.124 S 
ATOM     80  O   UNL A   1      35.257  33.895  27.483  1.00  0.00    -0.237 OA
ATOM     81  O   UNL A   1      34.137  31.695  27.602  1.00  0.00    -0.237 OA
ATOM     82  O   UNL A   1      34.276  33.130  29.606  1.00  0.00    -0.744 OA
ENDBRANCH  78  79
ENDBRANCH  50  73
BRANCH  62  83
ATOM     83  C   UNL A   1      43.320  28.736  33.555  1.00  0.00    -0.014 A 
ATOM     84  C   UNL A   1      43.161  29.142  34.892  1.00  0.00     0.010 A 
ATOM     85  C   UNL A   1      43.076  27.389  33.230  1.00  0.00     0.010 A 
ATOM     86  C   UNL A   1      42.781  28.220  35.880  1.00  0.00     0.020 A 
ATOM     87  C   UNL A   1      42.682  26.469  34.205  1.00  0.00     0.020 A 
ATOM     88  C   UNL A   1      42.543  26.887  35.528  1.00  0.00     0.054 A 
BRANCH  88  89
ATOM     89  S   UNL A   1      42.006  25.710  36.801  1.00  0.00     0.124 S 
ATOM     90  O   UNL A   1      42.726  24.493  36.435  1.00  0.00    -0.237 OA
ATOM     91  O   UNL A   1      42.442  26.350  38.040  1.00  0.00    -0.237 OA
ATOM     92  O   UNL A   1      40.555  25.646  36.625  1.00  0.00    -0.744 OA
ENDBRANCH  88  89
ENDBRANCH  62  83
ENDBRANCH  36  37
ENDBRANCH  29  31
ENDBRANCH  28  29
ENDBRANCH  27  28
ENDBRANCH   1  27
TORSDOF 18
ENDMDL
MODEL 3
REMARK VINA RESULT:     -11.7      4.358     12.183
REMARK SMILES Cc1ccc(C)c(-c2cc(C(=O)OCCOCCOC(=O)c3ccc(-c4c5nc(c(-c6ccc(S(=O)(=O)[O-])cc6)c6ccc([nH]6)c(-c6ccc(S(=O)(=O)[O-])cc6)c6nc(c(-c7ccc(S(=O)(=O)[O-])cc7)c7ccc4[nH]7)C=C6)C=C5)cc3)c3cc(C)ccc3n2)c1
REMARK SMILES IDX 17 1 16 2 15 3 14 4 13 5 11 6 12 7 10 8 8 9 9 10 89 11 88 12
REMARK SMILES IDX 82 13 87 14 83 15 86 16 84 17 85 18 7 19 1 20 2 21 3 22
REMARK SMILES IDX 90 23 4 24 5 25 6 26 18 27 19 28 20 29 21 30 22 31 23 32
REMARK SMILES IDX 81 33 24 34 80 35 25 36 26 37 27 38 74 39 28 40 79 41 73 42
REMARK SMILES IDX 75 43 29 44 78 45 72 46 71 47 30 49 60 50 41 51 59 52 42 53
REMARK SMILES IDX 45 54 58 55 76 56 43 57 44 58 57 60 77 61 46 62 31 63 32 64
REMARK SMILES IDX 40 65 33 66 39 67 34 68 35 69 36 70 37 71 38 72 61 73 62 74
REMARK SMILES IDX 70 75 63 76 69 77 64 78 65 79 66 80 67 81 68 82 47 83 48 84
REMARK SMILES IDX 56 85 49 86 55 87 50 88 51 89 52 90 53 91 54 92
REMARK H PARENT 75 48 45 59
REMARK Flexibility Score: inf
ROOT
ATOM      1  C   UNL A   1      34.263  34.845  29.581  1.00  0.00     0.202 C 
ENDROOT
BRANCH   1   2
ATOM      2  O   UNL A   1      34.934  33.995  30.494  1.00  0.00    -0.374 OA
BRANCH   2   3
ATOM      3  C   UNL A   1      34.205  33.021  31.202  1.00  0.00     0.202 C 
BRANCH   3   4
ATOM      4  C   UNL A   1      35.183  32.343  32.166  1.00  0.00     0.261 C 
BRANCH   4   5
ATOM      5  O   UNL A   1      35.047  32.827  33.518  1.00  0.00    -0.460 OA
BRANCH   5   6
ATOM      6  C   UNL A   1      35.471  34.054  33.852  1.00  0.00     0.338 C 
ATOM      7  O   UNL A   1      34.878  35.124  33.715  1.00  0.00    -0.246 OA
BRANCH   6   8
ATOM      8  C   UNL A   1      36.833  34.041  34.389  1.00  0.00     0.071 A 
ATOM      9  C   UNL A   1      38.151  33.858  36.369  1.00  0.00     0.072 A 
ATOM     10  C   UNL A   1      36.914  33.874  35.770  1.00  0.00     0.045 A 
ATOM     11  N   UNL A   1      39.290  33.978  35.636  1.00  0.00    -0.248 NA
ATOM     12  C   UNL A   1      39.210  34.151  34.291  1.00  0.00     0.072 A 
ATOM     13  C   UNL A   1      37.992  34.168  33.602  1.00  0.00     0.015 A 
ATOM     14  C   UNL A   1      40.367  34.332  33.532  1.00  0.00     0.029 A 
ATOM     15  C   UNL A   1      37.997  34.310  32.191  1.00  0.00     0.014 A 
ATOM     16  C   UNL A   1      40.349  34.542  32.137  1.00  0.00     0.005 A 
ATOM     17  C   UNL A   1      39.148  34.533  31.451  1.00  0.00    -0.050 A 
ATOM     18  C   UNL A   1      38.996  34.812  29.987  1.00  0.00     0.044 C 
BRANCH   9  19
ATOM     19  C   UNL A   1      38.241  33.755  37.840  1.00  0.00     0.003 A 
ATOM     20  C   UNL A   1      36.594  31.615  40.584  1.00  0.00     0.044 C 
ATOM     21  C   UNL A   1      37.460  32.632  39.901  1.00  0.00    -0.050 A 
ATOM     22  C   UNL A   1      38.178  33.548  40.663  1.00  0.00     0.004 A 
ATOM     23  C   UNL A   1      37.527  32.720  38.503  1.00  0.00     0.014 A 
ATOM     24  C   UNL A   1      38.889  34.573  40.039  1.00  0.00     0.004 A 
ATOM     25  C   UNL A   1      38.889  34.718  38.639  1.00  0.00    -0.042 A 
ATOM     26  C   UNL A   1      39.524  35.967  38.085  1.00  0.00     0.045 C 
ENDBRANCH   9  19
ENDBRANCH   6   8
ENDBRANCH   5   6
ENDBRANCH   4   5
ENDBRANCH   3   4
ENDBRANCH   2   3
ENDBRANCH   1   2
BRANCH   1  27
ATOM     27  C   UNL A   1      33.534  33.952  28.580  1.00  0.00     0.261 C 
BRANCH  27  28
ATOM     28  O   UNL A   1      34.469  33.289  27.694  1.00  0.00    -0.460 OA
BRANCH  28  29
ATOM     29  C   UNL A   1      34.407  31.923  27.723  1.00  0.00     0.338 C 
ATOM     30  O   UNL A   1      33.378  31.281  27.857  1.00  0.00    -0.246 OA
BRANCH  29  31
ATOM     31  C   UNL A   1      35.793  31.355  27.788  1.00  0.00     0.060 A 
ATOM     32  C   UNL A   1      35.987  29.991  27.521  1.00  0.00     0.016 A 
ATOM     33  C   UNL A   1      36.817  32.093  28.389  1.00  0.00     0.016 A 
ATOM     34  C   UNL A   1      37.148  29.346  27.978  1.00  0.00     0.010 A 
ATOM     35  C   UNL A   1      37.939  31.437  28.886  1.00  0.00     0.010 A 
ATOM     36  C   UNL A   1      38.092  30.050  28.735  1.00  0.00    -0.014 A 
BRANCH  36  37
ATOM     37  C   UNL A   1      39.427  29.505  29.027  1.00  0.00     0.031 A 
ATOM     38  C   UNL A   1      39.618  29.425  30.473  1.00  0.00     0.074 A 
ATOM     39  C   UNL A   1      40.426  29.032  28.246  1.00  0.00     0.049 A 
ATOM     40  N   UNL A   1      40.332  30.271  31.137  1.00  0.00    -0.248 NA
ATOM     41  C   UNL A   1      38.820  28.498  31.281  1.00  0.00     0.031 C 
ATOM     42  C   UNL A   1      40.610  29.212  26.819  1.00  0.00     0.029 A 
ATOM     43  N   UNL A   1      41.502  28.232  28.572  1.00  0.00    -0.354 N 
ATOM     44  C   UNL A   1      40.309  29.785  32.419  1.00  0.00     0.074 A 
ATOM     45  C   UNL A   1      39.179  28.886  32.505  1.00  0.00     0.031 C 
ATOM     46  C   UNL A   1      41.547  28.364  26.344  1.00  0.00     0.029 A 
ATOM     47  C   UNL A   1      42.122  27.645  27.472  1.00  0.00     0.049 A 
ATOM     48  H   UNL A   1      41.804  28.089  29.499  1.00  0.00     0.167 HD
ATOM     49  C   UNL A   1      41.440  29.816  33.166  1.00  0.00     0.031 A 
ATOM     50  C   UNL A   1      43.306  26.993  27.370  1.00  0.00     0.031 A 
ATOM     51  C   UNL A   1      42.472  30.663  32.624  1.00  0.00     0.049 A 
ATOM     52  C   UNL A   1      44.239  27.573  28.346  1.00  0.00     0.074 A 
ATOM     53  C   UNL A   1      42.702  32.017  32.514  1.00  0.00     0.029 A 
ATOM     54  N   UNL A   1      43.323  30.042  31.747  1.00  0.00    -0.354 N 
ATOM     55  N   UNL A   1      44.777  28.750  28.195  1.00  0.00    -0.248 NA
ATOM     56  C   UNL A   1      44.391  26.971  29.665  1.00  0.00     0.031 C 
ATOM     57  C   UNL A   1      43.681  32.192  31.490  1.00  0.00     0.029 A 
ATOM     58  C   UNL A   1      44.032  30.945  30.988  1.00  0.00     0.049 A 
ATOM     59  H   UNL A   1      43.417  29.064  31.669  1.00  0.00     0.167 HD
ATOM     60  C   UNL A   1      44.922  29.209  29.487  1.00  0.00     0.074 A 
ATOM     61  C   UNL A   1      44.839  28.032  30.338  1.00  0.00     0.031 C 
ATOM     62  C   UNL A   1      44.721  30.523  29.784  1.00  0.00     0.031 A 
BRANCH  49  63
ATOM     63  C   UNL A   1      41.743  28.686  34.095  1.00  0.00    -0.014 A 
ATOM     64  C   UNL A   1      41.587  28.860  35.474  1.00  0.00     0.010 A 
ATOM     65  C   UNL A   1      42.366  27.499  33.641  1.00  0.00     0.010 A 
ATOM     66  C   UNL A   1      41.990  27.857  36.360  1.00  0.00     0.020 A 
ATOM     67  C   UNL A   1      42.722  26.476  34.509  1.00  0.00     0.020 A 
ATOM     68  C   UNL A   1      42.539  26.668  35.870  1.00  0.00     0.054 A 
BRANCH  68  69
ATOM     69  S   UNL A   1      43.032  25.371  37.025  1.00  0.00     0.124 S 
ATOM     70  O   UNL A   1      44.336  24.982  36.499  1.00  0.00    -0.237 OA
ATOM     71  O   UNL A   1      43.046  26.081  38.302  1.00  0.00    -0.237 OA
ATOM     72  O   UNL A   1      41.974  24.373  36.889  1.00  0.00    -0.744 OA
ENDBRANCH  68  69
ENDBRANCH  49  63
BRANCH  50  73
ATOM     73  C   UNL A   1      43.488  25.621  26.839  1.00  0.00    -0.014 A 
ATOM     74  C   UNL A   1      43.487  25.391  25.450  1.00  0.00     0.010 A 
ATOM     75  C   UNL A   1      43.848  24.557  27.687  1.00  0.00     0.010 A 
ATOM     76  C   UNL A   1      43.859  24.146  24.922  1.00  0.00     0.020 A 
ATOM     77  C   UNL A   1      44.240  23.318  27.163  1.00  0.00     0.020 A 
ATOM     78  C   UNL A   1      44.251  23.120  25.784  1.00  0.00     0.054 A 
BRANCH  78  79
ATOM     79  S   UNL A   1      44.743  21.514  25.095  1.00  0.00     0.124 S 
ATOM     80  O   UNL A   1      43.735  20.608  25.643  1.00  0.00    -0.237 OA
ATOM     81  O   UNL A   1      44.660  21.755  23.659  1.00  0.00    -0.237 OA
ATOM     82  O   UNL A   1      46.092  21.315  25.621  1.00  0.00    -0.744 OA
ENDBRANCH  78  79
ENDBRANCH  50  73
BRANCH  62  83
ATOM     83  C   UNL A   1      45.106  31.537  28.743  1.00  0.00    -0.014 A 
ATOM     84  C   UNL A   1      46.381  32.118  28.625  1.00  0.00     0.010 A 
ATOM     85  C   UNL A   1      44.108  31.922  27.829  1.00  0.00     0.010 A 
ATOM     86  C   UNL A   1      46.645  33.070  27.628  1.00  0.00     0.020 A 
ATOM     87  C   UNL A   1      44.367  32.856  26.824  1.00  0.00     0.020 A 
ATOM     88  C   UNL A   1      45.634  33.432  26.731  1.00  0.00     0.054 A 
BRANCH  88  89
ATOM     89  S   UNL A   1      45.994  34.628  25.414  1.00  0.00     0.124 S 
ATOM     90  O   UNL A   1      45.082  34.216  24.351  1.00  0.00    -0.237 OA
ATOM     91  O   UNL A   1      45.688  35.909  26.046  1.00  0.00    -0.237 OA
ATOM     92  O   UNL A   1      47.413  34.413  25.128  1.00  0.00    -0.744 OA
ENDBRANCH  88  89
ENDBRANCH  62  83
ENDBRANCH  36  37
ENDBRANCH  29  31
ENDBRANCH  28  29
ENDBRANCH  27  28
ENDBRANCH   1  27
TORSDOF 18
ENDMDL
