MODEL 1
REMARK VINA RESULT:      -9.3      0.000      0.000
REMARK SMILES CCOc1cccc2c(SCC(=O)OCCOCCOC(=O)c3ccc(-c4c5nc(c(-c6ccc(S(=O)(=O)[O-])cc6)c6ccc([nH]6)c(-c6ccc(S(=O)(=O)[O-])cc6)c6nc(c(-c7ccc(S(=O)(=O)[O-])cc7)c7ccc4[nH]7)C=C6)C=C5)cc3)cc(C)nc12
REMARK SMILES IDX 16 1 15 2 14 3 12 4 13 5 11 6 10 7 9 8 4 9 5 10 87 11 6 12
REMARK SMILES IDX 8 13 86 14 7 15 84 16 83 17 85 18 3 19 2 20 1 21 17 22 18 23
REMARK SMILES IDX 19 24 20 25 21 26 22 27 23 28 24 29 82 30 25 31 81 32 26 33
REMARK SMILES IDX 27 34 28 35 75 36 29 37 80 38 74 39 76 40 30 41 79 42 73 43
REMARK SMILES IDX 72 44 31 46 61 47 42 48 60 49 43 50 46 51 59 52 77 53 44 54
REMARK SMILES IDX 45 55 58 57 78 58 47 59 32 60 33 61 41 62 34 63 40 64 35 65
REMARK SMILES IDX 36 66 37 67 38 68 39 69 62 70 63 71 71 72 64 73 70 74 65 75
REMARK SMILES IDX 66 76 67 77 68 78 69 79 48 80 49 81 57 82 50 83 56 84 51 85
REMARK SMILES IDX 52 86 53 87 54 88 55 89
REMARK H PARENT 76 45 46 56
REMARK Flexibility Score: inf
ROOT
ATOM      1  C   UNL A   1      35.557  22.567  23.695  1.00  0.00     0.202 C 
ENDROOT
BRANCH   1   2
ATOM      2  C   UNL A   1      34.977  23.393  22.538  1.00  0.00     0.261 C 
BRANCH   2   3
ATOM      3  O   UNL A   1      34.373  24.636  22.964  1.00  0.00    -0.463 OA
BRANCH   3   4
ATOM      4  C   UNL A   1      33.320  25.085  22.231  1.00  0.00     0.316 C 
ATOM      5  O   UNL A   1      33.350  25.264  21.015  1.00  0.00    -0.251 OA
BRANCH   4   6
ATOM      6  C   UNL A   1      32.084  25.432  23.032  1.00  0.00     0.197 C 
BRANCH   6   7
ATOM      7  S   UNL A   1      30.950  24.068  23.427  1.00  0.00    -0.114 SA
BRANCH   7   8
ATOM      8  C   UNL A   1      31.873  22.871  24.429  1.00  0.00     0.019 A 
ATOM      9  C   UNL A   1      32.802  19.282  24.285  1.00  0.00     0.145 A 
ATOM     10  C   UNL A   1      32.523  18.919  22.967  1.00  0.00     0.049 A 
ATOM     11  C   UNL A   1      32.664  20.597  24.755  1.00  0.00     0.114 A 
ATOM     12  C   UNL A   1      32.038  19.874  22.092  1.00  0.00     0.005 A 
ATOM     13  C   UNL A   1      32.115  21.567  23.889  1.00  0.00     0.018 A 
ATOM     14  N   UNL A   1      33.006  20.890  26.024  1.00  0.00    -0.249 NA
ATOM     15  C   UNL A   1      31.825  21.176  22.551  1.00  0.00     0.012 A 
ATOM     16  C   UNL A   1      32.814  22.130  26.508  1.00  0.00     0.039 A 
ATOM     17  C   UNL A   1      32.262  23.146  25.744  1.00  0.00     0.039 A 
ATOM     18  C   UNL A   1      33.046  22.292  27.981  1.00  0.00     0.067 C 
BRANCH   9  19
ATOM     19  O   UNL A   1      33.273  18.293  25.124  1.00  0.00    -0.492 OA
BRANCH  19  20
ATOM     20  C   UNL A   1      33.297  17.017  24.464  1.00  0.00     0.226 C 
ATOM     21  C   UNL A   1      34.121  16.009  25.248  1.00  0.00     0.049 C 
ENDBRANCH  19  20
ENDBRANCH   9  19
ENDBRANCH   7   8
ENDBRANCH   6   7
ENDBRANCH   4   6
ENDBRANCH   3   4
ENDBRANCH   2   3
ENDBRANCH   1   2
BRANCH   1  22
ATOM     22  O   UNL A   1      35.662  23.235  24.956  1.00  0.00    -0.374 OA
BRANCH  22  23
ATOM     23  C   UNL A   1      36.978  23.501  25.432  1.00  0.00     0.202 C 
BRANCH  23  24
ATOM     24  C   UNL A   1      37.974  22.343  25.347  1.00  0.00     0.261 C 
BRANCH  24  25
ATOM     25  O   UNL A   1      38.770  22.231  26.530  1.00  0.00    -0.460 OA
BRANCH  25  26
ATOM     26  C   UNL A   1      39.969  22.841  26.428  1.00  0.00     0.338 C 
ATOM     27  O   UNL A   1      40.949  22.460  25.800  1.00  0.00    -0.246 OA
BRANCH  26  28
ATOM     28  C   UNL A   1      39.903  24.167  27.046  1.00  0.00     0.060 A 
ATOM     29  C   UNL A   1      40.658  25.178  26.445  1.00  0.00     0.016 A 
ATOM     30  C   UNL A   1      39.214  24.390  28.241  1.00  0.00     0.016 A 
ATOM     31  C   UNL A   1      40.797  26.399  27.087  1.00  0.00     0.010 A 
ATOM     32  C   UNL A   1      39.353  25.624  28.884  1.00  0.00     0.010 A 
ATOM     33  C   UNL A   1      40.188  26.610  28.333  1.00  0.00    -0.014 A 
BRANCH  33  34
ATOM     34  C   UNL A   1      40.571  27.824  29.087  1.00  0.00     0.031 A 
ATOM     35  C   UNL A   1      41.983  27.956  29.589  1.00  0.00     0.074 A 
ATOM     36  C   UNL A   1      39.701  28.842  29.195  1.00  0.00     0.049 A 
ATOM     37  N   UNL A   1      42.589  29.005  30.078  1.00  0.00    -0.248 NA
ATOM     38  C   UNL A   1      42.826  26.750  29.520  1.00  0.00     0.031 C 
ATOM     39  C   UNL A   1      38.315  28.819  28.725  1.00  0.00     0.029 A 
ATOM     40  N   UNL A   1      39.866  30.105  29.700  1.00  0.00    -0.354 N 
ATOM     41  C   UNL A   1      43.886  28.594  30.361  1.00  0.00     0.074 A 
ATOM     42  C   UNL A   1      43.968  27.188  30.030  1.00  0.00     0.031 C 
ATOM     43  C   UNL A   1      37.764  30.027  28.936  1.00  0.00     0.029 A 
ATOM     44  C   UNL A   1      38.755  30.900  29.561  1.00  0.00     0.049 A 
ATOM     45  H   UNL A   1      40.702  30.414  30.121  1.00  0.00     0.167 HD
ATOM     46  C   UNL A   1      44.921  29.326  30.840  1.00  0.00     0.031 A 
ATOM     47  C   UNL A   1      38.566  32.194  29.883  1.00  0.00     0.031 A 
ATOM     48  C   UNL A   1      44.821  30.718  31.187  1.00  0.00     0.049 A 
ATOM     49  C   UNL A   1      39.723  32.980  30.436  1.00  0.00     0.074 A 
ATOM     50  C   UNL A   1      45.803  31.559  31.681  1.00  0.00     0.029 A 
ATOM     51  N   UNL A   1      43.663  31.475  31.081  1.00  0.00    -0.354 N 
ATOM     52  N   UNL A   1      40.955  32.585  30.662  1.00  0.00    -0.248 NA
ATOM     53  C   UNL A   1      39.470  34.390  30.754  1.00  0.00     0.031 C 
ATOM     54  C   UNL A   1      45.225  32.813  31.917  1.00  0.00     0.029 A 
ATOM     55  C   UNL A   1      43.898  32.767  31.518  1.00  0.00     0.049 A 
ATOM     56  H   UNL A   1      42.800  31.142  30.742  1.00  0.00     0.167 HD
ATOM     57  C   UNL A   1      41.629  33.706  31.133  1.00  0.00     0.074 A 
ATOM     58  C   UNL A   1      40.674  34.797  31.134  1.00  0.00     0.031 C 
ATOM     59  C   UNL A   1      42.922  33.827  31.530  1.00  0.00     0.031 A 
BRANCH  46  60
ATOM     60  C   UNL A   1      46.235  28.620  31.041  1.00  0.00    -0.014 A 
ATOM     61  C   UNL A   1      47.169  28.506  29.994  1.00  0.00     0.010 A 
ATOM     62  C   UNL A   1      46.551  28.075  32.298  1.00  0.00     0.010 A 
ATOM     63  C   UNL A   1      48.377  27.828  30.191  1.00  0.00     0.020 A 
ATOM     64  C   UNL A   1      47.767  27.416  32.506  1.00  0.00     0.020 A 
ATOM     65  C   UNL A   1      48.665  27.282  31.446  1.00  0.00     0.054 A 
BRANCH  65  66
ATOM     66  S   UNL A   1      50.242  26.417  31.679  1.00  0.00     0.124 S 
ATOM     67  O   UNL A   1      49.804  25.126  32.203  1.00  0.00    -0.237 OA
ATOM     68  O   UNL A   1      50.799  26.391  30.330  1.00  0.00    -0.237 OA
ATOM     69  O   UNL A   1      50.962  27.262  32.629  1.00  0.00    -0.744 OA
ENDBRANCH  65  66
ENDBRANCH  46  60
BRANCH  47  70
ATOM     70  C   UNL A   1      37.235  32.822  29.668  1.00  0.00    -0.014 A 
ATOM     71  C   UNL A   1      36.377  33.089  30.749  1.00  0.00     0.010 A 
ATOM     72  C   UNL A   1      36.830  33.180  28.370  1.00  0.00     0.010 A 
ATOM     73  C   UNL A   1      35.132  33.689  30.532  1.00  0.00     0.020 A 
ATOM     74  C   UNL A   1      35.598  33.803  28.152  1.00  0.00     0.020 A 
ATOM     75  C   UNL A   1      34.751  34.044  29.235  1.00  0.00     0.054 A 
BRANCH  75  76
ATOM     76  S   UNL A   1      33.161  34.880  28.981  1.00  0.00     0.124 S 
ATOM     77  O   UNL A   1      32.580  34.840  30.320  1.00  0.00    -0.237 OA
ATOM     78  O   UNL A   1      33.568  36.200  28.505  1.00  0.00    -0.237 OA
ATOM     79  O   UNL A   1      32.495  34.045  27.983  1.00  0.00    -0.744 OA
ENDBRANCH  75  76
ENDBRANCH  47  70
BRANCH  59  80
ATOM     80  C   UNL A   1      43.366  35.191  31.984  1.00  0.00    -0.014 A 
ATOM     81  C   UNL A   1      43.919  36.113  31.077  1.00  0.00     0.010 A 
ATOM     82  C   UNL A   1      43.224  35.554  33.335  1.00  0.00     0.010 A 
ATOM     83  C   UNL A   1      44.375  37.355  31.526  1.00  0.00     0.020 A 
ATOM     84  C   UNL A   1      43.653  36.806  33.782  1.00  0.00     0.020 A 
ATOM     85  C   UNL A   1      44.249  37.689  32.879  1.00  0.00     0.054 A 
BRANCH  85  86
ATOM     86  S   UNL A   1      44.853  39.302  33.443  1.00  0.00     0.124 S 
ATOM     87  O   UNL A   1      45.347  39.890  32.200  1.00  0.00    -0.237 OA
ATOM     88  O   UNL A   1      43.653  39.922  33.999  1.00  0.00    -0.237 OA
ATOM     89  O   UNL A   1      45.882  38.961  34.423  1.00  0.00    -0.744 OA
ENDBRANCH  85  86
ENDBRANCH  59  80
ENDBRANCH  33  34
ENDBRANCH  26  28
ENDBRANCH  25  26
ENDBRANCH  24  25
ENDBRANCH  23  24
ENDBRANCH  22  23
ENDBRANCH   1  22
TORSDOF 21
ENDMDL
MODEL 2
REMARK VINA RESULT:      -9.2      5.732     11.555
REMARK SMILES CCOc1cccc2c(SCC(=O)OCCOCCOC(=O)c3ccc(-c4c5nc(c(-c6ccc(S(=O)(=O)[O-])cc6)c6ccc([nH]6)c(-c6ccc(S(=O)(=O)[O-])cc6)c6nc(c(-c7ccc(S(=O)(=O)[O-])cc7)c7ccc4[nH]7)C=C6)C=C5)cc3)cc(C)nc12
REMARK SMILES IDX 16 1 15 2 14 3 12 4 13 5 11 6 10 7 9 8 4 9 5 10 87 11 6 12
REMARK SMILES IDX 8 13 86 14 7 15 84 16 83 17 85 18 3 19 2 20 1 21 17 22 18 23
REMARK SMILES IDX 19 24 20 25 21 26 22 27 23 28 24 29 82 30 25 31 81 32 26 33
REMARK SMILES IDX 27 34 28 35 75 36 29 37 80 38 74 39 76 40 30 41 79 42 73 43
REMARK SMILES IDX 72 44 31 46 61 47 42 48 60 49 43 50 46 51 59 52 77 53 44 54
REMARK SMILES IDX 45 55 58 57 78 58 47 59 32 60 33 61 41 62 34 63 40 64 35 65
REMARK SMILES IDX 36 66 37 67 38 68 39 69 62 70 63 71 71 72 64 73 70 74 65 75
REMARK SMILES IDX 66 76 67 77 68 78 69 79 48 80 49 81 57 82 50 83 56 84 51 85
REMARK SMILES IDX 52 86 53 87 54 88 55 89
REMARK H PARENT 76 45 46 56
REMARK Flexibility Score: inf
ROOT
ATOM      1  C   UNL A   1      33.810  35.087  32.909  1.00  0.00     0.202 C 
ENDROOT
BRANCH   1   2
ATOM      2  C   UNL A   1      32.841  35.669  31.871  1.00  0.00     0.261 C 
BRANCH   2   3
ATOM      3  O   UNL A   1      33.503  36.211  30.705  1.00  0.00    -0.463 OA
BRANCH   3   4
ATOM      4  C   UNL A   1      33.001  35.847  29.495  1.00  0.00     0.316 C 
ATOM      5  O   UNL A   1      32.297  36.569  28.793  1.00  0.00    -0.251 OA
BRANCH   4   6
ATOM      6  C   UNL A   1      33.309  34.426  29.076  1.00  0.00     0.197 C 
BRANCH   6   7
ATOM      7  S   UNL A   1      34.754  34.179  28.003  1.00  0.00    -0.114 SA
BRANCH   7   8
ATOM      8  C   UNL A   1      35.238  32.437  28.140  1.00  0.00     0.019 A 
ATOM      9  C   UNL A   1      38.223  30.470  29.136  1.00  0.00     0.145 A 
ATOM     10  C   UNL A   1      39.038  31.404  29.776  1.00  0.00     0.049 A 
ATOM     11  C   UNL A   1      36.939  30.782  28.662  1.00  0.00     0.114 A 
ATOM     12  C   UNL A   1      38.596  32.708  29.908  1.00  0.00     0.005 A 
ATOM     13  C   UNL A   1      36.501  32.122  28.738  1.00  0.00     0.018 A 
ATOM     14  N   UNL A   1      36.182  29.817  28.105  1.00  0.00    -0.249 NA
ATOM     15  C   UNL A   1      37.352  33.064  29.384  1.00  0.00     0.012 A 
ATOM     16  C   UNL A   1      34.978  30.118  27.585  1.00  0.00     0.039 A 
ATOM     17  C   UNL A   1      34.469  31.406  27.591  1.00  0.00     0.039 A 
ATOM     18  C   UNL A   1      34.311  29.013  26.821  1.00  0.00     0.067 C 
BRANCH   9  19
ATOM     19  O   UNL A   1      38.710  29.184  29.018  1.00  0.00    -0.492 OA
BRANCH  19  20
ATOM     20  C   UNL A   1      38.440  28.415  30.200  1.00  0.00     0.226 C 
ATOM     21  C   UNL A   1      39.126  27.059  30.142  1.00  0.00     0.049 C 
ENDBRANCH  19  20
ENDBRANCH   9  19
ENDBRANCH   7   8
ENDBRANCH   6   7
ENDBRANCH   4   6
ENDBRANCH   3   4
ENDBRANCH   2   3
ENDBRANCH   1   2
BRANCH   1  22
ATOM     22  O   UNL A   1      33.866  33.660  32.990  1.00  0.00    -0.374 OA
BRANCH  22  23
ATOM     23  C   UNL A   1      34.822  33.009  32.159  1.00  0.00     0.202 C 
BRANCH  23  24
ATOM     24  C   UNL A   1      35.924  32.229  32.878  1.00  0.00     0.261 C 
BRANCH  24  25
ATOM     25  O   UNL A   1      36.154  32.720  34.201  1.00  0.00    -0.460 OA
BRANCH  25  26
ATOM     26  C   UNL A   1      37.179  33.594  34.277  1.00  0.00     0.338 C 
ATOM     27  O   UNL A   1      37.118  34.818  34.262  1.00  0.00    -0.246 OA
BRANCH  26  28
ATOM     28  C   UNL A   1      38.422  32.876  34.566  1.00  0.00     0.060 A 
ATOM     29  C   UNL A   1      39.610  33.491  34.161  1.00  0.00     0.016 A 
ATOM     30  C   UNL A   1      38.420  31.592  35.116  1.00  0.00     0.016 A 
ATOM     31  C   UNL A   1      40.800  32.783  34.227  1.00  0.00     0.010 A 
ATOM     32  C   UNL A   1      39.623  30.882  35.184  1.00  0.00     0.010 A 
ATOM     33  C   UNL A   1      40.805  31.459  34.690  1.00  0.00    -0.014 A 
BRANCH  33  34
ATOM     34  C   UNL A   1      42.043  30.670  34.502  1.00  0.00     0.031 A 
ATOM     35  C   UNL A   1      42.945  30.437  35.682  1.00  0.00     0.074 A 
ATOM     36  C   UNL A   1      42.273  30.065  33.324  1.00  0.00     0.049 A 
ATOM     37  N   UNL A   1      43.953  29.613  35.798  1.00  0.00    -0.248 NA
ATOM     38  C   UNL A   1      42.670  31.227  36.894  1.00  0.00     0.031 C 
ATOM     39  C   UNL A   1      41.447  30.213  32.126  1.00  0.00     0.029 A 
ATOM     40  N   UNL A   1      43.247  29.175  32.957  1.00  0.00    -0.354 N 
ATOM     41  C   UNL A   1      44.423  29.772  37.097  1.00  0.00     0.074 A 
ATOM     42  C   UNL A   1      43.619  30.802  37.716  1.00  0.00     0.031 C 
ATOM     43  C   UNL A   1      41.934  29.414  31.161  1.00  0.00     0.029 A 
ATOM     44  C   UNL A   1      43.106  28.708  31.673  1.00  0.00     0.049 A 
ATOM     45  H   UNL A   1      43.979  28.896  33.555  1.00  0.00     0.167 HD
ATOM     46  C   UNL A   1      45.426  29.109  37.722  1.00  0.00     0.031 A 
ATOM     47  C   UNL A   1      43.828  27.795  30.995  1.00  0.00     0.031 A 
ATOM     48  C   UNL A   1      46.234  28.102  37.087  1.00  0.00     0.049 A 
ATOM     49  C   UNL A   1      44.952  27.089  31.703  1.00  0.00     0.074 A 
ATOM     50  C   UNL A   1      47.276  27.366  37.624  1.00  0.00     0.029 A 
ATOM     51  N   UNL A   1      46.092  27.693  35.770  1.00  0.00    -0.354 N 
ATOM     52  N   UNL A   1      45.359  27.224  32.944  1.00  0.00    -0.248 NA
ATOM     53  C   UNL A   1      45.697  26.091  30.926  1.00  0.00     0.031 C 
ATOM     54  C   UNL A   1      47.794  26.545  36.614  1.00  0.00     0.029 A 
ATOM     55  C   UNL A   1      47.039  26.731  35.466  1.00  0.00     0.049 A 
ATOM     56  H   UNL A   1      45.416  28.037  35.142  1.00  0.00     0.167 HD
ATOM     57  C   UNL A   1      46.398  26.314  33.101  1.00  0.00     0.074 A 
ATOM     58  C   UNL A   1      46.538  25.619  31.836  1.00  0.00     0.031 C 
ATOM     59  C   UNL A   1      47.170  26.072  34.191  1.00  0.00     0.031 A 
BRANCH  46  60
ATOM     60  C   UNL A   1      45.716  29.479  39.152  1.00  0.00    -0.014 A 
ATOM     61  C   UNL A   1      46.453  30.636  39.470  1.00  0.00     0.010 A 
ATOM     62  C   UNL A   1      45.233  28.670  40.196  1.00  0.00     0.010 A 
ATOM     63  C   UNL A   1      46.732  30.954  40.803  1.00  0.00     0.020 A 
ATOM     64  C   UNL A   1      45.491  28.997  41.530  1.00  0.00     0.020 A 
ATOM     65  C   UNL A   1      46.254  30.128  41.825  1.00  0.00     0.054 A 
BRANCH  65  66
ATOM     66  S   UNL A   1      46.620  30.569  43.546  1.00  0.00     0.124 S 
ATOM     67  O   UNL A   1      45.683  29.722  44.280  1.00  0.00    -0.237 OA
ATOM     68  O   UNL A   1      48.029  30.208  43.679  1.00  0.00    -0.237 OA
ATOM     69  O   UNL A   1      46.340  32.002  43.603  1.00  0.00    -0.744 OA
ENDBRANCH  65  66
ENDBRANCH  46  60
BRANCH  47  70
ATOM     70  C   UNL A   1      43.491  27.489  29.579  1.00  0.00    -0.014 A 
ATOM     71  C   UNL A   1      44.007  28.267  28.528  1.00  0.00     0.010 A 
ATOM     72  C   UNL A   1      42.663  26.394  29.276  1.00  0.00     0.010 A 
ATOM     73  C   UNL A   1      43.690  27.962  27.200  1.00  0.00     0.020 A 
ATOM     74  C   UNL A   1      42.364  26.071  27.950  1.00  0.00     0.020 A 
ATOM     75  C   UNL A   1      42.871  26.864  26.919  1.00  0.00     0.054 A 
BRANCH  75  76
ATOM     76  S   UNL A   1      42.521  26.445  25.189  1.00  0.00     0.124 S 
ATOM     77  O   UNL A   1      41.164  25.915  25.274  1.00  0.00    -0.237 OA
ATOM     78  O   UNL A   1      42.658  27.735  24.516  1.00  0.00    -0.237 OA
ATOM     79  O   UNL A   1      43.557  25.468  24.860  1.00  0.00    -0.744 OA
ENDBRANCH  75  76
ENDBRANCH  47  70
BRANCH  59  80
ATOM     80  C   UNL A   1      48.220  25.003  34.054  1.00  0.00    -0.014 A 
ATOM     81  C   UNL A   1      47.983  23.691  34.499  1.00  0.00     0.010 A 
ATOM     82  C   UNL A   1      49.458  25.318  33.465  1.00  0.00     0.010 A 
ATOM     83  C   UNL A   1      48.988  22.725  34.412  1.00  0.00     0.020 A 
ATOM     84  C   UNL A   1      50.456  24.347  33.350  1.00  0.00     0.020 A 
ATOM     85  C   UNL A   1      50.223  23.063  33.848  1.00  0.00     0.054 A 
BRANCH  85  86
ATOM     86  S   UNL A   1      51.517  21.797  33.750  1.00  0.00     0.124 S 
ATOM     87  O   UNL A   1      51.787  21.752  32.315  1.00  0.00    -0.237 OA
ATOM     88  O   UNL A   1      52.585  22.359  34.573  1.00  0.00    -0.237 OA
ATOM     89  O   UNL A   1      50.875  20.605  34.302  1.00  0.00    -0.744 OA
ENDBRANCH  85  86
ENDBRANCH  59  80
ENDBRANCH  33  34
ENDBRANCH  26  28
ENDBRANCH  25  26
ENDBRANCH  24  25
ENDBRANCH  23  24
ENDBRANCH  22  23
ENDBRANCH   1  22
TORSDOF 21
ENDMDL
MODEL 3
REMARK VINA RESULT:      -9.2      5.830      9.306
REMARK SMILES CCOc1cccc2c(SCC(=O)OCCOCCOC(=O)c3ccc(-c4c5nc(c(-c6ccc(S(=O)(=O)[O-])cc6)c6ccc([nH]6)c(-c6ccc(S(=O)(=O)[O-])cc6)c6nc(c(-c7ccc(S(=O)(=O)[O-])cc7)c7ccc4[nH]7)C=C6)C=C5)cc3)cc(C)nc12
REMARK SMILES IDX 16 1 15 2 14 3 12 4 13 5 11 6 10 7 9 8 4 9 5 10 87 11 6 12
REMARK SMILES IDX 8 13 86 14 7 15 84 16 83 17 85 18 3 19 2 20 1 21 17 22 18 23
REMARK SMILES IDX 19 24 20 25 21 26 22 27 23 28 24 29 82 30 25 31 81 32 26 33
REMARK SMILES IDX 27 34 28 35 75 36 29 37 80 38 74 39 76 40 30 41 79 42 73 43
REMARK SMILES IDX 72 44 31 46 61 47 42 48 60 49 43 50 46 51 59 52 77 53 44 54
REMARK SMILES IDX 45 55 58 57 78 58 47 59 32 60 33 61 41 62 34 63 40 64 35 65
REMARK SMILES IDX 36 66 37 67 38 68 39 69 62 70 63 71 71 72 64 73 70 74 65 75
REMARK SMILES IDX 66 76 67 77 68 78 69 79 48 80 49 81 57 82 50 83 56 84 51 85
REMARK SMILES IDX 52 86 53 87 54 88 55 89
REMARK H PARENT 76 45 46 56
REMARK Flexibility Score: inf
ROOT
ATOM      1  C   UNL A   1      46.307  24.977  25.326  1.00  0.00     0.202 C 
ENDROOT
BRANCH   1   2
ATOM      2  C   UNL A   1      45.902  26.364  25.847  1.00  0.00     0.261 C 
BRANCH   2   3
ATOM      3  O   UNL A   1      46.556  27.452  25.155  1.00  0.00    -0.463 OA
BRANCH   3   4
ATOM      4  C   UNL A   1      46.297  28.707  25.610  1.00  0.00     0.316 C 
ATOM      5  O   UNL A   1      46.529  29.734  24.976  1.00  0.00    -0.251 OA
BRANCH   4   6
ATOM      6  C   UNL A   1      45.754  28.776  27.020  1.00  0.00     0.197 C 
BRANCH   6   7
ATOM      7  S   UNL A   1      44.972  30.337  27.524  1.00  0.00    -0.114 SA
BRANCH   7   8
ATOM      8  C   UNL A   1      44.892  30.340  29.336  1.00  0.00     0.019 A 
ATOM      9  C   UNL A   1      43.026  32.102  32.016  1.00  0.00     0.145 A 
ATOM     10  C   UNL A   1      41.977  32.724  31.337  1.00  0.00     0.049 A 
ATOM     11  C   UNL A   1      43.945  31.255  31.379  1.00  0.00     0.114 A 
ATOM     12  C   UNL A   1      41.860  32.548  29.970  1.00  0.00     0.005 A 
ATOM     13  C   UNL A   1      43.871  31.114  29.976  1.00  0.00     0.018 A 
ATOM     14  N   UNL A   1      44.899  30.640  32.105  1.00  0.00    -0.249 NA
ATOM     15  C   UNL A   1      42.801  31.766  29.298  1.00  0.00     0.012 A 
ATOM     16  C   UNL A   1      45.828  29.881  31.497  1.00  0.00     0.039 A 
ATOM     17  C   UNL A   1      45.854  29.699  30.123  1.00  0.00     0.039 A 
ATOM     18  C   UNL A   1      46.950  29.409  32.373  1.00  0.00     0.067 C 
BRANCH   9  19
ATOM     19  O   UNL A   1      43.109  32.315  33.377  1.00  0.00    -0.492 OA
BRANCH  19  20
ATOM     20  C   UNL A   1      43.436  33.683  33.671  1.00  0.00     0.226 C 
ATOM     21  C   UNL A   1      44.435  33.775  34.813  1.00  0.00     0.049 C 
ENDBRANCH  19  20
ENDBRANCH   9  19
ENDBRANCH   7   8
ENDBRANCH   6   7
ENDBRANCH   4   6
ENDBRANCH   3   4
ENDBRANCH   2   3
ENDBRANCH   1   2
BRANCH   1  22
ATOM     22  O   UNL A   1      45.332  23.941  25.469  1.00  0.00    -0.374 OA
BRANCH  22  23
ATOM     23  C   UNL A   1      43.973  24.305  25.248  1.00  0.00     0.202 C 
BRANCH  23  24
ATOM     24  C   UNL A   1      43.000  24.016  26.392  1.00  0.00     0.261 C 
BRANCH  24  25
ATOM     25  O   UNL A   1      41.681  24.492  26.110  1.00  0.00    -0.460 OA
BRANCH  25  26
ATOM     26  C   UNL A   1      41.601  25.836  26.043  1.00  0.00     0.338 C 
ATOM     27  O   UNL A   1      41.409  26.524  25.047  1.00  0.00    -0.246 OA
BRANCH  26  28
ATOM     28  C   UNL A   1      41.597  26.400  27.395  1.00  0.00     0.060 A 
ATOM     29  C   UNL A   1      40.524  26.047  28.218  1.00  0.00     0.016 A 
ATOM     30  C   UNL A   1      42.551  27.332  27.807  1.00  0.00     0.016 A 
ATOM     31  C   UNL A   1      40.355  26.695  29.432  1.00  0.00     0.010 A 
ATOM     32  C   UNL A   1      42.380  27.981  29.034  1.00  0.00     0.010 A 
ATOM     33  C   UNL A   1      41.252  27.700  29.823  1.00  0.00    -0.014 A 
BRANCH  33  34
ATOM     34  C   UNL A   1      40.888  28.529  30.993  1.00  0.00     0.031 A 
ATOM     35  C   UNL A   1      41.726  28.441  32.239  1.00  0.00     0.074 A 
ATOM     36  C   UNL A   1      39.905  29.439  30.883  1.00  0.00     0.049 A 
ATOM     37  N   UNL A   1      41.722  29.217  33.291  1.00  0.00    -0.248 NA
ATOM     38  C   UNL A   1      42.705  27.343  32.303  1.00  0.00     0.031 C 
ATOM     39  C   UNL A   1      39.048  29.615  29.711  1.00  0.00     0.029 A 
ATOM     40  N   UNL A   1      39.491  30.411  31.755  1.00  0.00    -0.354 N 
ATOM     41  C   UNL A   1      42.705  28.712  34.135  1.00  0.00     0.074 A 
ATOM     42  C   UNL A   1      43.255  27.539  33.493  1.00  0.00     0.031 C 
ATOM     43  C   UNL A   1      38.226  30.657  29.925  1.00  0.00     0.029 A 
ATOM     44  C   UNL A   1      38.496  31.212  31.249  1.00  0.00     0.049 A 
ATOM     45  H   UNL A   1      39.869  30.525  32.657  1.00  0.00     0.167 HD
ATOM     46  C   UNL A   1      43.122  29.193  35.331  1.00  0.00     0.031 A 
ATOM     47  C   UNL A   1      37.889  32.288  31.786  1.00  0.00     0.031 A 
ATOM     48  C   UNL A   1      42.550  30.348  35.970  1.00  0.00     0.049 A 
ATOM     49  C   UNL A   1      38.352  32.788  33.127  1.00  0.00     0.074 A 
ATOM     50  C   UNL A   1      42.893  30.924  37.181  1.00  0.00     0.029 A 
ATOM     51  N   UNL A   1      41.509  31.103  35.449  1.00  0.00    -0.354 N 
ATOM     52  N   UNL A   1      39.309  32.322  33.894  1.00  0.00    -0.248 NA
ATOM     53  C   UNL A   1      37.669  33.973  33.659  1.00  0.00     0.031 C 
ATOM     54  C   UNL A   1      42.026  32.000  37.413  1.00  0.00     0.029 A 
ATOM     55  C   UNL A   1      41.181  32.126  36.321  1.00  0.00     0.049 A 
ATOM     56  H   UNL A   1      41.069  30.935  34.585  1.00  0.00     0.167 HD
ATOM     57  C   UNL A   1      39.355  33.169  34.996  1.00  0.00     0.074 A 
ATOM     58  C   UNL A   1      38.346  34.188  34.779  1.00  0.00     0.031 C 
ATOM     59  C   UNL A   1      40.157  33.113  36.090  1.00  0.00     0.031 A 
BRANCH  46  60
ATOM     60  C   UNL A   1      44.226  28.447  36.031  1.00  0.00    -0.014 A 
ATOM     61  C   UNL A   1      45.579  28.757  35.794  1.00  0.00     0.010 A 
ATOM     62  C   UNL A   1      43.910  27.433  36.953  1.00  0.00     0.010 A 
ATOM     63  C   UNL A   1      46.594  28.040  36.436  1.00  0.00     0.020 A 
ATOM     64  C   UNL A   1      44.922  26.729  37.614  1.00  0.00     0.020 A 
ATOM     65  C   UNL A   1      46.258  27.026  37.338  1.00  0.00     0.054 A 
BRANCH  65  66
ATOM     66  S   UNL A   1      47.592  26.118  38.167  1.00  0.00     0.124 S 
ATOM     67  O   UNL A   1      48.556  27.182  38.439  1.00  0.00    -0.237 OA
ATOM     68  O   UNL A   1      46.924  25.561  39.340  1.00  0.00    -0.237 OA
ATOM     69  O   UNL A   1      48.013  25.136  37.170  1.00  0.00    -0.744 OA
ENDBRANCH  65  66
ENDBRANCH  46  60
BRANCH  47  70
ATOM     70  C   UNL A   1      36.795  32.967  31.041  1.00  0.00    -0.014 A 
ATOM     71  C   UNL A   1      37.079  33.906  30.034  1.00  0.00     0.010 A 
ATOM     72  C   UNL A   1      35.454  32.655  31.325  1.00  0.00     0.010 A 
ATOM     73  C   UNL A   1      36.040  34.529  29.335  1.00  0.00     0.020 A 
ATOM     74  C   UNL A   1      34.414  33.257  30.612  1.00  0.00     0.020 A 
ATOM     75  C   UNL A   1      34.714  34.199  29.627  1.00  0.00     0.054 A 
BRANCH  75  76
ATOM     76  S   UNL A   1      33.381  34.971  28.667  1.00  0.00     0.124 S 
ATOM     77  O   UNL A   1      32.781  33.819  28.001  1.00  0.00    -0.237 OA
ATOM     78  O   UNL A   1      32.566  35.599  29.705  1.00  0.00    -0.237 OA
ATOM     79  O   UNL A   1      34.089  35.904  27.793  1.00  0.00    -0.744 OA
ENDBRANCH  75  76
ENDBRANCH  47  70
BRANCH  59  80
ATOM     80  C   UNL A   1      39.974  34.194  37.120  1.00  0.00    -0.014 A 
ATOM     81  C   UNL A   1      39.208  33.971  38.278  1.00  0.00     0.010 A 
ATOM     82  C   UNL A   1      40.581  35.448  36.927  1.00  0.00     0.010 A 
ATOM     83  C   UNL A   1      39.004  35.003  39.198  1.00  0.00     0.020 A 
ATOM     84  C   UNL A   1      40.403  36.473  37.859  1.00  0.00     0.020 A 
ATOM     85  C   UNL A   1      39.594  36.251  38.976  1.00  0.00     0.054 A 
BRANCH  85  86
ATOM     86  S   UNL A   1      39.312  37.579  40.178  1.00  0.00     0.124 S 
ATOM     87  O   UNL A   1      38.906  36.830  41.365  1.00  0.00    -0.237 OA
ATOM     88  O   UNL A   1      40.619  38.226  40.260  1.00  0.00    -0.237 OA
ATOM     89  O   UNL A   1      38.262  38.386  39.559  1.00  0.00    -0.744 OA
ENDBRANCH  85  86
ENDBRANCH  59  80
ENDBRANCH  33  34
ENDBRANCH  26  28
ENDBRANCH  25  26
ENDBRANCH  24  25
ENDBRANCH  23  24
ENDBRANCH  22  23
ENDBRANCH   1  22
TORSDOF 21
ENDMDL
