MODEL 1
REMARK VINA RESULT:     -11.6      0.000      0.000
REMARK SMILES Cc1ccc(C(=O)NC2CC2)cc1NC(=O)[C@@H]1[C@@H](C(=O)OCCOCCOC(=O)c2ccc(-c3c4nc(c(-c5ccc(S(=O)(=O)[O-])cc5)c5ccc([nH]5)c(-c5ccc(S(=O)(=O)[O-])cc5)c5nc(c(-c6ccc(S(=O)(=O)[O-])cc6)c6ccc3[nH]6)C=C5)C=C4)cc2)[C@H]2C=C[C@@H]1C2
REMARK SMILES IDX 23 1 22 2 21 3 19 4 20 5 18 6 17 7 93 8 90 9 92 10 94 11
REMARK SMILES IDX 91 12 15 13 14 14 16 16 13 17 1 18 2 19 3 20 4 21 12 22 5 23
REMARK SMILES IDX 6 24 7 25 8 26 9 28 10 29 11 30 24 31 25 32 26 33 27 34
REMARK SMILES IDX 28 35 29 36 30 37 31 38 89 39 32 40 88 41 33 42 34 43 35 44
REMARK SMILES IDX 82 45 36 46 87 47 81 48 83 49 37 50 86 51 80 52 79 53 38 55
REMARK SMILES IDX 68 56 49 57 67 58 50 59 53 60 66 61 84 62 51 63 52 64 65 66
REMARK SMILES IDX 85 67 54 68 39 69 40 70 48 71 41 72 47 73 42 74 43 75 44 76
REMARK SMILES IDX 45 77 46 78 69 79 70 80 78 81 71 82 77 83 72 84 73 85 74 86
REMARK SMILES IDX 75 87 76 88 55 89 56 90 64 91 57 92 63 93 58 94 59 95 60 96
REMARK SMILES IDX 61 97 62 98
REMARK H PARENT 14 15 8 27 83 54 53 65
REMARK Flexibility Score: inf
ROOT
ATOM      1  C   UNL A   1      38.865  20.150  25.260  1.00  0.00     0.202 C 
ENDROOT
BRANCH   1   2
ATOM      2  C   UNL A   1      37.411  19.729  24.998  1.00  0.00     0.261 C 
BRANCH   2   3
ATOM      3  O   UNL A   1      36.429  20.726  25.264  1.00  0.00    -0.463 OA
BRANCH   3   4
ATOM      4  C   UNL A   1      35.190  20.372  24.909  1.00  0.00     0.310 C 
ATOM      5  O   UNL A   1      34.816  19.200  24.749  1.00  0.00    -0.252 OA
BRANCH   4   6
ATOM      6  C   UNL A   1      34.265  21.538  24.911  1.00  0.00     0.119 C 
ATOM      7  C   UNL A   1      35.092  22.845  24.779  1.00  0.00     0.100 C 
ATOM      8  C   UNL A   1      34.347  23.814  25.719  1.00  0.00     0.025 C 
ATOM      9  C   UNL A   1      33.429  21.811  26.178  1.00  0.00     0.027 C 
ATOM     10  C   UNL A   1      34.809  23.414  27.112  1.00  0.00    -0.027 C 
ATOM     11  C   UNL A   1      32.935  23.221  25.807  1.00  0.00     0.017 C 
ATOM     12  C   UNL A   1      34.295  22.198  27.361  1.00  0.00    -0.027 C 
BRANCH   7  13
ATOM     13  C   UNL A   1      35.280  23.220  23.326  1.00  0.00     0.228 C 
ATOM     14  N   UNL A   1      34.310  23.836  22.578  1.00  0.00    -0.326 N 
ATOM     15  H   UNL A   1      34.624  24.094  21.681  1.00  0.00     0.169 HD
ATOM     16  O   UNL A   1      36.336  22.941  22.744  1.00  0.00    -0.274 OA
BRANCH  14  17
ATOM     17  C   UNL A   1      32.958  24.186  22.810  1.00  0.00     0.044 A 
ATOM     18  C   UNL A   1      32.206  21.768  22.377  1.00  0.00     0.046 C 
ATOM     19  C   UNL A   1      31.973  23.186  22.820  1.00  0.00    -0.027 A 
ATOM     20  C   UNL A   1      30.671  23.513  23.248  1.00  0.00     0.006 A 
ATOM     21  C   UNL A   1      30.349  24.803  23.677  1.00  0.00     0.014 A 
ATOM     22  C   UNL A   1      32.543  25.495  23.063  1.00  0.00     0.040 A 
ATOM     23  C   UNL A   1      31.287  25.826  23.579  1.00  0.00     0.041 A 
BRANCH  23  24
ATOM     24  C   UNL A   1      30.914  27.165  24.148  1.00  0.00     0.251 C 
ATOM     25  O   UNL A   1      29.755  27.560  24.006  1.00  0.00    -0.269 OA
ATOM     26  N   UNL A   1      31.789  27.947  24.868  1.00  0.00    -0.349 N 
ATOM     27  H   UNL A   1      31.411  28.774  25.246  1.00  0.00     0.164 HD
BRANCH  26  28
ATOM     28  C   UNL A   1      33.155  27.719  25.136  1.00  0.00     0.082 C 
ATOM     29  C   UNL A   1      33.965  28.762  25.763  1.00  0.00     0.027 C 
ATOM     30  C   UNL A   1      33.718  27.454  26.500  1.00  0.00     0.027 C 
ENDBRANCH  26  28
ENDBRANCH  23  24
ENDBRANCH  14  17
ENDBRANCH   7  13
ENDBRANCH   4   6
ENDBRANCH   3   4
ENDBRANCH   2   3
ENDBRANCH   1   2
BRANCH   1  31
ATOM     31  O   UNL A   1      39.786  19.186  25.751  1.00  0.00    -0.374 OA
BRANCH  31  32
ATOM     32  C   UNL A   1      41.094  19.608  26.124  1.00  0.00     0.202 C 
BRANCH  32  33
ATOM     33  C   UNL A   1      41.250  20.157  27.551  1.00  0.00     0.261 C 
BRANCH  33  34
ATOM     34  O   UNL A   1      41.879  21.452  27.478  1.00  0.00    -0.460 OA
BRANCH  34  35
ATOM     35  C   UNL A   1      41.477  22.728  27.625  1.00  0.00     0.338 C 
ATOM     36  O   UNL A   1      41.863  23.312  28.638  1.00  0.00    -0.246 OA
BRANCH  35  37
ATOM     37  C   UNL A   1      40.436  23.443  26.784  1.00  0.00     0.060 A 
ATOM     38  C   UNL A   1      41.029  24.370  25.912  1.00  0.00     0.016 A 
ATOM     39  C   UNL A   1      39.257  23.848  27.391  1.00  0.00     0.016 A 
ATOM     40  C   UNL A   1      40.857  25.735  26.150  1.00  0.00     0.010 A 
ATOM     41  C   UNL A   1      39.090  25.204  27.670  1.00  0.00     0.010 A 
ATOM     42  C   UNL A   1      40.032  26.124  27.202  1.00  0.00    -0.014 A 
BRANCH  42  43
ATOM     43  C   UNL A   1      40.426  27.241  28.086  1.00  0.00     0.031 A 
ATOM     44  C   UNL A   1      39.577  28.438  28.340  1.00  0.00     0.074 A 
ATOM     45  C   UNL A   1      41.528  27.065  28.869  1.00  0.00     0.049 A 
ATOM     46  N   UNL A   1      40.017  29.580  28.766  1.00  0.00    -0.248 NA
ATOM     47  C   UNL A   1      38.132  28.428  28.167  1.00  0.00     0.031 C 
ATOM     48  C   UNL A   1      41.957  27.912  29.981  1.00  0.00     0.029 A 
ATOM     49  N   UNL A   1      42.555  26.119  28.801  1.00  0.00    -0.354 N 
ATOM     50  C   UNL A   1      38.941  30.300  29.250  1.00  0.00     0.074 A 
ATOM     51  C   UNL A   1      37.788  29.582  28.746  1.00  0.00     0.031 C 
ATOM     52  C   UNL A   1      43.193  27.574  30.374  1.00  0.00     0.029 A 
ATOM     53  C   UNL A   1      43.707  26.689  29.351  1.00  0.00     0.049 A 
ATOM     54  H   UNL A   1      42.481  25.210  28.430  1.00  0.00     0.167 HD
ATOM     55  C   UNL A   1      39.123  31.315  30.157  1.00  0.00     0.031 A 
ATOM     56  C   UNL A   1      44.821  26.966  28.615  1.00  0.00     0.031 A 
ATOM     57  C   UNL A   1      40.549  31.528  30.498  1.00  0.00     0.049 A 
ATOM     58  C   UNL A   1      45.067  28.471  28.553  1.00  0.00     0.074 A 
ATOM     59  C   UNL A   1      41.262  31.511  31.688  1.00  0.00     0.029 A 
ATOM     60  N   UNL A   1      41.521  31.624  29.491  1.00  0.00    -0.354 N 
ATOM     61  N   UNL A   1      44.137  29.367  28.783  1.00  0.00    -0.248 NA
ATOM     62  C   UNL A   1      46.365  29.091  28.300  1.00  0.00     0.031 C 
ATOM     63  C   UNL A   1      42.650  31.485  31.391  1.00  0.00     0.029 A 
ATOM     64  C   UNL A   1      42.799  31.553  30.015  1.00  0.00     0.049 A 
ATOM     65  H   UNL A   1      41.319  31.728  28.533  1.00  0.00     0.167 HD
ATOM     66  C   UNL A   1      44.686  30.615  28.819  1.00  0.00     0.074 A 
ATOM     67  C   UNL A   1      46.078  30.398  28.456  1.00  0.00     0.031 C 
ATOM     68  C   UNL A   1      43.992  31.732  29.189  1.00  0.00     0.031 A 
BRANCH  55  69
ATOM     69  C   UNL A   1      37.964  31.942  30.963  1.00  0.00    -0.014 A 
ATOM     70  C   UNL A   1      37.467  33.235  30.675  1.00  0.00     0.010 A 
ATOM     71  C   UNL A   1      37.324  31.307  32.046  1.00  0.00     0.010 A 
ATOM     72  C   UNL A   1      36.500  33.883  31.477  1.00  0.00     0.020 A 
ATOM     73  C   UNL A   1      36.389  31.946  32.881  1.00  0.00     0.020 A 
ATOM     74  C   UNL A   1      35.987  33.243  32.600  1.00  0.00     0.054 A 
BRANCH  74  75
ATOM     75  S   UNL A   1      34.780  34.083  33.665  1.00  0.00     0.124 S 
ATOM     76  O   UNL A   1      35.215  33.703  35.005  1.00  0.00    -0.237 OA
ATOM     77  O   UNL A   1      34.968  35.486  33.311  1.00  0.00    -0.237 OA
ATOM     78  O   UNL A   1      33.499  33.510  33.252  1.00  0.00    -0.744 OA
ENDBRANCH  74  75
ENDBRANCH  55  69
BRANCH  56  79
ATOM     79  C   UNL A   1      45.161  25.933  27.595  1.00  0.00    -0.014 A 
ATOM     80  C   UNL A   1      45.381  24.616  28.068  1.00  0.00     0.010 A 
ATOM     81  C   UNL A   1      44.907  26.107  26.225  1.00  0.00     0.010 A 
ATOM     82  C   UNL A   1      45.237  23.500  27.231  1.00  0.00     0.020 A 
ATOM     83  C   UNL A   1      44.769  24.988  25.380  1.00  0.00     0.020 A 
ATOM     84  C   UNL A   1      44.896  23.689  25.894  1.00  0.00     0.054 A 
BRANCH  84  85
ATOM     85  S   UNL A   1      44.412  22.244  24.882  1.00  0.00     0.124 S 
ATOM     86  O   UNL A   1      45.401  22.276  23.810  1.00  0.00    -0.237 OA
ATOM     87  O   UNL A   1      44.522  21.108  25.793  1.00  0.00    -0.237 OA
ATOM     88  O   UNL A   1      43.042  22.564  24.476  1.00  0.00    -0.744 OA
ENDBRANCH  84  85
ENDBRANCH  56  79
BRANCH  68  89
ATOM     89  C   UNL A   1      44.452  33.144  28.921  1.00  0.00    -0.014 A 
ATOM     90  C   UNL A   1      45.030  33.952  29.912  1.00  0.00     0.010 A 
ATOM     91  C   UNL A   1      44.498  33.623  27.590  1.00  0.00     0.010 A 
ATOM     92  C   UNL A   1      45.601  35.192  29.598  1.00  0.00     0.020 A 
ATOM     93  C   UNL A   1      45.096  34.842  27.260  1.00  0.00     0.020 A 
ATOM     94  C   UNL A   1      45.638  35.625  28.272  1.00  0.00     0.054 A 
BRANCH  94  95
ATOM     95  S   UNL A   1      46.502  37.161  27.858  1.00  0.00     0.124 S 
ATOM     96  O   UNL A   1      47.901  36.773  28.022  1.00  0.00    -0.237 OA
ATOM     97  O   UNL A   1      46.080  37.415  26.483  1.00  0.00    -0.237 OA
ATOM     98  O   UNL A   1      45.995  38.114  28.842  1.00  0.00    -0.744 OA
ENDBRANCH  94  95
ENDBRANCH  68  89
ENDBRANCH  42  43
ENDBRANCH  35  37
ENDBRANCH  34  35
ENDBRANCH  33  34
ENDBRANCH  32  33
ENDBRANCH  31  32
ENDBRANCH   1  31
TORSDOF 21
ENDMDL
MODEL 2
REMARK VINA RESULT:     -10.2      5.486     10.315
REMARK SMILES Cc1ccc(C(=O)NC2CC2)cc1NC(=O)[C@@H]1[C@@H](C(=O)OCCOCCOC(=O)c2ccc(-c3c4nc(c(-c5ccc(S(=O)(=O)[O-])cc5)c5ccc([nH]5)c(-c5ccc(S(=O)(=O)[O-])cc5)c5nc(c(-c6ccc(S(=O)(=O)[O-])cc6)c6ccc3[nH]6)C=C5)C=C4)cc2)[C@H]2C=C[C@@H]1C2
REMARK SMILES IDX 23 1 22 2 21 3 19 4 20 5 18 6 17 7 93 8 90 9 92 10 94 11
REMARK SMILES IDX 91 12 15 13 14 14 16 16 13 17 1 18 2 19 3 20 4 21 12 22 5 23
REMARK SMILES IDX 6 24 7 25 8 26 9 28 10 29 11 30 24 31 25 32 26 33 27 34
REMARK SMILES IDX 28 35 29 36 30 37 31 38 89 39 32 40 88 41 33 42 34 43 35 44
REMARK SMILES IDX 82 45 36 46 87 47 81 48 83 49 37 50 86 51 80 52 79 53 38 55
REMARK SMILES IDX 68 56 49 57 67 58 50 59 53 60 66 61 84 62 51 63 52 64 65 66
REMARK SMILES IDX 85 67 54 68 39 69 40 70 48 71 41 72 47 73 42 74 43 75 44 76
REMARK SMILES IDX 45 77 46 78 69 79 70 80 78 81 71 82 77 83 72 84 73 85 74 86
REMARK SMILES IDX 75 87 76 88 55 89 56 90 64 91 57 92 63 93 58 94 59 95 60 96
REMARK SMILES IDX 61 97 62 98
REMARK H PARENT 14 15 8 27 83 54 53 65
REMARK Flexibility Score: inf
ROOT
ATOM      1  C   UNL A   1      34.586  28.100  26.720  1.00  0.00     0.202 C 
ENDROOT
BRANCH   1   2
ATOM      2  C   UNL A   1      33.069  27.959  26.515  1.00  0.00     0.261 C 
BRANCH   2   3
ATOM      3  O   UNL A   1      32.576  26.624  26.509  1.00  0.00    -0.463 OA
BRANCH   3   4
ATOM      4  C   UNL A   1      31.245  26.540  26.606  1.00  0.00     0.310 C 
ATOM      5  O   UNL A   1      30.547  27.280  27.315  1.00  0.00    -0.252 OA
BRANCH   4   6
ATOM      6  C   UNL A   1      30.684  25.577  25.619  1.00  0.00     0.119 C 
ATOM      7  C   UNL A   1      31.597  24.322  25.555  1.00  0.00     0.100 C 
ATOM      8  C   UNL A   1      31.589  23.975  24.052  1.00  0.00     0.025 C 
ATOM      9  C   UNL A   1      30.611  26.000  24.138  1.00  0.00     0.027 C 
ATOM     10  C   UNL A   1      32.558  24.971  23.433  1.00  0.00    -0.027 C 
ATOM     11  C   UNL A   1      30.295  24.619  23.537  1.00  0.00     0.017 C 
ATOM     12  C   UNL A   1      31.987  26.184  23.528  1.00  0.00    -0.027 C 
BRANCH   7  13
ATOM     13  C   UNL A   1      31.154  23.282  26.559  1.00  0.00     0.228 C 
ATOM     14  N   UNL A   1      31.680  22.017  26.611  1.00  0.00    -0.326 N 
ATOM     15  H   UNL A   1      31.349  21.496  27.380  1.00  0.00     0.169 HD
ATOM     16  O   UNL A   1      30.251  23.542  27.365  1.00  0.00    -0.274 OA
BRANCH  14  17
ATOM     17  C   UNL A   1      32.593  21.294  25.806  1.00  0.00     0.044 A 
ATOM     18  C   UNL A   1      34.584  22.482  26.910  1.00  0.00     0.046 C 
ATOM     19  C   UNL A   1      33.972  21.435  26.021  1.00  0.00    -0.027 A 
ATOM     20  C   UNL A   1      34.860  20.566  25.355  1.00  0.00     0.006 A 
ATOM     21  C   UNL A   1      34.393  19.561  24.506  1.00  0.00     0.014 A 
ATOM     22  C   UNL A   1      32.188  20.407  24.806  1.00  0.00     0.040 A 
ATOM     23  C   UNL A   1      33.038  19.473  24.207  1.00  0.00     0.041 A 
BRANCH  23  24
ATOM     24  C   UNL A   1      32.587  18.312  23.367  1.00  0.00     0.251 C 
ATOM     25  O   UNL A   1      32.288  18.521  22.190  1.00  0.00    -0.269 OA
ATOM     26  N   UNL A   1      32.545  17.017  23.834  1.00  0.00    -0.349 N 
ATOM     27  H   UNL A   1      32.295  16.332  23.172  1.00  0.00     0.164 HD
BRANCH  26  28
ATOM     28  C   UNL A   1      32.813  16.543  25.135  1.00  0.00     0.082 C 
ATOM     29  C   UNL A   1      32.674  15.120  25.442  1.00  0.00     0.027 C 
ATOM     30  C   UNL A   1      34.044  15.779  25.521  1.00  0.00     0.027 C 
ENDBRANCH  26  28
ENDBRANCH  23  24
ENDBRANCH  14  17
ENDBRANCH   7  13
ENDBRANCH   4   6
ENDBRANCH   3   4
ENDBRANCH   2   3
ENDBRANCH   1   2
BRANCH   1  31
ATOM     31  O   UNL A   1      35.183  29.384  26.600  1.00  0.00    -0.374 OA
BRANCH  31  32
ATOM     32  C   UNL A   1      34.743  30.432  27.459  1.00  0.00     0.202 C 
BRANCH  32  33
ATOM     33  C   UNL A   1      35.822  31.098  28.327  1.00  0.00     0.261 C 
BRANCH  33  34
ATOM     34  O   UNL A   1      37.065  30.395  28.135  1.00  0.00    -0.460 OA
BRANCH  34  35
ATOM     35  C   UNL A   1      38.079  29.995  28.925  1.00  0.00     0.338 C 
ATOM     36  O   UNL A   1      39.045  30.754  29.006  1.00  0.00    -0.246 OA
BRANCH  35  37
ATOM     37  C   UNL A   1      38.240  28.621  29.549  1.00  0.00     0.060 A 
ATOM     38  C   UNL A   1      37.523  28.517  30.751  1.00  0.00     0.016 A 
ATOM     39  C   UNL A   1      39.495  28.030  29.536  1.00  0.00     0.016 A 
ATOM     40  C   UNL A   1      38.222  28.452  31.958  1.00  0.00     0.010 A 
ATOM     41  C   UNL A   1      40.220  27.994  30.726  1.00  0.00     0.010 A 
ATOM     42  C   UNL A   1      39.614  28.412  31.914  1.00  0.00    -0.014 A 
BRANCH  42  43
ATOM     43  C   UNL A   1      40.414  29.202  32.874  1.00  0.00     0.031 A 
ATOM     44  C   UNL A   1      41.106  28.616  34.056  1.00  0.00     0.074 A 
ATOM     45  C   UNL A   1      40.703  30.492  32.542  1.00  0.00     0.049 A 
ATOM     46  N   UNL A   1      41.470  29.283  35.105  1.00  0.00    -0.248 NA
ATOM     47  C   UNL A   1      41.484  27.213  34.130  1.00  0.00     0.031 C 
ATOM     48  C   UNL A   1      41.667  31.371  33.201  1.00  0.00     0.029 A 
ATOM     49  N   UNL A   1      40.146  31.332  31.574  1.00  0.00    -0.354 N 
ATOM     50  C   UNL A   1      42.402  28.528  35.792  1.00  0.00     0.074 A 
ATOM     51  C   UNL A   1      42.282  27.210  35.203  1.00  0.00     0.031 C 
ATOM     52  C   UNL A   1      41.529  32.628  32.759  1.00  0.00     0.029 A 
ATOM     53  C   UNL A   1      40.291  32.652  32.011  1.00  0.00     0.049 A 
ATOM     54  H   UNL A   1      39.723  31.046  30.732  1.00  0.00     0.167 HD
ATOM     55  C   UNL A   1      43.290  29.119  36.657  1.00  0.00     0.031 A 
ATOM     56  C   UNL A   1      39.231  33.443  32.345  1.00  0.00     0.031 A 
ATOM     57  C   UNL A   1      43.099  30.585  36.759  1.00  0.00     0.049 A 
ATOM     58  C   UNL A   1      39.263  33.787  33.832  1.00  0.00     0.074 A 
ATOM     59  C   UNL A   1      43.926  31.676  36.541  1.00  0.00     0.029 A 
ATOM     60  N   UNL A   1      41.821  31.129  36.959  1.00  0.00    -0.354 N 
ATOM     61  N   UNL A   1      39.927  33.090  34.722  1.00  0.00    -0.248 NA
ATOM     62  C   UNL A   1      38.620  34.955  34.427  1.00  0.00     0.031 C 
ATOM     63  C   UNL A   1      43.133  32.852  36.502  1.00  0.00     0.029 A 
ATOM     64  C   UNL A   1      41.819  32.498  36.761  1.00  0.00     0.049 A 
ATOM     65  H   UNL A   1      41.026  30.604  37.210  1.00  0.00     0.167 HD
ATOM     66  C   UNL A   1      39.904  33.727  35.929  1.00  0.00     0.074 A 
ATOM     67  C   UNL A   1      39.025  34.866  35.709  1.00  0.00     0.031 C 
ATOM     68  C   UNL A   1      40.636  33.321  37.008  1.00  0.00     0.031 A 
BRANCH  55  69
ATOM     69  C   UNL A   1      44.538  28.394  37.208  1.00  0.00    -0.014 A 
ATOM     70  C   UNL A   1      45.804  28.510  36.589  1.00  0.00     0.010 A 
ATOM     71  C   UNL A   1      44.524  27.555  38.341  1.00  0.00     0.010 A 
ATOM     72  C   UNL A   1      46.930  27.756  36.993  1.00  0.00     0.020 A 
ATOM     73  C   UNL A   1      45.620  26.766  38.737  1.00  0.00     0.020 A 
ATOM     74  C   UNL A   1      46.821  26.860  38.051  1.00  0.00     0.054 A 
BRANCH  74  75
ATOM     75  S   UNL A   1      48.246  25.852  38.550  1.00  0.00     0.124 S 
ATOM     76  O   UNL A   1      48.560  25.115  37.330  1.00  0.00    -0.237 OA
ATOM     77  O   UNL A   1      49.222  26.860  38.952  1.00  0.00    -0.237 OA
ATOM     78  O   UNL A   1      47.723  25.032  39.643  1.00  0.00    -0.744 OA
ENDBRANCH  74  75
ENDBRANCH  55  69
BRANCH  56  79
ATOM     79  C   UNL A   1      38.043  33.293  31.457  1.00  0.00    -0.014 A 
ATOM     80  C   UNL A   1      36.828  32.910  32.073  1.00  0.00     0.010 A 
ATOM     81  C   UNL A   1      37.982  33.857  30.172  1.00  0.00     0.010 A 
ATOM     82  C   UNL A   1      35.585  33.186  31.484  1.00  0.00     0.020 A 
ATOM     83  C   UNL A   1      36.735  34.129  29.574  1.00  0.00     0.020 A 
ATOM     84  C   UNL A   1      35.542  33.828  30.249  1.00  0.00     0.054 A 
BRANCH  84  85
ATOM     85  S   UNL A   1      33.943  34.458  29.624  1.00  0.00     0.124 S 
ATOM     86  O   UNL A   1      33.417  33.301  28.907  1.00  0.00    -0.237 OA
ATOM     87  O   UNL A   1      33.203  34.831  30.827  1.00  0.00    -0.237 OA
ATOM     88  O   UNL A   1      34.335  35.588  28.781  1.00  0.00    -0.744 OA
ENDBRANCH  84  85
ENDBRANCH  56  79
BRANCH  68  89
ATOM     89  C   UNL A   1      40.386  33.779  38.424  1.00  0.00    -0.014 A 
ATOM     90  C   UNL A   1      41.416  33.914  39.367  1.00  0.00     0.010 A 
ATOM     91  C   UNL A   1      39.114  34.286  38.780  1.00  0.00     0.010 A 
ATOM     92  C   UNL A   1      41.183  34.502  40.618  1.00  0.00     0.020 A 
ATOM     93  C   UNL A   1      38.878  34.905  40.010  1.00  0.00     0.020 A 
ATOM     94  C   UNL A   1      39.918  35.000  40.928  1.00  0.00     0.054 A 
BRANCH  94  95
ATOM     95  S   UNL A   1      39.664  35.882  42.489  1.00  0.00     0.124 S 
ATOM     96  O   UNL A   1      40.773  35.384  43.300  1.00  0.00    -0.237 OA
ATOM     97  O   UNL A   1      39.759  37.285  42.093  1.00  0.00    -0.237 OA
ATOM     98  O   UNL A   1      38.334  35.451  42.912  1.00  0.00    -0.744 OA
ENDBRANCH  94  95
ENDBRANCH  68  89
ENDBRANCH  42  43
ENDBRANCH  35  37
ENDBRANCH  34  35
ENDBRANCH  33  34
ENDBRANCH  32  33
ENDBRANCH  31  32
ENDBRANCH   1  31
TORSDOF 21
ENDMDL
MODEL 3
REMARK VINA RESULT:     -10.0      5.911     11.989
REMARK SMILES Cc1ccc(C(=O)NC2CC2)cc1NC(=O)[C@@H]1[C@@H](C(=O)OCCOCCOC(=O)c2ccc(-c3c4nc(c(-c5ccc(S(=O)(=O)[O-])cc5)c5ccc([nH]5)c(-c5ccc(S(=O)(=O)[O-])cc5)c5nc(c(-c6ccc(S(=O)(=O)[O-])cc6)c6ccc3[nH]6)C=C5)C=C4)cc2)[C@H]2C=C[C@@H]1C2
REMARK SMILES IDX 23 1 22 2 21 3 19 4 20 5 18 6 17 7 93 8 90 9 92 10 94 11
REMARK SMILES IDX 91 12 15 13 14 14 16 16 13 17 1 18 2 19 3 20 4 21 12 22 5 23
REMARK SMILES IDX 6 24 7 25 8 26 9 28 10 29 11 30 24 31 25 32 26 33 27 34
REMARK SMILES IDX 28 35 29 36 30 37 31 38 89 39 32 40 88 41 33 42 34 43 35 44
REMARK SMILES IDX 82 45 36 46 87 47 81 48 83 49 37 50 86 51 80 52 79 53 38 55
REMARK SMILES IDX 68 56 49 57 67 58 50 59 53 60 66 61 84 62 51 63 52 64 65 66
REMARK SMILES IDX 85 67 54 68 39 69 40 70 48 71 41 72 47 73 42 74 43 75 44 76
REMARK SMILES IDX 45 77 46 78 69 79 70 80 78 81 71 82 77 83 72 84 73 85 74 86
REMARK SMILES IDX 75 87 76 88 55 89 56 90 64 91 57 92 63 93 58 94 59 95 60 96
REMARK SMILES IDX 61 97 62 98
REMARK H PARENT 14 15 8 27 83 54 53 65
REMARK Flexibility Score: inf
ROOT
ATOM      1  C   UNL A   1      39.358  33.522  38.975  1.00  0.00     0.202 C 
ENDROOT
BRANCH   1   2
ATOM      2  C   UNL A   1      38.025  33.182  38.289  1.00  0.00     0.261 C 
BRANCH   2   3
ATOM      3  O   UNL A   1      37.818  33.792  37.019  1.00  0.00    -0.463 OA
BRANCH   3   4
ATOM      4  C   UNL A   1      37.738  32.921  36.008  1.00  0.00     0.310 C 
ATOM      5  O   UNL A   1      37.445  31.723  36.139  1.00  0.00    -0.252 OA
BRANCH   4   6
ATOM      6  C   UNL A   1      37.858  33.600  34.689  1.00  0.00     0.119 C 
ATOM      7  C   UNL A   1      37.648  32.559  33.558  1.00  0.00     0.100 C 
ATOM      8  C   UNL A   1      38.678  33.000  32.497  1.00  0.00     0.025 C 
ATOM      9  C   UNL A   1      39.214  34.227  34.305  1.00  0.00     0.027 C 
ATOM     10  C   UNL A   1      40.004  32.473  33.023  1.00  0.00    -0.027 C 
ATOM     11  C   UNL A   1      38.918  34.481  32.816  1.00  0.00     0.017 C 
ATOM     12  C   UNL A   1      40.297  33.180  34.128  1.00  0.00    -0.027 C 
BRANCH   7  13
ATOM     13  C   UNL A   1      36.188  32.463  33.178  1.00  0.00     0.228 C 
ATOM     14  N   UNL A   1      35.754  31.947  31.984  1.00  0.00    -0.326 N 
ATOM     15  H   UNL A   1      34.774  31.871  31.933  1.00  0.00     0.169 HD
ATOM     16  O   UNL A   1      35.317  32.892  33.946  1.00  0.00    -0.274 OA
BRANCH  14  17
ATOM     17  C   UNL A   1      36.404  31.498  30.809  1.00  0.00     0.044 A 
ATOM     18  C   UNL A   1      36.237  33.837  29.762  1.00  0.00     0.046 C 
ATOM     19  C   UNL A   1      36.729  32.417  29.799  1.00  0.00    -0.027 A 
ATOM     20  C   UNL A   1      37.548  31.998  28.732  1.00  0.00     0.006 A 
ATOM     21  C   UNL A   1      38.055  30.698  28.671  1.00  0.00     0.014 A 
ATOM     22  C   UNL A   1      36.773  30.166  30.606  1.00  0.00     0.040 A 
ATOM     23  C   UNL A   1      37.662  29.750  29.610  1.00  0.00     0.041 A 
BRANCH  23  24
ATOM     24  C   UNL A   1      38.318  28.401  29.549  1.00  0.00     0.251 C 
ATOM     25  O   UNL A   1      38.596  27.934  28.443  1.00  0.00    -0.269 OA
ATOM     26  N   UNL A   1      38.673  27.685  30.670  1.00  0.00    -0.349 N 
ATOM     27  H   UNL A   1      39.156  26.843  30.504  1.00  0.00     0.164 HD
BRANCH  26  28
ATOM     28  C   UNL A   1      38.438  27.999  32.024  1.00  0.00     0.082 C 
ATOM     29  C   UNL A   1      39.348  27.515  33.061  1.00  0.00     0.027 C 
ATOM     30  C   UNL A   1      39.219  29.011  32.808  1.00  0.00     0.027 C 
ENDBRANCH  26  28
ENDBRANCH  23  24
ENDBRANCH  14  17
ENDBRANCH   7  13
ENDBRANCH   4   6
ENDBRANCH   3   4
ENDBRANCH   2   3
ENDBRANCH   1   2
BRANCH   1  31
ATOM     31  O   UNL A   1      39.986  34.763  38.685  1.00  0.00    -0.374 OA
BRANCH  31  32
ATOM     32  C   UNL A   1      41.328  34.762  38.208  1.00  0.00     0.202 C 
BRANCH  32  33
ATOM     33  C   UNL A   1      41.880  36.113  37.729  1.00  0.00     0.261 C 
BRANCH  33  34
ATOM     34  O   UNL A   1      43.019  35.869  36.879  1.00  0.00    -0.460 OA
BRANCH  34  35
ATOM     35  C   UNL A   1      44.148  36.532  36.566  1.00  0.00     0.338 C 
ATOM     36  O   UNL A   1      44.990  36.635  37.457  1.00  0.00    -0.246 OA
BRANCH  35  37
ATOM     37  C   UNL A   1      44.392  37.337  35.303  1.00  0.00     0.060 A 
ATOM     38  C   UNL A   1      43.190  37.628  34.639  1.00  0.00     0.016 A 
ATOM     39  C   UNL A   1      45.465  36.993  34.494  1.00  0.00     0.016 A 
ATOM     40  C   UNL A   1      42.911  36.995  33.426  1.00  0.00     0.010 A 
ATOM     41  C   UNL A   1      45.203  36.326  33.298  1.00  0.00     0.010 A 
ATOM     42  C   UNL A   1      43.881  36.158  32.880  1.00  0.00    -0.014 A 
BRANCH  42  43
ATOM     43  C   UNL A   1      43.493  34.870  32.265  1.00  0.00     0.031 A 
ATOM     44  C   UNL A   1      43.753  33.542  32.889  1.00  0.00     0.074 A 
ATOM     45  C   UNL A   1      42.673  34.913  31.178  1.00  0.00     0.049 A 
ATOM     46  N   UNL A   1      43.794  32.419  32.244  1.00  0.00    -0.248 NA
ATOM     47  C   UNL A   1      43.949  33.370  34.320  1.00  0.00     0.031 C 
ATOM     48  C   UNL A   1      41.969  33.787  30.566  1.00  0.00     0.029 A 
ATOM     49  N   UNL A   1      42.336  35.972  30.330  1.00  0.00    -0.354 N 
ATOM     50  C   UNL A   1      43.662  31.393  33.162  1.00  0.00     0.074 A 
ATOM     51  C   UNL A   1      43.878  32.041  34.440  1.00  0.00     0.031 C 
ATOM     52  C   UNL A   1      41.440  34.152  29.390  1.00  0.00     0.029 A 
ATOM     53  C   UNL A   1      42.020  35.440  29.077  1.00  0.00     0.049 A 
ATOM     54  H   UNL A   1      42.324  36.926  30.572  1.00  0.00     0.167 HD
ATOM     55  C   UNL A   1      43.219  30.152  32.773  1.00  0.00     0.031 A 
ATOM     56  C   UNL A   1      42.774  35.668  27.963  1.00  0.00     0.031 A 
ATOM     57  C   UNL A   1      42.948  30.072  31.319  1.00  0.00     0.049 A 
ATOM     58  C   UNL A   1      43.412  34.373  27.468  1.00  0.00     0.074 A 
ATOM     59  C   UNL A   1      41.826  29.746  30.571  1.00  0.00     0.029 A 
ATOM     60  N   UNL A   1      43.884  30.545  30.387  1.00  0.00    -0.354 N 
ATOM     61  N   UNL A   1      43.577  33.313  28.223  1.00  0.00    -0.248 NA
ATOM     62  C   UNL A   1      43.849  34.134  26.096  1.00  0.00     0.031 C 
ATOM     63  C   UNL A   1      42.050  30.124  29.221  1.00  0.00     0.029 A 
ATOM     64  C   UNL A   1      43.337  30.625  29.119  1.00  0.00     0.049 A 
ATOM     65  H   UNL A   1      44.812  30.790  30.607  1.00  0.00     0.167 HD
ATOM     66  C   UNL A   1      44.017  32.264  27.469  1.00  0.00     0.074 A 
ATOM     67  C   UNL A   1      44.226  32.842  26.150  1.00  0.00     0.031 C 
ATOM     68  C   UNL A   1      44.133  30.990  27.948  1.00  0.00     0.031 A 
BRANCH  55  69
ATOM     69  C   UNL A   1      42.757  29.072  33.775  1.00  0.00    -0.014 A 
ATOM     70  C   UNL A   1      42.080  29.402  34.972  1.00  0.00     0.010 A 
ATOM     71  C   UNL A   1      42.979  27.690  33.601  1.00  0.00     0.010 A 
ATOM     72  C   UNL A   1      41.764  28.448  35.966  1.00  0.00     0.020 A 
ATOM     73  C   UNL A   1      42.709  26.729  34.592  1.00  0.00     0.020 A 
ATOM     74  C   UNL A   1      42.111  27.114  35.782  1.00  0.00     0.054 A 
BRANCH  74  75
ATOM     75  S   UNL A   1      41.753  25.886  37.071  1.00  0.00     0.124 S 
ATOM     76  O   UNL A   1      42.822  26.114  38.037  1.00  0.00    -0.237 OA
ATOM     77  O   UNL A   1      40.413  26.266  37.507  1.00  0.00    -0.237 OA
ATOM     78  O   UNL A   1      41.831  24.609  36.361  1.00  0.00    -0.744 OA
ENDBRANCH  74  75
ENDBRANCH  55  69
BRANCH  56  79
ATOM     79  C   UNL A   1      43.298  37.059  27.845  1.00  0.00    -0.014 A 
ATOM     80  C   UNL A   1      44.705  37.216  27.852  1.00  0.00     0.010 A 
ATOM     81  C   UNL A   1      42.518  38.124  27.367  1.00  0.00     0.010 A 
ATOM     82  C   UNL A   1      45.322  38.343  27.291  1.00  0.00     0.020 A 
ATOM     83  C   UNL A   1      43.136  39.263  26.809  1.00  0.00     0.020 A 
ATOM     84  C   UNL A   1      44.534  39.350  26.739  1.00  0.00     0.054 A 
BRANCH  84  85
ATOM     85  S   UNL A   1      45.328  40.664  25.745  1.00  0.00     0.124 S 
ATOM     86  O   UNL A   1      45.910  41.518  26.776  1.00  0.00    -0.237 OA
ATOM     87  O   UNL A   1      46.294  39.955  24.910  1.00  0.00    -0.237 OA
ATOM     88  O   UNL A   1      44.208  41.251  25.009  1.00  0.00    -0.744 OA
ENDBRANCH  84  85
ENDBRANCH  56  79
BRANCH  68  89
ATOM     89  C   UNL A   1      44.919  29.896  27.267  1.00  0.00    -0.014 A 
ATOM     90  C   UNL A   1      44.316  28.731  26.769  1.00  0.00     0.010 A 
ATOM     91  C   UNL A   1      46.275  30.118  26.928  1.00  0.00     0.010 A 
ATOM     92  C   UNL A   1      45.038  27.814  25.994  1.00  0.00     0.020 A 
ATOM     93  C   UNL A   1      46.995  29.228  26.127  1.00  0.00     0.020 A 
ATOM     94  C   UNL A   1      46.370  28.073  25.671  1.00  0.00     0.054 A 
BRANCH  94  95
ATOM     95  S   UNL A   1      47.252  26.953  24.554  1.00  0.00     0.124 S 
ATOM     96  O   UNL A   1      46.434  25.745  24.632  1.00  0.00    -0.237 OA
ATOM     97  O   UNL A   1      47.204  27.659  23.275  1.00  0.00    -0.237 OA
ATOM     98  O   UNL A   1      48.581  26.852  25.150  1.00  0.00    -0.744 OA
ENDBRANCH  94  95
ENDBRANCH  68  89
ENDBRANCH  42  43
ENDBRANCH  35  37
ENDBRANCH  34  35
ENDBRANCH  33  34
ENDBRANCH  32  33
ENDBRANCH  31  32
ENDBRANCH   1  31
TORSDOF 21
ENDMDL
