MODEL 1
REMARK VINA RESULT:     -10.9      0.000      0.000
REMARK SMILES Cc1cc(F)ccc1-n1ccc(C)c(C(=O)OCCOCCOC(=O)c2ccc(-c3c4nc(c(-c5ccc(S(=O)(=O)[O-])cc5)c5ccc([nH]5)c(-c5ccc(S(=O)(=O)[O-])cc5)c5nc(c(-c6ccc(S(=O)(=O)[O-])cc6)c6ccc3[nH]6)C=C5)C=C4)cc2)c1=O
REMARK SMILES IDX 21 1 20 2 19 3 18 4 17 5 15 6 16 7 14 8 9 9 10 10 86 11
REMARK SMILES IDX 11 12 87 13 12 14 13 15 8 16 1 17 2 18 3 19 4 20 7 21 5 22
REMARK SMILES IDX 6 23 22 24 23 25 24 26 25 27 26 28 27 29 85 30 28 31 84 32
REMARK SMILES IDX 29 33 30 34 31 35 78 36 32 37 83 38 77 39 79 40 33 41 82 42
REMARK SMILES IDX 76 43 75 44 34 46 64 47 45 48 63 49 46 50 49 51 62 52 80 53
REMARK SMILES IDX 47 54 48 55 61 57 81 58 50 59 35 60 36 61 44 62 37 63 43 64
REMARK SMILES IDX 38 65 39 66 40 67 41 68 42 69 65 70 66 71 74 72 67 73 73 74
REMARK SMILES IDX 68 75 69 76 70 77 71 78 72 79 51 80 52 81 60 82 53 83 59 84
REMARK SMILES IDX 54 85 55 86 56 87 57 88 58 89
REMARK H PARENT 79 45 49 56
REMARK Flexibility Score: inf
ROOT
ATOM      1  C   UNL A   1      34.025  31.334  27.914  1.00  0.00     0.202 C 
ENDROOT
BRANCH   1   2
ATOM      2  O   UNL A   1      33.668  30.298  27.001  1.00  0.00    -0.374 OA
BRANCH   2   3
ATOM      3  C   UNL A   1      32.404  29.651  27.177  1.00  0.00     0.202 C 
BRANCH   3   4
ATOM      4  C   UNL A   1      32.384  28.123  27.102  1.00  0.00     0.261 C 
BRANCH   4   5
ATOM      5  O   UNL A   1      31.792  27.695  25.870  1.00  0.00    -0.459 OA
BRANCH   5   6
ATOM      6  C   UNL A   1      31.313  26.429  25.838  1.00  0.00     0.344 C 
ATOM      7  O   UNL A   1      30.377  25.991  26.492  1.00  0.00    -0.246 OA
BRANCH   6   8
ATOM      8  C   UNL A   1      31.971  25.675  24.747  1.00  0.00     0.128 A 
ATOM      9  N   UNL A   1      33.611  23.997  23.985  1.00  0.00    -0.283 N 
ATOM     10  C   UNL A   1      33.139  24.179  22.695  1.00  0.00     0.095 A 
ATOM     11  C   UNL A   1      33.135  24.786  25.052  1.00  0.00     0.270 A 
ATOM     12  C   UNL A   1      32.162  25.047  22.418  1.00  0.00     0.023 A 
ATOM     13  O   UNL A   1      33.618  24.779  26.184  1.00  0.00    -0.268 OA
ATOM     14  C   UNL A   1      31.542  25.822  23.473  1.00  0.00    -0.029 A 
ATOM     15  C   UNL A   1      30.463  26.766  23.009  1.00  0.00     0.045 C 
BRANCH   9  16
ATOM     16  C   UNL A   1      34.604  22.996  24.253  1.00  0.00     0.052 A 
ATOM     17  C   UNL A   1      32.843  21.214  24.873  1.00  0.00     0.047 C 
ATOM     18  C   UNL A   1      34.258  21.694  24.684  1.00  0.00    -0.024 A 
ATOM     19  C   UNL A   1      35.283  20.764  24.928  1.00  0.00     0.044 A 
ATOM     20  C   UNL A   1      36.613  21.104  24.714  1.00  0.00     0.123 A 
ATOM     21  C   UNL A   1      35.958  23.311  24.028  1.00  0.00     0.030 A 
ATOM     22  F   UNL A   1      37.570  20.193  24.929  1.00  0.00    -0.207 F 
ATOM     23  C   UNL A   1      36.960  22.368  24.263  1.00  0.00     0.041 A 
ENDBRANCH   9  16
ENDBRANCH   6   8
ENDBRANCH   5   6
ENDBRANCH   4   5
ENDBRANCH   3   4
ENDBRANCH   2   3
ENDBRANCH   1   2
BRANCH   1  24
ATOM     24  C   UNL A   1      35.360  31.227  28.662  1.00  0.00     0.261 C 
BRANCH  24  25
ATOM     25  O   UNL A   1      35.764  29.872  28.900  1.00  0.00    -0.460 OA
BRANCH  25  26
ATOM     26  C   UNL A   1      36.567  29.702  29.978  1.00  0.00     0.338 C 
ATOM     27  O   UNL A   1      36.217  29.445  31.121  1.00  0.00    -0.246 OA
BRANCH  26  28
ATOM     28  C   UNL A   1      37.976  29.670  29.543  1.00  0.00     0.060 A 
ATOM     29  C   UNL A   1      39.023  29.606  30.462  1.00  0.00     0.016 A 
ATOM     30  C   UNL A   1      38.237  29.668  28.164  1.00  0.00     0.016 A 
ATOM     31  C   UNL A   1      40.333  29.492  29.994  1.00  0.00     0.010 A 
ATOM     32  C   UNL A   1      39.547  29.550  27.700  1.00  0.00     0.010 A 
ATOM     33  C   UNL A   1      40.603  29.430  28.611  1.00  0.00    -0.014 A 
BRANCH  33  34
ATOM     34  C   UNL A   1      41.960  29.046  28.146  1.00  0.00     0.031 A 
ATOM     35  C   UNL A   1      43.087  30.030  28.067  1.00  0.00     0.074 A 
ATOM     36  C   UNL A   1      42.155  27.763  27.779  1.00  0.00     0.049 A 
ATOM     37  N   UNL A   1      44.348  29.799  27.807  1.00  0.00    -0.248 NA
ATOM     38  C   UNL A   1      42.768  31.449  28.289  1.00  0.00     0.031 C 
ATOM     39  C   UNL A   1      41.107  26.739  27.748  1.00  0.00     0.029 A 
ATOM     40  N   UNL A   1      43.286  27.095  27.387  1.00  0.00    -0.354 N 
ATOM     41  C   UNL A   1      44.981  31.034  27.857  1.00  0.00     0.074 A 
ATOM     42  C   UNL A   1      43.955  32.022  28.117  1.00  0.00     0.031 C 
ATOM     43  C   UNL A   1      41.654  25.563  27.410  1.00  0.00     0.029 A 
ATOM     44  C   UNL A   1      43.082  25.753  27.165  1.00  0.00     0.049 A 
ATOM     45  H   UNL A   1      44.160  27.533  27.274  1.00  0.00     0.167 HD
ATOM     46  C   UNL A   1      46.302  31.306  27.719  1.00  0.00     0.031 A 
ATOM     47  C   UNL A   1      43.942  24.773  26.820  1.00  0.00     0.031 A 
ATOM     48  C   UNL A   1      47.310  30.305  27.457  1.00  0.00     0.049 A 
ATOM     49  C   UNL A   1      45.402  25.100  26.689  1.00  0.00     0.074 A 
ATOM     50  C   UNL A   1      48.682  30.477  27.378  1.00  0.00     0.029 A 
ATOM     51  N   UNL A   1      47.066  28.959  27.223  1.00  0.00    -0.354 N 
ATOM     52  N   UNL A   1      46.002  26.254  26.861  1.00  0.00    -0.248 NA
ATOM     53  C   UNL A   1      46.306  23.996  26.341  1.00  0.00     0.031 C 
ATOM     54  C   UNL A   1      49.256  29.260  27.009  1.00  0.00     0.029 A 
ATOM     55  C   UNL A   1      48.257  28.302  26.951  1.00  0.00     0.049 A 
ATOM     56  H   UNL A   1      46.179  28.533  27.246  1.00  0.00     0.167 HD
ATOM     57  C   UNL A   1      47.354  26.014  26.647  1.00  0.00     0.074 A 
ATOM     58  C   UNL A   1      47.488  24.598  26.375  1.00  0.00     0.031 C 
ATOM     59  C   UNL A   1      48.387  26.893  26.659  1.00  0.00     0.031 A 
BRANCH  46  60
ATOM     60  C   UNL A   1      46.777  32.729  27.883  1.00  0.00    -0.014 A 
ATOM     61  C   UNL A   1      47.089  33.220  29.165  1.00  0.00     0.010 A 
ATOM     62  C   UNL A   1      46.724  33.629  26.803  1.00  0.00     0.010 A 
ATOM     63  C   UNL A   1      47.276  34.589  29.377  1.00  0.00     0.020 A 
ATOM     64  C   UNL A   1      46.941  34.996  27.006  1.00  0.00     0.020 A 
ATOM     65  C   UNL A   1      47.181  35.471  28.297  1.00  0.00     0.054 A 
BRANCH  65  66
ATOM     66  S   UNL A   1      47.327  37.253  28.609  1.00  0.00     0.124 S 
ATOM     67  O   UNL A   1      46.936  37.355  30.011  1.00  0.00    -0.237 OA
ATOM     68  O   UNL A   1      48.738  37.509  28.326  1.00  0.00    -0.237 OA
ATOM     69  O   UNL A   1      46.393  37.846  27.655  1.00  0.00    -0.744 OA
ENDBRANCH  65  66
ENDBRANCH  46  60
BRANCH  47  70
ATOM     70  C   UNL A   1      43.422  23.389  26.634  1.00  0.00    -0.014 A 
ATOM     71  C   UNL A   1      43.044  22.619  27.752  1.00  0.00     0.010 A 
ATOM     72  C   UNL A   1      43.392  22.795  25.360  1.00  0.00     0.010 A 
ATOM     73  C   UNL A   1      42.711  21.271  27.608  1.00  0.00     0.020 A 
ATOM     74  C   UNL A   1      43.020  21.456  25.207  1.00  0.00     0.020 A 
ATOM     75  C   UNL A   1      42.715  20.693  26.337  1.00  0.00     0.054 A 
BRANCH  75  76
ATOM     76  S   UNL A   1      42.342  18.925  26.187  1.00  0.00     0.124 S 
ATOM     77  O   UNL A   1      42.504  18.467  27.564  1.00  0.00    -0.237 OA
ATOM     78  O   UNL A   1      40.972  18.931  25.682  1.00  0.00    -0.237 OA
ATOM     79  O   UNL A   1      43.349  18.441  25.246  1.00  0.00    -0.744 OA
ENDBRANCH  75  76
ENDBRANCH  47  70
BRANCH  59  80
ATOM     80  C   UNL A   1      49.767  26.370  26.339  1.00  0.00    -0.014 A 
ATOM     81  C   UNL A   1      50.586  25.859  27.364  1.00  0.00     0.010 A 
ATOM     82  C   UNL A   1      50.295  26.480  25.039  1.00  0.00     0.010 A 
ATOM     83  C   UNL A   1      51.911  25.499  27.104  1.00  0.00     0.020 A 
ATOM     84  C   UNL A   1      51.607  26.083  24.766  1.00  0.00     0.020 A 
ATOM     85  C   UNL A   1      52.414  25.617  25.806  1.00  0.00     0.054 A 
BRANCH  85  86
ATOM     86  S   UNL A   1      54.139  25.152  25.490  1.00  0.00     0.124 S 
ATOM     87  O   UNL A   1      54.072  23.694  25.497  1.00  0.00    -0.237 OA
ATOM     88  O   UNL A   1      54.402  25.764  24.189  1.00  0.00    -0.237 OA
ATOM     89  O   UNL A   1      54.867  25.749  26.607  1.00  0.00    -0.744 OA
ENDBRANCH  85  86
ENDBRANCH  59  80
ENDBRANCH  33  34
ENDBRANCH  26  28
ENDBRANCH  25  26
ENDBRANCH  24  25
ENDBRANCH   1  24
TORSDOF 18
ENDMDL
MODEL 2
REMARK VINA RESULT:     -10.9      5.375      7.487
REMARK SMILES Cc1cc(F)ccc1-n1ccc(C)c(C(=O)OCCOCCOC(=O)c2ccc(-c3c4nc(c(-c5ccc(S(=O)(=O)[O-])cc5)c5ccc([nH]5)c(-c5ccc(S(=O)(=O)[O-])cc5)c5nc(c(-c6ccc(S(=O)(=O)[O-])cc6)c6ccc3[nH]6)C=C5)C=C4)cc2)c1=O
REMARK SMILES IDX 21 1 20 2 19 3 18 4 17 5 15 6 16 7 14 8 9 9 10 10 86 11
REMARK SMILES IDX 11 12 87 13 12 14 13 15 8 16 1 17 2 18 3 19 4 20 7 21 5 22
REMARK SMILES IDX 6 23 22 24 23 25 24 26 25 27 26 28 27 29 85 30 28 31 84 32
REMARK SMILES IDX 29 33 30 34 31 35 78 36 32 37 83 38 77 39 79 40 33 41 82 42
REMARK SMILES IDX 76 43 75 44 34 46 64 47 45 48 63 49 46 50 49 51 62 52 80 53
REMARK SMILES IDX 47 54 48 55 61 57 81 58 50 59 35 60 36 61 44 62 37 63 43 64
REMARK SMILES IDX 38 65 39 66 40 67 41 68 42 69 65 70 66 71 74 72 67 73 73 74
REMARK SMILES IDX 68 75 69 76 70 77 71 78 72 79 51 80 52 81 60 82 53 83 59 84
REMARK SMILES IDX 54 85 55 86 56 87 57 88 58 89
REMARK H PARENT 79 45 49 56
REMARK Flexibility Score: inf
ROOT
ATOM      1  C   UNL A   1      31.366  30.075  25.157  1.00  0.00     0.202 C 
ENDROOT
BRANCH   1   2
ATOM      2  O   UNL A   1      31.532  28.673  24.952  1.00  0.00    -0.374 OA
BRANCH   2   3
ATOM      3  C   UNL A   1      30.500  27.969  24.256  1.00  0.00     0.202 C 
BRANCH   3   4
ATOM      4  C   UNL A   1      30.873  26.623  23.629  1.00  0.00     0.261 C 
BRANCH   4   5
ATOM      5  O   UNL A   1      30.383  25.547  24.437  1.00  0.00    -0.459 OA
BRANCH   5   6
ATOM      6  C   UNL A   1      30.973  25.383  25.645  1.00  0.00     0.344 C 
ATOM      7  O   UNL A   1      30.555  25.796  26.718  1.00  0.00    -0.246 OA
BRANCH   6   8
ATOM      8  C   UNL A   1      32.122  24.459  25.517  1.00  0.00     0.128 A 
ATOM      9  N   UNL A   1      33.021  22.197  25.115  1.00  0.00    -0.283 N 
ATOM     10  C   UNL A   1      34.297  22.736  25.173  1.00  0.00     0.095 A 
ATOM     11  C   UNL A   1      31.884  22.988  25.375  1.00  0.00     0.270 A 
ATOM     12  C   UNL A   1      34.501  24.038  25.395  1.00  0.00     0.023 A 
ATOM     13  O   UNL A   1      30.743  22.541  25.489  1.00  0.00    -0.268 OA
ATOM     14  C   UNL A   1      33.384  24.942  25.567  1.00  0.00    -0.029 A 
ATOM     15  C   UNL A   1      33.770  26.377  25.820  1.00  0.00     0.045 C 
BRANCH   9  16
ATOM     16  C   UNL A   1      32.840  20.811  24.792  1.00  0.00     0.052 A 
ATOM     17  C   UNL A   1      32.155  21.322  22.358  1.00  0.00     0.047 C 
ATOM     18  C   UNL A   1      32.421  20.389  23.509  1.00  0.00    -0.024 A 
ATOM     19  C   UNL A   1      32.264  19.014  23.263  1.00  0.00     0.044 A 
ATOM     20  C   UNL A   1      32.553  18.081  24.251  1.00  0.00     0.123 A 
ATOM     21  C   UNL A   1      33.143  19.844  25.771  1.00  0.00     0.030 A 
ATOM     22  F   UNL A   1      32.420  16.775  23.985  1.00  0.00    -0.207 F 
ATOM     23  C   UNL A   1      32.994  18.483  25.502  1.00  0.00     0.041 A 
ENDBRANCH   9  16
ENDBRANCH   6   8
ENDBRANCH   5   6
ENDBRANCH   4   5
ENDBRANCH   3   4
ENDBRANCH   2   3
ENDBRANCH   1   2
BRANCH   1  24
ATOM     24  C   UNL A   1      31.839  30.685  26.483  1.00  0.00     0.261 C 
BRANCH  24  25
ATOM     25  O   UNL A   1      33.251  30.549  26.692  1.00  0.00    -0.460 OA
BRANCH  25  26
ATOM     26  C   UNL A   1      33.825  31.579  27.360  1.00  0.00     0.338 C 
ATOM     27  O   UNL A   1      33.306  32.646  27.652  1.00  0.00    -0.246 OA
BRANCH  26  28
ATOM     28  C   UNL A   1      35.139  31.155  27.882  1.00  0.00     0.060 A 
ATOM     29  C   UNL A   1      36.180  32.066  28.064  1.00  0.00     0.016 A 
ATOM     30  C   UNL A   1      35.303  29.807  28.231  1.00  0.00     0.016 A 
ATOM     31  C   UNL A   1      37.374  31.627  28.640  1.00  0.00     0.010 A 
ATOM     32  C   UNL A   1      36.496  29.373  28.810  1.00  0.00     0.010 A 
ATOM     33  C   UNL A   1      37.529  30.286  29.048  1.00  0.00    -0.014 A 
BRANCH  33  34
ATOM     34  C   UNL A   1      38.691  29.907  29.891  1.00  0.00     0.031 A 
ATOM     35  C   UNL A   1      38.866  30.416  31.289  1.00  0.00     0.074 A 
ATOM     36  C   UNL A   1      39.611  29.082  29.351  1.00  0.00     0.049 A 
ATOM     37  N   UNL A   1      39.760  30.060  32.176  1.00  0.00    -0.248 NA
ATOM     38  C   UNL A   1      37.942  31.463  31.753  1.00  0.00     0.031 C 
ATOM     39  C   UNL A   1      39.576  28.585  27.973  1.00  0.00     0.029 A 
ATOM     40  N   UNL A   1      40.732  28.500  29.887  1.00  0.00    -0.354 N 
ATOM     41  C   UNL A   1      39.496  30.816  33.310  1.00  0.00     0.074 A 
ATOM     42  C   UNL A   1      38.391  31.693  32.982  1.00  0.00     0.031 C 
ATOM     43  C   UNL A   1      40.594  27.734  27.788  1.00  0.00     0.029 A 
ATOM     44  C   UNL A   1      41.376  27.649  29.019  1.00  0.00     0.049 A 
ATOM     45  H   UNL A   1      41.045  28.674  30.803  1.00  0.00     0.167 HD
ATOM     46  C   UNL A   1      40.109  30.760  34.517  1.00  0.00     0.031 A 
ATOM     47  C   UNL A   1      42.464  26.870  29.190  1.00  0.00     0.031 A 
ATOM     48  C   UNL A   1      41.212  29.878  34.823  1.00  0.00     0.049 A 
ATOM     49  C   UNL A   1      43.115  26.817  30.542  1.00  0.00     0.074 A 
ATOM     50  C   UNL A   1      41.847  29.698  36.041  1.00  0.00     0.029 A 
ATOM     51  N   UNL A   1      41.849  29.042  33.917  1.00  0.00    -0.354 N 
ATOM     52  N   UNL A   1      42.775  27.448  31.641  1.00  0.00    -0.248 NA
ATOM     53  C   UNL A   1      44.278  25.933  30.689  1.00  0.00     0.031 C 
ATOM     54  C   UNL A   1      42.920  28.825  35.851  1.00  0.00     0.029 A 
ATOM     55  C   UNL A   1      42.900  28.383  34.538  1.00  0.00     0.049 A 
ATOM     56  H   UNL A   1      41.594  28.932  32.973  1.00  0.00     0.167 HD
ATOM     57  C   UNL A   1      43.680  27.035  32.611  1.00  0.00     0.074 A 
ATOM     58  C   UNL A   1      44.554  26.067  31.980  1.00  0.00     0.031 C 
ATOM     59  C   UNL A   1      43.784  27.434  33.903  1.00  0.00     0.031 A 
BRANCH  46  60
ATOM     60  C   UNL A   1      39.603  31.636  35.636  1.00  0.00    -0.014 A 
ATOM     61  C   UNL A   1      40.367  32.741  36.061  1.00  0.00     0.010 A 
ATOM     62  C   UNL A   1      38.480  31.255  36.392  1.00  0.00     0.010 A 
ATOM     63  C   UNL A   1      40.057  33.405  37.251  1.00  0.00     0.020 A 
ATOM     64  C   UNL A   1      38.148  31.937  37.567  1.00  0.00     0.020 A 
ATOM     65  C   UNL A   1      38.959  32.985  38.007  1.00  0.00     0.054 A 
BRANCH  65  66
ATOM     66  S   UNL A   1      38.633  33.796  39.597  1.00  0.00     0.124 S 
ATOM     67  O   UNL A   1      39.653  33.208  40.459  1.00  0.00    -0.237 OA
ATOM     68  O   UNL A   1      38.814  35.209  39.276  1.00  0.00    -0.237 OA
ATOM     69  O   UNL A   1      37.258  33.409  39.904  1.00  0.00    -0.744 OA
ENDBRANCH  65  66
ENDBRANCH  46  60
BRANCH  47  70
ATOM     70  C   UNL A   1      42.950  26.049  28.045  1.00  0.00    -0.014 A 
ATOM     71  C   UNL A   1      42.381  24.785  27.790  1.00  0.00     0.010 A 
ATOM     72  C   UNL A   1      44.041  26.472  27.265  1.00  0.00     0.010 A 
ATOM     73  C   UNL A   1      42.934  23.938  26.827  1.00  0.00     0.020 A 
ATOM     74  C   UNL A   1      44.571  25.643  26.272  1.00  0.00     0.020 A 
ATOM     75  C   UNL A   1      44.035  24.366  26.084  1.00  0.00     0.054 A 
BRANCH  75  76
ATOM     76  S   UNL A   1      44.772  23.221  24.886  1.00  0.00     0.124 S 
ATOM     77  O   UNL A   1      45.667  24.102  24.142  1.00  0.00    -0.237 OA
ATOM     78  O   UNL A   1      45.427  22.239  25.747  1.00  0.00    -0.237 OA
ATOM     79  O   UNL A   1      43.622  22.721  24.137  1.00  0.00    -0.744 OA
ENDBRANCH  75  76
ENDBRANCH  47  70
BRANCH  59  80
ATOM     80  C   UNL A   1      44.904  26.857  34.735  1.00  0.00    -0.014 A 
ATOM     81  C   UNL A   1      46.172  27.470  34.739  1.00  0.00     0.010 A 
ATOM     82  C   UNL A   1      44.734  25.646  35.431  1.00  0.00     0.010 A 
ATOM     83  C   UNL A   1      47.251  26.871  35.394  1.00  0.00     0.020 A 
ATOM     84  C   UNL A   1      45.801  25.064  36.122  1.00  0.00     0.020 A 
ATOM     85  C   UNL A   1      47.059  25.668  36.079  1.00  0.00     0.054 A 
BRANCH  85  86
ATOM     86  S   UNL A   1      48.474  24.902  36.916  1.00  0.00     0.124 S 
ATOM     87  O   UNL A   1      47.890  24.481  38.186  1.00  0.00    -0.237 OA
ATOM     88  O   UNL A   1      48.839  23.821  36.002  1.00  0.00    -0.237 OA
ATOM     89  O   UNL A   1      49.449  25.985  37.006  1.00  0.00    -0.744 OA
ENDBRANCH  85  86
ENDBRANCH  59  80
ENDBRANCH  33  34
ENDBRANCH  26  28
ENDBRANCH  25  26
ENDBRANCH  24  25
ENDBRANCH   1  24
TORSDOF 18
ENDMDL
MODEL 3
REMARK VINA RESULT:     -10.8      5.493      7.462
REMARK SMILES Cc1cc(F)ccc1-n1ccc(C)c(C(=O)OCCOCCOC(=O)c2ccc(-c3c4nc(c(-c5ccc(S(=O)(=O)[O-])cc5)c5ccc([nH]5)c(-c5ccc(S(=O)(=O)[O-])cc5)c5nc(c(-c6ccc(S(=O)(=O)[O-])cc6)c6ccc3[nH]6)C=C5)C=C4)cc2)c1=O
REMARK SMILES IDX 21 1 20 2 19 3 18 4 17 5 15 6 16 7 14 8 9 9 10 10 86 11
REMARK SMILES IDX 11 12 87 13 12 14 13 15 8 16 1 17 2 18 3 19 4 20 7 21 5 22
REMARK SMILES IDX 6 23 22 24 23 25 24 26 25 27 26 28 27 29 85 30 28 31 84 32
REMARK SMILES IDX 29 33 30 34 31 35 78 36 32 37 83 38 77 39 79 40 33 41 82 42
REMARK SMILES IDX 76 43 75 44 34 46 64 47 45 48 63 49 46 50 49 51 62 52 80 53
REMARK SMILES IDX 47 54 48 55 61 57 81 58 50 59 35 60 36 61 44 62 37 63 43 64
REMARK SMILES IDX 38 65 39 66 40 67 41 68 42 69 65 70 66 71 74 72 67 73 73 74
REMARK SMILES IDX 68 75 69 76 70 77 71 78 72 79 51 80 52 81 60 82 53 83 59 84
REMARK SMILES IDX 54 85 55 86 56 87 57 88 58 89
REMARK H PARENT 79 45 49 56
REMARK Flexibility Score: inf
ROOT
ATOM      1  C   UNL A   1      31.356  30.301  25.510  1.00  0.00     0.202 C 
ENDROOT
BRANCH   1   2
ATOM      2  O   UNL A   1      31.255  28.996  24.943  1.00  0.00    -0.374 OA
BRANCH   2   3
ATOM      3  C   UNL A   1      30.913  28.888  23.559  1.00  0.00     0.202 C 
BRANCH   3   4
ATOM      4  C   UNL A   1      31.933  28.215  22.637  1.00  0.00     0.261 C 
BRANCH   4   5
ATOM      5  O   UNL A   1      32.608  27.160  23.331  1.00  0.00    -0.459 OA
BRANCH   5   6
ATOM      6  C   UNL A   1      32.091  25.916  23.188  1.00  0.00     0.344 C 
ATOM      7  O   UNL A   1      31.507  25.483  22.205  1.00  0.00    -0.246 OA
BRANCH   6   8
ATOM      8  C   UNL A   1      32.497  25.073  24.335  1.00  0.00     0.128 A 
ATOM      9  N   UNL A   1      34.154  23.626  25.453  1.00  0.00    -0.283 N 
ATOM     10  C   UNL A   1      33.304  23.566  26.547  1.00  0.00     0.095 A 
ATOM     11  C   UNL A   1      33.769  24.287  24.268  1.00  0.00     0.270 A 
ATOM     12  C   UNL A   1      32.126  24.195  26.559  1.00  0.00     0.023 A 
ATOM     13  O   UNL A   1      34.408  24.247  23.218  1.00  0.00    -0.268 OA
ATOM     14  C   UNL A   1      31.699  24.986  25.423  1.00  0.00    -0.029 A 
ATOM     15  C   UNL A   1      30.344  25.627  25.577  1.00  0.00     0.045 C 
BRANCH   9  16
ATOM     16  C   UNL A   1      35.446  23.006  25.511  1.00  0.00     0.052 A 
ATOM     17  C   UNL A   1      34.517  20.686  24.866  1.00  0.00     0.047 C 
ATOM     18  C   UNL A   1      35.627  21.627  25.253  1.00  0.00    -0.024 A 
ATOM     19  C   UNL A   1      36.922  21.086  25.327  1.00  0.00     0.044 A 
ATOM     20  C   UNL A   1      38.013  21.898  25.612  1.00  0.00     0.123 A 
ATOM     21  C   UNL A   1      36.570  23.810  25.782  1.00  0.00     0.030 A 
ATOM     22  F   UNL A   1      39.241  21.365  25.653  1.00  0.00    -0.207 F 
ATOM     23  C   UNL A   1      37.850  23.256  25.837  1.00  0.00     0.041 A 
ENDBRANCH   9  16
ENDBRANCH   6   8
ENDBRANCH   5   6
ENDBRANCH   4   5
ENDBRANCH   3   4
ENDBRANCH   2   3
ENDBRANCH   1   2
BRANCH   1  24
ATOM     24  C   UNL A   1      32.046  30.460  26.871  1.00  0.00     0.261 C 
BRANCH  24  25
ATOM     25  O   UNL A   1      33.476  30.506  26.774  1.00  0.00    -0.460 OA
BRANCH  25  26
ATOM     26  C   UNL A   1      34.056  31.526  27.452  1.00  0.00     0.338 C 
ATOM     27  O   UNL A   1      33.546  32.597  27.745  1.00  0.00    -0.246 OA
BRANCH  26  28
ATOM     28  C   UNL A   1      35.361  31.085  27.982  1.00  0.00     0.060 A 
ATOM     29  C   UNL A   1      36.437  31.965  28.095  1.00  0.00     0.016 A 
ATOM     30  C   UNL A   1      35.480  29.754  28.409  1.00  0.00     0.016 A 
ATOM     31  C   UNL A   1      37.622  31.517  28.681  1.00  0.00     0.010 A 
ATOM     32  C   UNL A   1      36.665  29.311  28.998  1.00  0.00     0.010 A 
ATOM     33  C   UNL A   1      37.735  30.198  29.167  1.00  0.00    -0.014 A 
BRANCH  33  34
ATOM     34  C   UNL A   1      38.895  29.826  30.016  1.00  0.00     0.031 A 
ATOM     35  C   UNL A   1      39.067  30.348  31.410  1.00  0.00     0.074 A 
ATOM     36  C   UNL A   1      39.816  28.996  29.486  1.00  0.00     0.049 A 
ATOM     37  N   UNL A   1      39.957  30.000  32.302  1.00  0.00    -0.248 NA
ATOM     38  C   UNL A   1      38.142  31.399  31.862  1.00  0.00     0.031 C 
ATOM     39  C   UNL A   1      39.784  28.487  28.112  1.00  0.00     0.029 A 
ATOM     40  N   UNL A   1      40.935  28.419  30.030  1.00  0.00    -0.354 N 
ATOM     41  C   UNL A   1      39.691  30.766  33.429  1.00  0.00     0.074 A 
ATOM     42  C   UNL A   1      38.588  31.640  33.090  1.00  0.00     0.031 C 
ATOM     43  C   UNL A   1      40.802  27.634  27.937  1.00  0.00     0.029 A 
ATOM     44  C   UNL A   1      41.581  27.560  29.171  1.00  0.00     0.049 A 
ATOM     45  H   UNL A   1      41.246  28.602  30.945  1.00  0.00     0.167 HD
ATOM     46  C   UNL A   1      40.301  30.721  34.637  1.00  0.00     0.031 A 
ATOM     47  C   UNL A   1      42.668  26.783  29.352  1.00  0.00     0.031 A 
ATOM     48  C   UNL A   1      41.404  29.842  34.954  1.00  0.00     0.049 A 
ATOM     49  C   UNL A   1      43.316  26.741  30.706  1.00  0.00     0.074 A 
ATOM     50  C   UNL A   1      42.035  29.673  36.175  1.00  0.00     0.029 A 
ATOM     51  N   UNL A   1      42.042  28.998  34.058  1.00  0.00    -0.354 N 
ATOM     52  N   UNL A   1      42.974  27.383  31.798  1.00  0.00    -0.248 NA
ATOM     53  C   UNL A   1      44.479  25.859  30.864  1.00  0.00     0.031 C 
ATOM     54  C   UNL A   1      43.108  28.798  35.996  1.00  0.00     0.029 A 
ATOM     55  C   UNL A   1      43.092  28.344  34.687  1.00  0.00     0.049 A 
ATOM     56  H   UNL A   1      41.789  28.879  33.114  1.00  0.00     0.167 HD
ATOM     57  C   UNL A   1      43.876  26.978  32.775  1.00  0.00     0.074 A 
ATOM     58  C   UNL A   1      44.752  26.005  32.154  1.00  0.00     0.031 C 
ATOM     59  C   UNL A   1      43.977  27.389  34.063  1.00  0.00     0.031 A 
BRANCH  46  60
ATOM     60  C   UNL A   1      39.793  31.608  35.747  1.00  0.00    -0.014 A 
ATOM     61  C   UNL A   1      40.643  32.577  36.316  1.00  0.00     0.010 A 
ATOM     62  C   UNL A   1      38.551  31.352  36.356  1.00  0.00     0.010 A 
ATOM     63  C   UNL A   1      40.292  33.223  37.504  1.00  0.00     0.020 A 
ATOM     64  C   UNL A   1      38.182  32.019  37.528  1.00  0.00     0.020 A 
ATOM     65  C   UNL A   1      39.070  32.925  38.113  1.00  0.00     0.054 A 
BRANCH  65  66
ATOM     66  S   UNL A   1      38.676  33.700  39.706  1.00  0.00     0.124 S 
ATOM     67  O   UNL A   1      39.670  33.106  40.593  1.00  0.00    -0.237 OA
ATOM     68  O   UNL A   1      38.854  35.122  39.419  1.00  0.00    -0.237 OA
ATOM     69  O   UNL A   1      37.295  33.293  39.954  1.00  0.00    -0.744 OA
ENDBRANCH  65  66
ENDBRANCH  46  60
BRANCH  47  70
ATOM     70  C   UNL A   1      43.157  25.951  28.216  1.00  0.00    -0.014 A 
ATOM     71  C   UNL A   1      42.689  24.632  28.052  1.00  0.00     0.010 A 
ATOM     72  C   UNL A   1      44.159  26.427  27.352  1.00  0.00     0.010 A 
ATOM     73  C   UNL A   1      43.256  23.789  27.095  1.00  0.00     0.020 A 
ATOM     74  C   UNL A   1      44.701  25.598  26.364  1.00  0.00     0.020 A 
ATOM     75  C   UNL A   1      44.269  24.272  26.266  1.00  0.00     0.054 A 
BRANCH  75  76
ATOM     76  S   UNL A   1      45.033  23.137  25.076  1.00  0.00     0.124 S 
ATOM     77  O   UNL A   1      45.888  22.329  25.940  1.00  0.00    -0.237 OA
ATOM     78  O   UNL A   1      43.878  22.447  24.509  1.00  0.00    -0.237 OA
ATOM     79  O   UNL A   1      45.737  24.027  24.156  1.00  0.00    -0.744 OA
ENDBRANCH  75  76
ENDBRANCH  47  70
BRANCH  59  80
ATOM     80  C   UNL A   1      45.095  26.819  34.903  1.00  0.00    -0.014 A 
ATOM     81  C   UNL A   1      44.836  25.776  35.813  1.00  0.00     0.010 A 
ATOM     82  C   UNL A   1      46.383  27.387  34.869  1.00  0.00     0.010 A 
ATOM     83  C   UNL A   1      45.830  25.334  36.690  1.00  0.00     0.020 A 
ATOM     84  C   UNL A   1      47.391  26.920  35.717  1.00  0.00     0.020 A 
ATOM     85  C   UNL A   1      47.101  25.912  36.639  1.00  0.00     0.054 A 
BRANCH  85  86
ATOM     86  S   UNL A   1      48.375  25.331  37.792  1.00  0.00     0.124 S 
ATOM     87  O   UNL A   1      49.218  24.508  36.931  1.00  0.00    -0.237 OA
ATOM     88  O   UNL A   1      48.978  26.578  38.258  1.00  0.00    -0.237 OA
ATOM     89  O   UNL A   1      47.616  24.600  38.804  1.00  0.00    -0.744 OA
ENDBRANCH  85  86
ENDBRANCH  59  80
ENDBRANCH  33  34
ENDBRANCH  26  28
ENDBRANCH  25  26
ENDBRANCH  24  25
ENDBRANCH   1  24
TORSDOF 18
ENDMDL
