MODEL 1
REMARK VINA RESULT:     -11.5      0.000      0.000
REMARK SMILES Cc1ccc(C[C@@H](Cc2cc(F)cc(Br)c2)C(=O)OCCOCCOC(=O)c2ccc(-c3c4nc(c(-c5ccc(S(=O)(=O)[O-])cc5)c5ccc([nH]5)c(-c5ccc(S(=O)(=O)[O-])cc5)c5nc(c(-c6ccc(S(=O)(=O)[O-])cc6)c6ccc3[nH]6)C=C5)C=C4)cc2)cc1
REMARK SMILES IDX 23 1 22 2 21 3 20 4 19 5 17 6 18 7 7 8 6 9 5 10 1 11 2 12
REMARK SMILES IDX 3 13 89 14 4 15 88 16 8 17 9 18 10 19 16 20 11 21 14 22
REMARK SMILES IDX 12 23 13 24 15 25 24 26 25 27 26 28 27 29 28 30 29 31 87 32
REMARK SMILES IDX 30 33 86 34 31 35 32 36 33 37 80 38 34 39 85 40 79 41 81 42
REMARK SMILES IDX 35 43 84 44 78 45 77 46 36 48 66 49 47 50 65 51 48 52 51 53
REMARK SMILES IDX 64 54 82 55 49 56 50 57 63 59 83 60 52 61 37 62 38 63 46 64
REMARK SMILES IDX 39 65 45 66 40 67 41 68 42 69 43 70 44 71 67 72 68 73 76 74
REMARK SMILES IDX 69 75 75 76 70 77 71 78 72 79 73 80 74 81 53 82 54 83 62 84
REMARK SMILES IDX 55 85 61 86 56 87 57 88 58 89 59 90 60 91
REMARK H PARENT 81 47 51 58
REMARK Flexibility Score: inf
ROOT
ATOM      1  C   UNL A   1      34.731  32.586  28.026  1.00  0.00     0.202 C 
ENDROOT
BRANCH   1   2
ATOM      2  O   UNL A   1      33.617  31.690  27.998  1.00  0.00    -0.374 OA
BRANCH   2   3
ATOM      3  C   UNL A   1      33.795  30.409  27.433  1.00  0.00     0.202 C 
BRANCH   3   4
ATOM      4  C   UNL A   1      32.548  29.657  27.028  1.00  0.00     0.261 C 
BRANCH   4   5
ATOM      5  O   UNL A   1      32.575  28.268  27.356  1.00  0.00    -0.463 OA
BRANCH   5   6
ATOM      6  C   UNL A   1      33.064  27.383  26.454  1.00  0.00     0.309 C 
ATOM      7  O   UNL A   1      34.246  27.327  26.118  1.00  0.00    -0.252 OA
BRANCH   6   8
ATOM      8  C   UNL A   1      31.957  26.473  25.940  1.00  0.00     0.108 C 
BRANCH   8   9
ATOM      9  C   UNL A   1      31.751  26.586  24.387  1.00  0.00     0.051 C 
BRANCH   9  10
ATOM     10  C   UNL A   1      30.640  27.560  24.052  1.00  0.00    -0.047 A 
ATOM     11  C   UNL A   1      27.742  30.176  22.261  1.00  0.00     0.044 C 
ATOM     12  C   UNL A   1      28.710  29.278  22.968  1.00  0.00    -0.051 A 
ATOM     13  C   UNL A   1      29.957  29.775  23.361  1.00  0.00     0.004 A 
ATOM     14  C   UNL A   1      28.406  27.931  23.194  1.00  0.00     0.004 A 
ATOM     15  C   UNL A   1      30.906  28.927  23.926  1.00  0.00     0.004 A 
ATOM     16  C   UNL A   1      29.366  27.076  23.730  1.00  0.00     0.004 A 
ENDBRANCH   9  10
ENDBRANCH   8   9
BRANCH   8  17
ATOM     17  C   UNL A   1      31.882  24.992  26.458  1.00  0.00     0.051 C 
BRANCH  17  18
ATOM     18  C   UNL A   1      32.669  23.773  26.057  1.00  0.00    -0.043 A 
ATOM     19  C   UNL A   1      31.964  22.555  25.882  1.00  0.00     0.043 A 
ATOM     20  C   UNL A   1      34.009  23.757  25.777  1.00  0.00     0.019 A 
ATOM     21  C   UNL A   1      32.503  21.486  25.177  1.00  0.00     0.124 A 
ATOM     22  C   UNL A   1      34.447  22.756  24.924  1.00  0.00     0.021 A 
ATOM     23  F   UNL A   1      31.780  20.386  24.944  1.00  0.00    -0.207 F 
ATOM     24  C   UNL A   1      33.721  21.627  24.594  1.00  0.00     0.055 A 
ATOM     25  Br  UNL A   1      35.892  23.157  23.868  1.00  0.00    -0.051 Br
ENDBRANCH  17  18
ENDBRANCH   8  17
ENDBRANCH   6   8
ENDBRANCH   5   6
ENDBRANCH   4   5
ENDBRANCH   3   4
ENDBRANCH   2   3
ENDBRANCH   1   2
BRANCH   1  26
ATOM     26  C   UNL A   1      35.392  33.029  29.367  1.00  0.00     0.261 C 
BRANCH  26  27
ATOM     27  O   UNL A   1      35.736  31.921  30.233  1.00  0.00    -0.460 OA
BRANCH  27  28
ATOM     28  C   UNL A   1      37.066  31.614  30.410  1.00  0.00     0.338 C 
ATOM     29  O   UNL A   1      37.831  32.208  31.151  1.00  0.00    -0.246 OA
BRANCH  28  30
ATOM     30  C   UNL A   1      37.322  30.213  29.963  1.00  0.00     0.060 A 
ATOM     31  C   UNL A   1      37.639  29.158  30.814  1.00  0.00     0.016 A 
ATOM     32  C   UNL A   1      37.335  29.976  28.596  1.00  0.00     0.016 A 
ATOM     33  C   UNL A   1      38.260  28.015  30.276  1.00  0.00     0.010 A 
ATOM     34  C   UNL A   1      38.128  28.954  28.095  1.00  0.00     0.010 A 
ATOM     35  C   UNL A   1      38.790  28.097  28.976  1.00  0.00    -0.014 A 
BRANCH  35  36
ATOM     36  C   UNL A   1      40.291  27.963  28.737  1.00  0.00     0.031 A 
ATOM     37  C   UNL A   1      40.865  26.735  27.932  1.00  0.00     0.074 A 
ATOM     38  C   UNL A   1      40.951  29.114  29.108  1.00  0.00     0.049 A 
ATOM     39  N   UNL A   1      42.112  26.387  27.772  1.00  0.00    -0.248 NA
ATOM     40  C   UNL A   1      40.017  25.671  27.392  1.00  0.00     0.031 C 
ATOM     41  C   UNL A   1      42.133  29.810  28.622  1.00  0.00     0.029 A 
ATOM     42  N   UNL A   1      40.801  29.765  30.347  1.00  0.00    -0.354 N 
ATOM     43  C   UNL A   1      42.247  25.070  27.380  1.00  0.00     0.074 A 
ATOM     44  C   UNL A   1      40.897  24.751  26.964  1.00  0.00     0.031 C 
ATOM     45  C   UNL A   1      42.794  30.417  29.624  1.00  0.00     0.029 A 
ATOM     46  C   UNL A   1      42.076  30.069  30.826  1.00  0.00     0.049 A 
ATOM     47  H   UNL A   1      39.949  29.970  30.796  1.00  0.00     0.167 HD
ATOM     48  C   UNL A   1      43.366  24.265  27.556  1.00  0.00     0.031 A 
ATOM     49  C   UNL A   1      42.499  30.466  32.036  1.00  0.00     0.031 A 
ATOM     50  C   UNL A   1      44.390  24.668  28.605  1.00  0.00     0.049 A 
ATOM     51  C   UNL A   1      43.402  29.324  32.629  1.00  0.00     0.074 A 
ATOM     52  C   UNL A   1      45.735  25.030  28.572  1.00  0.00     0.029 A 
ATOM     53  N   UNL A   1      44.076  24.747  30.003  1.00  0.00    -0.354 N 
ATOM     54  N   UNL A   1      44.057  28.419  31.913  1.00  0.00    -0.248 NA
ATOM     55  C   UNL A   1      43.637  29.038  34.041  1.00  0.00     0.031 C 
ATOM     56  C   UNL A   1      46.153  25.483  29.880  1.00  0.00     0.029 A 
ATOM     57  C   UNL A   1      45.051  25.513  30.745  1.00  0.00     0.049 A 
ATOM     58  H   UNL A   1      43.284  24.327  30.411  1.00  0.00     0.167 HD
ATOM     59  C   UNL A   1      44.480  27.299  32.649  1.00  0.00     0.074 A 
ATOM     60  C   UNL A   1      44.325  27.870  34.002  1.00  0.00     0.031 C 
ATOM     61  C   UNL A   1      44.841  25.989  32.205  1.00  0.00     0.031 A 
BRANCH  48  62
ATOM     62  C   UNL A   1      43.647  23.099  26.549  1.00  0.00    -0.014 A 
ATOM     63  C   UNL A   1      43.087  21.813  26.750  1.00  0.00     0.010 A 
ATOM     64  C   UNL A   1      44.528  23.165  25.448  1.00  0.00     0.010 A 
ATOM     65  C   UNL A   1      43.437  20.681  25.971  1.00  0.00     0.020 A 
ATOM     66  C   UNL A   1      44.918  22.043  24.681  1.00  0.00     0.020 A 
ATOM     67  C   UNL A   1      44.376  20.798  24.952  1.00  0.00     0.054 A 
BRANCH  67  68
ATOM     68  S   UNL A   1      44.878  19.337  23.994  1.00  0.00     0.124 S 
ATOM     69  O   UNL A   1      46.330  19.333  24.150  1.00  0.00    -0.237 OA
ATOM     70  O   UNL A   1      44.170  18.255  24.670  1.00  0.00    -0.237 OA
ATOM     71  O   UNL A   1      44.408  19.629  22.640  1.00  0.00    -0.744 OA
ENDBRANCH  67  68
ENDBRANCH  48  62
BRANCH  49  72
ATOM     72  C   UNL A   1      41.727  31.733  32.388  1.00  0.00    -0.014 A 
ATOM     73  C   UNL A   1      40.675  31.523  33.331  1.00  0.00     0.010 A 
ATOM     74  C   UNL A   1      42.406  32.978  32.526  1.00  0.00     0.010 A 
ATOM     75  C   UNL A   1      40.476  32.359  34.459  1.00  0.00     0.020 A 
ATOM     76  C   UNL A   1      42.200  33.828  33.653  1.00  0.00     0.020 A 
ATOM     77  C   UNL A   1      41.275  33.482  34.642  1.00  0.00     0.054 A 
BRANCH  77  78
ATOM     78  S   UNL A   1      41.279  34.324  36.273  1.00  0.00     0.124 S 
ATOM     79  O   UNL A   1      39.875  34.268  36.663  1.00  0.00    -0.237 OA
ATOM     80  O   UNL A   1      42.194  33.507  37.068  1.00  0.00    -0.237 OA
ATOM     81  O   UNL A   1      41.801  35.645  35.943  1.00  0.00    -0.744 OA
ENDBRANCH  77  78
ENDBRANCH  49  72
BRANCH  61  82
ATOM     82  C   UNL A   1      45.103  24.835  33.181  1.00  0.00    -0.014 A 
ATOM     83  C   UNL A   1      44.223  23.776  33.428  1.00  0.00     0.010 A 
ATOM     84  C   UNL A   1      46.378  24.743  33.806  1.00  0.00     0.010 A 
ATOM     85  C   UNL A   1      44.540  22.762  34.342  1.00  0.00     0.020 A 
ATOM     86  C   UNL A   1      46.735  23.703  34.661  1.00  0.00     0.020 A 
ATOM     87  C   UNL A   1      45.789  22.742  34.964  1.00  0.00     0.054 A 
BRANCH  87  88
ATOM     88  S   UNL A   1      46.177  21.441  36.152  1.00  0.00     0.124 S 
ATOM     89  O   UNL A   1      45.700  22.029  37.400  1.00  0.00    -0.237 OA
ATOM     90  O   UNL A   1      45.402  20.307  35.655  1.00  0.00    -0.237 OA
ATOM     91  O   UNL A   1      47.627  21.293  36.042  1.00  0.00    -0.744 OA
ENDBRANCH  87  88
ENDBRANCH  61  82
ENDBRANCH  35  36
ENDBRANCH  28  30
ENDBRANCH  27  28
ENDBRANCH  26  27
ENDBRANCH   1  26
TORSDOF 21
ENDMDL
MODEL 2
REMARK VINA RESULT:     -10.9      2.018      3.671
REMARK SMILES Cc1ccc(C[C@@H](Cc2cc(F)cc(Br)c2)C(=O)OCCOCCOC(=O)c2ccc(-c3c4nc(c(-c5ccc(S(=O)(=O)[O-])cc5)c5ccc([nH]5)c(-c5ccc(S(=O)(=O)[O-])cc5)c5nc(c(-c6ccc(S(=O)(=O)[O-])cc6)c6ccc3[nH]6)C=C5)C=C4)cc2)cc1
REMARK SMILES IDX 23 1 22 2 21 3 20 4 19 5 17 6 18 7 7 8 6 9 5 10 1 11 2 12
REMARK SMILES IDX 3 13 89 14 4 15 88 16 8 17 9 18 10 19 16 20 11 21 14 22
REMARK SMILES IDX 12 23 13 24 15 25 24 26 25 27 26 28 27 29 28 30 29 31 87 32
REMARK SMILES IDX 30 33 86 34 31 35 32 36 33 37 80 38 34 39 85 40 79 41 81 42
REMARK SMILES IDX 35 43 84 44 78 45 77 46 36 48 66 49 47 50 65 51 48 52 51 53
REMARK SMILES IDX 64 54 82 55 49 56 50 57 63 59 83 60 52 61 37 62 38 63 46 64
REMARK SMILES IDX 39 65 45 66 40 67 41 68 42 69 43 70 44 71 67 72 68 73 76 74
REMARK SMILES IDX 69 75 75 76 70 77 71 78 72 79 73 80 74 81 53 82 54 83 62 84
REMARK SMILES IDX 55 85 61 86 56 87 57 88 58 89 59 90 60 91
REMARK H PARENT 81 47 51 58
REMARK Flexibility Score: inf
ROOT
ATOM      1  C   UNL A   1      33.885  31.151  27.307  1.00  0.00     0.202 C 
ENDROOT
BRANCH   1   2
ATOM      2  O   UNL A   1      33.772  29.795  27.745  1.00  0.00    -0.374 OA
BRANCH   2   3
ATOM      3  C   UNL A   1      32.755  28.988  27.192  1.00  0.00     0.202 C 
BRANCH   3   4
ATOM      4  C   UNL A   1      31.834  29.637  26.185  1.00  0.00     0.261 C 
BRANCH   4   5
ATOM      5  O   UNL A   1      31.665  28.884  24.983  1.00  0.00    -0.463 OA
BRANCH   5   6
ATOM      6  C   UNL A   1      32.623  28.941  24.027  1.00  0.00     0.309 C 
ATOM      7  O   UNL A   1      33.617  29.663  24.092  1.00  0.00    -0.252 OA
BRANCH   6   8
ATOM      8  C   UNL A   1      32.303  27.982  22.889  1.00  0.00     0.108 C 
BRANCH   8   9
ATOM      9  C   UNL A   1      33.273  26.747  22.845  1.00  0.00     0.051 C 
BRANCH   9  10
ATOM     10  C   UNL A   1      32.955  25.761  23.950  1.00  0.00    -0.047 A 
ATOM     11  C   UNL A   1      32.738  22.509  26.748  1.00  0.00     0.044 C 
ATOM     12  C   UNL A   1      32.748  23.687  25.823  1.00  0.00    -0.051 A 
ATOM     13  C   UNL A   1      32.007  23.645  24.637  1.00  0.00     0.004 A 
ATOM     14  C   UNL A   1      33.532  24.812  26.102  1.00  0.00     0.004 A 
ATOM     15  C   UNL A   1      32.088  24.689  23.720  1.00  0.00     0.004 A 
ATOM     16  C   UNL A   1      33.637  25.842  25.169  1.00  0.00     0.004 A 
ENDBRANCH   9  10
ENDBRANCH   8   9
BRANCH   8  17
ATOM     17  C   UNL A   1      30.807  27.590  22.616  1.00  0.00     0.051 C 
BRANCH  17  18
ATOM     18  C   UNL A   1      29.569  28.444  22.532  1.00  0.00    -0.043 A 
ATOM     19  C   UNL A   1      28.360  27.915  23.048  1.00  0.00     0.043 A 
ATOM     20  C   UNL A   1      29.530  29.728  22.059  1.00  0.00     0.019 A 
ATOM     21  C   UNL A   1      27.273  28.722  23.355  1.00  0.00     0.124 A 
ATOM     22  C   UNL A   1      28.509  30.532  22.545  1.00  0.00     0.021 A 
ATOM     23  F   UNL A   1      26.179  28.211  23.929  1.00  0.00    -0.207 F 
ATOM     24  C   UNL A   1      27.386  30.067  23.204  1.00  0.00     0.055 A 
ATOM     25  Br  UNL A   1      28.872  32.324  22.675  1.00  0.00    -0.051 Br
ENDBRANCH  17  18
ENDBRANCH   8  17
ENDBRANCH   6   8
ENDBRANCH   5   6
ENDBRANCH   4   5
ENDBRANCH   3   4
ENDBRANCH   2   3
ENDBRANCH   1   2
BRANCH   1  26
ATOM     26  C   UNL A   1      34.698  32.208  28.116  1.00  0.00     0.261 C 
BRANCH  26  27
ATOM     27  O   UNL A   1      36.130  32.091  27.937  1.00  0.00    -0.460 OA
BRANCH  27  28
ATOM     28  C   UNL A   1      36.899  31.724  29.018  1.00  0.00     0.338 C 
ATOM     29  O   UNL A   1      36.994  32.353  30.059  1.00  0.00    -0.246 OA
BRANCH  28  30
ATOM     30  C   UNL A   1      37.208  30.266  28.943  1.00  0.00     0.060 A 
ATOM     31  C   UNL A   1      37.536  29.470  30.037  1.00  0.00     0.016 A 
ATOM     32  C   UNL A   1      37.260  29.693  27.681  1.00  0.00     0.016 A 
ATOM     33  C   UNL A   1      38.203  28.251  29.815  1.00  0.00     0.010 A 
ATOM     34  C   UNL A   1      38.095  28.606  27.466  1.00  0.00     0.010 A 
ATOM     35  C   UNL A   1      38.761  28.021  28.545  1.00  0.00    -0.014 A 
BRANCH  35  36
ATOM     36  C   UNL A   1      40.271  27.884  28.370  1.00  0.00     0.031 A 
ATOM     37  C   UNL A   1      40.891  26.550  27.807  1.00  0.00     0.074 A 
ATOM     38  C   UNL A   1      40.897  29.099  28.552  1.00  0.00     0.049 A 
ATOM     39  N   UNL A   1      42.149  26.209  27.742  1.00  0.00    -0.248 NA
ATOM     40  C   UNL A   1      40.081  25.388  27.440  1.00  0.00     0.031 C 
ATOM     41  C   UNL A   1      42.079  29.727  27.981  1.00  0.00     0.029 A 
ATOM     42  N   UNL A   1      40.699  29.951  29.654  1.00  0.00    -0.354 N 
ATOM     43  C   UNL A   1      42.321  24.848  27.589  1.00  0.00     0.074 A 
ATOM     44  C   UNL A   1      40.990  24.429  27.202  1.00  0.00     0.031 C 
ATOM     45  C   UNL A   1      42.699  30.516  28.879  1.00  0.00     0.029 A 
ATOM     46  C   UNL A   1      41.953  30.365  30.104  1.00  0.00     0.049 A 
ATOM     47  H   UNL A   1      39.830  30.211  30.038  1.00  0.00     0.167 HD
ATOM     48  C   UNL A   1      43.450  24.113  27.932  1.00  0.00     0.031 A 
ATOM     49  C   UNL A   1      42.333  30.977  31.237  1.00  0.00     0.031 A 
ATOM     50  C   UNL A   1      44.435  24.717  28.919  1.00  0.00     0.049 A 
ATOM     51  C   UNL A   1      43.241  29.977  32.042  1.00  0.00     0.074 A 
ATOM     52  C   UNL A   1      45.773  25.100  28.858  1.00  0.00     0.029 A 
ATOM     53  N   UNL A   1      44.079  25.031  30.274  1.00  0.00    -0.354 N 
ATOM     54  N   UNL A   1      43.934  28.977  31.512  1.00  0.00    -0.248 NA
ATOM     55  C   UNL A   1      43.440  29.946  33.488  1.00  0.00     0.031 C 
ATOM     56  C   UNL A   1      46.145  25.783  30.077  1.00  0.00     0.029 A 
ATOM     57  C   UNL A   1      45.018  25.937  30.894  1.00  0.00     0.049 A 
ATOM     58  H   UNL A   1      43.284  24.669  30.729  1.00  0.00     0.167 HD
ATOM     59  C   UNL A   1      44.356  28.013  32.443  1.00  0.00     0.074 A 
ATOM     60  C   UNL A   1      44.152  28.806  33.671  1.00  0.00     0.031 C 
ATOM     61  C   UNL A   1      44.756  26.655  32.244  1.00  0.00     0.031 A 
BRANCH  48  62
ATOM     62  C   UNL A   1      43.782  22.797  27.151  1.00  0.00    -0.014 A 
ATOM     63  C   UNL A   1      44.998  22.662  26.435  1.00  0.00     0.010 A 
ATOM     64  C   UNL A   1      42.909  21.699  26.992  1.00  0.00     0.010 A 
ATOM     65  C   UNL A   1      45.279  21.568  25.577  1.00  0.00     0.020 A 
ATOM     66  C   UNL A   1      43.154  20.616  26.116  1.00  0.00     0.020 A 
ATOM     67  C   UNL A   1      44.339  20.558  25.402  1.00  0.00     0.054 A 
BRANCH  67  68
ATOM     68  S   UNL A   1      44.666  19.189  24.253  1.00  0.00     0.124 S 
ATOM     69  O   UNL A   1      43.680  18.189  24.654  1.00  0.00    -0.237 OA
ATOM     70  O   UNL A   1      44.442  19.805  22.950  1.00  0.00    -0.237 OA
ATOM     71  O   UNL A   1      46.055  18.824  24.532  1.00  0.00    -0.744 OA
ENDBRANCH  67  68
ENDBRANCH  48  62
BRANCH  49  72
ATOM     72  C   UNL A   1      41.527  32.267  31.342  1.00  0.00    -0.014 A 
ATOM     73  C   UNL A   1      40.155  32.061  31.681  1.00  0.00     0.010 A 
ATOM     74  C   UNL A   1      42.108  33.437  31.909  1.00  0.00     0.010 A 
ATOM     75  C   UNL A   1      39.490  32.812  32.684  1.00  0.00     0.020 A 
ATOM     76  C   UNL A   1      41.439  34.202  32.910  1.00  0.00     0.020 A 
ATOM     77  C   UNL A   1      40.154  33.848  33.331  1.00  0.00     0.054 A 
BRANCH  77  78
ATOM     78  S   UNL A   1      39.440  34.545  34.872  1.00  0.00     0.124 S 
ATOM     79  O   UNL A   1      39.440  33.398  35.770  1.00  0.00    -0.237 OA
ATOM     80  O   UNL A   1      40.370  35.622  35.212  1.00  0.00    -0.237 OA
ATOM     81  O   UNL A   1      38.133  35.013  34.428  1.00  0.00    -0.744 OA
ENDBRANCH  77  78
ENDBRANCH  49  72
BRANCH  61  82
ATOM     82  C   UNL A   1      45.012  25.695  33.412  1.00  0.00    -0.014 A 
ATOM     83  C   UNL A   1      44.022  25.161  34.245  1.00  0.00     0.010 A 
ATOM     84  C   UNL A   1      46.329  25.198  33.614  1.00  0.00     0.010 A 
ATOM     85  C   UNL A   1      44.345  24.291  35.296  1.00  0.00     0.020 A 
ATOM     86  C   UNL A   1      46.654  24.278  34.609  1.00  0.00     0.020 A 
ATOM     87  C   UNL A   1      45.661  23.869  35.480  1.00  0.00     0.054 A 
BRANCH  87  88
ATOM     88  S   UNL A   1      46.065  22.764  36.848  1.00  0.00     0.124 S 
ATOM     89  O   UNL A   1      45.243  23.313  37.922  1.00  0.00    -0.237 OA
ATOM     90  O   UNL A   1      45.650  21.459  36.342  1.00  0.00    -0.237 OA
ATOM     91  O   UNL A   1      47.508  22.931  37.013  1.00  0.00    -0.744 OA
ENDBRANCH  87  88
ENDBRANCH  61  82
ENDBRANCH  35  36
ENDBRANCH  28  30
ENDBRANCH  27  28
ENDBRANCH  26  27
ENDBRANCH   1  26
TORSDOF 21
ENDMDL
MODEL 3
REMARK VINA RESULT:     -10.7      4.391     11.521
REMARK SMILES Cc1ccc(C[C@@H](Cc2cc(F)cc(Br)c2)C(=O)OCCOCCOC(=O)c2ccc(-c3c4nc(c(-c5ccc(S(=O)(=O)[O-])cc5)c5ccc([nH]5)c(-c5ccc(S(=O)(=O)[O-])cc5)c5nc(c(-c6ccc(S(=O)(=O)[O-])cc6)c6ccc3[nH]6)C=C5)C=C4)cc2)cc1
REMARK SMILES IDX 23 1 22 2 21 3 20 4 19 5 17 6 18 7 7 8 6 9 5 10 1 11 2 12
REMARK SMILES IDX 3 13 89 14 4 15 88 16 8 17 9 18 10 19 16 20 11 21 14 22
REMARK SMILES IDX 12 23 13 24 15 25 24 26 25 27 26 28 27 29 28 30 29 31 87 32
REMARK SMILES IDX 30 33 86 34 31 35 32 36 33 37 80 38 34 39 85 40 79 41 81 42
REMARK SMILES IDX 35 43 84 44 78 45 77 46 36 48 66 49 47 50 65 51 48 52 51 53
REMARK SMILES IDX 64 54 82 55 49 56 50 57 63 59 83 60 52 61 37 62 38 63 46 64
REMARK SMILES IDX 39 65 45 66 40 67 41 68 42 69 43 70 44 71 67 72 68 73 76 74
REMARK SMILES IDX 69 75 75 76 70 77 71 78 72 79 73 80 74 81 53 82 54 83 62 84
REMARK SMILES IDX 55 85 61 86 56 87 57 88 58 89 59 90 60 91
REMARK H PARENT 81 47 51 58
REMARK Flexibility Score: inf
ROOT
ATOM      1  C   UNL A   1      41.991  24.404  25.975  1.00  0.00     0.202 C 
ENDROOT
BRANCH   1   2
ATOM      2  O   UNL A   1      42.118  23.568  27.127  1.00  0.00    -0.374 OA
BRANCH   2   3
ATOM      3  C   UNL A   1      41.121  22.599  27.372  1.00  0.00     0.202 C 
BRANCH   3   4
ATOM      4  C   UNL A   1      40.680  21.754  26.199  1.00  0.00     0.261 C 
BRANCH   4   5
ATOM      5  O   UNL A   1      39.340  22.006  25.772  1.00  0.00    -0.463 OA
BRANCH   5   6
ATOM      6  C   UNL A   1      38.550  20.964  25.422  1.00  0.00     0.309 C 
ATOM      7  O   UNL A   1      38.938  19.798  25.359  1.00  0.00    -0.252 OA
BRANCH   6   8
ATOM      8  C   UNL A   1      37.131  21.437  25.141  1.00  0.00     0.108 C 
BRANCH   8   9
ATOM      9  C   UNL A   1      37.031  22.328  23.852  1.00  0.00     0.051 C 
BRANCH   9  10
ATOM     10  C   UNL A   1      35.962  23.390  24.001  1.00  0.00    -0.047 A 
ATOM     11  C   UNL A   1      32.477  25.759  24.835  1.00  0.00     0.044 C 
ATOM     12  C   UNL A   1      33.734  25.011  24.514  1.00  0.00    -0.051 A 
ATOM     13  C   UNL A   1      33.835  24.310  23.308  1.00  0.00     0.004 A 
ATOM     14  C   UNL A   1      34.792  24.959  25.428  1.00  0.00     0.004 A 
ATOM     15  C   UNL A   1      34.955  23.527  23.040  1.00  0.00     0.004 A 
ATOM     16  C   UNL A   1      35.899  24.151  25.174  1.00  0.00     0.004 A 
ENDBRANCH   9  10
ENDBRANCH   8   9
BRANCH   8  17
ATOM     17  C   UNL A   1      35.945  20.414  25.267  1.00  0.00     0.051 C 
BRANCH  17  18
ATOM     18  C   UNL A   1      34.455  20.633  25.245  1.00  0.00    -0.043 A 
ATOM     19  C   UNL A   1      33.872  21.346  26.322  1.00  0.00     0.043 A 
ATOM     20  C   UNL A   1      33.620  20.259  24.227  1.00  0.00     0.019 A 
ATOM     21  C   UNL A   1      32.608  21.913  26.233  1.00  0.00     0.124 A 
ATOM     22  C   UNL A   1      32.448  20.988  24.094  1.00  0.00     0.021 A 
ATOM     23  F   UNL A   1      32.120  22.662  27.228  1.00  0.00    -0.207 F 
ATOM     24  C   UNL A   1      31.927  21.828  25.061  1.00  0.00     0.055 A 
ATOM     25  Br  UNL A   1      31.778  21.156  22.395  1.00  0.00    -0.051 Br
ENDBRANCH  17  18
ENDBRANCH   8  17
ENDBRANCH   6   8
ENDBRANCH   5   6
ENDBRANCH   4   5
ENDBRANCH   3   4
ENDBRANCH   2   3
ENDBRANCH   1   2
BRANCH   1  26
ATOM     26  C   UNL A   1      41.323  25.811  26.054  1.00  0.00     0.261 C 
BRANCH  26  27
ATOM     27  O   UNL A   1      40.795  26.124  27.365  1.00  0.00    -0.460 OA
BRANCH  27  28
ATOM     28  C   UNL A   1      39.445  25.970  27.583  1.00  0.00     0.338 C 
ATOM     29  O   UNL A   1      38.798  24.973  27.307  1.00  0.00    -0.246 OA
BRANCH  28  30
ATOM     30  C   UNL A   1      38.985  26.955  28.605  1.00  0.00     0.060 A 
ATOM     31  C   UNL A   1      38.687  28.289  28.340  1.00  0.00     0.016 A 
ATOM     32  C   UNL A   1      38.943  26.527  29.924  1.00  0.00     0.016 A 
ATOM     33  C   UNL A   1      38.675  29.208  29.406  1.00  0.00     0.010 A 
ATOM     34  C   UNL A   1      39.140  27.451  30.941  1.00  0.00     0.010 A 
ATOM     35  C   UNL A   1      39.237  28.810  30.632  1.00  0.00    -0.014 A 
BRANCH  35  36
ATOM     36  C   UNL A   1      40.478  29.507  31.183  1.00  0.00     0.031 A 
ATOM     37  C   UNL A   1      40.349  30.569  32.340  1.00  0.00     0.074 A 
ATOM     38  C   UNL A   1      41.627  28.919  30.697  1.00  0.00     0.049 A 
ATOM     39  N   UNL A   1      41.271  31.361  32.813  1.00  0.00    -0.248 NA
ATOM     40  C   UNL A   1      39.065  30.952  32.929  1.00  0.00     0.031 C 
ATOM     41  C   UNL A   1      42.960  28.698  31.236  1.00  0.00     0.029 A 
ATOM     42  N   UNL A   1      41.886  28.658  29.339  1.00  0.00    -0.354 N 
ATOM     43  C   UNL A   1      40.742  32.430  33.511  1.00  0.00     0.074 A 
ATOM     44  C   UNL A   1      39.376  31.995  33.716  1.00  0.00     0.031 C 
ATOM     45  C   UNL A   1      43.897  28.758  30.271  1.00  0.00     0.029 A 
ATOM     46  C   UNL A   1      43.183  29.091  29.062  1.00  0.00     0.049 A 
ATOM     47  H   UNL A   1      41.264  28.242  28.699  1.00  0.00     0.167 HD
ATOM     48  C   UNL A   1      41.359  33.654  33.742  1.00  0.00     0.031 A 
ATOM     49  C   UNL A   1      43.825  29.287  27.900  1.00  0.00     0.031 A 
ATOM     50  C   UNL A   1      42.521  34.058  32.850  1.00  0.00     0.049 A 
ATOM     51  C   UNL A   1      44.122  30.826  27.767  1.00  0.00     0.074 A 
ATOM     52  C   UNL A   1      43.872  34.325  33.062  1.00  0.00     0.029 A 
ATOM     53  N   UNL A   1      42.378  34.260  31.435  1.00  0.00    -0.354 N 
ATOM     54  N   UNL A   1      44.222  31.674  28.783  1.00  0.00    -0.248 NA
ATOM     55  C   UNL A   1      44.290  31.580  26.529  1.00  0.00     0.031 C 
ATOM     56  C   UNL A   1      44.543  34.500  31.792  1.00  0.00     0.029 A 
ATOM     57  C   UNL A   1      43.648  34.245  30.745  1.00  0.00     0.049 A 
ATOM     58  H   UNL A   1      41.512  34.393  30.986  1.00  0.00     0.167 HD
ATOM     59  C   UNL A   1      44.117  33.026  28.414  1.00  0.00     0.074 A 
ATOM     60  C   UNL A   1      44.342  32.864  26.964  1.00  0.00     0.031 C 
ATOM     61  C   UNL A   1      43.787  34.172  29.203  1.00  0.00     0.031 A 
BRANCH  48  62
ATOM     62  C   UNL A   1      40.988  34.478  35.020  1.00  0.00    -0.014 A 
ATOM     63  C   UNL A   1      41.896  34.592  36.102  1.00  0.00     0.010 A 
ATOM     64  C   UNL A   1      39.734  35.077  35.271  1.00  0.00     0.010 A 
ATOM     65  C   UNL A   1      41.554  35.180  37.347  1.00  0.00     0.020 A 
ATOM     66  C   UNL A   1      39.360  35.636  36.514  1.00  0.00     0.020 A 
ATOM     67  C   UNL A   1      40.272  35.678  37.555  1.00  0.00     0.054 A 
BRANCH  67  68
ATOM     68  S   UNL A   1      39.809  36.372  39.170  1.00  0.00     0.124 S 
ATOM     69  O   UNL A   1      39.221  37.659  38.810  1.00  0.00    -0.237 OA
ATOM     70  O   UNL A   1      38.875  35.377  39.688  1.00  0.00    -0.237 OA
ATOM     71  O   UNL A   1      41.079  36.459  39.890  1.00  0.00    -0.744 OA
ENDBRANCH  67  68
ENDBRANCH  48  62
BRANCH  49  72
ATOM     72  C   UNL A   1      43.767  27.973  27.128  1.00  0.00    -0.014 A 
ATOM     73  C   UNL A   1      44.074  28.106  25.740  1.00  0.00     0.010 A 
ATOM     74  C   UNL A   1      44.232  26.765  27.724  1.00  0.00     0.010 A 
ATOM     75  C   UNL A   1      44.969  27.239  25.064  1.00  0.00     0.020 A 
ATOM     76  C   UNL A   1      45.123  25.883  27.043  1.00  0.00     0.020 A 
ATOM     77  C   UNL A   1      45.531  26.158  25.735  1.00  0.00     0.054 A 
BRANCH  77  78
ATOM     78  S   UNL A   1      46.964  25.286  24.990  1.00  0.00     0.124 S 
ATOM     79  O   UNL A   1      47.475  26.268  24.042  1.00  0.00    -0.237 OA
ATOM     80  O   UNL A   1      47.819  25.006  26.142  1.00  0.00    -0.237 OA
ATOM     81  O   UNL A   1      46.343  24.100  24.412  1.00  0.00    -0.744 OA
ENDBRANCH  77  78
ENDBRANCH  49  72
BRANCH  61  82
ATOM     82  C   UNL A   1      43.540  35.552  28.582  1.00  0.00    -0.014 A 
ATOM     83  C   UNL A   1      42.360  35.947  27.944  1.00  0.00     0.010 A 
ATOM     84  C   UNL A   1      44.521  36.567  28.759  1.00  0.00     0.010 A 
ATOM     85  C   UNL A   1      42.219  37.231  27.399  1.00  0.00     0.020 A 
ATOM     86  C   UNL A   1      44.366  37.869  28.286  1.00  0.00     0.020 A 
ATOM     87  C   UNL A   1      43.231  38.177  27.560  1.00  0.00     0.054 A 
BRANCH  87  88
ATOM     88  S   UNL A   1      43.045  39.820  26.837  1.00  0.00     0.124 S 
ATOM     89  O   UNL A   1      43.141  40.674  28.018  1.00  0.00    -0.237 OA
ATOM     90  O   UNL A   1      44.174  39.896  25.914  1.00  0.00    -0.237 OA
ATOM     91  O   UNL A   1      41.730  39.772  26.202  1.00  0.00    -0.744 OA
ENDBRANCH  87  88
ENDBRANCH  61  82
ENDBRANCH  35  36
ENDBRANCH  28  30
ENDBRANCH  27  28
ENDBRANCH  26  27
ENDBRANCH   1  26
TORSDOF 21
ENDMDL
