MODEL 1
REMARK VINA RESULT:      -9.9      0.000      0.000
REMARK SMILES O=C(Cc1ccn(-c2ccccc2F)c1)OCCOCCOC(=O)c1ccc(-c2c3nc(c(-c4ccc(S(=O)(=O)[O-])cc4)c4ccc([nH]4)c(-c4ccc(S(=O)(=O)[O-])cc4)c4nc(c(-c5ccc(S(=O)(=O)[O-])cc5)c5ccc2[nH]5)C=C4)C=C3)cc1
REMARK SMILES IDX 20 1 19 2 18 3 17 4 16 5 2 6 1 7 3 8 4 9 5 10 15 11 6 12
REMARK SMILES IDX 7 13 8 14 9 15 13 16 10 17 12 18 14 19 11 20 21 21 22 22
REMARK SMILES IDX 23 23 24 24 25 25 26 26 84 27 27 28 83 29 28 30 29 31 30 32
REMARK SMILES IDX 77 33 31 34 82 35 76 36 78 37 32 38 81 39 75 40 74 41 33 43
REMARK SMILES IDX 63 44 44 45 62 46 45 47 48 48 61 49 79 50 46 51 47 52 60 54
REMARK SMILES IDX 80 55 49 56 34 57 35 58 43 59 36 60 42 61 37 62 38 63 39 64
REMARK SMILES IDX 40 65 41 66 64 67 65 68 73 69 66 70 72 71 67 72 68 73 69 74
REMARK SMILES IDX 70 75 71 76 50 77 51 78 59 79 52 80 58 81 53 82 54 83 55 84
REMARK SMILES IDX 56 85 57 86
REMARK H PARENT 78 42 48 53
REMARK Flexibility Score: inf
ROOT
ATOM      1  C   UNL A   1      34.917  33.295  28.422  1.00  0.00     0.202 C 
ENDROOT
BRANCH   1   2
ATOM      2  O   UNL A   1      33.649  33.820  28.821  1.00  0.00    -0.374 OA
BRANCH   2   3
ATOM      3  C   UNL A   1      33.428  35.208  28.607  1.00  0.00     0.202 C 
BRANCH   3   4
ATOM      4  C   UNL A   1      33.095  36.044  29.833  1.00  0.00     0.261 C 
BRANCH   4   5
ATOM      5  O   UNL A   1      32.322  35.383  30.844  1.00  0.00    -0.463 OA
BRANCH   5   6
ATOM      6  C   UNL A   1      32.253  35.777  32.138  1.00  0.00     0.310 C 
ATOM      7  O   UNL A   1      31.183  36.192  32.588  1.00  0.00    -0.252 OA
BRANCH   6   8
ATOM      8  C   UNL A   1      33.508  35.845  32.973  1.00  0.00     0.159 C 
BRANCH   8   9
ATOM      9  C   UNL A   1      34.525  34.774  32.784  1.00  0.00    -0.019 A 
ATOM     10  C   UNL A   1      34.557  33.449  33.297  1.00  0.00     0.024 A 
ATOM     11  C   UNL A   1      35.674  34.918  32.029  1.00  0.00     0.095 A 
ATOM     12  C   UNL A   1      35.628  32.805  32.719  1.00  0.00     0.091 A 
ATOM     13  N   UNL A   1      36.391  33.746  32.066  1.00  0.00    -0.321 N 
BRANCH  13  14
ATOM     14  C   UNL A   1      37.717  33.564  31.627  1.00  0.00     0.081 A 
ATOM     15  C   UNL A   1      38.002  32.669  30.590  1.00  0.00     0.030 A 
ATOM     16  C   UNL A   1      38.756  34.191  32.317  1.00  0.00     0.147 A 
ATOM     17  C   UNL A   1      39.333  32.401  30.263  1.00  0.00     0.002 A 
ATOM     18  C   UNL A   1      40.079  33.889  32.016  1.00  0.00     0.041 A 
ATOM     19  F   UNL A   1      38.519  35.012  33.351  1.00  0.00    -0.205 F 
ATOM     20  C   UNL A   1      40.369  32.993  30.989  1.00  0.00     0.003 A 
ENDBRANCH  13  14
ENDBRANCH   8   9
ENDBRANCH   6   8
ENDBRANCH   5   6
ENDBRANCH   4   5
ENDBRANCH   3   4
ENDBRANCH   2   3
ENDBRANCH   1   2
BRANCH   1  21
ATOM     21  C   UNL A   1      34.920  31.896  27.835  1.00  0.00     0.261 C 
BRANCH  21  22
ATOM     22  O   UNL A   1      35.615  30.971  28.668  1.00  0.00    -0.460 OA
BRANCH  22  23
ATOM     23  C   UNL A   1      36.152  29.931  28.006  1.00  0.00     0.338 C 
ATOM     24  O   UNL A   1      35.657  29.291  27.083  1.00  0.00    -0.246 OA
BRANCH  23  25
ATOM     25  C   UNL A   1      37.435  29.601  28.608  1.00  0.00     0.060 A 
ATOM     26  C   UNL A   1      38.586  29.749  27.825  1.00  0.00     0.016 A 
ATOM     27  C   UNL A   1      37.449  28.944  29.847  1.00  0.00     0.016 A 
ATOM     28  C   UNL A   1      39.750  29.145  28.249  1.00  0.00     0.010 A 
ATOM     29  C   UNL A   1      38.600  28.303  30.244  1.00  0.00     0.010 A 
ATOM     30  C   UNL A   1      39.731  28.389  29.427  1.00  0.00    -0.014 A 
BRANCH  30  31
ATOM     31  C   UNL A   1      40.960  27.712  29.842  1.00  0.00     0.031 A 
ATOM     32  C   UNL A   1      41.227  26.468  29.019  1.00  0.00     0.074 A 
ATOM     33  C   UNL A   1      41.615  28.274  30.898  1.00  0.00     0.049 A 
ATOM     34  N   UNL A   1      41.867  25.393  29.353  1.00  0.00    -0.248 NA
ATOM     35  C   UNL A   1      40.618  26.348  27.665  1.00  0.00     0.031 C 
ATOM     36  C   UNL A   1      41.173  29.505  31.593  1.00  0.00     0.029 A 
ATOM     37  N   UNL A   1      42.750  27.949  31.600  1.00  0.00    -0.354 N 
ATOM     38  C   UNL A   1      41.899  24.568  28.215  1.00  0.00     0.074 A 
ATOM     39  C   UNL A   1      41.008  25.143  27.255  1.00  0.00     0.031 C 
ATOM     40  C   UNL A   1      41.979  29.777  32.639  1.00  0.00     0.029 A 
ATOM     41  C   UNL A   1      43.029  28.781  32.709  1.00  0.00     0.049 A 
ATOM     42  H   UNL A   1      43.328  27.193  31.349  1.00  0.00     0.167 HD
ATOM     43  C   UNL A   1      42.783  23.545  28.062  1.00  0.00     0.031 A 
ATOM     44  C   UNL A   1      44.015  28.661  33.646  1.00  0.00     0.031 A 
ATOM     45  C   UNL A   1      43.585  23.385  29.230  1.00  0.00     0.049 A 
ATOM     46  C   UNL A   1      44.874  27.541  33.214  1.00  0.00     0.074 A 
ATOM     47  C   UNL A   1      43.322  22.940  30.500  1.00  0.00     0.029 A 
ATOM     48  N   UNL A   1      44.785  24.057  29.234  1.00  0.00    -0.354 N 
ATOM     49  N   UNL A   1      45.678  27.562  32.195  1.00  0.00    -0.248 NA
ATOM     50  C   UNL A   1      44.782  26.260  33.928  1.00  0.00     0.031 C 
ATOM     51  C   UNL A   1      44.162  23.728  31.322  1.00  0.00     0.029 A 
ATOM     52  C   UNL A   1      44.975  24.528  30.512  1.00  0.00     0.049 A 
ATOM     53  H   UNL A   1      45.393  24.177  28.469  1.00  0.00     0.167 HD
ATOM     54  C   UNL A   1      45.874  26.227  31.935  1.00  0.00     0.074 A 
ATOM     55  C   UNL A   1      45.583  25.523  33.164  1.00  0.00     0.031 C 
ATOM     56  C   UNL A   1      45.719  25.759  30.670  1.00  0.00     0.031 A 
BRANCH  43  57
ATOM     57  C   UNL A   1      43.207  22.839  26.808  1.00  0.00    -0.014 A 
ATOM     58  C   UNL A   1      42.496  21.667  26.459  1.00  0.00     0.010 A 
ATOM     59  C   UNL A   1      44.439  23.070  26.176  1.00  0.00     0.010 A 
ATOM     60  C   UNL A   1      43.054  20.700  25.625  1.00  0.00     0.020 A 
ATOM     61  C   UNL A   1      44.987  22.122  25.302  1.00  0.00     0.020 A 
ATOM     62  C   UNL A   1      44.317  20.919  25.082  1.00  0.00     0.054 A 
BRANCH  62  63
ATOM     63  S   UNL A   1      45.108  19.575  24.162  1.00  0.00     0.124 S 
ATOM     64  O   UNL A   1      44.651  18.397  24.892  1.00  0.00    -0.237 OA
ATOM     65  O   UNL A   1      44.549  19.736  22.820  1.00  0.00    -0.237 OA
ATOM     66  O   UNL A   1      46.532  19.878  24.273  1.00  0.00    -0.744 OA
ENDBRANCH  62  63
ENDBRANCH  43  57
BRANCH  44  67
ATOM     67  C   UNL A   1      44.328  29.279  34.985  1.00  0.00    -0.014 A 
ATOM     68  C   UNL A   1      45.570  29.791  35.385  1.00  0.00     0.010 A 
ATOM     69  C   UNL A   1      43.255  29.483  35.894  1.00  0.00     0.010 A 
ATOM     70  C   UNL A   1      45.696  30.580  36.550  1.00  0.00     0.020 A 
ATOM     71  C   UNL A   1      43.353  30.298  37.023  1.00  0.00     0.020 A 
ATOM     72  C   UNL A   1      44.576  30.868  37.334  1.00  0.00     0.054 A 
BRANCH  72  73
ATOM     73  S   UNL A   1      44.654  32.083  38.678  1.00  0.00     0.124 S 
ATOM     74  O   UNL A   1      43.789  31.486  39.689  1.00  0.00    -0.237 OA
ATOM     75  O   UNL A   1      46.077  32.122  39.007  1.00  0.00    -0.237 OA
ATOM     76  O   UNL A   1      44.140  33.301  38.051  1.00  0.00    -0.744 OA
ENDBRANCH  72  73
ENDBRANCH  44  67
BRANCH  56  77
ATOM     77  C   UNL A   1      45.923  26.794  29.573  1.00  0.00    -0.014 A 
ATOM     78  C   UNL A   1      44.813  27.374  28.932  1.00  0.00     0.010 A 
ATOM     79  C   UNL A   1      47.201  27.137  29.089  1.00  0.00     0.010 A 
ATOM     80  C   UNL A   1      44.973  28.248  27.844  1.00  0.00     0.020 A 
ATOM     81  C   UNL A   1      47.374  28.011  28.002  1.00  0.00     0.020 A 
ATOM     82  C   UNL A   1      46.254  28.559  27.382  1.00  0.00     0.054 A 
BRANCH  82  83
ATOM     83  S   UNL A   1      46.428  29.653  25.940  1.00  0.00     0.124 S 
ATOM     84  O   UNL A   1      45.281  30.549  26.072  1.00  0.00    -0.237 OA
ATOM     85  O   UNL A   1      47.731  30.270  26.166  1.00  0.00    -0.237 OA
ATOM     86  O   UNL A   1      46.363  28.740  24.797  1.00  0.00    -0.744 OA
ENDBRANCH  82  83
ENDBRANCH  56  77
ENDBRANCH  30  31
ENDBRANCH  23  25
ENDBRANCH  22  23
ENDBRANCH  21  22
ENDBRANCH   1  21
TORSDOF 19
ENDMDL
MODEL 2
REMARK VINA RESULT:      -9.7      5.904     11.906
REMARK SMILES O=C(Cc1ccn(-c2ccccc2F)c1)OCCOCCOC(=O)c1ccc(-c2c3nc(c(-c4ccc(S(=O)(=O)[O-])cc4)c4ccc([nH]4)c(-c4ccc(S(=O)(=O)[O-])cc4)c4nc(c(-c5ccc(S(=O)(=O)[O-])cc5)c5ccc2[nH]5)C=C4)C=C3)cc1
REMARK SMILES IDX 20 1 19 2 18 3 17 4 16 5 2 6 1 7 3 8 4 9 5 10 15 11 6 12
REMARK SMILES IDX 7 13 8 14 9 15 13 16 10 17 12 18 14 19 11 20 21 21 22 22
REMARK SMILES IDX 23 23 24 24 25 25 26 26 84 27 27 28 83 29 28 30 29 31 30 32
REMARK SMILES IDX 77 33 31 34 82 35 76 36 78 37 32 38 81 39 75 40 74 41 33 43
REMARK SMILES IDX 63 44 44 45 62 46 45 47 48 48 61 49 79 50 46 51 47 52 60 54
REMARK SMILES IDX 80 55 49 56 34 57 35 58 43 59 36 60 42 61 37 62 38 63 39 64
REMARK SMILES IDX 40 65 41 66 64 67 65 68 73 69 66 70 72 71 67 72 68 73 69 74
REMARK SMILES IDX 70 75 71 76 50 77 51 78 59 79 52 80 58 81 53 82 54 83 55 84
REMARK SMILES IDX 56 85 57 86
REMARK H PARENT 78 42 48 53
REMARK Flexibility Score: inf
ROOT
ATOM      1  C   UNL A   1      39.311  21.232  25.792  1.00  0.00     0.202 C 
ENDROOT
BRANCH   1   2
ATOM      2  O   UNL A   1      38.122  21.399  25.017  1.00  0.00    -0.374 OA
BRANCH   2   3
ATOM      3  C   UNL A   1      36.912  21.621  25.730  1.00  0.00     0.202 C 
BRANCH   3   4
ATOM      4  C   UNL A   1      36.602  23.059  26.118  1.00  0.00     0.261 C 
BRANCH   4   5
ATOM      5  O   UNL A   1      35.799  23.795  25.184  1.00  0.00    -0.463 OA
BRANCH   5   6
ATOM      6  C   UNL A   1      34.447  23.744  25.128  1.00  0.00     0.310 C 
ATOM      7  O   UNL A   1      33.797  23.752  26.174  1.00  0.00    -0.252 OA
BRANCH   6   8
ATOM      8  C   UNL A   1      33.756  23.532  23.802  1.00  0.00     0.159 C 
BRANCH   8   9
ATOM      9  C   UNL A   1      33.173  22.189  23.533  1.00  0.00    -0.019 A 
ATOM     10  C   UNL A   1      32.088  21.820  22.694  1.00  0.00     0.024 A 
ATOM     11  C   UNL A   1      33.632  21.015  24.101  1.00  0.00     0.095 A 
ATOM     12  C   UNL A   1      32.029  20.444  22.669  1.00  0.00     0.091 A 
ATOM     13  N   UNL A   1      32.874  19.964  23.645  1.00  0.00    -0.321 N 
BRANCH  13  14
ATOM     14  C   UNL A   1      32.868  18.652  24.158  1.00  0.00     0.081 A 
ATOM     15  C   UNL A   1      32.636  18.426  25.519  1.00  0.00     0.030 A 
ATOM     16  C   UNL A   1      33.218  17.591  23.321  1.00  0.00     0.147 A 
ATOM     17  C   UNL A   1      32.770  17.133  26.032  1.00  0.00     0.002 A 
ATOM     18  C   UNL A   1      33.392  16.314  23.843  1.00  0.00     0.041 A 
ATOM     19  F   UNL A   1      33.500  17.783  22.024  1.00  0.00    -0.205 F 
ATOM     20  C   UNL A   1      33.169  16.084  25.200  1.00  0.00     0.003 A 
ENDBRANCH  13  14
ENDBRANCH   8   9
ENDBRANCH   6   8
ENDBRANCH   5   6
ENDBRANCH   4   5
ENDBRANCH   3   4
ENDBRANCH   2   3
ENDBRANCH   1   2
BRANCH   1  21
ATOM     21  C   UNL A   1      39.684  19.810  26.167  1.00  0.00     0.261 C 
BRANCH  21  22
ATOM     22  O   UNL A   1      40.674  19.271  25.294  1.00  0.00    -0.460 OA
BRANCH  22  23
ATOM     23  C   UNL A   1      41.840  18.982  25.897  1.00  0.00     0.338 C 
ATOM     24  O   UNL A   1      42.276  17.874  26.199  1.00  0.00    -0.246 OA
BRANCH  23  25
ATOM     25  C   UNL A   1      42.521  20.224  26.228  1.00  0.00     0.060 A 
ATOM     26  C   UNL A   1      42.413  20.706  27.537  1.00  0.00     0.016 A 
ATOM     27  C   UNL A   1      43.060  20.995  25.185  1.00  0.00     0.016 A 
ATOM     28  C   UNL A   1      42.762  22.015  27.785  1.00  0.00     0.010 A 
ATOM     29  C   UNL A   1      43.363  22.315  25.428  1.00  0.00     0.010 A 
ATOM     30  C   UNL A   1      43.186  22.818  26.719  1.00  0.00    -0.014 A 
BRANCH  30  31
ATOM     31  C   UNL A   1      43.509  24.220  26.986  1.00  0.00     0.031 A 
ATOM     32  C   UNL A   1      42.263  25.054  27.216  1.00  0.00     0.074 A 
ATOM     33  C   UNL A   1      44.834  24.539  26.940  1.00  0.00     0.049 A 
ATOM     34  N   UNL A   1      42.078  26.316  26.998  1.00  0.00    -0.248 NA
ATOM     35  C   UNL A   1      41.011  24.381  27.657  1.00  0.00     0.031 C 
ATOM     36  C   UNL A   1      45.917  23.565  26.675  1.00  0.00     0.029 A 
ATOM     37  N   UNL A   1      45.540  25.708  27.094  1.00  0.00    -0.354 N 
ATOM     38  C   UNL A   1      40.779  26.620  27.443  1.00  0.00     0.074 A 
ATOM     39  C   UNL A   1      40.127  25.375  27.713  1.00  0.00     0.031 C 
ATOM     40  C   UNL A   1      47.113  24.185  26.622  1.00  0.00     0.029 A 
ATOM     41  C   UNL A   1      46.933  25.601  26.873  1.00  0.00     0.049 A 
ATOM     42  H   UNL A   1      45.109  26.557  27.341  1.00  0.00     0.167 HD
ATOM     43  C   UNL A   1      40.365  27.885  27.722  1.00  0.00     0.031 A 
ATOM     44  C   UNL A   1      47.878  26.586  26.856  1.00  0.00     0.031 A 
ATOM     45  C   UNL A   1      41.385  28.834  27.419  1.00  0.00     0.049 A 
ATOM     46  C   UNL A   1      47.197  27.830  27.264  1.00  0.00     0.074 A 
ATOM     47  C   UNL A   1      41.927  29.294  26.246  1.00  0.00     0.029 A 
ATOM     48  N   UNL A   1      42.221  29.173  28.457  1.00  0.00    -0.354 N 
ATOM     49  N   UNL A   1      46.769  28.095  28.461  1.00  0.00    -0.248 NA
ATOM     50  C   UNL A   1      46.898  28.843  26.242  1.00  0.00     0.031 C 
ATOM     51  C   UNL A   1      43.288  29.520  26.561  1.00  0.00     0.029 A 
ATOM     52  C   UNL A   1      43.484  29.301  27.929  1.00  0.00     0.049 A 
ATOM     53  H   UNL A   1      41.964  29.301  29.399  1.00  0.00     0.167 HD
ATOM     54  C   UNL A   1      45.845  29.088  28.242  1.00  0.00     0.074 A 
ATOM     55  C   UNL A   1      46.191  29.697  26.977  1.00  0.00     0.031 C 
ATOM     56  C   UNL A   1      44.606  28.985  28.786  1.00  0.00     0.031 A 
BRANCH  43  57
ATOM     57  C   UNL A   1      39.195  28.339  28.544  1.00  0.00    -0.014 A 
ATOM     58  C   UNL A   1      38.380  29.356  27.994  1.00  0.00     0.010 A 
ATOM     59  C   UNL A   1      39.071  28.070  29.916  1.00  0.00     0.010 A 
ATOM     60  C   UNL A   1      37.581  30.163  28.802  1.00  0.00     0.020 A 
ATOM     61  C   UNL A   1      38.236  28.850  30.728  1.00  0.00     0.020 A 
ATOM     62  C   UNL A   1      37.545  29.927  30.174  1.00  0.00     0.054 A 
BRANCH  62  63
ATOM     63  S   UNL A   1      36.658  31.099  31.231  1.00  0.00     0.124 S 
ATOM     64  O   UNL A   1      35.648  31.625  30.319  1.00  0.00    -0.237 OA
ATOM     65  O   UNL A   1      36.151  30.243  32.302  1.00  0.00    -0.237 OA
ATOM     66  O   UNL A   1      37.697  32.042  31.639  1.00  0.00    -0.744 OA
ENDBRANCH  62  63
ENDBRANCH  43  57
BRANCH  44  67
ATOM     67  C   UNL A   1      49.317  26.709  26.424  1.00  0.00    -0.014 A 
ATOM     68  C   UNL A   1      50.440  26.534  27.244  1.00  0.00     0.010 A 
ATOM     69  C   UNL A   1      49.586  26.900  25.043  1.00  0.00     0.010 A 
ATOM     70  C   UNL A   1      51.736  26.412  26.696  1.00  0.00     0.020 A 
ATOM     71  C   UNL A   1      50.853  26.736  24.480  1.00  0.00     0.020 A 
ATOM     72  C   UNL A   1      51.926  26.466  25.312  1.00  0.00     0.054 A 
BRANCH  72  73
ATOM     73  S   UNL A   1      53.526  26.055  24.565  1.00  0.00     0.124 S 
ATOM     74  O   UNL A   1      53.553  24.601  24.664  1.00  0.00    -0.237 OA
ATOM     75  O   UNL A   1      53.408  26.595  23.211  1.00  0.00    -0.237 OA
ATOM     76  O   UNL A   1      54.479  26.761  25.420  1.00  0.00    -0.744 OA
ENDBRANCH  72  73
ENDBRANCH  44  67
BRANCH  56  77
ATOM     77  C   UNL A   1      44.523  28.120  30.036  1.00  0.00    -0.014 A 
ATOM     78  C   UNL A   1      44.850  28.659  31.293  1.00  0.00     0.010 A 
ATOM     79  C   UNL A   1      44.219  26.745  29.981  1.00  0.00     0.010 A 
ATOM     80  C   UNL A   1      44.888  27.856  32.444  1.00  0.00     0.020 A 
ATOM     81  C   UNL A   1      44.254  25.931  31.126  1.00  0.00     0.020 A 
ATOM     82  C   UNL A   1      44.593  26.494  32.354  1.00  0.00     0.054 A 
BRANCH  82  83
ATOM     83  S   UNL A   1      44.700  25.468  33.852  1.00  0.00     0.124 S 
ATOM     84  O   UNL A   1      43.521  25.879  34.610  1.00  0.00    -0.237 OA
ATOM     85  O   UNL A   1      44.654  24.113  33.312  1.00  0.00    -0.237 OA
ATOM     86  O   UNL A   1      45.978  25.855  34.451  1.00  0.00    -0.744 OA
ENDBRANCH  82  83
ENDBRANCH  56  77
ENDBRANCH  30  31
ENDBRANCH  23  25
ENDBRANCH  22  23
ENDBRANCH  21  22
ENDBRANCH   1  21
TORSDOF 19
ENDMDL
MODEL 3
REMARK VINA RESULT:      -9.6      5.168      8.588
REMARK SMILES O=C(Cc1ccn(-c2ccccc2F)c1)OCCOCCOC(=O)c1ccc(-c2c3nc(c(-c4ccc(S(=O)(=O)[O-])cc4)c4ccc([nH]4)c(-c4ccc(S(=O)(=O)[O-])cc4)c4nc(c(-c5ccc(S(=O)(=O)[O-])cc5)c5ccc2[nH]5)C=C4)C=C3)cc1
REMARK SMILES IDX 20 1 19 2 18 3 17 4 16 5 2 6 1 7 3 8 4 9 5 10 15 11 6 12
REMARK SMILES IDX 7 13 8 14 9 15 13 16 10 17 12 18 14 19 11 20 21 21 22 22
REMARK SMILES IDX 23 23 24 24 25 25 26 26 84 27 27 28 83 29 28 30 29 31 30 32
REMARK SMILES IDX 77 33 31 34 82 35 76 36 78 37 32 38 81 39 75 40 74 41 33 43
REMARK SMILES IDX 63 44 44 45 62 46 45 47 48 48 61 49 79 50 46 51 47 52 60 54
REMARK SMILES IDX 80 55 49 56 34 57 35 58 43 59 36 60 42 61 37 62 38 63 39 64
REMARK SMILES IDX 40 65 41 66 64 67 65 68 73 69 66 70 72 71 67 72 68 73 69 74
REMARK SMILES IDX 70 75 71 76 50 77 51 78 59 79 52 80 58 81 53 82 54 83 55 84
REMARK SMILES IDX 56 85 57 86
REMARK H PARENT 78 42 48 53
REMARK Flexibility Score: inf
ROOT
ATOM      1  C   UNL A   1      32.852  29.992  27.270  1.00  0.00     0.202 C 
ENDROOT
BRANCH   1   2
ATOM      2  O   UNL A   1      33.626  29.299  26.290  1.00  0.00    -0.374 OA
BRANCH   2   3
ATOM      3  C   UNL A   1      33.213  29.422  24.934  1.00  0.00     0.202 C 
BRANCH   3   4
ATOM      4  C   UNL A   1      33.863  28.477  23.934  1.00  0.00     0.261 C 
BRANCH   4   5
ATOM      5  O   UNL A   1      33.133  28.263  22.718  1.00  0.00    -0.463 OA
BRANCH   5   6
ATOM      6  C   UNL A   1      32.903  27.048  22.165  1.00  0.00     0.310 C 
ATOM      7  O   UNL A   1      33.749  26.553  21.418  1.00  0.00    -0.252 OA
BRANCH   6   8
ATOM      8  C   UNL A   1      31.562  26.380  22.347  1.00  0.00     0.159 C 
BRANCH   8   9
ATOM      9  C   UNL A   1      31.525  25.093  23.095  1.00  0.00    -0.019 A 
ATOM     10  C   UNL A   1      30.517  24.092  23.136  1.00  0.00     0.024 A 
ATOM     11  C   UNL A   1      32.536  24.649  23.926  1.00  0.00     0.095 A 
ATOM     12  C   UNL A   1      31.015  23.029  23.856  1.00  0.00     0.091 A 
ATOM     13  N   UNL A   1      32.183  23.434  24.462  1.00  0.00    -0.321 N 
BRANCH  13  14
ATOM     14  C   UNL A   1      32.826  22.769  25.524  1.00  0.00     0.081 A 
ATOM     15  C   UNL A   1      32.386  22.945  26.840  1.00  0.00     0.030 A 
ATOM     16  C   UNL A   1      33.983  22.031  25.264  1.00  0.00     0.147 A 
ATOM     17  C   UNL A   1      33.121  22.388  27.889  1.00  0.00     0.002 A 
ATOM     18  C   UNL A   1      34.734  21.514  26.314  1.00  0.00     0.041 A 
ATOM     19  F   UNL A   1      34.462  21.889  24.020  1.00  0.00    -0.205 F 
ATOM     20  C   UNL A   1      34.304  21.693  27.628  1.00  0.00     0.003 A 
ENDBRANCH  13  14
ENDBRANCH   8   9
ENDBRANCH   6   8
ENDBRANCH   5   6
ENDBRANCH   4   5
ENDBRANCH   3   4
ENDBRANCH   2   3
ENDBRANCH   1   2
BRANCH   1  21
ATOM     21  C   UNL A   1      32.561  31.456  26.996  1.00  0.00     0.261 C 
BRANCH  21  22
ATOM     22  O   UNL A   1      33.709  32.275  27.206  1.00  0.00    -0.460 OA
BRANCH  22  23
ATOM     23  C   UNL A   1      33.515  33.284  28.073  1.00  0.00     0.338 C 
ATOM     24  O   UNL A   1      32.659  34.163  28.024  1.00  0.00    -0.246 OA
BRANCH  23  25
ATOM     25  C   UNL A   1      34.550  33.235  29.094  1.00  0.00     0.060 A 
ATOM     26  C   UNL A   1      35.707  33.996  28.894  1.00  0.00     0.016 A 
ATOM     27  C   UNL A   1      34.451  32.269  30.108  1.00  0.00     0.016 A 
ATOM     28  C   UNL A   1      36.816  33.718  29.663  1.00  0.00     0.010 A 
ATOM     29  C   UNL A   1      35.575  31.963  30.841  1.00  0.00     0.010 A 
ATOM     30  C   UNL A   1      36.752  32.673  30.592  1.00  0.00    -0.014 A 
BRANCH  30  31
ATOM     31  C   UNL A   1      37.951  32.355  31.370  1.00  0.00     0.031 A 
ATOM     32  C   UNL A   1      38.759  31.241  30.734  1.00  0.00     0.074 A 
ATOM     33  C   UNL A   1      38.110  33.064  32.524  1.00  0.00     0.049 A 
ATOM     34  N   UNL A   1      39.542  30.379  31.299  1.00  0.00    -0.248 NA
ATOM     35  C   UNL A   1      38.607  30.974  29.277  1.00  0.00     0.031 C 
ATOM     36  C   UNL A   1      37.181  34.118  32.990  1.00  0.00     0.029 A 
ATOM     37  N   UNL A   1      39.049  33.055  33.528  1.00  0.00    -0.354 N 
ATOM     38  C   UNL A   1      40.110  29.608  30.270  1.00  0.00     0.074 A 
ATOM     39  C   UNL A   1      39.402  29.927  29.068  1.00  0.00     0.031 C 
ATOM     40  C   UNL A   1      37.560  34.589  34.195  1.00  0.00     0.029 A 
ATOM     41  C   UNL A   1      38.774  33.918  34.613  1.00  0.00     0.049 A 
ATOM     42  H   UNL A   1      39.853  32.489  33.494  1.00  0.00     0.167 HD
ATOM     43  C   UNL A   1      41.241  28.869  30.431  1.00  0.00     0.031 A 
ATOM     44  C   UNL A   1      39.454  34.063  35.788  1.00  0.00     0.031 A 
ATOM     45  C   UNL A   1      41.697  28.922  31.781  1.00  0.00     0.049 A 
ATOM     46  C   UNL A   1      40.666  33.228  35.681  1.00  0.00     0.074 A 
ATOM     47  C   UNL A   1      41.219  28.407  32.959  1.00  0.00     0.029 A 
ATOM     48  N   UNL A   1      42.623  29.897  32.066  1.00  0.00    -0.354 N 
ATOM     49  N   UNL A   1      41.686  33.480  34.919  1.00  0.00    -0.248 NA
ATOM     50  C   UNL A   1      40.723  31.963  36.426  1.00  0.00     0.031 C 
ATOM     51  C   UNL A   1      41.554  29.386  33.923  1.00  0.00     0.029 A 
ATOM     52  C   UNL A   1      42.317  30.388  33.313  1.00  0.00     0.049 A 
ATOM     53  H   UNL A   1      43.366  30.188  31.488  1.00  0.00     0.167 HD
ATOM     54  C   UNL A   1      42.296  32.253  34.811  1.00  0.00     0.074 A 
ATOM     55  C   UNL A   1      41.872  31.482  35.958  1.00  0.00     0.031 C 
ATOM     56  C   UNL A   1      42.631  31.774  33.585  1.00  0.00     0.031 A 
BRANCH  43  57
ATOM     57  C   UNL A   1      42.170  28.320  29.389  1.00  0.00    -0.014 A 
ATOM     58  C   UNL A   1      42.818  29.257  28.549  1.00  0.00     0.010 A 
ATOM     59  C   UNL A   1      42.165  26.975  28.989  1.00  0.00     0.010 A 
ATOM     60  C   UNL A   1      43.314  28.890  27.300  1.00  0.00     0.020 A 
ATOM     61  C   UNL A   1      42.702  26.591  27.752  1.00  0.00     0.020 A 
ATOM     62  C   UNL A   1      43.217  27.562  26.893  1.00  0.00     0.054 A 
BRANCH  62  63
ATOM     63  S   UNL A   1      43.689  27.139  25.197  1.00  0.00     0.124 S 
ATOM     64  O   UNL A   1      42.690  27.861  24.416  1.00  0.00    -0.237 OA
ATOM     65  O   UNL A   1      45.052  27.661  25.106  1.00  0.00    -0.237 OA
ATOM     66  O   UNL A   1      43.586  25.683  25.168  1.00  0.00    -0.744 OA
ENDBRANCH  62  63
ENDBRANCH  43  57
BRANCH  44  67
ATOM     67  C   UNL A   1      39.204  34.729  37.118  1.00  0.00    -0.014 A 
ATOM     68  C   UNL A   1      38.615  34.130  38.240  1.00  0.00     0.010 A 
ATOM     69  C   UNL A   1      39.712  36.041  37.314  1.00  0.00     0.010 A 
ATOM     70  C   UNL A   1      38.662  34.748  39.509  1.00  0.00     0.020 A 
ATOM     71  C   UNL A   1      39.808  36.645  38.569  1.00  0.00     0.020 A 
ATOM     72  C   UNL A   1      39.302  35.980  39.673  1.00  0.00     0.054 A 
BRANCH  72  73
ATOM     73  S   UNL A   1      39.607  36.671  41.321  1.00  0.00     0.124 S 
ATOM     74  O   UNL A   1      41.010  36.341  41.544  1.00  0.00    -0.237 OA
ATOM     75  O   UNL A   1      39.312  38.092  41.144  1.00  0.00    -0.237 OA
ATOM     76  O   UNL A   1      38.651  35.952  42.162  1.00  0.00    -0.744 OA
ENDBRANCH  72  73
ENDBRANCH  44  67
BRANCH  56  77
ATOM     77  C   UNL A   1      42.849  32.838  32.518  1.00  0.00    -0.014 A 
ATOM     78  C   UNL A   1      41.851  33.096  31.561  1.00  0.00     0.010 A 
ATOM     79  C   UNL A   1      44.071  33.527  32.380  1.00  0.00     0.010 A 
ATOM     80  C   UNL A   1      42.069  33.992  30.502  1.00  0.00     0.020 A 
ATOM     81  C   UNL A   1      44.301  34.426  31.326  1.00  0.00     0.020 A 
ATOM     82  C   UNL A   1      43.296  34.650  30.387  1.00  0.00     0.054 A 
BRANCH  82  83
ATOM     83  S   UNL A   1      43.568  35.766  28.978  1.00  0.00     0.124 S 
ATOM     84  O   UNL A   1      42.209  36.136  28.591  1.00  0.00    -0.237 OA
ATOM     85  O   UNL A   1      44.362  36.837  29.570  1.00  0.00    -0.237 OA
ATOM     86  O   UNL A   1      44.276  34.934  28.004  1.00  0.00    -0.744 OA
ENDBRANCH  82  83
ENDBRANCH  56  77
ENDBRANCH  30  31
ENDBRANCH  23  25
ENDBRANCH  22  23
ENDBRANCH  21  22
ENDBRANCH   1  21
TORSDOF 19
ENDMDL
