MODEL 1
REMARK VINA RESULT:      -6.0      0.000      0.000
REMARK SMILES [NH3+][C@@H](Cc1c[nH]c2ccccc12)C(=O)N[C@@H](CS)C(=O)N[C@@H](CO)C(=O)OCCOCCOC(=O)c1ccc(-c2c3nc(c(-c4ccc(S(=O)(=O)[O-])cc4)c4ccc([nH]4)c(-c4ccc(S(=O)(=O)[O-])cc4)c4nc(c(-c5ccc(S(=O)(=O)[O-])cc5)c5ccc2[nH]5)C=C4)C=C3)cc1
REMARK SMILES IDX 28 1 27 2 25 3 26 4 22 5 21 6 19 7 20 8 16 10 15 11 13 12
REMARK SMILES IDX 14 13 2 15 1 16 3 20 4 21 5 22 12 23 6 24 7 25 11 26 8 28
REMARK SMILES IDX 10 29 9 30 17 31 18 32 23 34 24 35 29 37 30 38 31 39 32 40
REMARK SMILES IDX 33 41 34 42 35 43 36 44 37 45 95 46 38 47 94 48 39 49 40 50
REMARK SMILES IDX 41 51 88 52 42 53 93 54 87 55 89 56 43 57 92 58 86 59 85 60
REMARK SMILES IDX 44 62 74 63 55 64 73 65 56 66 59 67 72 68 90 69 57 70 58 71
REMARK SMILES IDX 71 73 91 74 60 75 45 76 46 77 54 78 47 79 53 80 48 81 49 82
REMARK SMILES IDX 50 83 51 84 52 85 75 86 76 87 84 88 77 89 83 90 78 91 79 92
REMARK SMILES IDX 80 93 81 94 82 95 61 96 62 97 70 98 63 99 69 100 64 101
REMARK SMILES IDX 65 102 66 103 67 104 68 105
REMARK H PARENT 21 9 15 14 1 17 1 18 1 19 6 27 18 33 24 36 89 61 59 72
REMARK Flexibility Score: inf
ROOT
ATOM      1  C   UNL A   1      45.294  25.879  30.893  1.00  0.00     0.261 C 
ENDROOT
BRANCH   1   2
ATOM      2  O   UNL A   1      45.462  24.857  29.894  1.00  0.00    -0.462 OA
BRANCH   2   3
ATOM      3  C   UNL A   1      45.541  25.309  28.611  1.00  0.00     0.331 C 
ATOM      4  O   UNL A   1      46.536  25.819  28.106  1.00  0.00    -0.250 OA
BRANCH   3   5
ATOM      5  C   UNL A   1      44.247  25.094  27.819  1.00  0.00     0.218 C 
BRANCH   5   6
ATOM      6  N   UNL A   1      43.867  26.155  26.887  1.00  0.00    -0.339 N 
ATOM      7  C   UNL A   1      42.691  26.300  26.221  1.00  0.00     0.244 C 
ATOM      8  O   UNL A   1      42.789  26.624  25.032  1.00  0.00    -0.273 OA
ATOM      9  H   UNL A   1      44.546  26.851  26.723  1.00  0.00     0.164 HD
BRANCH   7  10
ATOM     10  C   UNL A   1      41.300  25.993  26.850  1.00  0.00     0.181 C 
BRANCH  10  11
ATOM     11  N   UNL A   1      40.413  27.137  26.933  1.00  0.00    -0.338 N 
ATOM     12  C   UNL A   1      39.993  27.833  28.023  1.00  0.00     0.279 C 
ATOM     13  O   UNL A   1      39.150  28.716  27.796  1.00  0.00    -0.268 OA
ATOM     14  H   UNL A   1      40.063  27.460  26.070  1.00  0.00     0.164 HD
BRANCH  12  15
ATOM     15  C   UNL A   1      40.399  27.543  29.500  1.00  0.00     0.275 C 
BRANCH  15  16
ATOM     16  N   UNL A   1      41.866  27.454  29.630  1.00  0.00    -0.347 N 
ATOM     17  H   UNL A   1      42.240  28.366  29.891  1.00  0.00     0.345 HD
ATOM     18  H   UNL A   1      42.269  27.163  28.739  1.00  0.00     0.345 HD
ATOM     19  H   UNL A   1      42.102  26.771  30.349  1.00  0.00     0.345 HD
ENDBRANCH  15  16
BRANCH  15  20
ATOM     20  C   UNL A   1      39.628  28.167  30.676  1.00  0.00     0.113 C 
BRANCH  20  21
ATOM     21  C   UNL A   1      39.713  29.616  31.104  1.00  0.00    -0.016 A 
ATOM     22  C   UNL A   1      40.487  30.516  30.384  1.00  0.00     0.087 A 
ATOM     23  C   UNL A   1      39.149  30.380  32.197  1.00  0.00     0.003 A 
ATOM     24  N   UNL A   1      40.503  31.717  31.028  1.00  0.00    -0.361 N 
ATOM     25  C   UNL A   1      39.735  31.651  32.162  1.00  0.00     0.046 A 
ATOM     26  C   UNL A   1      38.272  30.123  33.275  1.00  0.00     0.010 A 
ATOM     27  H   UNL A   1      40.995  32.513  30.724  1.00  0.00     0.166 HD
ATOM     28  C   UNL A   1      39.540  32.623  33.153  1.00  0.00     0.026 A 
ATOM     29  C   UNL A   1      38.095  31.067  34.298  1.00  0.00     0.001 A 
ATOM     30  C   UNL A   1      38.735  32.296  34.244  1.00  0.00     0.002 A 
ENDBRANCH  20  21
ENDBRANCH  15  20
ENDBRANCH  12  15
ENDBRANCH  10  11
BRANCH  10  31
ATOM     31  C   UNL A   1      40.629  24.646  26.527  1.00  0.00     0.101 C 
BRANCH  31  32
ATOM     32  S   UNL A   1      38.996  24.255  27.253  1.00  0.00    -0.177 SA
ATOM     33  H   UNL A   1      39.075  23.084  27.941  1.00  0.00     0.102 HD
ENDBRANCH  31  32
ENDBRANCH  10  31
ENDBRANCH   7  10
ENDBRANCH   5   6
BRANCH   5  34
ATOM     34  C   UNL A   1      44.355  23.757  27.074  1.00  0.00     0.193 C 
BRANCH  34  35
ATOM     35  O   UNL A   1      45.440  22.981  27.583  1.00  0.00    -0.394 OA
ATOM     36  H   UNL A   1      45.091  22.217  28.068  1.00  0.00     0.210 HD
ENDBRANCH  34  35
ENDBRANCH   5  34
ENDBRANCH   3   5
ENDBRANCH   2   3
ENDBRANCH   1   2
BRANCH   1  37
ATOM     37  C   UNL A   1      44.225  25.499  31.925  1.00  0.00     0.202 C 
BRANCH  37  38
ATOM     38  O   UNL A   1      44.626  25.469  33.296  1.00  0.00    -0.374 OA
BRANCH  38  39
ATOM     39  C   UNL A   1      44.715  24.196  33.928  1.00  0.00     0.202 C 
BRANCH  39  40
ATOM     40  C   UNL A   1      43.493  23.682  34.696  1.00  0.00     0.261 C 
BRANCH  40  41
ATOM     41  O   UNL A   1      43.226  24.389  35.914  1.00  0.00    -0.460 OA
BRANCH  41  42
ATOM     42  C   UNL A   1      42.010  24.985  35.967  1.00  0.00     0.338 C 
ATOM     43  O   UNL A   1      40.957  24.495  36.355  1.00  0.00    -0.246 OA
BRANCH  42  44
ATOM     44  C   UNL A   1      42.147  26.406  35.621  1.00  0.00     0.060 A 
ATOM     45  C   UNL A   1      41.282  26.935  34.655  1.00  0.00     0.016 A 
ATOM     46  C   UNL A   1      43.156  27.188  36.187  1.00  0.00     0.016 A 
ATOM     47  C   UNL A   1      41.439  28.252  34.233  1.00  0.00     0.010 A 
ATOM     48  C   UNL A   1      43.317  28.506  35.752  1.00  0.00     0.010 A 
ATOM     49  C   UNL A   1      42.477  29.034  34.757  1.00  0.00    -0.014 A 
BRANCH  49  50
ATOM     50  C   UNL A   1      42.756  30.362  34.167  1.00  0.00     0.031 A 
ATOM     51  C   UNL A   1      43.379  30.437  32.801  1.00  0.00     0.074 A 
ATOM     52  C   UNL A   1      42.431  31.484  34.833  1.00  0.00     0.049 A 
ATOM     53  N   UNL A   1      43.707  31.489  32.098  1.00  0.00    -0.248 NA
ATOM     54  C   UNL A   1      43.668  29.154  32.139  1.00  0.00     0.031 C 
ATOM     55  C   UNL A   1      41.788  31.530  36.146  1.00  0.00     0.029 A 
ATOM     56  N   UNL A   1      42.596  32.802  34.492  1.00  0.00    -0.354 N 
ATOM     57  C   UNL A   1      44.245  30.998  30.914  1.00  0.00     0.074 A 
ATOM     58  C   UNL A   1      44.226  29.554  31.006  1.00  0.00     0.031 C 
ATOM     59  C   UNL A   1      41.612  32.815  36.500  1.00  0.00     0.029 A 
ATOM     60  C   UNL A   1      42.157  33.679  35.456  1.00  0.00     0.049 A 
ATOM     61  H   UNL A   1      42.992  33.093  33.639  1.00  0.00     0.167 HD
ATOM     62  C   UNL A   1      44.706  31.688  29.844  1.00  0.00     0.031 A 
ATOM     63  C   UNL A   1      42.203  35.024  35.494  1.00  0.00     0.031 A 
ATOM     64  C   UNL A   1      44.742  33.124  29.770  1.00  0.00     0.049 A 
ATOM     65  C   UNL A   1      42.787  35.770  34.323  1.00  0.00     0.074 A 
ATOM     66  C   UNL A   1      45.183  33.925  28.731  1.00  0.00     0.029 A 
ATOM     67  N   UNL A   1      44.328  33.977  30.783  1.00  0.00    -0.354 N 
ATOM     68  N   UNL A   1      43.270  35.293  33.200  1.00  0.00    -0.248 NA
ATOM     69  C   UNL A   1      42.827  37.235  34.423  1.00  0.00     0.031 C 
ATOM     70  C   UNL A   1      45.086  35.259  29.138  1.00  0.00     0.029 A 
ATOM     71  C   UNL A   1      44.528  35.294  30.406  1.00  0.00     0.049 A 
ATOM     72  H   UNL A   1      43.947  33.688  31.644  1.00  0.00     0.167 HD
ATOM     73  C   UNL A   1      43.647  36.400  32.448  1.00  0.00     0.074 A 
ATOM     74  C   UNL A   1      43.325  37.570  33.239  1.00  0.00     0.031 C 
ATOM     75  C   UNL A   1      44.206  36.445  31.213  1.00  0.00     0.031 A 
BRANCH  62  76
ATOM     76  C   UNL A   1      45.243  30.890  28.685  1.00  0.00    -0.014 A 
ATOM     77  C   UNL A   1      44.388  30.381  27.690  1.00  0.00     0.010 A 
ATOM     78  C   UNL A   1      46.626  30.654  28.583  1.00  0.00     0.010 A 
ATOM     79  C   UNL A   1      44.901  29.612  26.643  1.00  0.00     0.020 A 
ATOM     80  C   UNL A   1      47.146  29.908  27.522  1.00  0.00     0.020 A 
ATOM     81  C   UNL A   1      46.277  29.373  26.569  1.00  0.00     0.054 A 
BRANCH  81  82
ATOM     82  S   UNL A   1      46.916  28.372  25.198  1.00  0.00     0.124 S 
ATOM     83  O   UNL A   1      46.587  29.202  24.041  1.00  0.00    -0.237 OA
ATOM     84  O   UNL A   1      48.339  28.267  25.512  1.00  0.00    -0.237 OA
ATOM     85  O   UNL A   1      46.164  27.124  25.301  1.00  0.00    -0.744 OA
ENDBRANCH  81  82
ENDBRANCH  62  76
BRANCH  63  86
ATOM     86  C   UNL A   1      41.686  35.750  36.686  1.00  0.00    -0.014 A 
ATOM     87  C   UNL A   1      42.566  36.234  37.669  1.00  0.00     0.010 A 
ATOM     88  C   UNL A   1      40.305  35.980  36.831  1.00  0.00     0.010 A 
ATOM     89  C   UNL A   1      42.075  36.925  38.781  1.00  0.00     0.020 A 
ATOM     90  C   UNL A   1      39.812  36.693  37.928  1.00  0.00     0.020 A 
ATOM     91  C   UNL A   1      40.701  37.153  38.901  1.00  0.00     0.054 A 
BRANCH  91  92
ATOM     92  S   UNL A   1      40.092  38.107  40.320  1.00  0.00     0.124 S 
ATOM     93  O   UNL A   1      38.909  38.756  39.765  1.00  0.00    -0.237 OA
ATOM     94  O   UNL A   1      39.837  37.067  41.313  1.00  0.00    -0.237 OA
ATOM     95  O   UNL A   1      41.206  38.999  40.637  1.00  0.00    -0.744 OA
ENDBRANCH  91  92
ENDBRANCH  63  86
BRANCH  75  96
ATOM     96  C   UNL A   1      44.480  37.805  30.627  1.00  0.00    -0.014 A 
ATOM     97  C   UNL A   1      45.723  38.438  30.803  1.00  0.00     0.010 A 
ATOM     98  C   UNL A   1      43.495  38.432  29.841  1.00  0.00     0.010 A 
ATOM     99  C   UNL A   1      45.965  39.689  30.228  1.00  0.00     0.020 A 
ATOM    100  C   UNL A   1      43.744  39.669  29.242  1.00  0.00     0.020 A 
ATOM    101  C   UNL A   1      44.973  40.296  29.451  1.00  0.00     0.054 A 
BRANCH 101 102
ATOM    102  S   UNL A   1      45.329  41.898  28.678  1.00  0.00     0.124 S 
ATOM    103  O   UNL A   1      45.064  41.621  27.270  1.00  0.00    -0.237 OA
ATOM    104  O   UNL A   1      44.376  42.790  29.334  1.00  0.00    -0.237 OA
ATOM    105  O   UNL A   1      46.732  42.140  29.012  1.00  0.00    -0.744 OA
ENDBRANCH 101 102
ENDBRANCH  75  96
ENDBRANCH  49  50
ENDBRANCH  42  44
ENDBRANCH  41  42
ENDBRANCH  40  41
ENDBRANCH  39  40
ENDBRANCH  38  39
ENDBRANCH  37  38
ENDBRANCH   1  37
TORSDOF 28
ENDMDL
MODEL 2
REMARK VINA RESULT:      -6.0      6.936     11.444
REMARK SMILES [NH3+][C@@H](Cc1c[nH]c2ccccc12)C(=O)N[C@@H](CS)C(=O)N[C@@H](CO)C(=O)OCCOCCOC(=O)c1ccc(-c2c3nc(c(-c4ccc(S(=O)(=O)[O-])cc4)c4ccc([nH]4)c(-c4ccc(S(=O)(=O)[O-])cc4)c4nc(c(-c5ccc(S(=O)(=O)[O-])cc5)c5ccc2[nH]5)C=C4)C=C3)cc1
REMARK SMILES IDX 28 1 27 2 25 3 26 4 22 5 21 6 19 7 20 8 16 10 15 11 13 12
REMARK SMILES IDX 14 13 2 15 1 16 3 20 4 21 5 22 12 23 6 24 7 25 11 26 8 28
REMARK SMILES IDX 10 29 9 30 17 31 18 32 23 34 24 35 29 37 30 38 31 39 32 40
REMARK SMILES IDX 33 41 34 42 35 43 36 44 37 45 95 46 38 47 94 48 39 49 40 50
REMARK SMILES IDX 41 51 88 52 42 53 93 54 87 55 89 56 43 57 92 58 86 59 85 60
REMARK SMILES IDX 44 62 74 63 55 64 73 65 56 66 59 67 72 68 90 69 57 70 58 71
REMARK SMILES IDX 71 73 91 74 60 75 45 76 46 77 54 78 47 79 53 80 48 81 49 82
REMARK SMILES IDX 50 83 51 84 52 85 75 86 76 87 84 88 77 89 83 90 78 91 79 92
REMARK SMILES IDX 80 93 81 94 82 95 61 96 62 97 70 98 63 99 69 100 64 101
REMARK SMILES IDX 65 102 66 103 67 104 68 105
REMARK H PARENT 21 9 15 14 1 17 1 18 1 19 6 27 18 33 24 36 89 61 59 72
REMARK Flexibility Score: inf
ROOT
ATOM      1  C   UNL A   1      32.741  35.726  30.228  1.00  0.00     0.261 C 
ENDROOT
BRANCH   1   2
ATOM      2  O   UNL A   1      32.781  34.478  29.515  1.00  0.00    -0.462 OA
BRANCH   2   3
ATOM      3  C   UNL A   1      33.837  34.328  28.668  1.00  0.00     0.331 C 
ATOM      4  O   UNL A   1      34.550  35.241  28.264  1.00  0.00    -0.250 OA
BRANCH   3   5
ATOM      5  C   UNL A   1      34.084  32.869  28.271  1.00  0.00     0.218 C 
BRANCH   5   6
ATOM      6  N   UNL A   1      33.037  32.220  27.481  1.00  0.00    -0.339 N 
ATOM      7  C   UNL A   1      33.052  30.974  26.938  1.00  0.00     0.244 C 
ATOM      8  O   UNL A   1      32.623  30.892  25.781  1.00  0.00    -0.273 OA
ATOM      9  H   UNL A   1      32.221  32.751  27.326  1.00  0.00     0.164 HD
BRANCH   7  10
ATOM     10  C   UNL A   1      33.649  29.727  27.655  1.00  0.00     0.181 C 
BRANCH  10  11
ATOM     11  N   UNL A   1      32.697  28.660  27.896  1.00  0.00    -0.338 N 
ATOM     12  C   UNL A   1      32.249  27.690  27.056  1.00  0.00     0.279 C 
ATOM     13  O   UNL A   1      31.354  26.963  27.514  1.00  0.00    -0.268 OA
ATOM     14  H   UNL A   1      32.319  28.633  28.806  1.00  0.00     0.164 HD
BRANCH  12  15
ATOM     15  C   UNL A   1      32.689  27.496  25.572  1.00  0.00     0.275 C 
BRANCH  15  16
ATOM     16  N   UNL A   1      33.984  26.794  25.499  1.00  0.00    -0.347 N 
ATOM     17  H   UNL A   1      33.934  25.931  26.041  1.00  0.00     0.345 HD
ATOM     18  H   UNL A   1      34.717  27.392  25.880  1.00  0.00     0.345 HD
ATOM     19  H   UNL A   1      34.197  26.573  24.527  1.00  0.00     0.345 HD
ENDBRANCH  15  16
BRANCH  15  20
ATOM     20  C   UNL A   1      31.661  27.188  24.469  1.00  0.00     0.113 C 
BRANCH  20  21
ATOM     21  C   UNL A   1      31.192  28.170  23.416  1.00  0.00    -0.016 A 
ATOM     22  C   UNL A   1      32.113  28.882  22.661  1.00  0.00     0.087 A 
ATOM     23  C   UNL A   1      29.892  28.614  22.961  1.00  0.00     0.003 A 
ATOM     24  N   UNL A   1      31.456  29.781  21.875  1.00  0.00    -0.361 N 
ATOM     25  C   UNL A   1      30.104  29.675  22.071  1.00  0.00     0.046 A 
ATOM     26  C   UNL A   1      28.545  28.306  23.260  1.00  0.00     0.010 A 
ATOM     27  H   UNL A   1      31.890  30.415  21.259  1.00  0.00     0.166 HD
ATOM     28  C   UNL A   1      29.069  30.454  21.533  1.00  0.00     0.026 A 
ATOM     29  C   UNL A   1      27.499  29.099  22.764  1.00  0.00     0.001 A 
ATOM     30  C   UNL A   1      27.762  30.170  21.923  1.00  0.00     0.002 A 
ENDBRANCH  20  21
ENDBRANCH  15  20
ENDBRANCH  12  15
ENDBRANCH  10  11
BRANCH  10  31
ATOM     31  C   UNL A   1      35.076  29.284  27.290  1.00  0.00     0.101 C 
BRANCH  31  32
ATOM     32  S   UNL A   1      36.427  29.503  28.504  1.00  0.00    -0.177 SA
ATOM     33  H   UNL A   1      37.075  28.319  28.679  1.00  0.00     0.102 HD
ENDBRANCH  31  32
ENDBRANCH  10  31
ENDBRANCH   7  10
ENDBRANCH   5   6
BRANCH   5  34
ATOM     34  C   UNL A   1      35.423  32.792  27.527  1.00  0.00     0.193 C 
BRANCH  34  35
ATOM     35  O   UNL A   1      36.481  33.303  28.337  1.00  0.00    -0.394 OA
ATOM     36  H   UNL A   1      37.267  32.744  28.233  1.00  0.00     0.210 HD
ENDBRANCH  34  35
ENDBRANCH   5  34
ENDBRANCH   3   5
ENDBRANCH   2   3
ENDBRANCH   1   2
BRANCH   1  37
ATOM     37  C   UNL A   1      33.263  35.582  31.663  1.00  0.00     0.202 C 
BRANCH  37  38
ATOM     38  O   UNL A   1      33.176  34.287  32.259  1.00  0.00    -0.374 OA
BRANCH  38  39
ATOM     39  C   UNL A   1      34.394  33.656  32.643  1.00  0.00     0.202 C 
BRANCH  39  40
ATOM     40  C   UNL A   1      34.953  32.551  31.739  1.00  0.00     0.261 C 
BRANCH  40  41
ATOM     41  O   UNL A   1      36.109  31.890  32.269  1.00  0.00    -0.460 OA
BRANCH  41  42
ATOM     42  C   UNL A   1      37.288  32.313  31.752  1.00  0.00     0.338 C 
ATOM     43  O   UNL A   1      37.644  32.277  30.581  1.00  0.00    -0.246 OA
BRANCH  42  44
ATOM     44  C   UNL A   1      38.067  32.985  32.800  1.00  0.00     0.060 A 
ATOM     45  C   UNL A   1      39.024  32.233  33.494  1.00  0.00     0.016 A 
ATOM     46  C   UNL A   1      37.813  34.315  33.142  1.00  0.00     0.016 A 
ATOM     47  C   UNL A   1      39.718  32.808  34.554  1.00  0.00     0.010 A 
ATOM     48  C   UNL A   1      38.503  34.884  34.215  1.00  0.00     0.010 A 
ATOM     49  C   UNL A   1      39.439  34.126  34.940  1.00  0.00    -0.014 A 
BRANCH  49  50
ATOM     50  C   UNL A   1      40.038  34.664  36.182  1.00  0.00     0.031 A 
ATOM     51  C   UNL A   1      41.224  35.581  36.082  1.00  0.00     0.074 A 
ATOM     52  C   UNL A   1      39.509  34.356  37.380  1.00  0.00     0.049 A 
ATOM     53  N   UNL A   1      41.902  36.163  37.036  1.00  0.00    -0.248 NA
ATOM     54  C   UNL A   1      41.709  35.883  34.726  1.00  0.00     0.031 C 
ATOM     55  C   UNL A   1      38.337  33.508  37.593  1.00  0.00     0.029 A 
ATOM     56  N   UNL A   1      39.891  34.726  38.644  1.00  0.00    -0.354 N 
ATOM     57  C   UNL A   1      42.895  36.897  36.398  1.00  0.00     0.074 A 
ATOM     58  C   UNL A   1      42.750  36.663  34.978  1.00  0.00     0.031 C 
ATOM     59  C   UNL A   1      38.095  33.423  38.912  1.00  0.00     0.029 A 
ATOM     60  C   UNL A   1      39.111  34.183  39.636  1.00  0.00     0.049 A 
ATOM     61  H   UNL A   1      40.653  35.323  38.824  1.00  0.00     0.167 HD
ATOM     62  C   UNL A   1      43.839  37.699  36.946  1.00  0.00     0.031 A 
ATOM     63  C   UNL A   1      39.214  34.279  40.975  1.00  0.00     0.031 A 
ATOM     64  C   UNL A   1      43.990  37.908  38.362  1.00  0.00     0.049 A 
ATOM     65  C   UNL A   1      40.316  35.118  41.566  1.00  0.00     0.074 A 
ATOM     66  C   UNL A   1      44.909  38.705  39.023  1.00  0.00     0.029 A 
ATOM     67  N   UNL A   1      43.207  37.307  39.337  1.00  0.00    -0.354 N 
ATOM     68  N   UNL A   1      41.234  35.826  40.949  1.00  0.00    -0.248 NA
ATOM     69  C   UNL A   1      40.393  35.177  43.032  1.00  0.00     0.031 C 
ATOM     70  C   UNL A   1      44.715  38.542  40.399  1.00  0.00     0.029 A 
ATOM     71  C   UNL A   1      43.637  37.693  40.595  1.00  0.00     0.049 A 
ATOM     72  H   UNL A   1      42.455  36.696  39.160  1.00  0.00     0.167 HD
ATOM     73  C   UNL A   1      41.981  36.435  41.952  1.00  0.00     0.074 A 
ATOM     74  C   UNL A   1      41.401  36.021  43.214  1.00  0.00     0.031 C 
ATOM     75  C   UNL A   1      43.049  37.264  41.839  1.00  0.00     0.031 A 
BRANCH  62  76
ATOM     76  C   UNL A   1      44.802  38.376  36.007  1.00  0.00    -0.014 A 
ATOM     77  C   UNL A   1      46.003  37.754  35.621  1.00  0.00     0.010 A 
ATOM     78  C   UNL A   1      44.497  39.650  35.494  1.00  0.00     0.010 A 
ATOM     79  C   UNL A   1      46.902  38.413  34.777  1.00  0.00     0.020 A 
ATOM     80  C   UNL A   1      45.380  40.301  34.628  1.00  0.00     0.020 A 
ATOM     81  C   UNL A   1      46.588  39.686  34.292  1.00  0.00     0.054 A 
BRANCH  81  82
ATOM     82  S   UNL A   1      47.772  40.519  33.199  1.00  0.00     0.124 S 
ATOM     83  O   UNL A   1      47.629  39.751  31.963  1.00  0.00    -0.237 OA
ATOM     84  O   UNL A   1      47.260  41.886  33.152  1.00  0.00    -0.237 OA
ATOM     85  O   UNL A   1      49.050  40.358  33.886  1.00  0.00    -0.744 OA
ENDBRANCH  81  82
ENDBRANCH  62  76
BRANCH  63  86
ATOM     86  C   UNL A   1      38.250  33.555  41.848  1.00  0.00    -0.014 A 
ATOM     87  C   UNL A   1      38.505  32.235  42.259  1.00  0.00     0.010 A 
ATOM     88  C   UNL A   1      37.076  34.194  42.288  1.00  0.00     0.010 A 
ATOM     89  C   UNL A   1      37.600  31.564  43.087  1.00  0.00     0.020 A 
ATOM     90  C   UNL A   1      36.182  33.536  43.138  1.00  0.00     0.020 A 
ATOM     91  C   UNL A   1      36.446  32.221  43.525  1.00  0.00     0.054 A 
BRANCH  91  92
ATOM     92  S   UNL A   1      35.317  31.352  44.650  1.00  0.00     0.124 S 
ATOM     93  O   UNL A   1      34.139  31.160  43.810  1.00  0.00    -0.237 OA
ATOM     94  O   UNL A   1      36.067  30.142  44.976  1.00  0.00    -0.237 OA
ATOM     95  O   UNL A   1      35.151  32.290  45.759  1.00  0.00    -0.744 OA
ENDBRANCH  91  92
ENDBRANCH  63  86
BRANCH  75  96
ATOM     96  C   UNL A   1      43.643  37.803  43.113  1.00  0.00    -0.014 A 
ATOM     97  C   UNL A   1      43.235  39.040  43.642  1.00  0.00     0.010 A 
ATOM     98  C   UNL A   1      44.585  37.031  43.819  1.00  0.00     0.010 A 
ATOM     99  C   UNL A   1      43.781  39.509  44.841  1.00  0.00     0.020 A 
ATOM    100  C   UNL A   1      45.111  37.484  45.031  1.00  0.00     0.020 A 
ATOM    101  C   UNL A   1      44.715  38.728  45.527  1.00  0.00     0.054 A 
BRANCH 101 102
ATOM    102  S   UNL A   1      45.374  39.338  47.103  1.00  0.00     0.124 S 
ATOM    103  O   UNL A   1      44.269  39.069  48.018  1.00  0.00    -0.237 OA
ATOM    104  O   UNL A   1      46.564  38.514  47.295  1.00  0.00    -0.237 OA
ATOM    105  O   UNL A   1      45.638  40.753  46.844  1.00  0.00    -0.744 OA
ENDBRANCH 101 102
ENDBRANCH  75  96
ENDBRANCH  49  50
ENDBRANCH  42  44
ENDBRANCH  41  42
ENDBRANCH  40  41
ENDBRANCH  39  40
ENDBRANCH  38  39
ENDBRANCH  37  38
ENDBRANCH   1  37
TORSDOF 28
ENDMDL
MODEL 3
REMARK VINA RESULT:      -5.8      4.296     11.108
REMARK SMILES [NH3+][C@@H](Cc1c[nH]c2ccccc12)C(=O)N[C@@H](CS)C(=O)N[C@@H](CO)C(=O)OCCOCCOC(=O)c1ccc(-c2c3nc(c(-c4ccc(S(=O)(=O)[O-])cc4)c4ccc([nH]4)c(-c4ccc(S(=O)(=O)[O-])cc4)c4nc(c(-c5ccc(S(=O)(=O)[O-])cc5)c5ccc2[nH]5)C=C4)C=C3)cc1
REMARK SMILES IDX 28 1 27 2 25 3 26 4 22 5 21 6 19 7 20 8 16 10 15 11 13 12
REMARK SMILES IDX 14 13 2 15 1 16 3 20 4 21 5 22 12 23 6 24 7 25 11 26 8 28
REMARK SMILES IDX 10 29 9 30 17 31 18 32 23 34 24 35 29 37 30 38 31 39 32 40
REMARK SMILES IDX 33 41 34 42 35 43 36 44 37 45 95 46 38 47 94 48 39 49 40 50
REMARK SMILES IDX 41 51 88 52 42 53 93 54 87 55 89 56 43 57 92 58 86 59 85 60
REMARK SMILES IDX 44 62 74 63 55 64 73 65 56 66 59 67 72 68 90 69 57 70 58 71
REMARK SMILES IDX 71 73 91 74 60 75 45 76 46 77 54 78 47 79 53 80 48 81 49 82
REMARK SMILES IDX 50 83 51 84 52 85 75 86 76 87 84 88 77 89 83 90 78 91 79 92
REMARK SMILES IDX 80 93 81 94 82 95 61 96 62 97 70 98 63 99 69 100 64 101
REMARK SMILES IDX 65 102 66 103 67 104 68 105
REMARK H PARENT 21 9 15 14 1 17 1 18 1 19 6 27 18 33 24 36 89 61 59 72
REMARK Flexibility Score: inf
ROOT
ATOM      1  C   UNL A   1      34.311  34.724  32.200  1.00  0.00     0.261 C 
ENDROOT
BRANCH   1   2
ATOM      2  O   UNL A   1      35.676  34.521  32.605  1.00  0.00    -0.462 OA
BRANCH   2   3
ATOM      3  C   UNL A   1      35.923  33.344  33.244  1.00  0.00     0.331 C 
ATOM      4  O   UNL A   1      35.341  32.288  33.022  1.00  0.00    -0.250 OA
BRANCH   3   5
ATOM      5  C   UNL A   1      37.046  33.450  34.282  1.00  0.00     0.218 C 
BRANCH   5   6
ATOM      6  N   UNL A   1      38.123  34.395  33.984  1.00  0.00    -0.339 N 
ATOM      7  C   UNL A   1      39.463  34.188  34.075  1.00  0.00     0.244 C 
ATOM      8  O   UNL A   1      40.111  35.110  34.585  1.00  0.00    -0.273 OA
ATOM      9  H   UNL A   1      37.842  35.289  33.679  1.00  0.00     0.164 HD
BRANCH   7  10
ATOM     10  C   UNL A   1      40.161  32.858  33.665  1.00  0.00     0.181 C 
BRANCH  10  11
ATOM     11  N   UNL A   1      39.316  31.683  33.757  1.00  0.00    -0.338 N 
ATOM     12  C   UNL A   1      39.635  30.411  34.116  1.00  0.00     0.279 C 
ATOM     13  O   UNL A   1      38.715  29.584  34.011  1.00  0.00    -0.268 OA
ATOM     14  H   UNL A   1      38.370  31.828  33.526  1.00  0.00     0.164 HD
BRANCH  12  15
ATOM     15  C   UNL A   1      41.051  29.910  34.537  1.00  0.00     0.275 C 
BRANCH  15  16
ATOM     16  N   UNL A   1      41.196  29.930  36.005  1.00  0.00    -0.347 N 
ATOM     17  H   UNL A   1      41.282  28.975  36.351  1.00  0.00     0.345 HD
ATOM     18  H   UNL A   1      40.376  30.370  36.421  1.00  0.00     0.345 HD
ATOM     19  H   UNL A   1      42.030  30.459  36.256  1.00  0.00     0.345 HD
ENDBRANCH  15  16
BRANCH  15  20
ATOM     20  C   UNL A   1      41.751  28.770  33.778  1.00  0.00     0.113 C 
BRANCH  20  21
ATOM     21  C   UNL A   1      42.774  27.825  34.373  1.00  0.00    -0.016 A 
ATOM     22  C   UNL A   1      44.108  28.200  34.459  1.00  0.00     0.087 A 
ATOM     23  C   UNL A   1      42.712  26.485  34.916  1.00  0.00     0.003 A 
ATOM     24  N   UNL A   1      44.845  27.147  34.912  1.00  0.00    -0.361 N 
ATOM     25  C   UNL A   1      44.030  26.072  35.154  1.00  0.00     0.046 A 
ATOM     26  C   UNL A   1      41.702  25.526  35.156  1.00  0.00     0.010 A 
ATOM     27  H   UNL A   1      45.821  27.158  35.044  1.00  0.00     0.166 HD
ATOM     28  C   UNL A   1      44.375  24.772  35.548  1.00  0.00     0.026 A 
ATOM     29  C   UNL A   1      42.030  24.209  35.511  1.00  0.00     0.001 A 
ATOM     30  C   UNL A   1      43.354  23.835  35.689  1.00  0.00     0.002 A 
ENDBRANCH  20  21
ENDBRANCH  15  20
ENDBRANCH  12  15
ENDBRANCH  10  11
BRANCH  10  31
ATOM     31  C   UNL A   1      41.151  32.881  32.487  1.00  0.00     0.101 C 
BRANCH  31  32
ATOM     32  S   UNL A   1      42.943  33.044  32.818  1.00  0.00    -0.177 SA
ATOM     33  H   UNL A   1      43.130  33.465  34.098  1.00  0.00     0.102 HD
ENDBRANCH  31  32
ENDBRANCH  10  31
ENDBRANCH   7  10
ENDBRANCH   5   6
BRANCH   5  34
ATOM     34  C   UNL A   1      36.417  33.785  35.640  1.00  0.00     0.193 C 
BRANCH  34  35
ATOM     35  O   UNL A   1      35.031  34.088  35.495  1.00  0.00    -0.394 OA
ATOM     36  H   UNL A   1      34.729  34.596  36.264  1.00  0.00     0.210 HD
ENDBRANCH  34  35
ENDBRANCH   5  34
ENDBRANCH   3   5
ENDBRANCH   2   3
ENDBRANCH   1   2
BRANCH   1  37
ATOM     37  C   UNL A   1      34.120  34.494  30.697  1.00  0.00     0.202 C 
BRANCH  37  38
ATOM     38  O   UNL A   1      35.296  34.480  29.886  1.00  0.00    -0.374 OA
BRANCH  38  39
ATOM     39  C   UNL A   1      35.419  33.438  28.923  1.00  0.00     0.202 C 
BRANCH  39  40
ATOM     40  C   UNL A   1      36.654  32.533  28.990  1.00  0.00     0.261 C 
BRANCH  40  41
ATOM     41  O   UNL A   1      36.642  31.607  30.085  1.00  0.00    -0.460 OA
BRANCH  41  42
ATOM     42  C   UNL A   1      36.902  30.322  29.741  1.00  0.00     0.338 C 
ATOM     43  O   UNL A   1      36.100  29.404  29.630  1.00  0.00    -0.246 OA
BRANCH  42  44
ATOM     44  C   UNL A   1      38.314  30.195  29.358  1.00  0.00     0.060 A 
ATOM     45  C   UNL A   1      38.609  29.781  28.053  1.00  0.00     0.016 A 
ATOM     46  C   UNL A   1      39.333  30.412  30.288  1.00  0.00     0.016 A 
ATOM     47  C   UNL A   1      39.931  29.561  27.678  1.00  0.00     0.010 A 
ATOM     48  C   UNL A   1      40.657  30.178  29.912  1.00  0.00     0.010 A 
ATOM     49  C   UNL A   1      40.959  29.728  28.616  1.00  0.00    -0.014 A 
BRANCH  49  50
ATOM     50  C   UNL A   1      42.336  29.308  28.269  1.00  0.00     0.031 A 
ATOM     51  C   UNL A   1      42.596  27.865  27.935  1.00  0.00     0.074 A 
ATOM     52  C   UNL A   1      43.331  30.211  28.226  1.00  0.00     0.049 A 
ATOM     53  N   UNL A   1      43.718  27.283  27.605  1.00  0.00    -0.248 NA
ATOM     54  C   UNL A   1      41.435  26.962  27.979  1.00  0.00     0.031 C 
ATOM     55  C   UNL A   1      43.186  31.642  28.493  1.00  0.00     0.029 A 
ATOM     56  N   UNL A   1      44.663  30.055  27.939  1.00  0.00    -0.354 N 
ATOM     57  C   UNL A   1      43.401  25.944  27.405  1.00  0.00     0.074 A 
ATOM     58  C   UNL A   1      41.989  25.795  27.680  1.00  0.00     0.031 C 
ATOM     59  C   UNL A   1      44.385  32.234  28.355  1.00  0.00     0.029 A 
ATOM     60  C   UNL A   1      45.384  31.222  28.023  1.00  0.00     0.049 A 
ATOM     61  H   UNL A   1      45.065  29.189  27.696  1.00  0.00     0.167 HD
ATOM     62  C   UNL A   1      44.214  24.931  27.019  1.00  0.00     0.031 A 
ATOM     63  C   UNL A   1      46.703  31.443  27.863  1.00  0.00     0.031 A 
ATOM     64  C   UNL A   1      45.623  25.083  26.770  1.00  0.00     0.049 A 
ATOM     65  C   UNL A   1      47.601  30.288  27.507  1.00  0.00     0.074 A 
ATOM     66  C   UNL A   1      46.537  24.124  26.370  1.00  0.00     0.029 A 
ATOM     67  N   UNL A   1      46.325  26.272  26.908  1.00  0.00    -0.354 N 
ATOM     68  N   UNL A   1      47.284  29.032  27.297  1.00  0.00    -0.248 NA
ATOM     69  C   UNL A   1      49.033  30.582  27.359  1.00  0.00     0.031 C 
ATOM     70  C   UNL A   1      47.800  24.722  26.319  1.00  0.00     0.029 A 
ATOM     71  C   UNL A   1      47.665  26.067  26.627  1.00  0.00     0.049 A 
ATOM     72  H   UNL A   1      45.928  27.135  27.167  1.00  0.00     0.167 HD
ATOM     73  C   UNL A   1      48.472  28.390  26.967  1.00  0.00     0.074 A 
ATOM     74  C   UNL A   1      49.512  29.399  26.993  1.00  0.00     0.031 C 
ATOM     75  C   UNL A   1      48.685  27.085  26.666  1.00  0.00     0.031 A 
BRANCH  62  76
ATOM     76  C   UNL A   1      43.598  23.564  26.884  1.00  0.00    -0.014 A 
ATOM     77  C   UNL A   1      43.287  23.025  25.622  1.00  0.00     0.010 A 
ATOM     78  C   UNL A   1      43.336  22.800  28.036  1.00  0.00     0.010 A 
ATOM     79  C   UNL A   1      42.682  21.770  25.517  1.00  0.00     0.020 A 
ATOM     80  C   UNL A   1      42.756  21.532  27.935  1.00  0.00     0.020 A 
ATOM     81  C   UNL A   1      42.413  21.034  26.676  1.00  0.00     0.054 A 
BRANCH  81  82
ATOM     82  S   UNL A   1      41.628  19.407  26.512  1.00  0.00     0.124 S 
ATOM     83  O   UNL A   1      42.526  18.734  25.575  1.00  0.00    -0.237 OA
ATOM     84  O   UNL A   1      41.654  18.898  27.881  1.00  0.00    -0.237 OA
ATOM     85  O   UNL A   1      40.300  19.714  25.989  1.00  0.00    -0.744 OA
ENDBRANCH  81  82
ENDBRANCH  62  76
BRANCH  63  86
ATOM     86  C   UNL A   1      47.253  32.814  28.046  1.00  0.00    -0.014 A 
ATOM     87  C   UNL A   1      47.354  33.698  26.957  1.00  0.00     0.010 A 
ATOM     88  C   UNL A   1      47.660  33.251  29.320  1.00  0.00     0.010 A 
ATOM     89  C   UNL A   1      47.861  34.989  27.138  1.00  0.00     0.020 A 
ATOM     90  C   UNL A   1      48.142  34.549  29.510  1.00  0.00     0.020 A 
ATOM     91  C   UNL A   1      48.248  35.407  28.414  1.00  0.00     0.054 A 
BRANCH  91  92
ATOM     92  S   UNL A   1      48.843  37.107  28.635  1.00  0.00     0.124 S 
ATOM     93  O   UNL A   1      50.265  36.900  28.892  1.00  0.00    -0.237 OA
ATOM     94  O   UNL A   1      48.514  37.725  27.354  1.00  0.00    -0.237 OA
ATOM     95  O   UNL A   1      48.065  37.597  29.772  1.00  0.00    -0.744 OA
ENDBRANCH  91  92
ENDBRANCH  63  86
BRANCH  75  96
ATOM     96  C   UNL A   1      50.090  26.676  26.312  1.00  0.00    -0.014 A 
ATOM     97  C   UNL A   1      50.585  26.821  25.004  1.00  0.00     0.010 A 
ATOM     98  C   UNL A   1      50.945  26.192  27.320  1.00  0.00     0.010 A 
ATOM     99  C   UNL A   1      51.902  26.460  24.704  1.00  0.00     0.020 A 
ATOM    100  C   UNL A   1      52.270  25.857  27.029  1.00  0.00     0.020 A 
ATOM    101  C   UNL A   1      52.735  25.981  25.719  1.00  0.00     0.054 A 
BRANCH 101 102
ATOM    102  S   UNL A   1      54.453  25.563  25.313  1.00  0.00     0.124 S 
ATOM    103  O   UNL A   1      54.539  25.961  23.911  1.00  0.00    -0.237 OA
ATOM    104  O   UNL A   1      55.214  26.387  26.249  1.00  0.00    -0.237 OA
ATOM    105  O   UNL A   1      54.527  24.123  25.557  1.00  0.00    -0.744 OA
ENDBRANCH 101 102
ENDBRANCH  75  96
ENDBRANCH  49  50
ENDBRANCH  42  44
ENDBRANCH  41  42
ENDBRANCH  40  41
ENDBRANCH  39  40
ENDBRANCH  38  39
ENDBRANCH  37  38
ENDBRANCH   1  37
TORSDOF 28
ENDMDL
