MODEL 1
REMARK VINA RESULT:     -11.0      0.000      0.000
REMARK SMILES COc1ccc(Cl)c(NS(=O)(=O)c2ccc(C)c(C(=O)OCCOCCOC(=O)c3ccc(-c4c5nc(c(-c6ccc(S(=O)(=O)[O-])cc6)c6ccc([nH]6)c(-c6ccc(S(=O)(=O)[O-])cc6)c6nc(c(-c7ccc(S(=O)(=O)[O-])cc7)c7ccc4[nH]7)C=C6)C=C5)cc3)c2)c1
REMARK SMILES IDX 23 1 22 2 21 3 19 4 20 5 18 6 13 7 14 8 90 9 15 10 16 11
REMARK SMILES IDX 17 12 10 13 11 14 12 15 9 16 8 18 3 19 4 20 91 21 5 22 6 23
REMARK SMILES IDX 7 24 2 25 1 26 24 27 25 28 26 29 27 30 28 31 29 32 30 33
REMARK SMILES IDX 31 34 89 35 32 36 88 37 33 38 34 39 35 40 82 41 36 42 87 43
REMARK SMILES IDX 81 44 83 45 37 46 86 47 80 48 79 49 38 51 68 52 49 53 67 54
REMARK SMILES IDX 50 55 53 56 66 57 84 58 51 59 52 60 65 62 85 63 54 64 39 65
REMARK SMILES IDX 40 66 48 67 41 68 47 69 42 70 43 71 44 72 45 73 46 74 69 75
REMARK SMILES IDX 70 76 78 77 71 78 77 79 72 80 73 81 74 82 75 83 76 84 55 85
REMARK SMILES IDX 56 86 64 87 57 88 63 89 58 90 59 91 60 92 61 93 62 94
REMARK H PARENT 9 17 83 50 53 61
REMARK Flexibility Score: inf
ROOT
ATOM      1  C   UNL A   1      34.334  21.064  26.507  1.00  0.00     0.202 C 
ENDROOT
BRANCH   1   2
ATOM      2  C   UNL A   1      32.939  21.434  26.088  1.00  0.00     0.261 C 
BRANCH   2   3
ATOM      3  O   UNL A   1      32.799  22.771  25.606  1.00  0.00    -0.460 OA
BRANCH   3   4
ATOM      4  C   UNL A   1      31.918  23.541  26.272  1.00  0.00     0.338 C 
ATOM      5  O   UNL A   1      31.744  23.577  27.472  1.00  0.00    -0.246 OA
BRANCH   4   6
ATOM      6  C   UNL A   1      31.224  24.418  25.284  1.00  0.00     0.064 A 
ATOM      7  C   UNL A   1      31.505  25.606  23.200  1.00  0.00     0.088 A 
ATOM      8  C   UNL A   1      30.282  26.252  23.384  1.00  0.00     0.022 A 
ATOM      9  C   UNL A   1      31.934  24.624  24.092  1.00  0.00     0.038 A 
ATOM     10  C   UNL A   1      29.519  25.968  24.517  1.00  0.00     0.006 A 
ATOM     11  C   UNL A   1      29.985  25.074  25.496  1.00  0.00    -0.036 A 
ATOM     12  C   UNL A   1      29.136  24.893  26.732  1.00  0.00     0.045 C 
BRANCH   7  13
ATOM     13  S   UNL A   1      32.600  26.119  21.909  1.00  0.00     0.261 S 
ATOM     14  O   UNL A   1      31.884  25.974  20.656  1.00  0.00    -0.201 OA
ATOM     15  O   UNL A   1      33.867  25.446  22.093  1.00  0.00    -0.201 OA
BRANCH  13  16
ATOM     16  N   UNL A   1      32.866  27.797  22.101  1.00  0.00    -0.278 N 
ATOM     17  H   UNL A   1      33.137  28.328  21.318  1.00  0.00     0.180 HD
BRANCH  16  18
ATOM     18  C   UNL A   1      32.707  28.466  23.384  1.00  0.00     0.071 A 
ATOM     19  C   UNL A   1      33.371  28.802  25.691  1.00  0.00     0.121 A 
ATOM     20  C   UNL A   1      32.292  29.641  25.916  1.00  0.00     0.048 A 
ATOM     21  C   UNL A   1      33.525  28.157  24.467  1.00  0.00     0.074 A 
ATOM     22  C   UNL A   1      31.373  29.857  24.890  1.00  0.00     0.026 A 
ATOM     23  C   UNL A   1      31.593  29.292  23.627  1.00  0.00     0.065 A 
ATOM     24  Cl  UNL A   1      30.436  29.596  22.379  1.00  0.00    -0.082 Cl
BRANCH  19  25
ATOM     25  O   UNL A   1      34.384  28.731  26.600  1.00  0.00    -0.497 OA
ATOM     26  C   UNL A   1      34.591  29.949  27.300  1.00  0.00     0.278 C 
ENDBRANCH  19  25
ENDBRANCH  16  18
ENDBRANCH  13  16
ENDBRANCH   7  13
ENDBRANCH   4   6
ENDBRANCH   3   4
ENDBRANCH   2   3
ENDBRANCH   1   2
BRANCH   1  27
ATOM     27  O   UNL A   1      35.186  22.147  26.137  1.00  0.00    -0.374 OA
BRANCH  27  28
ATOM     28  C   UNL A   1      36.430  21.775  25.575  1.00  0.00     0.202 C 
BRANCH  28  29
ATOM     29  C   UNL A   1      37.534  22.831  25.736  1.00  0.00     0.261 C 
BRANCH  29  30
ATOM     30  O   UNL A   1      38.839  22.213  25.754  1.00  0.00    -0.460 OA
BRANCH  30  31
ATOM     31  C   UNL A   1      39.636  22.504  26.826  1.00  0.00     0.338 C 
ATOM     32  O   UNL A   1      40.229  21.661  27.475  1.00  0.00    -0.246 OA
BRANCH  31  33
ATOM     33  C   UNL A   1      39.737  23.981  27.018  1.00  0.00     0.060 A 
ATOM     34  C   UNL A   1      40.397  24.809  26.093  1.00  0.00     0.016 A 
ATOM     35  C   UNL A   1      39.303  24.518  28.225  1.00  0.00     0.016 A 
ATOM     36  C   UNL A   1      40.745  26.131  26.436  1.00  0.00     0.010 A 
ATOM     37  C   UNL A   1      39.730  25.774  28.595  1.00  0.00     0.010 A 
ATOM     38  C   UNL A   1      40.467  26.594  27.719  1.00  0.00    -0.014 A 
BRANCH  38  39
ATOM     39  C   UNL A   1      40.927  27.840  28.347  1.00  0.00     0.031 A 
ATOM     40  C   UNL A   1      39.912  28.904  28.565  1.00  0.00     0.074 A 
ATOM     41  C   UNL A   1      42.101  27.909  29.030  1.00  0.00     0.049 A 
ATOM     42  N   UNL A   1      40.185  30.076  29.017  1.00  0.00    -0.248 NA
ATOM     43  C   UNL A   1      38.486  28.742  28.276  1.00  0.00     0.031 C 
ATOM     44  C   UNL A   1      42.422  28.771  30.169  1.00  0.00     0.029 A 
ATOM     45  N   UNL A   1      43.304  27.224  28.825  1.00  0.00    -0.354 N 
ATOM     46  C   UNL A   1      39.006  30.646  29.432  1.00  0.00     0.074 A 
ATOM     47  C   UNL A   1      37.970  29.828  28.857  1.00  0.00     0.031 C 
ATOM     48  C   UNL A   1      43.752  28.785  30.362  1.00  0.00     0.029 A 
ATOM     49  C   UNL A   1      44.355  28.043  29.271  1.00  0.00     0.049 A 
ATOM     50  H   UNL A   1      43.398  26.325  28.436  1.00  0.00     0.167 HD
ATOM     51  C   UNL A   1      39.062  31.672  30.325  1.00  0.00     0.031 A 
ATOM     52  C   UNL A   1      45.340  28.453  28.423  1.00  0.00     0.031 A 
ATOM     53  C   UNL A   1      40.454  32.033  30.633  1.00  0.00     0.049 A 
ATOM     54  C   UNL A   1      45.283  29.950  28.262  1.00  0.00     0.074 A 
ATOM     55  C   UNL A   1      41.270  31.892  31.743  1.00  0.00     0.029 A 
ATOM     56  N   UNL A   1      41.303  32.361  29.586  1.00  0.00    -0.354 N 
ATOM     57  N   UNL A   1      44.337  30.662  28.811  1.00  0.00    -0.248 NA
ATOM     58  C   UNL A   1      46.206  30.782  27.501  1.00  0.00     0.031 C 
ATOM     59  C   UNL A   1      42.618  32.132  31.339  1.00  0.00     0.029 A 
ATOM     60  C   UNL A   1      42.616  32.468  29.997  1.00  0.00     0.049 A 
ATOM     61  H   UNL A   1      41.004  32.502  28.658  1.00  0.00     0.167 HD
ATOM     62  C   UNL A   1      44.485  31.975  28.526  1.00  0.00     0.074 A 
ATOM     63  C   UNL A   1      45.650  32.003  27.652  1.00  0.00     0.031 C 
ATOM     64  C   UNL A   1      43.626  32.901  29.037  1.00  0.00     0.031 A 
BRANCH  51  65
ATOM     65  C   UNL A   1      37.876  32.246  31.072  1.00  0.00    -0.014 A 
ATOM     66  C   UNL A   1      37.088  33.234  30.448  1.00  0.00     0.010 A 
ATOM     67  C   UNL A   1      37.473  31.866  32.368  1.00  0.00     0.010 A 
ATOM     68  C   UNL A   1      35.988  33.830  31.082  1.00  0.00     0.020 A 
ATOM     69  C   UNL A   1      36.383  32.464  33.025  1.00  0.00     0.020 A 
ATOM     70  C   UNL A   1      35.643  33.442  32.372  1.00  0.00     0.054 A 
BRANCH  70  71
ATOM     71  S   UNL A   1      34.202  34.203  33.162  1.00  0.00     0.124 S 
ATOM     72  O   UNL A   1      33.272  33.081  33.264  1.00  0.00    -0.237 OA
ATOM     73  O   UNL A   1      34.755  34.680  34.426  1.00  0.00    -0.237 OA
ATOM     74  O   UNL A   1      33.805  35.251  32.224  1.00  0.00    -0.744 OA
ENDBRANCH  70  71
ENDBRANCH  51  65
BRANCH  52  75
ATOM     75  C   UNL A   1      45.695  27.382  27.434  1.00  0.00    -0.014 A 
ATOM     76  C   UNL A   1      46.287  26.212  27.975  1.00  0.00     0.010 A 
ATOM     77  C   UNL A   1      44.960  27.259  26.240  1.00  0.00     0.010 A 
ATOM     78  C   UNL A   1      45.967  24.942  27.472  1.00  0.00     0.020 A 
ATOM     79  C   UNL A   1      44.637  25.983  25.736  1.00  0.00     0.020 A 
ATOM     80  C   UNL A   1      45.089  24.835  26.394  1.00  0.00     0.054 A 
BRANCH  80  81
ATOM     81  S   UNL A   1      44.350  23.201  26.041  1.00  0.00     0.124 S 
ATOM     82  O   UNL A   1      45.475  22.297  26.248  1.00  0.00    -0.237 OA
ATOM     83  O   UNL A   1      43.282  23.103  27.037  1.00  0.00    -0.237 OA
ATOM     84  O   UNL A   1      43.885  23.330  24.664  1.00  0.00    -0.744 OA
ENDBRANCH  80  81
ENDBRANCH  52  75
BRANCH  64  85
ATOM     85  C   UNL A   1      43.647  34.339  28.635  1.00  0.00    -0.014 A 
ATOM     86  C   UNL A   1      43.212  35.366  29.477  1.00  0.00     0.010 A 
ATOM     87  C   UNL A   1      44.082  34.687  27.337  1.00  0.00     0.010 A 
ATOM     88  C   UNL A   1      43.343  36.700  29.088  1.00  0.00     0.020 A 
ATOM     89  C   UNL A   1      44.183  36.008  26.925  1.00  0.00     0.020 A 
ATOM     90  C   UNL A   1      43.854  37.010  27.824  1.00  0.00     0.054 A 
BRANCH  90  91
ATOM     91  S   UNL A   1      44.078  38.739  27.367  1.00  0.00     0.124 S 
ATOM     92  O   UNL A   1      44.244  39.389  28.664  1.00  0.00    -0.237 OA
ATOM     93  O   UNL A   1      45.278  38.673  26.538  1.00  0.00    -0.237 OA
ATOM     94  O   UNL A   1      42.845  39.075  26.658  1.00  0.00    -0.744 OA
ENDBRANCH  90  91
ENDBRANCH  64  85
ENDBRANCH  38  39
ENDBRANCH  31  33
ENDBRANCH  30  31
ENDBRANCH  29  30
ENDBRANCH  28  29
ENDBRANCH  27  28
ENDBRANCH   1  27
TORSDOF 21
ENDMDL
MODEL 2
REMARK VINA RESULT:     -10.4      1.343      2.354
REMARK SMILES COc1ccc(Cl)c(NS(=O)(=O)c2ccc(C)c(C(=O)OCCOCCOC(=O)c3ccc(-c4c5nc(c(-c6ccc(S(=O)(=O)[O-])cc6)c6ccc([nH]6)c(-c6ccc(S(=O)(=O)[O-])cc6)c6nc(c(-c7ccc(S(=O)(=O)[O-])cc7)c7ccc4[nH]7)C=C6)C=C5)cc3)c2)c1
REMARK SMILES IDX 23 1 22 2 21 3 19 4 20 5 18 6 13 7 14 8 90 9 15 10 16 11
REMARK SMILES IDX 17 12 10 13 11 14 12 15 9 16 8 18 3 19 4 20 91 21 5 22 6 23
REMARK SMILES IDX 7 24 2 25 1 26 24 27 25 28 26 29 27 30 28 31 29 32 30 33
REMARK SMILES IDX 31 34 89 35 32 36 88 37 33 38 34 39 35 40 82 41 36 42 87 43
REMARK SMILES IDX 81 44 83 45 37 46 86 47 80 48 79 49 38 51 68 52 49 53 67 54
REMARK SMILES IDX 50 55 53 56 66 57 84 58 51 59 52 60 65 62 85 63 54 64 39 65
REMARK SMILES IDX 40 66 48 67 41 68 47 69 42 70 43 71 44 72 45 73 46 74 69 75
REMARK SMILES IDX 70 76 78 77 71 78 77 79 72 80 73 81 74 82 75 83 76 84 55 85
REMARK SMILES IDX 56 86 64 87 57 88 63 89 58 90 59 91 60 92 61 93 62 94
REMARK H PARENT 9 17 83 50 53 61
REMARK Flexibility Score: inf
ROOT
ATOM      1  C   UNL A   1      33.866  23.186  27.120  1.00  0.00     0.202 C 
ENDROOT
BRANCH   1   2
ATOM      2  C   UNL A   1      32.567  23.614  26.500  1.00  0.00     0.261 C 
BRANCH   2   3
ATOM      3  O   UNL A   1      32.406  25.028  26.376  1.00  0.00    -0.460 OA
BRANCH   3   4
ATOM      4  C   UNL A   1      31.136  25.475  26.395  1.00  0.00     0.338 C 
ATOM      5  O   UNL A   1      30.149  24.848  26.721  1.00  0.00    -0.246 OA
BRANCH   4   6
ATOM      6  C   UNL A   1      31.142  26.918  26.017  1.00  0.00     0.064 A 
ATOM      7  C   UNL A   1      30.706  28.460  24.211  1.00  0.00     0.088 A 
ATOM      8  C   UNL A   1      31.280  29.503  24.939  1.00  0.00     0.022 A 
ATOM      9  C   UNL A   1      30.548  27.196  24.778  1.00  0.00     0.038 A 
ATOM     10  C   UNL A   1      31.774  29.254  26.220  1.00  0.00     0.006 A 
ATOM     11  C   UNL A   1      31.742  27.961  26.768  1.00  0.00    -0.036 A 
ATOM     12  C   UNL A   1      32.378  27.765  28.124  1.00  0.00     0.045 C 
BRANCH   7  13
ATOM     13  S   UNL A   1      30.293  28.685  22.505  1.00  0.00     0.261 S 
ATOM     14  O   UNL A   1      30.420  30.101  22.216  1.00  0.00    -0.201 OA
ATOM     15  O   UNL A   1      29.040  28.010  22.248  1.00  0.00    -0.201 OA
BRANCH  13  16
ATOM     16  N   UNL A   1      31.505  27.911  21.581  1.00  0.00    -0.278 N 
ATOM     17  H   UNL A   1      31.656  28.205  20.653  1.00  0.00     0.180 HD
BRANCH  16  18
ATOM     18  C   UNL A   1      32.319  26.830  22.117  1.00  0.00     0.071 A 
ATOM     19  C   UNL A   1      32.658  24.480  22.606  1.00  0.00     0.121 A 
ATOM     20  C   UNL A   1      33.821  24.757  23.305  1.00  0.00     0.048 A 
ATOM     21  C   UNL A   1      31.875  25.511  22.094  1.00  0.00     0.074 A 
ATOM     22  C   UNL A   1      34.217  26.084  23.467  1.00  0.00     0.026 A 
ATOM     23  C   UNL A   1      33.482  27.110  22.858  1.00  0.00     0.065 A 
ATOM     24  Cl  UNL A   1      34.016  28.741  23.072  1.00  0.00    -0.082 Cl
BRANCH  19  25
ATOM     25  O   UNL A   1      32.357  23.196  22.261  1.00  0.00    -0.497 OA
ATOM     26  C   UNL A   1      32.147  22.353  23.384  1.00  0.00     0.278 C 
ENDBRANCH  19  25
ENDBRANCH  16  18
ENDBRANCH  13  16
ENDBRANCH   7  13
ENDBRANCH   4   6
ENDBRANCH   3   4
ENDBRANCH   2   3
ENDBRANCH   1   2
BRANCH   1  27
ATOM     27  O   UNL A   1      34.903  23.514  26.196  1.00  0.00    -0.374 OA
BRANCH  27  28
ATOM     28  C   UNL A   1      36.037  22.671  26.232  1.00  0.00     0.202 C 
BRANCH  28  29
ATOM     29  C   UNL A   1      37.337  23.343  25.763  1.00  0.00     0.261 C 
BRANCH  29  30
ATOM     30  O   UNL A   1      38.434  22.402  25.766  1.00  0.00    -0.460 OA
BRANCH  30  31
ATOM     31  C   UNL A   1      39.464  22.672  26.623  1.00  0.00     0.338 C 
ATOM     32  O   UNL A   1      40.189  21.815  27.097  1.00  0.00    -0.246 OA
BRANCH  31  33
ATOM     33  C   UNL A   1      39.617  24.144  26.813  1.00  0.00     0.060 A 
ATOM     34  C   UNL A   1      40.307  24.947  25.887  1.00  0.00     0.016 A 
ATOM     35  C   UNL A   1      39.200  24.699  28.018  1.00  0.00     0.016 A 
ATOM     36  C   UNL A   1      40.702  26.256  26.228  1.00  0.00     0.010 A 
ATOM     37  C   UNL A   1      39.671  25.940  28.386  1.00  0.00     0.010 A 
ATOM     38  C   UNL A   1      40.438  26.731  27.510  1.00  0.00    -0.014 A 
BRANCH  38  39
ATOM     39  C   UNL A   1      40.941  27.961  28.136  1.00  0.00     0.031 A 
ATOM     40  C   UNL A   1      39.940  29.003  28.484  1.00  0.00     0.074 A 
ATOM     41  C   UNL A   1      42.172  28.023  28.711  1.00  0.00     0.049 A 
ATOM     42  N   UNL A   1      40.241  30.163  28.950  1.00  0.00    -0.248 NA
ATOM     43  C   UNL A   1      38.495  28.831  28.323  1.00  0.00     0.031 C 
ATOM     44  C   UNL A   1      42.588  28.850  29.845  1.00  0.00     0.029 A 
ATOM     45  N   UNL A   1      43.359  27.362  28.372  1.00  0.00    -0.354 N 
ATOM     46  C   UNL A   1      39.100  30.702  29.492  1.00  0.00     0.074 A 
ATOM     47  C   UNL A   1      38.023  29.890  28.987  1.00  0.00     0.031 C 
ATOM     48  C   UNL A   1      43.930  28.875  29.915  1.00  0.00     0.029 A 
ATOM     49  C   UNL A   1      44.438  28.180  28.748  1.00  0.00     0.049 A 
ATOM     50  H   UNL A   1      43.426  26.478  27.944  1.00  0.00     0.167 HD
ATOM     51  C   UNL A   1      39.227  31.698  30.412  1.00  0.00     0.031 A 
ATOM     52  C   UNL A   1      45.335  28.632  27.827  1.00  0.00     0.031 A 
ATOM     53  C   UNL A   1      40.638  32.067  30.602  1.00  0.00     0.049 A 
ATOM     54  C   UNL A   1      45.249  30.132  27.726  1.00  0.00     0.074 A 
ATOM     55  C   UNL A   1      41.554  31.899  31.627  1.00  0.00     0.029 A 
ATOM     56  N   UNL A   1      41.382  32.442  29.494  1.00  0.00    -0.354 N 
ATOM     57  N   UNL A   1      44.350  30.812  28.384  1.00  0.00    -0.248 NA
ATOM     58  C   UNL A   1      46.089  31.003  26.912  1.00  0.00     0.031 C 
ATOM     59  C   UNL A   1      42.857  32.171  31.109  1.00  0.00     0.029 A 
ATOM     60  C   UNL A   1      42.726  32.553  29.786  1.00  0.00     0.049 A 
ATOM     61  H   UNL A   1      40.998  32.610  28.603  1.00  0.00     0.167 HD
ATOM     62  C   UNL A   1      44.457  32.136  28.133  1.00  0.00     0.074 A 
ATOM     63  C   UNL A   1      45.536  32.210  27.157  1.00  0.00     0.031 C 
ATOM     64  C   UNL A   1      43.639  33.033  28.753  1.00  0.00     0.031 A 
BRANCH  51  65
ATOM     65  C   UNL A   1      38.110  32.229  31.284  1.00  0.00    -0.014 A 
ATOM     66  C   UNL A   1      37.872  33.618  31.321  1.00  0.00     0.010 A 
ATOM     67  C   UNL A   1      37.256  31.439  32.079  1.00  0.00     0.010 A 
ATOM     68  C   UNL A   1      36.871  34.189  32.121  1.00  0.00     0.020 A 
ATOM     69  C   UNL A   1      36.259  31.995  32.900  1.00  0.00     0.020 A 
ATOM     70  C   UNL A   1      36.070  33.371  32.911  1.00  0.00     0.054 A 
BRANCH  70  71
ATOM     71  S   UNL A   1      34.765  34.126  33.914  1.00  0.00     0.124 S 
ATOM     72  O   UNL A   1      33.610  33.286  33.608  1.00  0.00    -0.237 OA
ATOM     73  O   UNL A   1      35.298  33.996  35.267  1.00  0.00    -0.237 OA
ATOM     74  O   UNL A   1      34.685  35.494  33.408  1.00  0.00    -0.744 OA
ENDBRANCH  70  71
ENDBRANCH  51  65
BRANCH  52  75
ATOM     75  C   UNL A   1      45.609  27.600  26.773  1.00  0.00    -0.014 A 
ATOM     76  C   UNL A   1      46.456  26.530  27.160  1.00  0.00     0.010 A 
ATOM     77  C   UNL A   1      44.655  27.358  25.766  1.00  0.00     0.010 A 
ATOM     78  C   UNL A   1      46.210  25.220  26.724  1.00  0.00     0.020 A 
ATOM     79  C   UNL A   1      44.407  26.041  25.330  1.00  0.00     0.020 A 
ATOM     80  C   UNL A   1      45.142  24.976  25.861  1.00  0.00     0.054 A 
BRANCH  80  81
ATOM     81  S   UNL A   1      44.571  23.252  25.659  1.00  0.00     0.124 S 
ATOM     82  O   UNL A   1      44.915  22.968  24.270  1.00  0.00    -0.237 OA
ATOM     83  O   UNL A   1      45.362  22.526  26.655  1.00  0.00    -0.237 OA
ATOM     84  O   UNL A   1      43.144  23.329  25.956  1.00  0.00    -0.744 OA
ENDBRANCH  80  81
ENDBRANCH  52  75
BRANCH  64  85
ATOM     85  C   UNL A   1      43.608  34.483  28.401  1.00  0.00    -0.014 A 
ATOM     86  C   UNL A   1      43.669  34.944  27.083  1.00  0.00     0.010 A 
ATOM     87  C   UNL A   1      43.554  35.444  29.436  1.00  0.00     0.010 A 
ATOM     88  C   UNL A   1      43.540  36.305  26.805  1.00  0.00     0.020 A 
ATOM     89  C   UNL A   1      43.461  36.803  29.173  1.00  0.00     0.020 A 
ATOM     90  C   UNL A   1      43.408  37.221  27.853  1.00  0.00     0.054 A 
BRANCH  90  91
ATOM     91  S   UNL A   1      43.173  38.966  27.469  1.00  0.00     0.124 S 
ATOM     92  O   UNL A   1      43.327  39.600  28.775  1.00  0.00    -0.237 OA
ATOM     93  O   UNL A   1      44.255  39.209  26.520  1.00  0.00    -0.237 OA
ATOM     94  O   UNL A   1      41.825  39.022  26.908  1.00  0.00    -0.744 OA
ENDBRANCH  90  91
ENDBRANCH  64  85
ENDBRANCH  38  39
ENDBRANCH  31  33
ENDBRANCH  30  31
ENDBRANCH  29  30
ENDBRANCH  28  29
ENDBRANCH  27  28
ENDBRANCH   1  27
TORSDOF 21
ENDMDL
MODEL 3
REMARK VINA RESULT:     -10.1      5.260     10.666
REMARK SMILES COc1ccc(Cl)c(NS(=O)(=O)c2ccc(C)c(C(=O)OCCOCCOC(=O)c3ccc(-c4c5nc(c(-c6ccc(S(=O)(=O)[O-])cc6)c6ccc([nH]6)c(-c6ccc(S(=O)(=O)[O-])cc6)c6nc(c(-c7ccc(S(=O)(=O)[O-])cc7)c7ccc4[nH]7)C=C6)C=C5)cc3)c2)c1
REMARK SMILES IDX 23 1 22 2 21 3 19 4 20 5 18 6 13 7 14 8 90 9 15 10 16 11
REMARK SMILES IDX 17 12 10 13 11 14 12 15 9 16 8 18 3 19 4 20 91 21 5 22 6 23
REMARK SMILES IDX 7 24 2 25 1 26 24 27 25 28 26 29 27 30 28 31 29 32 30 33
REMARK SMILES IDX 31 34 89 35 32 36 88 37 33 38 34 39 35 40 82 41 36 42 87 43
REMARK SMILES IDX 81 44 83 45 37 46 86 47 80 48 79 49 38 51 68 52 49 53 67 54
REMARK SMILES IDX 50 55 53 56 66 57 84 58 51 59 52 60 65 62 85 63 54 64 39 65
REMARK SMILES IDX 40 66 48 67 41 68 47 69 42 70 43 71 44 72 45 73 46 74 69 75
REMARK SMILES IDX 70 76 78 77 71 78 77 79 72 80 73 81 74 82 75 83 76 84 55 85
REMARK SMILES IDX 56 86 64 87 57 88 63 89 58 90 59 91 60 92 61 93 62 94
REMARK H PARENT 9 17 83 50 53 61
REMARK Flexibility Score: inf
ROOT
ATOM      1  C   UNL A   1      39.559  30.241  32.783  1.00  0.00     0.202 C 
ENDROOT
BRANCH   1   2
ATOM      2  C   UNL A   1      40.252  29.821  34.048  1.00  0.00     0.261 C 
BRANCH   2   3
ATOM      3  O   UNL A   1      39.604  30.245  35.248  1.00  0.00    -0.460 OA
BRANCH   3   4
ATOM      4  C   UNL A   1      40.216  31.238  35.922  1.00  0.00     0.338 C 
ATOM      5  O   UNL A   1      40.962  31.122  36.872  1.00  0.00    -0.246 OA
BRANCH   4   6
ATOM      6  C   UNL A   1      39.884  32.530  35.252  1.00  0.00     0.064 A 
ATOM      7  C   UNL A   1      38.066  33.867  34.393  1.00  0.00     0.088 A 
ATOM      8  C   UNL A   1      38.971  34.745  33.797  1.00  0.00     0.022 A 
ATOM      9  C   UNL A   1      38.513  32.819  35.197  1.00  0.00     0.038 A 
ATOM     10  C   UNL A   1      40.341  34.523  33.942  1.00  0.00     0.006 A 
ATOM     11  C   UNL A   1      40.820  33.402  34.643  1.00  0.00    -0.036 A 
ATOM     12  C   UNL A   1      42.316  33.192  34.675  1.00  0.00     0.045 C 
BRANCH   7  13
ATOM     13  S   UNL A   1      36.339  33.982  34.028  1.00  0.00     0.261 S 
ATOM     14  O   UNL A   1      36.092  35.325  33.539  1.00  0.00    -0.201 OA
ATOM     15  O   UNL A   1      35.599  33.487  35.168  1.00  0.00    -0.201 OA
BRANCH  13  16
ATOM     16  N   UNL A   1      36.025  32.942  32.709  1.00  0.00    -0.278 N 
ATOM     17  H   UNL A   1      36.044  31.968  32.856  1.00  0.00     0.180 HD
BRANCH  16  18
ATOM     18  C   UNL A   1      35.735  33.445  31.375  1.00  0.00     0.071 A 
ATOM     19  C   UNL A   1      34.156  34.205  29.698  1.00  0.00     0.121 A 
ATOM     20  C   UNL A   1      35.152  34.262  28.737  1.00  0.00     0.048 A 
ATOM     21  C   UNL A   1      34.430  33.721  30.974  1.00  0.00     0.074 A 
ATOM     22  C   UNL A   1      36.443  33.855  29.069  1.00  0.00     0.026 A 
ATOM     23  C   UNL A   1      36.736  33.472  30.385  1.00  0.00     0.065 A 
ATOM     24  Cl  UNL A   1      38.353  32.988  30.759  1.00  0.00    -0.082 Cl
BRANCH  19  25
ATOM     25  O   UNL A   1      32.943  34.780  29.462  1.00  0.00    -0.497 OA
ATOM     26  C   UNL A   1      32.930  36.176  29.717  1.00  0.00     0.278 C 
ENDBRANCH  19  25
ENDBRANCH  16  18
ENDBRANCH  13  16
ENDBRANCH   7  13
ENDBRANCH   4   6
ENDBRANCH   3   4
ENDBRANCH   2   3
ENDBRANCH   1   2
BRANCH   1  27
ATOM     27  O   UNL A   1      38.855  29.102  32.289  1.00  0.00    -0.374 OA
BRANCH  27  28
ATOM     28  C   UNL A   1      37.445  29.209  32.299  1.00  0.00     0.202 C 
BRANCH  28  29
ATOM     29  C   UNL A   1      36.820  29.408  30.910  1.00  0.00     0.261 C 
BRANCH  29  30
ATOM     30  O   UNL A   1      37.782  29.964  29.986  1.00  0.00    -0.460 OA
BRANCH  30  31
ATOM     31  C   UNL A   1      37.912  29.325  28.785  1.00  0.00     0.338 C 
ATOM     32  O   UNL A   1      36.989  28.772  28.212  1.00  0.00    -0.246 OA
BRANCH  31  33
ATOM     33  C   UNL A   1      39.298  29.481  28.254  1.00  0.00     0.060 A 
ATOM     34  C   UNL A   1      39.676  28.971  26.999  1.00  0.00     0.016 A 
ATOM     35  C   UNL A   1      40.270  30.005  29.098  1.00  0.00     0.016 A 
ATOM     36  C   UNL A   1      41.038  28.857  26.653  1.00  0.00     0.010 A 
ATOM     37  C   UNL A   1      41.600  29.803  28.799  1.00  0.00     0.010 A 
ATOM     38  C   UNL A   1      42.006  29.215  27.587  1.00  0.00    -0.014 A 
BRANCH  38  39
ATOM     39  C   UNL A   1      43.455  28.979  27.518  1.00  0.00     0.031 A 
ATOM     40  C   UNL A   1      44.298  30.087  26.998  1.00  0.00     0.074 A 
ATOM     41  C   UNL A   1      44.053  27.977  28.216  1.00  0.00     0.049 A 
ATOM     42  N   UNL A   1      45.564  29.993  26.795  1.00  0.00    -0.248 NA
ATOM     43  C   UNL A   1      43.779  31.410  26.645  1.00  0.00     0.031 C 
ATOM     44  C   UNL A   1      45.412  27.955  28.759  1.00  0.00     0.029 A 
ATOM     45  N   UNL A   1      43.568  26.713  28.573  1.00  0.00    -0.354 N 
ATOM     46  C   UNL A   1      46.062  31.268  26.679  1.00  0.00     0.074 A 
ATOM     47  C   UNL A   1      44.907  32.107  26.487  1.00  0.00     0.031 C 
ATOM     48  C   UNL A   1      45.741  26.696  29.098  1.00  0.00     0.029 A 
ATOM     49  C   UNL A   1      44.661  25.834  28.659  1.00  0.00     0.049 A 
ATOM     50  H   UNL A   1      42.625  26.480  28.735  1.00  0.00     0.167 HD
ATOM     51  C   UNL A   1      47.392  31.466  26.893  1.00  0.00     0.031 A 
ATOM     52  C   UNL A   1      44.740  24.727  27.867  1.00  0.00     0.031 A 
ATOM     53  C   UNL A   1      48.083  30.194  27.153  1.00  0.00     0.049 A 
ATOM     54  C   UNL A   1      45.917  24.852  26.934  1.00  0.00     0.074 A 
ATOM     55  C   UNL A   1      48.660  29.614  28.270  1.00  0.00     0.029 A 
ATOM     56  N   UNL A   1      47.971  29.174  26.220  1.00  0.00    -0.354 N 
ATOM     57  N   UNL A   1      46.641  25.936  26.887  1.00  0.00    -0.248 NA
ATOM     58  C   UNL A   1      46.388  23.852  25.984  1.00  0.00     0.031 C 
ATOM     59  C   UNL A   1      48.882  28.232  27.991  1.00  0.00     0.029 A 
ATOM     60  C   UNL A   1      48.486  27.983  26.689  1.00  0.00     0.049 A 
ATOM     61  H   UNL A   1      47.571  29.286  25.327  1.00  0.00     0.167 HD
ATOM     62  C   UNL A   1      47.632  25.823  25.975  1.00  0.00     0.074 A 
ATOM     63  C   UNL A   1      47.406  24.509  25.390  1.00  0.00     0.031 C 
ATOM     64  C   UNL A   1      48.533  26.830  25.795  1.00  0.00     0.031 A 
BRANCH  51  65
ATOM     65  C   UNL A   1      48.059  32.815  27.052  1.00  0.00    -0.014 A 
ATOM     66  C   UNL A   1      49.169  33.130  26.240  1.00  0.00     0.010 A 
ATOM     67  C   UNL A   1      47.658  33.818  27.958  1.00  0.00     0.010 A 
ATOM     68  C   UNL A   1      49.854  34.349  26.344  1.00  0.00     0.020 A 
ATOM     69  C   UNL A   1      48.343  35.038  28.086  1.00  0.00     0.020 A 
ATOM     70  C   UNL A   1      49.437  35.298  27.271  1.00  0.00     0.054 A 
BRANCH  70  71
ATOM     71  S   UNL A   1      50.319  36.877  27.368  1.00  0.00     0.124 S 
ATOM     72  O   UNL A   1      51.700  36.451  27.579  1.00  0.00    -0.237 OA
ATOM     73  O   UNL A   1      50.037  37.471  26.064  1.00  0.00    -0.237 OA
ATOM     74  O   UNL A   1      49.700  37.553  28.505  1.00  0.00    -0.744 OA
ENDBRANCH  70  71
ENDBRANCH  51  65
BRANCH  52  75
ATOM     75  C   UNL A   1      43.392  24.105  27.654  1.00  0.00    -0.014 A 
ATOM     76  C   UNL A   1      43.042  23.832  26.308  1.00  0.00     0.010 A 
ATOM     77  C   UNL A   1      42.826  23.299  28.662  1.00  0.00     0.010 A 
ATOM     78  C   UNL A   1      42.340  22.666  25.966  1.00  0.00     0.020 A 
ATOM     79  C   UNL A   1      42.124  22.127  28.317  1.00  0.00     0.020 A 
ATOM     80  C   UNL A   1      41.944  21.787  26.973  1.00  0.00     0.054 A 
BRANCH  80  81
ATOM     81  S   UNL A   1      41.437  20.097  26.494  1.00  0.00     0.124 S 
ATOM     82  O   UNL A   1      40.036  20.280  26.133  1.00  0.00    -0.237 OA
ATOM     83  O   UNL A   1      42.332  19.792  25.376  1.00  0.00    -0.237 OA
ATOM     84  O   UNL A   1      41.684  19.314  27.700  1.00  0.00    -0.744 OA
ENDBRANCH  80  81
ENDBRANCH  52  75
BRANCH  64  85
ATOM     85  C   UNL A   1      49.550  26.826  24.702  1.00  0.00    -0.014 A 
ATOM     86  C   UNL A   1      49.214  26.999  23.356  1.00  0.00     0.010 A 
ATOM     87  C   UNL A   1      50.907  26.598  25.021  1.00  0.00     0.010 A 
ATOM     88  C   UNL A   1      50.212  27.082  22.385  1.00  0.00     0.020 A 
ATOM     89  C   UNL A   1      51.906  26.643  24.059  1.00  0.00     0.020 A 
ATOM     90  C   UNL A   1      51.554  26.932  22.750  1.00  0.00     0.054 A 
BRANCH  90  91
ATOM     91  S   UNL A   1      52.832  27.111  21.492  1.00  0.00     0.124 S 
ATOM     92  O   UNL A   1      52.298  26.323  20.385  1.00  0.00    -0.237 OA
ATOM     93  O   UNL A   1      52.843  28.557  21.287  1.00  0.00    -0.237 OA
ATOM     94  O   UNL A   1      54.026  26.560  22.127  1.00  0.00    -0.744 OA
ENDBRANCH  90  91
ENDBRANCH  64  85
ENDBRANCH  38  39
ENDBRANCH  31  33
ENDBRANCH  30  31
ENDBRANCH  29  30
ENDBRANCH  28  29
ENDBRANCH  27  28
ENDBRANCH   1  27
TORSDOF 21
ENDMDL
