MODEL 1
REMARK VINA RESULT:     -11.4      0.000      0.000
REMARK SMILES CN1C(=O)/C(=C\c2ccc(-c3ccccc3C(=O)OCCOCCOC(=O)c3ccc(-c4c5nc(c(-c6ccc(S(=O)(=O)[O-])cc6)c6ccc([nH]6)c(-c6ccc(S(=O)(=O)[O-])cc6)c6nc(c(-c7ccc(S(=O)(=O)[O-])cc7)c7ccc4[nH]7)C=C6)C=C5)cc3)o2)C(=O)[NH+]=C1S
REMARK SMILES IDX 22 1 21 2 20 3 19 4 17 5 18 6 16 7 11 8 12 9 13 10 15 11
REMARK SMILES IDX 14 12 10 13 7 14 8 15 88 16 9 17 6 18 1 19 2 20 3 21 92 22
REMARK SMILES IDX 4 23 5 24 91 25 89 26 90 28 93 29 23 31 24 32 25 33 26 34
REMARK SMILES IDX 27 35 28 36 29 37 87 38 30 39 86 40 31 41 32 42 33 43 80 44
REMARK SMILES IDX 34 45 85 46 79 47 81 48 35 49 84 50 78 51 77 52 36 54 66 55
REMARK SMILES IDX 47 56 65 57 48 58 51 59 64 60 82 61 49 62 50 63 63 65 83 66
REMARK SMILES IDX 52 67 37 68 38 69 46 70 39 71 45 72 40 73 41 74 42 75 43 76
REMARK SMILES IDX 44 77 67 78 68 79 76 80 69 81 75 82 70 83 71 84 72 85 73 86
REMARK SMILES IDX 74 87 53 88 54 89 62 90 55 91 61 92 56 93 57 94 58 95 59 96
REMARK SMILES IDX 60 97
REMARK H PARENT 91 27 93 30 81 53 51 64
REMARK Flexibility Score: inf
ROOT
ATOM      1  O   UNL A   1      34.493  30.929  27.314  1.00  0.00    -0.374 OA
ENDROOT
BRANCH   1   2
ATOM      2  C   UNL A   1      33.581  29.828  27.330  1.00  0.00     0.202 C 
BRANCH   2   3
ATOM      3  C   UNL A   1      33.881  28.685  26.361  1.00  0.00     0.261 C 
BRANCH   3   4
ATOM      4  O   UNL A   1      33.127  27.527  26.735  1.00  0.00    -0.460 OA
BRANCH   4   5
ATOM      5  C   UNL A   1      31.786  27.661  26.799  1.00  0.00     0.338 C 
ATOM      6  O   UNL A   1      31.136  27.975  27.783  1.00  0.00    -0.246 OA
BRANCH   5   7
ATOM      7  C   UNL A   1      31.190  27.553  25.441  1.00  0.00     0.071 A 
ATOM      8  C   UNL A   1      30.627  26.386  24.891  1.00  0.00     0.032 A 
ATOM      9  C   UNL A   1      30.078  26.470  23.593  1.00  0.00     0.013 A 
ATOM     10  C   UNL A   1      30.121  27.656  22.853  1.00  0.00     0.001 A 
ATOM     11  C   UNL A   1      31.246  28.738  24.679  1.00  0.00     0.016 A 
ATOM     12  C   UNL A   1      30.722  28.787  23.389  1.00  0.00     0.001 A 
BRANCH   8  13
ATOM     13  C   UNL A   1      30.567  25.101  25.584  1.00  0.00     0.135 A 
ATOM     14  C   UNL A   1      31.196  22.985  25.830  1.00  0.00     0.128 A 
ATOM     15  C   UNL A   1      30.318  23.285  26.862  1.00  0.00     0.051 A 
ATOM     16  O   UNL A   1      31.396  24.127  25.097  1.00  0.00    -0.457 OA
ATOM     17  C   UNL A   1      29.859  24.602  26.654  1.00  0.00     0.051 A 
BRANCH  14  18
ATOM     18  C   UNL A   1      31.746  21.724  25.491  1.00  0.00     0.071 C 
ATOM     19  C   UNL A   1      36.289  23.344  26.075  1.00  0.00     0.301 C 
ATOM     20  N   UNL A   1      35.347  22.283  25.727  1.00  0.00    -0.189 N 
ATOM     21  C   UNL A   1      34.041  22.469  26.118  1.00  0.00     0.349 C 
ATOM     22  C   UNL A   1      35.723  21.083  25.177  1.00  0.00     0.318 C 
ATOM     23  O   UNL A   1      33.714  23.326  26.935  1.00  0.00    -0.240 OA
ATOM     24  C   UNL A   1      33.074  21.500  25.553  1.00  0.00     0.157 C 
ATOM     25  N   UNL A   1      34.934  20.119  24.867  1.00  0.00    -0.200 N 
ATOM     26  C   UNL A   1      33.582  20.225  25.008  1.00  0.00     0.347 C 
ATOM     27  H   UNL A   1      35.314  19.280  24.518  1.00  0.00     0.316 HD
ATOM     28  O   UNL A   1      32.814  19.320  24.694  1.00  0.00    -0.241 OA
BRANCH  22  29
ATOM     29  S   UNL A   1      37.426  20.792  24.906  1.00  0.00    -0.055 SA
ATOM     30  H   UNL A   1      38.156  21.524  25.790  1.00  0.00     0.116 HD
ENDBRANCH  22  29
ENDBRANCH  14  18
ENDBRANCH   8  13
ENDBRANCH   5   7
ENDBRANCH   4   5
ENDBRANCH   3   4
ENDBRANCH   2   3
ENDBRANCH   1   2
BRANCH   1  31
ATOM     31  C   UNL A   1      34.170  32.073  28.104  1.00  0.00     0.202 C 
BRANCH  31  32
ATOM     32  C   UNL A   1      34.956  32.291  29.404  1.00  0.00     0.261 C 
BRANCH  32  33
ATOM     33  O   UNL A   1      35.737  31.160  29.816  1.00  0.00    -0.460 OA
BRANCH  33  34
ATOM     34  C   UNL A   1      36.821  31.474  30.568  1.00  0.00     0.338 C 
ATOM     35  O   UNL A   1      36.847  32.173  31.568  1.00  0.00    -0.246 OA
BRANCH  34  36
ATOM     36  C   UNL A   1      37.999  30.716  30.110  1.00  0.00     0.060 A 
ATOM     37  C   UNL A   1      38.949  30.350  31.072  1.00  0.00     0.016 A 
ATOM     38  C   UNL A   1      38.227  30.469  28.756  1.00  0.00     0.016 A 
ATOM     39  C   UNL A   1      40.153  29.773  30.677  1.00  0.00     0.010 A 
ATOM     40  C   UNL A   1      39.441  29.892  28.360  1.00  0.00     0.010 A 
ATOM     41  C   UNL A   1      40.422  29.571  29.316  1.00  0.00    -0.014 A 
BRANCH  41  42
ATOM     42  C   UNL A   1      41.775  29.128  28.899  1.00  0.00     0.031 A 
ATOM     43  C   UNL A   1      42.912  30.116  28.895  1.00  0.00     0.074 A 
ATOM     44  C   UNL A   1      41.995  27.844  28.561  1.00  0.00     0.049 A 
ATOM     45  N   UNL A   1      44.166  29.930  28.574  1.00  0.00    -0.248 NA
ATOM     46  C   UNL A   1      42.595  31.492  29.310  1.00  0.00     0.031 C 
ATOM     47  C   UNL A   1      40.985  26.785  28.563  1.00  0.00     0.029 A 
ATOM     48  N   UNL A   1      43.143  27.212  28.153  1.00  0.00    -0.354 N 
ATOM     49  C   UNL A   1      44.786  31.166  28.731  1.00  0.00     0.074 A 
ATOM     50  C   UNL A   1      43.764  32.098  29.154  1.00  0.00     0.031 C 
ATOM     51  C   UNL A   1      41.559  25.635  28.173  1.00  0.00     0.029 A 
ATOM     52  C   UNL A   1      42.966  25.882  27.860  1.00  0.00     0.049 A 
ATOM     53  H   UNL A   1      44.011  27.670  28.078  1.00  0.00     0.167 HD
ATOM     54  C   UNL A   1      46.087  31.494  28.541  1.00  0.00     0.031 A 
ATOM     55  C   UNL A   1      43.832  24.970  27.377  1.00  0.00     0.031 A 
ATOM     56  C   UNL A   1      47.099  30.564  28.112  1.00  0.00     0.049 A 
ATOM     57  C   UNL A   1      45.261  25.373  27.120  1.00  0.00     0.074 A 
ATOM     58  C   UNL A   1      48.452  30.793  27.925  1.00  0.00     0.029 A 
ATOM     59  N   UNL A   1      46.871  29.236  27.788  1.00  0.00    -0.354 N 
ATOM     60  N   UNL A   1      45.838  26.534  27.315  1.00  0.00    -0.248 NA
ATOM     61  C   UNL A   1      46.158  24.337  26.587  1.00  0.00     0.031 C 
ATOM     62  C   UNL A   1      49.028  29.622  27.423  1.00  0.00     0.029 A 
ATOM     63  C   UNL A   1      48.051  28.642  27.368  1.00  0.00     0.049 A 
ATOM     64  H   UNL A   1      46.001  28.781  27.849  1.00  0.00     0.167 HD
ATOM     65  C   UNL A   1      47.170  26.362  26.953  1.00  0.00     0.074 A 
ATOM     66  C   UNL A   1      47.317  24.979  26.546  1.00  0.00     0.031 C 
ATOM     67  C   UNL A   1      48.182  27.265  26.957  1.00  0.00     0.031 A 
BRANCH  54  68
ATOM     68  C   UNL A   1      46.488  32.930  28.759  1.00  0.00    -0.014 A 
ATOM     69  C   UNL A   1      46.900  33.396  30.021  1.00  0.00     0.010 A 
ATOM     70  C   UNL A   1      46.507  33.817  27.666  1.00  0.00     0.010 A 
ATOM     71  C   UNL A   1      47.291  34.728  30.191  1.00  0.00     0.020 A 
ATOM     72  C   UNL A   1      46.925  35.140  27.825  1.00  0.00     0.020 A 
ATOM     73  C   UNL A   1      47.303  35.592  29.091  1.00  0.00     0.054 A 
BRANCH  73  74
ATOM     74  S   UNL A   1      47.849  37.304  29.333  1.00  0.00     0.124 S 
ATOM     75  O   UNL A   1      46.578  38.006  29.497  1.00  0.00    -0.237 OA
ATOM     76  O   UNL A   1      48.672  37.210  30.536  1.00  0.00    -0.237 OA
ATOM     77  O   UNL A   1      48.578  37.616  28.106  1.00  0.00    -0.744 OA
ENDBRANCH  73  74
ENDBRANCH  54  68
BRANCH  55  78
ATOM     78  C   UNL A   1      43.364  23.589  27.077  1.00  0.00    -0.014 A 
ATOM     79  C   UNL A   1      43.156  23.166  25.752  1.00  0.00     0.010 A 
ATOM     80  C   UNL A   1      43.120  22.686  28.129  1.00  0.00     0.010 A 
ATOM     81  C   UNL A   1      42.697  21.872  25.487  1.00  0.00     0.020 A 
ATOM     82  C   UNL A   1      42.693  21.383  27.866  1.00  0.00     0.020 A 
ATOM     83  C   UNL A   1      42.473  20.988  26.547  1.00  0.00     0.054 A 
BRANCH  83  84
ATOM     84  S   UNL A   1      41.931  19.296  26.179  1.00  0.00     0.124 S 
ATOM     85  O   UNL A   1      42.294  18.589  27.402  1.00  0.00    -0.237 OA
ATOM     86  O   UNL A   1      40.499  19.469  25.947  1.00  0.00    -0.237 OA
ATOM     87  O   UNL A   1      42.708  18.941  24.994  1.00  0.00    -0.744 OA
ENDBRANCH  83  84
ENDBRANCH  55  78
BRANCH  67  88
ATOM     88  C   UNL A   1      49.548  26.783  26.536  1.00  0.00    -0.014 A 
ATOM     89  C   UNL A   1      50.445  26.223  27.463  1.00  0.00     0.010 A 
ATOM     90  C   UNL A   1      49.922  26.854  25.181  1.00  0.00     0.010 A 
ATOM     91  C   UNL A   1      51.705  25.782  27.050  1.00  0.00     0.020 A 
ATOM     92  C   UNL A   1      51.168  26.384  24.758  1.00  0.00     0.020 A 
ATOM     93  C   UNL A   1      52.059  25.866  25.700  1.00  0.00     0.054 A 
BRANCH  93  94
ATOM     94  S   UNL A   1      53.690  25.262  25.186  1.00  0.00     0.124 S 
ATOM     95  O   UNL A   1      53.491  23.815  25.187  1.00  0.00    -0.237 OA
ATOM     96  O   UNL A   1      53.858  25.874  23.869  1.00  0.00    -0.237 OA
ATOM     97  O   UNL A   1      54.589  25.767  26.221  1.00  0.00    -0.744 OA
ENDBRANCH  93  94
ENDBRANCH  67  88
ENDBRANCH  41  42
ENDBRANCH  34  36
ENDBRANCH  33  34
ENDBRANCH  32  33
ENDBRANCH  31  32
ENDBRANCH   1  31
TORSDOF 20
ENDMDL
MODEL 2
REMARK VINA RESULT:     -11.1      5.761      7.792
REMARK SMILES CN1C(=O)/C(=C\c2ccc(-c3ccccc3C(=O)OCCOCCOC(=O)c3ccc(-c4c5nc(c(-c6ccc(S(=O)(=O)[O-])cc6)c6ccc([nH]6)c(-c6ccc(S(=O)(=O)[O-])cc6)c6nc(c(-c7ccc(S(=O)(=O)[O-])cc7)c7ccc4[nH]7)C=C6)C=C5)cc3)o2)C(=O)[NH+]=C1S
REMARK SMILES IDX 22 1 21 2 20 3 19 4 17 5 18 6 16 7 11 8 12 9 13 10 15 11
REMARK SMILES IDX 14 12 10 13 7 14 8 15 88 16 9 17 6 18 1 19 2 20 3 21 92 22
REMARK SMILES IDX 4 23 5 24 91 25 89 26 90 28 93 29 23 31 24 32 25 33 26 34
REMARK SMILES IDX 27 35 28 36 29 37 87 38 30 39 86 40 31 41 32 42 33 43 80 44
REMARK SMILES IDX 34 45 85 46 79 47 81 48 35 49 84 50 78 51 77 52 36 54 66 55
REMARK SMILES IDX 47 56 65 57 48 58 51 59 64 60 82 61 49 62 50 63 63 65 83 66
REMARK SMILES IDX 52 67 37 68 38 69 46 70 39 71 45 72 40 73 41 74 42 75 43 76
REMARK SMILES IDX 44 77 67 78 68 79 76 80 69 81 75 82 70 83 71 84 72 85 73 86
REMARK SMILES IDX 74 87 53 88 54 89 62 90 55 91 61 92 56 93 57 94 58 95 59 96
REMARK SMILES IDX 60 97
REMARK H PARENT 91 27 93 30 81 53 51 64
REMARK Flexibility Score: inf
ROOT
ATOM      1  O   UNL A   1      34.494  30.763  27.956  1.00  0.00    -0.374 OA
ENDROOT
BRANCH   1   2
ATOM      2  C   UNL A   1      34.628  29.381  27.620  1.00  0.00     0.202 C 
BRANCH   2   3
ATOM      3  C   UNL A   1      34.349  29.005  26.166  1.00  0.00     0.261 C 
BRANCH   3   4
ATOM      4  O   UNL A   1      33.208  28.142  26.101  1.00  0.00    -0.460 OA
BRANCH   4   5
ATOM      5  C   UNL A   1      33.135  27.299  25.050  1.00  0.00     0.338 C 
ATOM      6  O   UNL A   1      33.895  26.374  24.809  1.00  0.00    -0.246 OA
BRANCH   5   7
ATOM      7  C   UNL A   1      31.876  27.523  24.292  1.00  0.00     0.071 A 
ATOM      8  C   UNL A   1      30.723  26.719  24.375  1.00  0.00     0.032 A 
ATOM      9  C   UNL A   1      29.603  27.096  23.603  1.00  0.00     0.013 A 
ATOM     10  C   UNL A   1      29.636  28.205  22.752  1.00  0.00     0.001 A 
ATOM     11  C   UNL A   1      31.906  28.628  23.416  1.00  0.00     0.016 A 
ATOM     12  C   UNL A   1      30.796  28.961  22.644  1.00  0.00     0.001 A 
BRANCH   8  13
ATOM     13  C   UNL A   1      30.614  25.529  25.215  1.00  0.00     0.135 A 
ATOM     14  C   UNL A   1      31.076  23.402  25.657  1.00  0.00     0.128 A 
ATOM     15  C   UNL A   1      30.323  23.896  26.713  1.00  0.00     0.051 A 
ATOM     16  O   UNL A   1      31.308  24.433  24.782  1.00  0.00    -0.457 OA
ATOM     17  C   UNL A   1      29.963  25.220  26.389  1.00  0.00     0.051 A 
BRANCH  14  18
ATOM     18  C   UNL A   1      31.483  22.064  25.426  1.00  0.00     0.071 C 
ATOM     19  C   UNL A   1      36.176  23.206  25.951  1.00  0.00     0.301 C 
ATOM     20  N   UNL A   1      35.122  22.233  25.673  1.00  0.00    -0.189 N 
ATOM     21  C   UNL A   1      33.843  22.594  26.028  1.00  0.00     0.349 C 
ATOM     22  C   UNL A   1      35.364  20.959  25.223  1.00  0.00     0.318 C 
ATOM     23  O   UNL A   1      33.610  23.545  26.770  1.00  0.00    -0.240 OA
ATOM     24  C   UNL A   1      32.776  21.698  25.526  1.00  0.00     0.157 C 
ATOM     25  N   UNL A   1      34.472  20.067  24.977  1.00  0.00    -0.200 N 
ATOM     26  C   UNL A   1      33.140  20.335  25.089  1.00  0.00     0.347 C 
ATOM     27  H   UNL A   1      34.758  19.167  24.700  1.00  0.00     0.316 HD
ATOM     28  O   UNL A   1      32.277  19.501  24.835  1.00  0.00    -0.241 OA
BRANCH  22  29
ATOM     29  S   UNL A   1      37.024  20.458  25.003  1.00  0.00    -0.055 SA
ATOM     30  H   UNL A   1      37.738  20.749  26.123  1.00  0.00     0.116 HD
ENDBRANCH  22  29
ENDBRANCH  14  18
ENDBRANCH   8  13
ENDBRANCH   5   7
ENDBRANCH   4   5
ENDBRANCH   3   4
ENDBRANCH   2   3
ENDBRANCH   1   2
BRANCH   1  31
ATOM     31  C   UNL A   1      33.265  31.412  27.629  1.00  0.00     0.202 C 
BRANCH  31  32
ATOM     32  C   UNL A   1      33.291  32.931  27.410  1.00  0.00     0.261 C 
BRANCH  32  33
ATOM     33  O   UNL A   1      32.607  33.683  28.423  1.00  0.00    -0.460 OA
BRANCH  33  34
ATOM     34  C   UNL A   1      33.289  34.767  28.870  1.00  0.00     0.338 C 
ATOM     35  O   UNL A   1      33.003  35.940  28.698  1.00  0.00    -0.246 OA
BRANCH  34  36
ATOM     36  C   UNL A   1      34.387  34.349  29.760  1.00  0.00     0.060 A 
ATOM     37  C   UNL A   1      35.698  34.530  29.302  1.00  0.00     0.016 A 
ATOM     38  C   UNL A   1      34.140  33.689  30.965  1.00  0.00     0.016 A 
ATOM     39  C   UNL A   1      36.767  34.013  30.030  1.00  0.00     0.010 A 
ATOM     40  C   UNL A   1      35.216  33.165  31.692  1.00  0.00     0.010 A 
ATOM     41  C   UNL A   1      36.532  33.297  31.211  1.00  0.00    -0.014 A 
BRANCH  41  42
ATOM     42  C   UNL A   1      37.659  32.596  31.875  1.00  0.00     0.031 A 
ATOM     43  C   UNL A   1      38.156  33.087  33.209  1.00  0.00     0.074 A 
ATOM     44  C   UNL A   1      38.211  31.508  31.307  1.00  0.00     0.049 A 
ATOM     45  N   UNL A   1      39.120  32.613  33.956  1.00  0.00    -0.248 NA
ATOM     46  C   UNL A   1      37.476  34.262  33.778  1.00  0.00     0.031 C 
ATOM     47  C   UNL A   1      37.792  30.913  30.037  1.00  0.00     0.029 A 
ATOM     48  N   UNL A   1      39.243  30.708  31.727  1.00  0.00    -0.354 N 
ATOM     49  C   UNL A   1      39.176  33.441  35.073  1.00  0.00     0.074 A 
ATOM     50  C   UNL A   1      38.163  34.458  34.895  1.00  0.00     0.031 C 
ATOM     51  C   UNL A   1      38.562  29.843  29.782  1.00  0.00     0.029 A 
ATOM     52  C   UNL A   1      39.550  29.696  30.850  1.00  0.00     0.049 A 
ATOM     53  H   UNL A   1      39.718  30.846  32.579  1.00  0.00     0.167 HD
ATOM     54  C   UNL A   1      39.994  33.359  36.150  1.00  0.00     0.031 A 
ATOM     55  C   UNL A   1      40.526  28.769  30.892  1.00  0.00     0.031 A 
ATOM     56  C   UNL A   1      41.006  32.349  36.319  1.00  0.00     0.049 A 
ATOM     57  C   UNL A   1      41.461  28.733  32.073  1.00  0.00     0.074 A 
ATOM     58  C   UNL A   1      41.862  32.162  37.392  1.00  0.00     0.029 A 
ATOM     59  N   UNL A   1      41.312  31.366  35.390  1.00  0.00    -0.354 N 
ATOM     60  N   UNL A   1      41.471  29.496  33.140  1.00  0.00    -0.248 NA
ATOM     61  C   UNL A   1      42.510  27.703  32.059  1.00  0.00     0.031 C 
ATOM     62  C   UNL A   1      42.729  31.109  37.081  1.00  0.00     0.029 A 
ATOM     63  C   UNL A   1      42.366  30.592  35.848  1.00  0.00     0.049 A 
ATOM     64  H   UNL A   1      40.847  31.236  34.533  1.00  0.00     0.167 HD
ATOM     65  C   UNL A   1      42.510  29.023  33.936  1.00  0.00     0.074 A 
ATOM     66  C   UNL A   1      43.091  27.895  33.235  1.00  0.00     0.031 C 
ATOM     67  C   UNL A   1      42.943  29.478  35.137  1.00  0.00     0.031 A 
BRANCH  54  68
ATOM     68  C   UNL A   1      39.859  34.414  37.218  1.00  0.00    -0.014 A 
ATOM     69  C   UNL A   1      40.422  35.694  37.063  1.00  0.00     0.010 A 
ATOM     70  C   UNL A   1      39.106  34.136  38.374  1.00  0.00     0.010 A 
ATOM     71  C   UNL A   1      40.261  36.663  38.058  1.00  0.00     0.020 A 
ATOM     72  C   UNL A   1      38.917  35.111  39.357  1.00  0.00     0.020 A 
ATOM     73  C   UNL A   1      39.508  36.366  39.198  1.00  0.00     0.054 A 
BRANCH  73  74
ATOM     74  S   UNL A   1      39.285  37.654  40.456  1.00  0.00     0.124 S 
ATOM     75  O   UNL A   1      40.593  38.306  40.455  1.00  0.00    -0.237 OA
ATOM     76  O   UNL A   1      38.189  38.449  39.908  1.00  0.00    -0.237 OA
ATOM     77  O   UNL A   1      38.963  36.907  41.668  1.00  0.00    -0.744 OA
ENDBRANCH  73  74
ENDBRANCH  54  68
BRANCH  55  78
ATOM     78  C   UNL A   1      40.689  27.813  29.762  1.00  0.00    -0.014 A 
ATOM     79  C   UNL A   1      41.710  27.982  28.811  1.00  0.00     0.010 A 
ATOM     80  C   UNL A   1      39.810  26.720  29.635  1.00  0.00     0.010 A 
ATOM     81  C   UNL A   1      41.837  27.087  27.744  1.00  0.00     0.020 A 
ATOM     82  C   UNL A   1      39.955  25.806  28.590  1.00  0.00     0.020 A 
ATOM     83  C   UNL A   1      40.961  26.002  27.645  1.00  0.00     0.054 A 
BRANCH  83  84
ATOM     84  S   UNL A   1      41.177  24.820  26.284  1.00  0.00     0.124 S 
ATOM     85  O   UNL A   1      39.929  24.066  26.337  1.00  0.00    -0.237 OA
ATOM     86  O   UNL A   1      41.340  25.698  25.129  1.00  0.00    -0.237 OA
ATOM     87  O   UNL A   1      42.375  24.078  26.668  1.00  0.00    -0.744 OA
ENDBRANCH  83  84
ENDBRANCH  55  78
BRANCH  67  88
ATOM     88  C   UNL A   1      44.085  28.740  35.790  1.00  0.00    -0.014 A 
ATOM     89  C   UNL A   1      43.858  27.645  36.644  1.00  0.00     0.010 A 
ATOM     90  C   UNL A   1      45.409  29.125  35.511  1.00  0.00     0.010 A 
ATOM     91  C   UNL A   1      44.932  26.977  37.237  1.00  0.00     0.020 A 
ATOM     92  C   UNL A   1      46.487  28.438  36.076  1.00  0.00     0.020 A 
ATOM     93  C   UNL A   1      46.240  27.378  36.951  1.00  0.00     0.054 A 
BRANCH  93  94
ATOM     94  S   UNL A   1      47.617  26.476  37.713  1.00  0.00     0.124 S 
ATOM     95  O   UNL A   1      47.839  27.241  38.937  1.00  0.00    -0.237 OA
ATOM     96  O   UNL A   1      47.060  25.138  37.898  1.00  0.00    -0.237 OA
ATOM     97  O   UNL A   1      48.685  26.569  36.720  1.00  0.00    -0.744 OA
ENDBRANCH  93  94
ENDBRANCH  67  88
ENDBRANCH  41  42
ENDBRANCH  34  36
ENDBRANCH  33  34
ENDBRANCH  32  33
ENDBRANCH  31  32
ENDBRANCH   1  31
TORSDOF 20
ENDMDL
MODEL 3
REMARK VINA RESULT:     -11.1      6.165     11.795
REMARK SMILES CN1C(=O)/C(=C\c2ccc(-c3ccccc3C(=O)OCCOCCOC(=O)c3ccc(-c4c5nc(c(-c6ccc(S(=O)(=O)[O-])cc6)c6ccc([nH]6)c(-c6ccc(S(=O)(=O)[O-])cc6)c6nc(c(-c7ccc(S(=O)(=O)[O-])cc7)c7ccc4[nH]7)C=C6)C=C5)cc3)o2)C(=O)[NH+]=C1S
REMARK SMILES IDX 22 1 21 2 20 3 19 4 17 5 18 6 16 7 11 8 12 9 13 10 15 11
REMARK SMILES IDX 14 12 10 13 7 14 8 15 88 16 9 17 6 18 1 19 2 20 3 21 92 22
REMARK SMILES IDX 4 23 5 24 91 25 89 26 90 28 93 29 23 31 24 32 25 33 26 34
REMARK SMILES IDX 27 35 28 36 29 37 87 38 30 39 86 40 31 41 32 42 33 43 80 44
REMARK SMILES IDX 34 45 85 46 79 47 81 48 35 49 84 50 78 51 77 52 36 54 66 55
REMARK SMILES IDX 47 56 65 57 48 58 51 59 64 60 82 61 49 62 50 63 63 65 83 66
REMARK SMILES IDX 52 67 37 68 38 69 46 70 39 71 45 72 40 73 41 74 42 75 43 76
REMARK SMILES IDX 44 77 67 78 68 79 76 80 69 81 75 82 70 83 71 84 72 85 73 86
REMARK SMILES IDX 74 87 53 88 54 89 62 90 55 91 61 92 56 93 57 94 58 95 59 96
REMARK SMILES IDX 60 97
REMARK H PARENT 91 27 93 30 81 53 51 64
REMARK Flexibility Score: inf
ROOT
ATOM      1  O   UNL A   1      39.637  21.708  26.630  1.00  0.00    -0.374 OA
ENDROOT
BRANCH   1   2
ATOM      2  C   UNL A   1      38.678  22.618  26.089  1.00  0.00     0.202 C 
BRANCH   2   3
ATOM      3  C   UNL A   1      37.764  22.068  24.995  1.00  0.00     0.261 C 
BRANCH   3   4
ATOM      4  O   UNL A   1      36.512  22.764  25.018  1.00  0.00    -0.460 OA
BRANCH   4   5
ATOM      5  C   UNL A   1      35.756  22.704  23.902  1.00  0.00     0.338 C 
ATOM      6  O   UNL A   1      36.097  23.034  22.778  1.00  0.00    -0.246 OA
BRANCH   5   7
ATOM      7  C   UNL A   1      34.478  21.997  24.180  1.00  0.00     0.071 A 
ATOM      8  C   UNL A   1      33.225  22.339  23.636  1.00  0.00     0.032 A 
ATOM      9  C   UNL A   1      32.116  21.540  23.988  1.00  0.00     0.013 A 
ATOM     10  C   UNL A   1      32.237  20.465  24.876  1.00  0.00     0.001 A 
ATOM     11  C   UNL A   1      34.585  20.925  25.090  1.00  0.00     0.016 A 
ATOM     12  C   UNL A   1      33.469  20.169  25.441  1.00  0.00     0.001 A 
BRANCH   8  13
ATOM     13  C   UNL A   1      33.007  23.460  22.726  1.00  0.00     0.135 A 
ATOM     14  C   UNL A   1      32.153  25.457  22.257  1.00  0.00     0.128 A 
ATOM     15  C   UNL A   1      32.884  25.043  21.153  1.00  0.00     0.051 A 
ATOM     16  O   UNL A   1      32.296  24.511  23.240  1.00  0.00    -0.457 OA
ATOM     17  C   UNL A   1      33.354  23.742  21.423  1.00  0.00     0.051 A 
BRANCH  14  18
ATOM     18  C   UNL A   1      31.317  26.595  22.374  1.00  0.00     0.071 C 
ATOM     19  C   UNL A   1      34.055  28.470  25.922  1.00  0.00     0.301 C 
ATOM     20  N   UNL A   1      32.889  28.527  25.044  1.00  0.00    -0.189 N 
ATOM     21  C   UNL A   1      32.906  27.700  23.946  1.00  0.00     0.349 C 
ATOM     22  C   UNL A   1      31.878  29.446  25.181  1.00  0.00     0.318 C 
ATOM     23  O   UNL A   1      33.929  27.139  23.560  1.00  0.00    -0.240 OA
ATOM     24  C   UNL A   1      31.624  27.607  23.210  1.00  0.00     0.157 C 
ATOM     25  N   UNL A   1      30.842  29.542  24.427  1.00  0.00    -0.200 N 
ATOM     26  C   UNL A   1      30.612  28.664  23.410  1.00  0.00     0.347 C 
ATOM     27  H   UNL A   1      30.198  30.269  24.587  1.00  0.00     0.316 HD
ATOM     28  O   UNL A   1      29.615  28.729  22.698  1.00  0.00    -0.241 OA
BRANCH  22  29
ATOM     29  S   UNL A   1      32.007  30.637  26.455  1.00  0.00    -0.055 SA
ATOM     30  H   UNL A   1      31.653  30.072  27.641  1.00  0.00     0.116 HD
ENDBRANCH  22  29
ENDBRANCH  14  18
ENDBRANCH   8  13
ENDBRANCH   5   7
ENDBRANCH   4   5
ENDBRANCH   3   4
ENDBRANCH   2   3
ENDBRANCH   1   2
BRANCH   1  31
ATOM     31  C   UNL A   1      40.901  22.234  27.033  1.00  0.00     0.202 C 
BRANCH  31  32
ATOM     32  C   UNL A   1      41.754  22.944  25.972  1.00  0.00     0.261 C 
BRANCH  32  33
ATOM     33  O   UNL A   1      42.417  24.126  26.446  1.00  0.00    -0.460 OA
BRANCH  33  34
ATOM     34  C   UNL A   1      41.691  25.264  26.312  1.00  0.00     0.338 C 
ATOM     35  O   UNL A   1      41.022  25.602  25.350  1.00  0.00    -0.246 OA
BRANCH  34  36
ATOM     36  C   UNL A   1      41.676  26.014  27.581  1.00  0.00     0.060 A 
ATOM     37  C   UNL A   1      40.538  25.898  28.388  1.00  0.00     0.016 A 
ATOM     38  C   UNL A   1      42.701  26.898  27.919  1.00  0.00     0.016 A 
ATOM     39  C   UNL A   1      40.402  26.702  29.517  1.00  0.00     0.010 A 
ATOM     40  C   UNL A   1      42.560  27.709  29.052  1.00  0.00     0.010 A 
ATOM     41  C   UNL A   1      41.395  27.638  29.838  1.00  0.00    -0.014 A 
BRANCH  41  42
ATOM     42  C   UNL A   1      41.153  28.610  30.932  1.00  0.00     0.031 A 
ATOM     43  C   UNL A   1      42.002  28.557  32.175  1.00  0.00     0.074 A 
ATOM     44  C   UNL A   1      40.206  29.557  30.802  1.00  0.00     0.049 A 
ATOM     45  N   UNL A   1      41.958  29.317  33.238  1.00  0.00    -0.248 NA
ATOM     46  C   UNL A   1      43.038  27.512  32.225  1.00  0.00     0.031 C 
ATOM     47  C   UNL A   1      39.345  29.737  29.631  1.00  0.00     0.029 A 
ATOM     48  N   UNL A   1      39.811  30.549  31.663  1.00  0.00    -0.354 N 
ATOM     49  C   UNL A   1      42.946  28.834  34.091  1.00  0.00     0.074 A 
ATOM     50  C   UNL A   1      43.557  27.703  33.430  1.00  0.00     0.031 C 
ATOM     51  C   UNL A   1      38.523  30.776  29.850  1.00  0.00     0.029 A 
ATOM     52  C   UNL A   1      38.772  31.313  31.186  1.00  0.00     0.049 A 
ATOM     53  H   UNL A   1      40.232  30.700  32.540  1.00  0.00     0.167 HD
ATOM     54  C   UNL A   1      43.311  29.294  35.313  1.00  0.00     0.031 A 
ATOM     55  C   UNL A   1      38.088  32.318  31.767  1.00  0.00     0.031 A 
ATOM     56  C   UNL A   1      42.694  30.416  35.971  1.00  0.00     0.049 A 
ATOM     57  C   UNL A   1      38.476  32.774  33.149  1.00  0.00     0.074 A 
ATOM     58  C   UNL A   1      43.018  30.979  37.194  1.00  0.00     0.029 A 
ATOM     59  N   UNL A   1      41.621  31.138  35.472  1.00  0.00    -0.354 N 
ATOM     60  N   UNL A   1      39.440  32.335  33.923  1.00  0.00    -0.248 NA
ATOM     61  C   UNL A   1      37.688  33.870  33.733  1.00  0.00     0.031 C 
ATOM     62  C   UNL A   1      42.097  31.996  37.464  1.00  0.00     0.029 A 
ATOM     63  C   UNL A   1      41.246  32.117  36.378  1.00  0.00     0.049 A 
ATOM     64  H   UNL A   1      41.190  30.979  34.602  1.00  0.00     0.167 HD
ATOM     65  C   UNL A   1      39.391  33.116  35.072  1.00  0.00     0.074 A 
ATOM     66  C   UNL A   1      38.315  34.069  34.884  1.00  0.00     0.031 C 
ATOM     67  C   UNL A   1      40.167  33.053  36.183  1.00  0.00     0.031 A 
BRANCH  54  68
ATOM     68  C   UNL A   1      44.407  28.559  36.040  1.00  0.00    -0.014 A 
ATOM     69  C   UNL A   1      44.126  27.475  36.894  1.00  0.00     0.010 A 
ATOM     70  C   UNL A   1      45.749  28.925  35.823  1.00  0.00     0.010 A 
ATOM     71  C   UNL A   1      45.164  26.795  37.538  1.00  0.00     0.020 A 
ATOM     72  C   UNL A   1      46.790  28.228  36.442  1.00  0.00     0.020 A 
ATOM     73  C   UNL A   1      46.490  27.174  37.307  1.00  0.00     0.054 A 
BRANCH  73  74
ATOM     74  S   UNL A   1      47.817  26.250  38.128  1.00  0.00     0.124 S 
ATOM     75  O   UNL A   1      48.093  25.192  37.159  1.00  0.00    -0.237 OA
ATOM     76  O   UNL A   1      48.865  27.258  38.272  1.00  0.00    -0.237 OA
ATOM     77  O   UNL A   1      47.211  25.805  39.380  1.00  0.00    -0.744 OA
ENDBRANCH  73  74
ENDBRANCH  54  68
BRANCH  55  78
ATOM     78  C   UNL A   1      36.943  32.944  31.051  1.00  0.00    -0.014 A 
ATOM     79  C   UNL A   1      37.149  33.948  30.090  1.00  0.00     0.010 A 
ATOM     80  C   UNL A   1      35.627  32.532  31.338  1.00  0.00     0.010 A 
ATOM     81  C   UNL A   1      36.062  34.540  29.441  1.00  0.00     0.020 A 
ATOM     82  C   UNL A   1      34.541  33.098  30.668  1.00  0.00     0.020 A 
ATOM     83  C   UNL A   1      34.764  34.107  29.731  1.00  0.00     0.054 A 
BRANCH  83  84
ATOM     84  S   UNL A   1      33.370  34.849  28.838  1.00  0.00     0.124 S 
ATOM     85  O   UNL A   1      32.531  35.329  29.932  1.00  0.00    -0.237 OA
ATOM     86  O   UNL A   1      34.023  35.882  28.038  1.00  0.00    -0.237 OA
ATOM     87  O   UNL A   1      32.824  33.731  28.074  1.00  0.00    -0.744 OA
ENDBRANCH  83  84
ENDBRANCH  55  78
BRANCH  67  88
ATOM     88  C   UNL A   1      39.902  34.061  37.274  1.00  0.00    -0.014 A 
ATOM     89  C   UNL A   1      39.089  33.749  38.378  1.00  0.00     0.010 A 
ATOM     90  C   UNL A   1      40.513  35.327  37.211  1.00  0.00     0.010 A 
ATOM     91  C   UNL A   1      38.859  34.699  39.377  1.00  0.00     0.020 A 
ATOM     92  C   UNL A   1      40.312  36.269  38.225  1.00  0.00     0.020 A 
ATOM     93  C   UNL A   1      39.471  35.954  39.293  1.00  0.00     0.054 A 
BRANCH  93  94
ATOM     94  S   UNL A   1      39.177  37.159  40.617  1.00  0.00     0.124 S 
ATOM     95  O   UNL A   1      40.523  37.665  40.871  1.00  0.00    -0.237 OA
ATOM     96  O   UNL A   1      38.257  38.105  39.991  1.00  0.00    -0.237 OA
ATOM     97  O   UNL A   1      38.601  36.357  41.694  1.00  0.00    -0.744 OA
ENDBRANCH  93  94
ENDBRANCH  67  88
ENDBRANCH  41  42
ENDBRANCH  34  36
ENDBRANCH  33  34
ENDBRANCH  32  33
ENDBRANCH  31  32
ENDBRANCH   1  31
TORSDOF 20
ENDMDL
