MODEL 1
REMARK VINA RESULT:     -10.0      0.000      0.000
REMARK SMILES Cn1cc(S(=O)(=O)NC[C@H]2CC[C@@H](C(=O)OCCOCCOC(=O)c3ccc(-c4c5nc(c(-c6ccc(S(=O)(=O)[O-])cc6)c6ccc([nH]6)c(-c6ccc(S(=O)(=O)[O-])cc6)c6nc(c(-c7ccc(S(=O)(=O)[O-])cc7)c7ccc4[nH]7)C=C6)C=C5)cc3)CC2)cn1
REMARK SMILES IDX 18 1 17 2 16 3 14 4 15 5 13 6 10 7 11 8 86 9 12 10 85 11
REMARK SMILES IDX 9 12 8 13 5 15 6 16 7 17 4 18 1 19 2 20 3 21 88 22 87 23
REMARK SMILES IDX 19 24 20 25 21 26 22 27 23 28 24 29 25 30 26 31 84 32 27 33
REMARK SMILES IDX 83 34 28 35 29 36 30 37 77 38 31 39 82 40 76 41 78 42 32 43
REMARK SMILES IDX 81 44 75 45 74 46 33 48 63 49 44 50 62 51 45 52 48 53 61 54
REMARK SMILES IDX 79 55 46 56 47 57 60 59 80 60 49 61 34 62 35 63 43 64 36 65
REMARK SMILES IDX 42 66 37 67 38 68 39 69 40 70 41 71 64 72 65 73 73 74 66 75
REMARK SMILES IDX 72 76 67 77 68 78 69 79 70 80 71 81 50 82 51 83 59 84 52 85
REMARK SMILES IDX 58 86 53 87 54 88 55 89 56 90 57 91
REMARK H PARENT 8 14 78 47 48 58
REMARK Flexibility Score: inf
ROOT
ATOM      1  C   UNL A   1      40.360  21.700  26.654  1.00  0.00     0.202 C 
ENDROOT
BRANCH   1   2
ATOM      2  C   UNL A   1      38.922  21.429  26.203  1.00  0.00     0.261 C 
BRANCH   2   3
ATOM      3  O   UNL A   1      38.522  22.365  25.185  1.00  0.00    -0.463 OA
BRANCH   3   4
ATOM      4  C   UNL A   1      37.646  23.332  25.553  1.00  0.00     0.309 C 
ATOM      5  O   UNL A   1      37.766  24.052  26.538  1.00  0.00    -0.252 OA
BRANCH   4   6
ATOM      6  C   UNL A   1      36.460  23.459  24.596  1.00  0.00     0.099 C 
ATOM      7  C   UNL A   1      33.988  22.540  25.987  1.00  0.00     0.004 C 
ATOM      8  C   UNL A   1      34.653  23.886  26.308  1.00  0.00     0.006 C 
ATOM      9  C   UNL A   1      34.911  21.533  25.292  1.00  0.00     0.006 C 
ATOM     10  C   UNL A   1      35.445  24.462  25.141  1.00  0.00     0.015 C 
ATOM     11  C   UNL A   1      35.748  22.165  24.182  1.00  0.00     0.015 C 
BRANCH   7  12
ATOM     12  C   UNL A   1      33.261  21.931  27.195  1.00  0.00     0.102 C 
BRANCH  12  13
ATOM     13  N   UNL A   1      32.051  22.624  27.655  1.00  0.00    -0.211 NA
ATOM     14  H   UNL A   1      31.726  22.103  28.469  1.00  0.00     0.141 HD
BRANCH  13  15
ATOM     15  S   UNL A   1      30.693  22.868  26.697  1.00  0.00     0.243 S 
ATOM     16  O   UNL A   1      29.582  23.159  27.574  1.00  0.00    -0.207 OA
ATOM     17  O   UNL A   1      30.627  21.764  25.771  1.00  0.00    -0.207 OA
BRANCH  15  18
ATOM     18  C   UNL A   1      30.882  24.254  25.726  1.00  0.00     0.120 A 
ATOM     19  C   UNL A   1      31.096  27.732  24.860  1.00  0.00     0.173 C 
ATOM     20  N   UNL A   1      31.041  26.294  24.975  1.00  0.00    -0.274 N 
ATOM     21  C   UNL A   1      30.952  25.570  26.127  1.00  0.00     0.130 A 
ATOM     22  N   UNL A   1      31.012  25.536  23.858  1.00  0.00    -0.180 NA
ATOM     23  C   UNL A   1      30.970  24.284  24.329  1.00  0.00     0.156 A 
ENDBRANCH  15  18
ENDBRANCH  13  15
ENDBRANCH  12  13
ENDBRANCH   7  12
ENDBRANCH   4   6
ENDBRANCH   3   4
ENDBRANCH   2   3
ENDBRANCH   1   2
BRANCH   1  24
ATOM     24  O   UNL A   1      41.375  21.461  25.674  1.00  0.00    -0.374 OA
BRANCH  24  25
ATOM     25  C   UNL A   1      42.676  21.975  25.945  1.00  0.00     0.202 C 
BRANCH  25  26
ATOM     26  C   UNL A   1      42.909  23.456  25.615  1.00  0.00     0.261 C 
BRANCH  26  27
ATOM     27  O   UNL A   1      41.798  24.306  25.961  1.00  0.00    -0.460 OA
BRANCH  27  28
ATOM     28  C   UNL A   1      42.066  25.633  25.865  1.00  0.00     0.338 C 
ATOM     29  O   UNL A   1      42.158  26.289  24.840  1.00  0.00    -0.246 OA
BRANCH  28  30
ATOM     30  C   UNL A   1      42.128  26.269  27.196  1.00  0.00     0.060 A 
ATOM     31  C   UNL A   1      41.179  25.863  28.143  1.00  0.00     0.016 A 
ATOM     32  C   UNL A   1      42.978  27.345  27.463  1.00  0.00     0.016 A 
ATOM     33  C   UNL A   1      41.029  26.577  29.331  1.00  0.00     0.010 A 
ATOM     34  C   UNL A   1      42.822  28.062  28.658  1.00  0.00     0.010 A 
ATOM     35  C   UNL A   1      41.814  27.711  29.576  1.00  0.00    -0.014 A 
BRANCH  35  36
ATOM     36  C   UNL A   1      41.467  28.597  30.719  1.00  0.00     0.031 A 
ATOM     37  C   UNL A   1      42.289  28.537  31.980  1.00  0.00     0.074 A 
ATOM     38  C   UNL A   1      40.470  29.495  30.619  1.00  0.00     0.049 A 
ATOM     39  N   UNL A   1      42.181  29.248  33.073  1.00  0.00    -0.248 NA
ATOM     40  C   UNL A   1      43.380  27.548  32.012  1.00  0.00     0.031 C 
ATOM     41  C   UNL A   1      39.626  29.683  29.443  1.00  0.00     0.029 A 
ATOM     42  N   UNL A   1      40.003  30.419  31.520  1.00  0.00    -0.354 N 
ATOM     43  C   UNL A   1      43.184  28.797  33.921  1.00  0.00     0.074 A 
ATOM     44  C   UNL A   1      43.872  27.728  33.228  1.00  0.00     0.031 C 
ATOM     45  C   UNL A   1      38.737  30.659  29.693  1.00  0.00     0.029 A 
ATOM     46  C   UNL A   1      38.939  31.155  31.052  1.00  0.00     0.049 A 
ATOM     47  H   UNL A   1      40.392  30.544  32.415  1.00  0.00     0.167 HD
ATOM     48  C   UNL A   1      43.512  29.236  35.160  1.00  0.00     0.031 A 
ATOM     49  C   UNL A   1      38.208  32.116  31.649  1.00  0.00     0.031 A 
ATOM     50  C   UNL A   1      42.828  30.295  35.856  1.00  0.00     0.049 A 
ATOM     51  C   UNL A   1      38.558  32.553  33.046  1.00  0.00     0.074 A 
ATOM     52  C   UNL A   1      43.099  30.816  37.109  1.00  0.00     0.029 A 
ATOM     53  N   UNL A   1      41.738  30.992  35.361  1.00  0.00    -0.354 N 
ATOM     54  N   UNL A   1      39.525  32.127  33.826  1.00  0.00    -0.248 NA
ATOM     55  C   UNL A   1      37.727  33.609  33.640  1.00  0.00     0.031 C 
ATOM     56  C   UNL A   1      42.144  31.799  37.391  1.00  0.00     0.029 A 
ATOM     57  C   UNL A   1      41.309  31.924  36.292  1.00  0.00     0.049 A 
ATOM     58  H   UNL A   1      41.329  30.848  34.477  1.00  0.00     0.167 HD
ATOM     59  C   UNL A   1      39.433  32.882  34.989  1.00  0.00     0.074 A 
ATOM     60  C   UNL A   1      38.324  33.797  34.810  1.00  0.00     0.031 C 
ATOM     61  C   UNL A   1      40.201  32.825  36.105  1.00  0.00     0.031 A 
BRANCH  48  62
ATOM     62  C   UNL A   1      44.652  28.545  35.858  1.00  0.00    -0.014 A 
ATOM     63  C   UNL A   1      45.971  29.018  35.739  1.00  0.00     0.010 A 
ATOM     64  C   UNL A   1      44.395  27.423  36.666  1.00  0.00     0.010 A 
ATOM     65  C   UNL A   1      47.019  28.357  36.386  1.00  0.00     0.020 A 
ATOM     66  C   UNL A   1      45.438  26.772  37.332  1.00  0.00     0.020 A 
ATOM     67  C   UNL A   1      46.746  27.233  37.172  1.00  0.00     0.054 A 
BRANCH  67  68
ATOM     68  S   UNL A   1      48.121  26.396  38.010  1.00  0.00     0.124 S 
ATOM     69  O   UNL A   1      48.511  27.389  39.008  1.00  0.00    -0.237 OA
ATOM     70  O   UNL A   1      47.491  25.189  38.538  1.00  0.00    -0.237 OA
ATOM     71  O   UNL A   1      49.092  26.172  36.942  1.00  0.00    -0.744 OA
ENDBRANCH  67  68
ENDBRANCH  48  62
BRANCH  49  72
ATOM     72  C   UNL A   1      37.055  32.722  30.931  1.00  0.00    -0.014 A 
ATOM     73  C   UNL A   1      35.771  32.159  31.020  1.00  0.00     0.010 A 
ATOM     74  C   UNL A   1      37.244  33.877  30.151  1.00  0.00     0.010 A 
ATOM     75  C   UNL A   1      34.698  32.731  30.329  1.00  0.00     0.020 A 
ATOM     76  C   UNL A   1      36.171  34.464  29.476  1.00  0.00     0.020 A 
ATOM     77  C   UNL A   1      34.906  33.880  29.560  1.00  0.00     0.054 A 
BRANCH  77  78
ATOM     78  S   UNL A   1      33.496  34.638  28.704  1.00  0.00     0.124 S 
ATOM     79  O   UNL A   1      34.110  35.812  28.091  1.00  0.00    -0.237 OA
ATOM     80  O   UNL A   1      33.079  33.586  27.781  1.00  0.00    -0.237 OA
ATOM     81  O   UNL A   1      32.552  34.918  29.786  1.00  0.00    -0.744 OA
ENDBRANCH  77  78
ENDBRANCH  49  72
BRANCH  61  82
ATOM     82  C   UNL A   1      39.889  33.797  37.211  1.00  0.00    -0.014 A 
ATOM     83  C   UNL A   1      38.975  33.472  38.229  1.00  0.00     0.010 A 
ATOM     84  C   UNL A   1      40.553  35.037  37.255  1.00  0.00     0.010 A 
ATOM     85  C   UNL A   1      38.705  34.384  39.253  1.00  0.00     0.020 A 
ATOM     86  C   UNL A   1      40.302  35.943  38.290  1.00  0.00     0.020 A 
ATOM     87  C   UNL A   1      39.366  35.616  39.275  1.00  0.00     0.054 A 
BRANCH  87  88
ATOM     88  S   UNL A   1      39.025  36.774  40.629  1.00  0.00     0.124 S 
ATOM     89  O   UNL A   1      38.252  35.945  41.550  1.00  0.00    -0.237 OA
ATOM     90  O   UNL A   1      40.365  37.139  41.087  1.00  0.00    -0.237 OA
ATOM     91  O   UNL A   1      38.281  37.851  39.984  1.00  0.00    -0.744 OA
ENDBRANCH  87  88
ENDBRANCH  61  82
ENDBRANCH  35  36
ENDBRANCH  28  30
ENDBRANCH  27  28
ENDBRANCH  26  27
ENDBRANCH  25  26
ENDBRANCH  24  25
ENDBRANCH   1  24
TORSDOF 21
ENDMDL
MODEL 2
REMARK VINA RESULT:      -9.7      5.895      8.553
REMARK SMILES Cn1cc(S(=O)(=O)NC[C@H]2CC[C@@H](C(=O)OCCOCCOC(=O)c3ccc(-c4c5nc(c(-c6ccc(S(=O)(=O)[O-])cc6)c6ccc([nH]6)c(-c6ccc(S(=O)(=O)[O-])cc6)c6nc(c(-c7ccc(S(=O)(=O)[O-])cc7)c7ccc4[nH]7)C=C6)C=C5)cc3)CC2)cn1
REMARK SMILES IDX 18 1 17 2 16 3 14 4 15 5 13 6 10 7 11 8 86 9 12 10 85 11
REMARK SMILES IDX 9 12 8 13 5 15 6 16 7 17 4 18 1 19 2 20 3 21 88 22 87 23
REMARK SMILES IDX 19 24 20 25 21 26 22 27 23 28 24 29 25 30 26 31 84 32 27 33
REMARK SMILES IDX 83 34 28 35 29 36 30 37 77 38 31 39 82 40 76 41 78 42 32 43
REMARK SMILES IDX 81 44 75 45 74 46 33 48 63 49 44 50 62 51 45 52 48 53 61 54
REMARK SMILES IDX 79 55 46 56 47 57 60 59 80 60 49 61 34 62 35 63 43 64 36 65
REMARK SMILES IDX 42 66 37 67 38 68 39 69 40 70 41 71 64 72 65 73 73 74 66 75
REMARK SMILES IDX 72 76 67 77 68 78 69 79 70 80 71 81 50 82 51 83 59 84 52 85
REMARK SMILES IDX 58 86 53 87 54 88 55 89 56 90 57 91
REMARK H PARENT 8 14 78 47 48 58
REMARK Flexibility Score: inf
ROOT
ATOM      1  C   UNL A   1      37.128  22.819  24.836  1.00  0.00     0.202 C 
ENDROOT
BRANCH   1   2
ATOM      2  C   UNL A   1      36.174  23.261  25.949  1.00  0.00     0.261 C 
BRANCH   2   3
ATOM      3  O   UNL A   1      35.499  24.480  25.588  1.00  0.00    -0.463 OA
BRANCH   3   4
ATOM      4  C   UNL A   1      34.146  24.479  25.670  1.00  0.00     0.309 C 
ATOM      5  O   UNL A   1      33.500  24.063  26.626  1.00  0.00    -0.252 OA
BRANCH   4   6
ATOM      6  C   UNL A   1      33.472  25.070  24.432  1.00  0.00     0.099 C 
ATOM      7  C   UNL A   1      32.143  22.877  22.910  1.00  0.00     0.004 C 
ATOM      8  C   UNL A   1      31.571  23.419  24.228  1.00  0.00     0.006 C 
ATOM      9  C   UNL A   1      33.629  23.184  22.697  1.00  0.00     0.006 C 
ATOM     10  C   UNL A   1      31.959  24.866  24.505  1.00  0.00     0.015 C 
ATOM     11  C   UNL A   1      33.996  24.621  23.062  1.00  0.00     0.015 C 
BRANCH   7  12
ATOM     12  C   UNL A   1      31.813  21.394  22.683  1.00  0.00     0.102 C 
BRANCH  12  13
ATOM     13  N   UNL A   1      32.851  20.423  23.049  1.00  0.00    -0.211 NA
ATOM     14  H   UNL A   1      32.667  19.595  22.483  1.00  0.00     0.141 HD
BRANCH  13  15
ATOM     15  S   UNL A   1      33.098  19.862  24.612  1.00  0.00     0.243 S 
ATOM     16  O   UNL A   1      31.894  20.118  25.368  1.00  0.00    -0.207 OA
ATOM     17  O   UNL A   1      34.367  20.388  25.053  1.00  0.00    -0.207 OA
BRANCH  15  18
ATOM     18  C   UNL A   1      33.290  18.169  24.621  1.00  0.00     0.120 A 
ATOM     19  C   UNL A   1      32.684  14.736  25.475  1.00  0.00     0.173 C 
ATOM     20  N   UNL A   1      33.108  16.031  24.999  1.00  0.00    -0.274 N 
ATOM     21  C   UNL A   1      32.498  17.227  25.239  1.00  0.00     0.130 A 
ATOM     22  N   UNL A   1      34.250  16.140  24.289  1.00  0.00    -0.180 NA
ATOM     23  C   UNL A   1      34.325  17.447  24.014  1.00  0.00     0.156 A 
ENDBRANCH  15  18
ENDBRANCH  13  15
ENDBRANCH  12  13
ENDBRANCH   7  12
ENDBRANCH   4   6
ENDBRANCH   3   4
ENDBRANCH   2   3
ENDBRANCH   1   2
BRANCH   1  24
ATOM     24  O   UNL A   1      38.194  21.954  25.237  1.00  0.00    -0.374 OA
BRANCH  24  25
ATOM     25  C   UNL A   1      37.927  20.554  25.252  1.00  0.00     0.202 C 
BRANCH  25  26
ATOM     26  C   UNL A   1      39.120  19.634  25.541  1.00  0.00     0.261 C 
BRANCH  26  27
ATOM     27  O   UNL A   1      40.067  20.192  26.472  1.00  0.00    -0.460 OA
BRANCH  27  28
ATOM     28  C   UNL A   1      41.360  19.875  26.202  1.00  0.00     0.338 C 
ATOM     29  O   UNL A   1      41.776  18.821  25.748  1.00  0.00    -0.246 OA
BRANCH  28  30
ATOM     30  C   UNL A   1      42.254  21.030  26.414  1.00  0.00     0.060 A 
ATOM     31  C   UNL A   1      42.545  21.379  27.739  1.00  0.00     0.016 A 
ATOM     32  C   UNL A   1      42.666  21.851  25.360  1.00  0.00     0.016 A 
ATOM     33  C   UNL A   1      43.187  22.584  28.019  1.00  0.00     0.010 A 
ATOM     34  C   UNL A   1      43.309  23.064  25.647  1.00  0.00     0.010 A 
ATOM     35  C   UNL A   1      43.529  23.459  26.980  1.00  0.00    -0.014 A 
BRANCH  35  36
ATOM     36  C   UNL A   1      43.976  24.838  27.313  1.00  0.00     0.031 A 
ATOM     37  C   UNL A   1      45.399  25.243  27.033  1.00  0.00     0.074 A 
ATOM     38  C   UNL A   1      43.111  25.746  27.801  1.00  0.00     0.049 A 
ATOM     39  N   UNL A   1      45.979  26.403  27.211  1.00  0.00    -0.248 NA
ATOM     40  C   UNL A   1      46.285  24.207  26.477  1.00  0.00     0.031 C 
ATOM     41  C   UNL A   1      41.700  25.495  28.078  1.00  0.00     0.029 A 
ATOM     42  N   UNL A   1      43.293  27.062  28.145  1.00  0.00    -0.354 N 
ATOM     43  C   UNL A   1      47.293  26.240  26.789  1.00  0.00     0.074 A 
ATOM     44  C   UNL A   1      47.434  24.859  26.377  1.00  0.00     0.031 C 
ATOM     45  C   UNL A   1      41.141  26.619  28.557  1.00  0.00     0.029 A 
ATOM     46  C   UNL A   1      42.157  27.665  28.633  1.00  0.00     0.049 A 
ATOM     47  H   UNL A   1      44.154  27.530  28.051  1.00  0.00     0.167 HD
ATOM     48  C   UNL A   1      48.291  27.155  26.740  1.00  0.00     0.031 A 
ATOM     49  C   UNL A   1      41.958  28.915  29.094  1.00  0.00     0.031 A 
ATOM     50  C   UNL A   1      48.158  28.527  27.154  1.00  0.00     0.049 A 
ATOM     51  C   UNL A   1      43.095  29.901  29.077  1.00  0.00     0.074 A 
ATOM     52  C   UNL A   1      49.112  29.530  27.127  1.00  0.00     0.029 A 
ATOM     53  N   UNL A   1      47.002  29.089  27.671  1.00  0.00    -0.354 N 
ATOM     54  N   UNL A   1      44.326  29.733  28.656  1.00  0.00    -0.248 NA
ATOM     55  C   UNL A   1      42.812  31.251  29.586  1.00  0.00     0.031 C 
ATOM     56  C   UNL A   1      48.544  30.688  27.671  1.00  0.00     0.029 A 
ATOM     57  C   UNL A   1      47.223  30.420  27.989  1.00  0.00     0.049 A 
ATOM     58  H   UNL A   1      46.149  28.614  27.794  1.00  0.00     0.167 HD
ATOM     59  C   UNL A   1      44.955  30.961  28.825  1.00  0.00     0.074 A 
ATOM     60  C   UNL A   1      43.969  31.866  29.378  1.00  0.00     0.031 C 
ATOM     61  C   UNL A   1      46.235  31.309  28.544  1.00  0.00     0.031 A 
BRANCH  48  62
ATOM     62  C   UNL A   1      49.632  26.686  26.244  1.00  0.00    -0.014 A 
ATOM     63  C   UNL A   1      50.088  27.022  24.956  1.00  0.00     0.010 A 
ATOM     64  C   UNL A   1      50.459  25.924  27.088  1.00  0.00     0.010 A 
ATOM     65  C   UNL A   1      51.332  26.570  24.507  1.00  0.00     0.020 A 
ATOM     66  C   UNL A   1      51.713  25.488  26.650  1.00  0.00     0.020 A 
ATOM     67  C   UNL A   1      52.133  25.799  25.356  1.00  0.00     0.054 A 
BRANCH  67  68
ATOM     68  S   UNL A   1      53.749  25.231  24.756  1.00  0.00     0.124 S 
ATOM     69  O   UNL A   1      53.788  25.804  23.413  1.00  0.00    -0.237 OA
ATOM     70  O   UNL A   1      54.677  25.821  25.717  1.00  0.00    -0.237 OA
ATOM     71  O   UNL A   1      53.645  23.775  24.808  1.00  0.00    -0.744 OA
ENDBRANCH  67  68
ENDBRANCH  48  62
BRANCH  49  72
ATOM     72  C   UNL A   1      40.625  29.303  29.628  1.00  0.00    -0.014 A 
ATOM     73  C   UNL A   1      40.374  29.313  31.010  1.00  0.00     0.010 A 
ATOM     74  C   UNL A   1      39.594  29.669  28.742  1.00  0.00     0.010 A 
ATOM     75  C   UNL A   1      39.112  29.666  31.498  1.00  0.00     0.020 A 
ATOM     76  C   UNL A   1      38.339  30.044  29.226  1.00  0.00     0.020 A 
ATOM     77  C   UNL A   1      38.102  30.029  30.602  1.00  0.00     0.054 A 
BRANCH  77  78
ATOM     78  S   UNL A   1      36.482  30.528  31.251  1.00  0.00     0.124 S 
ATOM     79  O   UNL A   1      36.746  30.623  32.683  1.00  0.00    -0.237 OA
ATOM     80  O   UNL A   1      36.239  31.796  30.566  1.00  0.00    -0.237 OA
ATOM     81  O   UNL A   1      35.602  29.432  30.847  1.00  0.00    -0.744 OA
ENDBRANCH  77  78
ENDBRANCH  49  72
BRANCH  61  82
ATOM     82  C   UNL A   1      46.638  32.736  28.802  1.00  0.00    -0.014 A 
ATOM     83  C   UNL A   1      46.476  33.727  27.818  1.00  0.00     0.010 A 
ATOM     84  C   UNL A   1      47.146  33.098  30.063  1.00  0.00     0.010 A 
ATOM     85  C   UNL A   1      46.849  35.049  28.078  1.00  0.00     0.020 A 
ATOM     86  C   UNL A   1      47.498  34.423  30.336  1.00  0.00     0.020 A 
ATOM     87  C   UNL A   1      47.362  35.388  29.335  1.00  0.00     0.054 A 
BRANCH  87  88
ATOM     88  S   UNL A   1      47.809  37.115  29.664  1.00  0.00     0.124 S 
ATOM     89  O   UNL A   1      46.917  37.837  28.762  1.00  0.00    -0.237 OA
ATOM     90  O   UNL A   1      47.513  37.259  31.089  1.00  0.00    -0.237 OA
ATOM     91  O   UNL A   1      49.227  37.176  29.321  1.00  0.00    -0.744 OA
ENDBRANCH  87  88
ENDBRANCH  61  82
ENDBRANCH  35  36
ENDBRANCH  28  30
ENDBRANCH  27  28
ENDBRANCH  26  27
ENDBRANCH  25  26
ENDBRANCH  24  25
ENDBRANCH   1  24
TORSDOF 21
ENDMDL
MODEL 3
REMARK VINA RESULT:      -9.5      5.935      8.399
REMARK SMILES Cn1cc(S(=O)(=O)NC[C@H]2CC[C@@H](C(=O)OCCOCCOC(=O)c3ccc(-c4c5nc(c(-c6ccc(S(=O)(=O)[O-])cc6)c6ccc([nH]6)c(-c6ccc(S(=O)(=O)[O-])cc6)c6nc(c(-c7ccc(S(=O)(=O)[O-])cc7)c7ccc4[nH]7)C=C6)C=C5)cc3)CC2)cn1
REMARK SMILES IDX 18 1 17 2 16 3 14 4 15 5 13 6 10 7 11 8 86 9 12 10 85 11
REMARK SMILES IDX 9 12 8 13 5 15 6 16 7 17 4 18 1 19 2 20 3 21 88 22 87 23
REMARK SMILES IDX 19 24 20 25 21 26 22 27 23 28 24 29 25 30 26 31 84 32 27 33
REMARK SMILES IDX 83 34 28 35 29 36 30 37 77 38 31 39 82 40 76 41 78 42 32 43
REMARK SMILES IDX 81 44 75 45 74 46 33 48 63 49 44 50 62 51 45 52 48 53 61 54
REMARK SMILES IDX 79 55 46 56 47 57 60 59 80 60 49 61 34 62 35 63 43 64 36 65
REMARK SMILES IDX 42 66 37 67 38 68 39 69 40 70 41 71 64 72 65 73 73 74 66 75
REMARK SMILES IDX 72 76 67 77 68 78 69 79 70 80 71 81 50 82 51 83 59 84 52 85
REMARK SMILES IDX 58 86 53 87 54 88 55 89 56 90 57 91
REMARK H PARENT 8 14 78 47 48 58
REMARK Flexibility Score: inf
ROOT
ATOM      1  C   UNL A   1      36.089  20.826  24.990  1.00  0.00     0.202 C 
ENDROOT
BRANCH   1   2
ATOM      2  C   UNL A   1      34.655  20.527  25.438  1.00  0.00     0.261 C 
BRANCH   2   3
ATOM      3  O   UNL A   1      33.775  20.437  24.302  1.00  0.00    -0.463 OA
BRANCH   3   4
ATOM      4  C   UNL A   1      32.624  21.150  24.361  1.00  0.00     0.309 C 
ATOM      5  O   UNL A   1      31.778  21.049  25.242  1.00  0.00    -0.252 OA
BRANCH   4   6
ATOM      6  C   UNL A   1      32.470  22.133  23.199  1.00  0.00     0.099 C 
ATOM      7  C   UNL A   1      32.323  24.905  24.284  1.00  0.00     0.004 C 
ATOM      8  C   UNL A   1      33.639  24.115  24.239  1.00  0.00     0.006 C 
ATOM      9  C   UNL A   1      31.064  24.036  24.194  1.00  0.00     0.006 C 
ATOM     10  C   UNL A   1      33.677  23.068  23.134  1.00  0.00     0.015 C 
ATOM     11  C   UNL A   1      31.172  22.946  23.130  1.00  0.00     0.015 C 
BRANCH   7  12
ATOM     12  C   UNL A   1      32.265  25.901  25.452  1.00  0.00     0.102 C 
BRANCH  12  13
ATOM     13  N   UNL A   1      33.439  26.763  25.642  1.00  0.00    -0.211 NA
ATOM     14  H   UNL A   1      33.549  26.862  26.651  1.00  0.00     0.141 HD
BRANCH  13  15
ATOM     15  S   UNL A   1      33.570  28.315  25.015  1.00  0.00     0.243 S 
ATOM     16  O   UNL A   1      34.405  28.246  23.838  1.00  0.00    -0.207 OA
ATOM     17  O   UNL A   1      33.918  29.185  26.112  1.00  0.00    -0.207 OA
BRANCH  15  18
ATOM     18  C   UNL A   1      32.056  28.873  24.467  1.00  0.00     0.120 A 
ATOM     19  C   UNL A   1      29.123  29.119  22.411  1.00  0.00     0.173 C 
ATOM     20  N   UNL A   1      30.206  29.200  23.362  1.00  0.00    -0.274 N 
ATOM     21  C   UNL A   1      31.286  28.371  23.441  1.00  0.00     0.130 A 
ATOM     22  N   UNL A   1      30.239  30.214  24.252  1.00  0.00    -0.180 NA
ATOM     23  C   UNL A   1      31.348  29.975  24.961  1.00  0.00     0.156 A 
ENDBRANCH  15  18
ENDBRANCH  13  15
ENDBRANCH  12  13
ENDBRANCH   7  12
ENDBRANCH   4   6
ENDBRANCH   3   4
ENDBRANCH   2   3
ENDBRANCH   1   2
BRANCH   1  24
ATOM     24  O   UNL A   1      36.839  21.694  25.845  1.00  0.00    -0.374 OA
BRANCH  24  25
ATOM     25  C   UNL A   1      38.245  21.770  25.626  1.00  0.00     0.202 C 
BRANCH  25  26
ATOM     26  C   UNL A   1      39.001  20.436  25.578  1.00  0.00     0.261 C 
BRANCH  26  27
ATOM     27  O   UNL A   1      39.920  20.252  26.673  1.00  0.00    -0.460 OA
BRANCH  27  28
ATOM     28  C   UNL A   1      41.184  19.943  26.288  1.00  0.00     0.338 C 
ATOM     29  O   UNL A   1      41.558  18.901  25.772  1.00  0.00    -0.246 OA
BRANCH  28  30
ATOM     30  C   UNL A   1      42.097  21.091  26.456  1.00  0.00     0.060 A 
ATOM     31  C   UNL A   1      42.415  21.467  27.767  1.00  0.00     0.016 A 
ATOM     32  C   UNL A   1      42.501  21.880  25.376  1.00  0.00     0.016 A 
ATOM     33  C   UNL A   1      43.076  22.671  28.007  1.00  0.00     0.010 A 
ATOM     34  C   UNL A   1      43.163  23.091  25.622  1.00  0.00     0.010 A 
ATOM     35  C   UNL A   1      43.412  23.516  26.940  1.00  0.00    -0.014 A 
BRANCH  35  36
ATOM     36  C   UNL A   1      43.882  24.896  27.232  1.00  0.00     0.031 A 
ATOM     37  C   UNL A   1      45.334  25.242  27.035  1.00  0.00     0.074 A 
ATOM     38  C   UNL A   1      43.016  25.856  27.609  1.00  0.00     0.049 A 
ATOM     39  N   UNL A   1      45.940  26.391  27.192  1.00  0.00    -0.248 NA
ATOM     40  C   UNL A   1      46.220  24.150  26.599  1.00  0.00     0.031 C 
ATOM     41  C   UNL A   1      41.582  25.664  27.796  1.00  0.00     0.029 A 
ATOM     42  N   UNL A   1      43.220  27.183  27.895  1.00  0.00    -0.354 N 
ATOM     43  C   UNL A   1      47.274  26.164  26.876  1.00  0.00     0.074 A 
ATOM     44  C   UNL A   1      47.396  24.759  26.548  1.00  0.00     0.031 C 
ATOM     45  C   UNL A   1      41.029  26.829  28.174  1.00  0.00     0.029 A 
ATOM     46  C   UNL A   1      42.074  27.846  28.268  1.00  0.00     0.049 A 
ATOM     47  H   UNL A   1      44.100  27.618  27.839  1.00  0.00     0.167 HD
ATOM     48  C   UNL A   1      48.304  27.044  26.851  1.00  0.00     0.031 A 
ATOM     49  C   UNL A   1      41.886  29.125  28.647  1.00  0.00     0.031 A 
ATOM     50  C   UNL A   1      48.190  28.440  27.181  1.00  0.00     0.049 A 
ATOM     51  C   UNL A   1      43.055  30.073  28.660  1.00  0.00     0.074 A 
ATOM     52  C   UNL A   1      49.177  29.410  27.170  1.00  0.00     0.029 A 
ATOM     53  N   UNL A   1      47.020  29.065  27.583  1.00  0.00    -0.354 N 
ATOM     54  N   UNL A   1      44.306  29.845  28.338  1.00  0.00    -0.248 NA
ATOM     55  C   UNL A   1      42.784  31.457  29.076  1.00  0.00     0.031 C 
ATOM     56  C   UNL A   1      48.614  30.614  27.610  1.00  0.00     0.029 A 
ATOM     57  C   UNL A   1      47.265  30.404  27.846  1.00  0.00     0.049 A 
ATOM     58  H   UNL A   1      46.145  28.624  27.669  1.00  0.00     0.167 HD
ATOM     59  C   UNL A   1      44.964  31.060  28.487  1.00  0.00     0.074 A 
ATOM     60  C   UNL A   1      43.973  32.023  28.919  1.00  0.00     0.031 C 
ATOM     61  C   UNL A   1      46.272  31.352  28.281  1.00  0.00     0.031 A 
BRANCH  48  62
ATOM     62  C   UNL A   1      49.660  26.508  26.477  1.00  0.00    -0.014 A 
ATOM     63  C   UNL A   1      50.081  26.468  25.136  1.00  0.00     0.010 A 
ATOM     64  C   UNL A   1      50.535  26.065  27.485  1.00  0.00     0.010 A 
ATOM     65  C   UNL A   1      51.340  25.957  24.806  1.00  0.00     0.020 A 
ATOM     66  C   UNL A   1      51.802  25.574  27.161  1.00  0.00     0.020 A 
ATOM     67  C   UNL A   1      52.189  25.506  25.821  1.00  0.00     0.054 A 
BRANCH  67  68
ATOM     68  S   UNL A   1      53.822  24.856  25.371  1.00  0.00     0.124 S 
ATOM     69  O   UNL A   1      53.509  23.471  25.028  1.00  0.00    -0.237 OA
ATOM     70  O   UNL A   1      54.211  25.707  24.249  1.00  0.00    -0.237 OA
ATOM     71  O   UNL A   1      54.613  25.033  26.587  1.00  0.00    -0.744 OA
ENDBRANCH  67  68
ENDBRANCH  48  62
BRANCH  49  72
ATOM     72  C   UNL A   1      40.533  29.583  29.062  1.00  0.00    -0.014 A 
ATOM     73  C   UNL A   1      39.484  29.678  28.132  1.00  0.00     0.010 A 
ATOM     74  C   UNL A   1      40.290  29.926  30.405  1.00  0.00     0.010 A 
ATOM     75  C   UNL A   1      38.220  30.122  28.533  1.00  0.00     0.020 A 
ATOM     76  C   UNL A   1      39.024  30.350  30.814  1.00  0.00     0.020 A 
ATOM     77  C   UNL A   1      37.999  30.457  29.873  1.00  0.00     0.054 A 
BRANCH  77  78
ATOM     78  S   UNL A   1      36.343  30.990  30.389  1.00  0.00     0.124 S 
ATOM     79  O   UNL A   1      35.928  29.893  31.256  1.00  0.00    -0.237 OA
ATOM     80  O   UNL A   1      36.609  32.261  31.058  1.00  0.00    -0.237 OA
ATOM     81  O   UNL A   1      35.613  31.101  29.126  1.00  0.00    -0.744 OA
ENDBRANCH  77  78
ENDBRANCH  49  72
BRANCH  61  82
ATOM     82  C   UNL A   1      46.705  32.778  28.492  1.00  0.00    -0.014 A 
ATOM     83  C   UNL A   1      47.343  33.176  29.680  1.00  0.00     0.010 A 
ATOM     84  C   UNL A   1      46.508  33.724  27.469  1.00  0.00     0.010 A 
ATOM     85  C   UNL A   1      47.746  34.503  29.855  1.00  0.00     0.020 A 
ATOM     86  C   UNL A   1      46.929  35.046  27.630  1.00  0.00     0.020 A 
ATOM     87  C   UNL A   1      47.532  35.432  28.830  1.00  0.00     0.054 A 
BRANCH  87  88
ATOM     88  S   UNL A   1      48.091  37.141  29.063  1.00  0.00     0.124 S 
ATOM     89  O   UNL A   1      46.946  37.746  29.738  1.00  0.00    -0.237 OA
ATOM     90  O   UNL A   1      49.290  36.981  29.884  1.00  0.00    -0.237 OA
ATOM     91  O   UNL A   1      48.335  37.614  27.704  1.00  0.00    -0.744 OA
ENDBRANCH  87  88
ENDBRANCH  61  82
ENDBRANCH  35  36
ENDBRANCH  28  30
ENDBRANCH  27  28
ENDBRANCH  26  27
ENDBRANCH  25  26
ENDBRANCH  24  25
ENDBRANCH   1  24
TORSDOF 21
ENDMDL
