MODEL 1
REMARK VINA RESULT:     -10.9      0.000      0.000
REMARK SMILES C[C@H](Oc1ccc(C(=O)NCc2ccccc2)cc1)C(=O)OCCOCCOC(=O)c1ccc(-c2c3nc(c(-c4ccc(S(=O)(=O)[O-])cc4)c4ccc([nH]4)c(-c4ccc(S(=O)(=O)[O-])cc4)c4nc(c(-c5ccc(S(=O)(=O)[O-])cc5)c5ccc2[nH]5)C=C4)C=C3)cc1
REMARK SMILES IDX 24 1 23 2 22 3 20 4 21 5 2 6 1 7 3 8 4 9 5 10 19 11 6 12
REMARK SMILES IDX 18 13 7 14 8 15 9 16 10 17 11 19 12 20 13 21 17 22 14 23
REMARK SMILES IDX 16 24 15 25 25 26 26 27 27 28 28 29 29 30 30 31 31 32 32 33
REMARK SMILES IDX 90 34 33 35 89 36 34 37 35 38 36 39 83 40 37 41 88 42 82 43
REMARK SMILES IDX 84 44 38 45 87 46 81 47 80 48 39 50 69 51 50 52 68 53 51 54
REMARK SMILES IDX 54 55 67 56 85 57 52 58 53 59 66 61 86 62 55 63 40 64 41 65
REMARK SMILES IDX 49 66 42 67 48 68 43 69 44 70 45 71 46 72 47 73 70 74 71 75
REMARK SMILES IDX 79 76 72 77 78 78 73 79 74 80 75 81 76 82 77 83 56 84 57 85
REMARK SMILES IDX 65 86 58 87 64 88 59 89 60 90 61 91 62 92 63 93
REMARK H PARENT 10 18 84 49 54 60
REMARK Flexibility Score: inf
ROOT
ATOM      1  C   UNL A   1      36.478  22.078  24.646  1.00  0.00     0.202 C 
ENDROOT
BRANCH   1   2
ATOM      2  C   UNL A   1      36.047  20.672  25.064  1.00  0.00     0.261 C 
BRANCH   2   3
ATOM      3  O   UNL A   1      34.720  20.663  25.613  1.00  0.00    -0.461 OA
BRANCH   3   4
ATOM      4  C   UNL A   1      33.797  19.899  24.961  1.00  0.00     0.347 C 
ATOM      5  O   UNL A   1      33.976  18.752  24.567  1.00  0.00    -0.248 OA
BRANCH   4   6
ATOM      6  C   UNL A   1      32.505  20.681  24.714  1.00  0.00     0.279 C 
ATOM      7  C   UNL A   1      32.349  20.782  23.194  1.00  0.00     0.066 C 
BRANCH   6   8
ATOM      8  O   UNL A   1      32.585  21.936  25.406  1.00  0.00    -0.479 OA
BRANCH   8   9
ATOM      9  C   UNL A   1      32.497  23.104  24.706  1.00  0.00     0.120 A 
ATOM     10  C   UNL A   1      31.391  23.542  23.989  1.00  0.00     0.047 A 
ATOM     11  C   UNL A   1      33.662  23.875  24.688  1.00  0.00     0.047 A 
ATOM     12  C   UNL A   1      31.501  24.658  23.151  1.00  0.00     0.017 A 
ATOM     13  C   UNL A   1      33.768  25.004  23.862  1.00  0.00     0.017 A 
ATOM     14  C   UNL A   1      32.697  25.389  23.053  1.00  0.00     0.040 A 
BRANCH  14  15
ATOM     15  C   UNL A   1      32.756  26.413  21.970  1.00  0.00     0.251 C 
ATOM     16  O   UNL A   1      33.270  26.096  20.896  1.00  0.00    -0.269 OA
ATOM     17  N   UNL A   1      32.290  27.691  22.075  1.00  0.00    -0.348 N 
ATOM     18  H   UNL A   1      32.543  28.258  21.310  1.00  0.00     0.164 HD
BRANCH  17  19
ATOM     19  C   UNL A   1      31.507  28.394  23.066  1.00  0.00     0.152 C 
BRANCH  19  20
ATOM     20  C   UNL A   1      32.153  28.312  24.427  1.00  0.00    -0.029 A 
ATOM     21  C   UNL A   1      31.471  27.727  25.505  1.00  0.00     0.005 A 
ATOM     22  C   UNL A   1      33.447  28.809  24.648  1.00  0.00     0.005 A 
ATOM     23  C   UNL A   1      32.069  27.642  26.765  1.00  0.00     0.000 A 
ATOM     24  C   UNL A   1      34.048  28.713  25.903  1.00  0.00     0.000 A 
ATOM     25  C   UNL A   1      33.360  28.131  26.961  1.00  0.00     0.000 A 
ENDBRANCH  19  20
ENDBRANCH  17  19
ENDBRANCH  14  15
ENDBRANCH   8   9
ENDBRANCH   6   8
ENDBRANCH   4   6
ENDBRANCH   3   4
ENDBRANCH   2   3
ENDBRANCH   1   2
BRANCH   1  26
ATOM     26  O   UNL A   1      37.364  22.746  25.544  1.00  0.00    -0.374 OA
BRANCH  26  27
ATOM     27  C   UNL A   1      38.627  22.123  25.780  1.00  0.00     0.202 C 
BRANCH  27  28
ATOM     28  C   UNL A   1      39.677  22.981  26.495  1.00  0.00     0.261 C 
BRANCH  28  29
ATOM     29  O   UNL A   1      39.311  24.374  26.529  1.00  0.00    -0.460 OA
BRANCH  29  30
ATOM     30  C   UNL A   1      40.345  25.239  26.404  1.00  0.00     0.338 C 
ATOM     31  O   UNL A   1      41.019  25.441  25.402  1.00  0.00    -0.246 OA
BRANCH  30  32
ATOM     32  C   UNL A   1      40.465  26.068  27.617  1.00  0.00     0.060 A 
ATOM     33  C   UNL A   1      39.441  25.977  28.569  1.00  0.00     0.016 A 
ATOM     34  C   UNL A   1      41.516  26.971  27.793  1.00  0.00     0.016 A 
ATOM     35  C   UNL A   1      39.440  26.821  29.677  1.00  0.00     0.010 A 
ATOM     36  C   UNL A   1      41.509  27.824  28.903  1.00  0.00     0.010 A 
ATOM     37  C   UNL A   1      40.454  27.775  29.833  1.00  0.00    -0.014 A 
BRANCH  37  38
ATOM     38  C   UNL A   1      40.342  28.799  30.901  1.00  0.00     0.031 A 
ATOM     39  C   UNL A   1      41.239  28.704  32.107  1.00  0.00     0.074 A 
ATOM     40  C   UNL A   1      39.470  29.817  30.786  1.00  0.00     0.049 A 
ATOM     41  N   UNL A   1      41.289  29.474  33.162  1.00  0.00    -0.248 NA
ATOM     42  C   UNL A   1      42.208  27.595  32.124  1.00  0.00     0.031 C 
ATOM     43  C   UNL A   1      38.577  30.041  29.650  1.00  0.00     0.029 A 
ATOM     44  N   UNL A   1      39.192  30.852  31.642  1.00  0.00    -0.354 N 
ATOM     45  C   UNL A   1      42.285  28.942  33.974  1.00  0.00     0.074 A 
ATOM     46  C   UNL A   1      42.797  27.768  33.300  1.00  0.00     0.031 C 
ATOM     47  C   UNL A   1      37.843  31.142  29.883  1.00  0.00     0.029 A 
ATOM     48  C   UNL A   1      38.188  31.681  31.197  1.00  0.00     0.049 A 
ATOM     49  H   UNL A   1      39.664  30.990  32.495  1.00  0.00     0.167 HD
ATOM     50  C   UNL A   1      42.734  29.392  35.169  1.00  0.00     0.031 A 
ATOM     51  C   UNL A   1      37.601  32.739  31.790  1.00  0.00     0.031 A 
ATOM     52  C   UNL A   1      42.219  30.555  35.842  1.00  0.00     0.049 A 
ATOM     53  C   UNL A   1      38.074  33.180  33.152  1.00  0.00     0.074 A 
ATOM     54  C   UNL A   1      42.624  31.100  37.047  1.00  0.00     0.029 A 
ATOM     55  N   UNL A   1      41.183  31.347  35.373  1.00  0.00    -0.354 N 
ATOM     56  N   UNL A   1      39.035  32.679  33.892  1.00  0.00    -0.248 NA
ATOM     57  C   UNL A   1      37.385  34.330  33.754  1.00  0.00     0.031 C 
ATOM     58  C   UNL A   1      41.796  32.189  37.335  1.00  0.00     0.029 A 
ATOM     59  C   UNL A   1      40.916  32.360  36.279  1.00  0.00     0.049 A 
ATOM     60  H   UNL A   1      40.708  31.211  34.522  1.00  0.00     0.167 HD
ATOM     61  C   UNL A   1      39.085  33.473  35.034  1.00  0.00     0.074 A 
ATOM     62  C   UNL A   1      38.066  34.491  34.881  1.00  0.00     0.031 C 
ATOM     63  C   UNL A   1      39.900  33.368  36.112  1.00  0.00     0.031 A 
BRANCH  50  64
ATOM     64  C   UNL A   1      43.824  28.605  35.848  1.00  0.00    -0.014 A 
ATOM     65  C   UNL A   1      45.182  28.914  35.645  1.00  0.00     0.010 A 
ATOM     66  C   UNL A   1      43.483  27.580  36.750  1.00  0.00     0.010 A 
ATOM     67  C   UNL A   1      46.177  28.194  36.311  1.00  0.00     0.020 A 
ATOM     68  C   UNL A   1      44.474  26.875  37.436  1.00  0.00     0.020 A 
ATOM     69  C   UNL A   1      45.816  27.179  37.203  1.00  0.00     0.054 A 
BRANCH  69  70
ATOM     70  S   UNL A   1      47.128  26.287  38.084  1.00  0.00     0.124 S 
ATOM     71  O   UNL A   1      47.391  27.176  39.213  1.00  0.00    -0.237 OA
ATOM     72  O   UNL A   1      46.485  25.020  38.421  1.00  0.00    -0.237 OA
ATOM     73  O   UNL A   1      48.205  26.194  37.101  1.00  0.00    -0.744 OA
ENDBRANCH  69  70
ENDBRANCH  50  64
BRANCH  51  74
ATOM     74  C   UNL A   1      36.480  33.447  31.113  1.00  0.00    -0.014 A 
ATOM     75  C   UNL A   1      36.617  33.923  29.798  1.00  0.00     0.010 A 
ATOM     76  C   UNL A   1      35.268  33.662  31.795  1.00  0.00     0.010 A 
ATOM     77  C   UNL A   1      35.572  34.622  29.184  1.00  0.00     0.020 A 
ATOM     78  C   UNL A   1      34.210  34.334  31.176  1.00  0.00     0.020 A 
ATOM     79  C   UNL A   1      34.375  34.823  29.878  1.00  0.00     0.054 A 
BRANCH  79  80
ATOM     80  S   UNL A   1      33.017  35.697  29.051  1.00  0.00     0.124 S 
ATOM     81  O   UNL A   1      33.731  36.724  28.299  1.00  0.00    -0.237 OA
ATOM     82  O   UNL A   1      32.401  34.639  28.253  1.00  0.00    -0.237 OA
ATOM     83  O   UNL A   1      32.201  36.184  30.160  1.00  0.00    -0.744 OA
ENDBRANCH  79  80
ENDBRANCH  51  74
BRANCH  63  84
ATOM     84  C   UNL A   1      39.755  34.402  37.198  1.00  0.00    -0.014 A 
ATOM     85  C   UNL A   1      38.884  34.203  38.283  1.00  0.00     0.010 A 
ATOM     86  C   UNL A   1      40.546  35.565  37.157  1.00  0.00     0.010 A 
ATOM     87  C   UNL A   1      38.783  35.165  39.293  1.00  0.00     0.020 A 
ATOM     88  C   UNL A   1      40.469  36.516  38.179  1.00  0.00     0.020 A 
ATOM     89  C   UNL A   1      39.576  36.316  39.233  1.00  0.00     0.054 A 
BRANCH  89  90
ATOM     90  S   UNL A   1      39.458  37.530  40.577  1.00  0.00     0.124 S 
ATOM     91  O   UNL A   1      40.796  38.114  40.576  1.00  0.00    -0.237 OA
ATOM     92  O   UNL A   1      38.386  38.411  40.120  1.00  0.00    -0.237 OA
ATOM     93  O   UNL A   1      39.132  36.720  41.748  1.00  0.00    -0.744 OA
ENDBRANCH  89  90
ENDBRANCH  63  84
ENDBRANCH  37  38
ENDBRANCH  30  32
ENDBRANCH  29  30
ENDBRANCH  28  29
ENDBRANCH  27  28
ENDBRANCH  26  27
ENDBRANCH   1  26
TORSDOF 22
ENDMDL
MODEL 2
REMARK VINA RESULT:     -10.6      5.454      6.990
REMARK SMILES C[C@H](Oc1ccc(C(=O)NCc2ccccc2)cc1)C(=O)OCCOCCOC(=O)c1ccc(-c2c3nc(c(-c4ccc(S(=O)(=O)[O-])cc4)c4ccc([nH]4)c(-c4ccc(S(=O)(=O)[O-])cc4)c4nc(c(-c5ccc(S(=O)(=O)[O-])cc5)c5ccc2[nH]5)C=C4)C=C3)cc1
REMARK SMILES IDX 24 1 23 2 22 3 20 4 21 5 2 6 1 7 3 8 4 9 5 10 19 11 6 12
REMARK SMILES IDX 18 13 7 14 8 15 9 16 10 17 11 19 12 20 13 21 17 22 14 23
REMARK SMILES IDX 16 24 15 25 25 26 26 27 27 28 28 29 29 30 30 31 31 32 32 33
REMARK SMILES IDX 90 34 33 35 89 36 34 37 35 38 36 39 83 40 37 41 88 42 82 43
REMARK SMILES IDX 84 44 38 45 87 46 81 47 80 48 39 50 69 51 50 52 68 53 51 54
REMARK SMILES IDX 54 55 67 56 85 57 52 58 53 59 66 61 86 62 55 63 40 64 41 65
REMARK SMILES IDX 49 66 42 67 48 68 43 69 44 70 45 71 46 72 47 73 70 74 71 75
REMARK SMILES IDX 79 76 72 77 78 78 73 79 74 80 75 81 76 82 77 83 56 84 57 85
REMARK SMILES IDX 65 86 58 87 64 88 59 89 60 90 61 91 62 92 63 93
REMARK H PARENT 10 18 84 49 54 60
REMARK Flexibility Score: inf
ROOT
ATOM      1  C   UNL A   1      35.985  20.172  25.035  1.00  0.00     0.202 C 
ENDROOT
BRANCH   1   2
ATOM      2  C   UNL A   1      34.465  20.050  24.924  1.00  0.00     0.261 C 
BRANCH   2   3
ATOM      3  O   UNL A   1      33.792  20.962  25.806  1.00  0.00    -0.461 OA
BRANCH   3   4
ATOM      4  C   UNL A   1      32.583  21.434  25.385  1.00  0.00     0.347 C 
ATOM      5  O   UNL A   1      31.581  20.753  25.197  1.00  0.00    -0.248 OA
BRANCH   4   6
ATOM      6  C   UNL A   1      32.643  22.938  25.105  1.00  0.00     0.279 C 
ATOM      7  C   UNL A   1      33.452  23.555  26.249  1.00  0.00     0.066 C 
BRANCH   6   8
ATOM      8  O   UNL A   1      31.305  23.436  24.962  1.00  0.00    -0.479 OA
BRANCH   8   9
ATOM      9  C   UNL A   1      31.070  24.543  24.199  1.00  0.00     0.120 A 
ATOM     10  C   UNL A   1      31.616  24.800  22.948  1.00  0.00     0.047 A 
ATOM     11  C   UNL A   1      30.244  25.504  24.786  1.00  0.00     0.047 A 
ATOM     12  C   UNL A   1      31.454  26.062  22.364  1.00  0.00     0.017 A 
ATOM     13  C   UNL A   1      30.066  26.764  24.193  1.00  0.00     0.017 A 
ATOM     14  C   UNL A   1      30.702  27.071  22.988  1.00  0.00     0.040 A 
BRANCH  14  15
ATOM     15  C   UNL A   1      30.787  28.429  22.378  1.00  0.00     0.251 C 
ATOM     16  O   UNL A   1      29.786  28.878  21.815  1.00  0.00    -0.269 OA
ATOM     17  N   UNL A   1      31.898  29.221  22.381  1.00  0.00    -0.348 N 
ATOM     18  H   UNL A   1      31.805  30.018  21.810  1.00  0.00     0.164 HD
BRANCH  17  19
ATOM     19  C   UNL A   1      33.181  29.144  23.041  1.00  0.00     0.152 C 
BRANCH  19  20
ATOM     20  C   UNL A   1      33.020  28.823  24.507  1.00  0.00    -0.029 A 
ATOM     21  C   UNL A   1      32.282  29.673  25.345  1.00  0.00     0.005 A 
ATOM     22  C   UNL A   1      33.594  27.669  25.064  1.00  0.00     0.005 A 
ATOM     23  C   UNL A   1      32.125  29.375  26.701  1.00  0.00     0.000 A 
ATOM     24  C   UNL A   1      33.425  27.366  26.416  1.00  0.00     0.000 A 
ATOM     25  C   UNL A   1      32.692  28.218  27.234  1.00  0.00     0.000 A 
ENDBRANCH  19  20
ENDBRANCH  17  19
ENDBRANCH  14  15
ENDBRANCH   8   9
ENDBRANCH   6   8
ENDBRANCH   4   6
ENDBRANCH   3   4
ENDBRANCH   2   3
ENDBRANCH   1   2
BRANCH   1  26
ATOM     26  O   UNL A   1      36.549  21.372  24.507  1.00  0.00    -0.374 OA
BRANCH  26  27
ATOM     27  C   UNL A   1      37.688  21.898  25.190  1.00  0.00     0.202 C 
BRANCH  27  28
ATOM     28  C   UNL A   1      38.730  20.871  25.650  1.00  0.00     0.261 C 
BRANCH  28  29
ATOM     29  O   UNL A   1      40.026  21.464  25.855  1.00  0.00    -0.460 OA
BRANCH  29  30
ATOM     30  C   UNL A   1      40.475  21.428  27.132  1.00  0.00     0.338 C 
ATOM     31  O   UNL A   1      40.714  20.431  27.801  1.00  0.00    -0.246 OA
BRANCH  30  32
ATOM     32  C   UNL A   1      40.817  22.787  27.590  1.00  0.00     0.060 A 
ATOM     33  C   UNL A   1      40.194  23.865  26.946  1.00  0.00     0.016 A 
ATOM     34  C   UNL A   1      41.779  23.013  28.577  1.00  0.00     0.016 A 
ATOM     35  C   UNL A   1      40.564  25.172  27.255  1.00  0.00     0.010 A 
ATOM     36  C   UNL A   1      42.156  24.328  28.879  1.00  0.00     0.010 A 
ATOM     37  C   UNL A   1      41.573  25.411  28.197  1.00  0.00    -0.014 A 
BRANCH  37  38
ATOM     38  C   UNL A   1      42.101  26.786  28.375  1.00  0.00     0.031 A 
ATOM     39  C   UNL A   1      43.528  27.080  27.993  1.00  0.00     0.074 A 
ATOM     40  C   UNL A   1      41.312  27.769  28.847  1.00  0.00     0.049 A 
ATOM     41  N   UNL A   1      44.195  28.201  28.090  1.00  0.00    -0.248 NA
ATOM     42  C   UNL A   1      44.303  25.964  27.426  1.00  0.00     0.031 C 
ATOM     43  C   UNL A   1      39.904  27.620  29.213  1.00  0.00     0.029 A 
ATOM     44  N   UNL A   1      41.588  29.088  29.101  1.00  0.00    -0.354 N 
ATOM     45  C   UNL A   1      45.469  27.926  27.606  1.00  0.00     0.074 A 
ATOM     46  C   UNL A   1      45.490  26.527  27.239  1.00  0.00     0.031 C 
ATOM     47  C   UNL A   1      39.440  28.802  29.654  1.00  0.00     0.029 A 
ATOM     48  C   UNL A   1      40.525  29.781  29.633  1.00  0.00     0.049 A 
ATOM     49  H   UNL A   1      42.463  29.501  28.922  1.00  0.00     0.167 HD
ATOM     50  C   UNL A   1      46.525  28.764  27.476  1.00  0.00     0.031 A 
ATOM     51  C   UNL A   1      40.443  31.053  30.072  1.00  0.00     0.031 A 
ATOM     52  C   UNL A   1      46.507  30.154  27.849  1.00  0.00     0.049 A 
ATOM     53  C   UNL A   1      41.653  31.946  29.979  1.00  0.00     0.074 A 
ATOM     54  C   UNL A   1      47.521  31.087  27.736  1.00  0.00     0.029 A 
ATOM     55  N   UNL A   1      45.421  30.808  28.412  1.00  0.00    -0.354 N 
ATOM     56  N   UNL A   1      42.842  31.676  29.495  1.00  0.00    -0.248 NA
ATOM     57  C   UNL A   1      41.507  33.317  30.489  1.00  0.00     0.031 C 
ATOM     58  C   UNL A   1      47.069  32.293  28.282  1.00  0.00     0.029 A 
ATOM     59  C   UNL A   1      45.752  32.126  28.678  1.00  0.00     0.049 A 
ATOM     60  H   UNL A   1      44.546  30.397  28.594  1.00  0.00     0.167 HD
ATOM     61  C   UNL A   1      43.575  32.853  29.614  1.00  0.00     0.074 A 
ATOM     62  C   UNL A   1      42.693  33.838  30.205  1.00  0.00     0.031 C 
ATOM     63  C   UNL A   1      44.863  33.096  29.266  1.00  0.00     0.031 A 
BRANCH  50  64
ATOM     64  C   UNL A   1      47.809  28.193  26.933  1.00  0.00    -0.014 A 
ATOM     65  C   UNL A   1      47.998  28.009  25.551  1.00  0.00     0.010 A 
ATOM     66  C   UNL A   1      48.864  27.893  27.814  1.00  0.00     0.010 A 
ATOM     67  C   UNL A   1      49.209  27.511  25.064  1.00  0.00     0.020 A 
ATOM     68  C   UNL A   1      50.084  27.419  27.329  1.00  0.00     0.020 A 
ATOM     69  C   UNL A   1      50.245  27.219  25.957  1.00  0.00     0.054 A 
BRANCH  69  70
ATOM     70  S   UNL A   1      51.821  26.610  25.293  1.00  0.00     0.124 S 
ATOM     71  O   UNL A   1      52.761  27.616  25.780  1.00  0.00    -0.237 OA
ATOM     72  O   UNL A   1      51.940  25.291  25.908  1.00  0.00    -0.237 OA
ATOM     73  O   UNL A   1      51.609  26.604  23.848  1.00  0.00    -0.744 OA
ENDBRANCH  69  70
ENDBRANCH  50  64
BRANCH  51  74
ATOM     74  C   UNL A   1      39.174  31.556  30.666  1.00  0.00    -0.014 A 
ATOM     75  C   UNL A   1      38.216  32.208  29.873  1.00  0.00     0.010 A 
ATOM     76  C   UNL A   1      38.928  31.396  32.043  1.00  0.00     0.010 A 
ATOM     77  C   UNL A   1      37.044  32.713  30.448  1.00  0.00     0.020 A 
ATOM     78  C   UNL A   1      37.746  31.874  32.617  1.00  0.00     0.020 A 
ATOM     79  C   UNL A   1      36.817  32.542  31.816  1.00  0.00     0.054 A 
BRANCH  79  80
ATOM     80  S   UNL A   1      35.275  33.169  32.536  1.00  0.00     0.124 S 
ATOM     81  O   UNL A   1      34.268  32.395  31.816  1.00  0.00    -0.237 OA
ATOM     82  O   UNL A   1      35.431  32.843  33.952  1.00  0.00    -0.237 OA
ATOM     83  O   UNL A   1      35.310  34.595  32.226  1.00  0.00    -0.744 OA
ENDBRANCH  79  80
ENDBRANCH  51  74
BRANCH  63  84
ATOM     84  C   UNL A   1      45.390  34.491  29.477  1.00  0.00    -0.014 A 
ATOM     85  C   UNL A   1      45.231  35.487  28.498  1.00  0.00     0.010 A 
ATOM     86  C   UNL A   1      46.001  34.822  30.701  1.00  0.00     0.010 A 
ATOM     87  C   UNL A   1      45.706  36.782  28.726  1.00  0.00     0.020 A 
ATOM     88  C   UNL A   1      46.452  36.123  30.943  1.00  0.00     0.020 A 
ATOM     89  C   UNL A   1      46.314  37.092  29.947  1.00  0.00     0.054 A 
BRANCH  89  90
ATOM     90  S   UNL A   1      46.883  38.790  30.235  1.00  0.00     0.124 S 
ATOM     91  O   UNL A   1      46.072  39.192  31.381  1.00  0.00    -0.237 OA
ATOM     92  O   UNL A   1      48.308  38.610  30.504  1.00  0.00    -0.237 OA
ATOM     93  O   UNL A   1      46.575  39.476  28.983  1.00  0.00    -0.744 OA
ENDBRANCH  89  90
ENDBRANCH  63  84
ENDBRANCH  37  38
ENDBRANCH  30  32
ENDBRANCH  29  30
ENDBRANCH  28  29
ENDBRANCH  27  28
ENDBRANCH  26  27
ENDBRANCH   1  26
TORSDOF 22
ENDMDL
MODEL 3
REMARK VINA RESULT:     -10.4      1.074      8.128
REMARK SMILES C[C@H](Oc1ccc(C(=O)NCc2ccccc2)cc1)C(=O)OCCOCCOC(=O)c1ccc(-c2c3nc(c(-c4ccc(S(=O)(=O)[O-])cc4)c4ccc([nH]4)c(-c4ccc(S(=O)(=O)[O-])cc4)c4nc(c(-c5ccc(S(=O)(=O)[O-])cc5)c5ccc2[nH]5)C=C4)C=C3)cc1
REMARK SMILES IDX 24 1 23 2 22 3 20 4 21 5 2 6 1 7 3 8 4 9 5 10 19 11 6 12
REMARK SMILES IDX 18 13 7 14 8 15 9 16 10 17 11 19 12 20 13 21 17 22 14 23
REMARK SMILES IDX 16 24 15 25 25 26 26 27 27 28 28 29 29 30 30 31 31 32 32 33
REMARK SMILES IDX 90 34 33 35 89 36 34 37 35 38 36 39 83 40 37 41 88 42 82 43
REMARK SMILES IDX 84 44 38 45 87 46 81 47 80 48 39 50 69 51 50 52 68 53 51 54
REMARK SMILES IDX 54 55 67 56 85 57 52 58 53 59 66 61 86 62 55 63 40 64 41 65
REMARK SMILES IDX 49 66 42 67 48 68 43 69 44 70 45 71 46 72 47 73 70 74 71 75
REMARK SMILES IDX 79 76 72 77 78 78 73 79 74 80 75 81 76 82 77 83 56 84 57 85
REMARK SMILES IDX 65 86 58 87 64 88 59 89 60 90 61 91 62 92 63 93
REMARK H PARENT 10 18 84 49 54 60
REMARK Flexibility Score: inf
ROOT
ATOM      1  C   UNL A   1      37.599  21.462  24.958  1.00  0.00     0.202 C 
ENDROOT
BRANCH   1   2
ATOM      2  C   UNL A   1      36.436  20.480  25.099  1.00  0.00     0.261 C 
BRANCH   2   3
ATOM      3  O   UNL A   1      35.225  21.143  25.495  1.00  0.00    -0.461 OA
BRANCH   3   4
ATOM      4  C   UNL A   1      34.087  20.773  24.840  1.00  0.00     0.347 C 
ATOM      5  O   UNL A   1      33.780  19.625  24.542  1.00  0.00    -0.248 OA
BRANCH   4   6
ATOM      6  C   UNL A   1      33.249  21.995  24.453  1.00  0.00     0.279 C 
ATOM      7  C   UNL A   1      32.440  21.586  23.219  1.00  0.00     0.066 C 
BRANCH   6   8
ATOM      8  O   UNL A   1      34.125  23.116  24.268  1.00  0.00    -0.479 OA
BRANCH   8   9
ATOM      9  C   UNL A   1      33.606  24.335  23.939  1.00  0.00     0.120 A 
ATOM     10  C   UNL A   1      33.629  24.916  22.677  1.00  0.00     0.047 A 
ATOM     11  C   UNL A   1      33.061  25.056  25.004  1.00  0.00     0.047 A 
ATOM     12  C   UNL A   1      33.245  26.253  22.519  1.00  0.00     0.017 A 
ATOM     13  C   UNL A   1      32.659  26.391  24.843  1.00  0.00     0.017 A 
ATOM     14  C   UNL A   1      32.782  27.018  23.601  1.00  0.00     0.040 A 
BRANCH  14  15
ATOM     15  C   UNL A   1      32.615  28.479  23.351  1.00  0.00     0.251 C 
ATOM     16  O   UNL A   1      32.728  28.889  22.194  1.00  0.00    -0.269 OA
ATOM     17  N   UNL A   1      32.355  29.413  24.311  1.00  0.00    -0.348 N 
ATOM     18  H   UNL A   1      32.418  30.338  23.976  1.00  0.00     0.164 HD
BRANCH  17  19
ATOM     19  C   UNL A   1      32.007  29.341  25.712  1.00  0.00     0.152 C 
BRANCH  19  20
ATOM     20  C   UNL A   1      33.148  29.810  26.580  1.00  0.00    -0.029 A 
ATOM     21  C   UNL A   1      33.089  31.056  27.221  1.00  0.00     0.005 A 
ATOM     22  C   UNL A   1      34.288  29.014  26.773  1.00  0.00     0.005 A 
ATOM     23  C   UNL A   1      34.141  31.491  28.032  1.00  0.00     0.000 A 
ATOM     24  C   UNL A   1      35.333  29.443  27.593  1.00  0.00     0.000 A 
ATOM     25  C   UNL A   1      35.260  30.681  28.221  1.00  0.00     0.000 A 
ENDBRANCH  19  20
ENDBRANCH  17  19
ENDBRANCH  14  15
ENDBRANCH   8   9
ENDBRANCH   6   8
ENDBRANCH   4   6
ENDBRANCH   3   4
ENDBRANCH   2   3
ENDBRANCH   1   2
BRANCH   1  26
ATOM     26  O   UNL A   1      37.245  22.845  24.958  1.00  0.00    -0.374 OA
BRANCH  26  27
ATOM     27  C   UNL A   1      37.683  23.618  26.076  1.00  0.00     0.202 C 
BRANCH  27  28
ATOM     28  C   UNL A   1      39.161  23.470  26.459  1.00  0.00     0.261 C 
BRANCH  28  29
ATOM     29  O   UNL A   1      39.905  24.683  26.238  1.00  0.00    -0.460 OA
BRANCH  29  30
ATOM     30  C   UNL A   1      40.966  24.859  27.060  1.00  0.00     0.338 C 
ATOM     31  O   UNL A   1      42.067  24.329  26.967  1.00  0.00    -0.246 OA
BRANCH  30  32
ATOM     32  C   UNL A   1      40.688  25.936  28.028  1.00  0.00     0.060 A 
ATOM     33  C   UNL A   1      41.644  26.951  28.162  1.00  0.00     0.016 A 
ATOM     34  C   UNL A   1      39.553  25.921  28.843  1.00  0.00     0.016 A 
ATOM     35  C   UNL A   1      41.493  27.929  29.142  1.00  0.00     0.010 A 
ATOM     36  C   UNL A   1      39.407  26.901  29.832  1.00  0.00     0.010 A 
ATOM     37  C   UNL A   1      40.392  27.890  30.007  1.00  0.00    -0.014 A 
BRANCH  37  38
ATOM     38  C   UNL A   1      40.339  28.810  31.170  1.00  0.00     0.031 A 
ATOM     39  C   UNL A   1      39.331  29.930  31.175  1.00  0.00     0.074 A 
ATOM     40  C   UNL A   1      41.160  28.636  32.221  1.00  0.00     0.049 A 
ATOM     41  N   UNL A   1      39.133  30.858  32.074  1.00  0.00    -0.248 NA
ATOM     42  C   UNL A   1      38.429  30.012  30.014  1.00  0.00     0.031 C 
ATOM     43  C   UNL A   1      42.149  27.566  32.353  1.00  0.00     0.029 A 
ATOM     44  N   UNL A   1      41.292  29.361  33.378  1.00  0.00    -0.354 N 
ATOM     45  C   UNL A   1      38.091  31.640  31.588  1.00  0.00     0.074 A 
ATOM     46  C   UNL A   1      37.715  31.093  30.302  1.00  0.00     0.031 C 
ATOM     47  C   UNL A   1      42.794  27.710  33.524  1.00  0.00     0.029 A 
ATOM     48  C   UNL A   1      42.288  28.898  34.207  1.00  0.00     0.049 A 
ATOM     49  H   UNL A   1      40.730  30.139  33.596  1.00  0.00     0.167 HD
ATOM     50  C   UNL A   1      37.499  32.715  32.161  1.00  0.00     0.031 A 
ATOM     51  C   UNL A   1      42.752  29.390  35.374  1.00  0.00     0.031 A 
ATOM     52  C   UNL A   1      37.878  33.264  33.436  1.00  0.00     0.049 A 
ATOM     53  C   UNL A   1      42.120  30.627  35.958  1.00  0.00     0.074 A 
ATOM     54  C   UNL A   1      37.323  34.338  34.108  1.00  0.00     0.029 A 
ATOM     55  N   UNL A   1      38.910  32.785  34.228  1.00  0.00    -0.354 N 
ATOM     56  N   UNL A   1      41.119  31.338  35.496  1.00  0.00    -0.248 NA
ATOM     57  C   UNL A   1      42.680  31.124  37.223  1.00  0.00     0.031 C 
ATOM     58  C   UNL A   1      38.056  34.546  35.281  1.00  0.00     0.029 A 
ATOM     59  C   UNL A   1      39.027  33.562  35.369  1.00  0.00     0.049 A 
ATOM     60  H   UNL A   1      39.476  32.009  34.013  1.00  0.00     0.167 HD
ATOM     61  C   UNL A   1      40.910  32.349  36.430  1.00  0.00     0.074 A 
ATOM     62  C   UNL A   1      41.880  32.149  37.486  1.00  0.00     0.031 C 
ATOM     63  C   UNL A   1      39.997  33.351  36.413  1.00  0.00     0.031 A 
BRANCH  50  64
ATOM     64  C   UNL A   1      36.391  33.393  31.398  1.00  0.00    -0.014 A 
ATOM     65  C   UNL A   1      35.144  33.648  31.996  1.00  0.00     0.010 A 
ATOM     66  C   UNL A   1      36.624  33.836  30.083  1.00  0.00     0.010 A 
ATOM     67  C   UNL A   1      34.141  34.310  31.283  1.00  0.00     0.020 A 
ATOM     68  C   UNL A   1      35.632  34.520  29.376  1.00  0.00     0.020 A 
ATOM     69  C   UNL A   1      34.392  34.742  29.976  1.00  0.00     0.054 A 
BRANCH  69  70
ATOM     70  S   UNL A   1      33.085  35.633  29.088  1.00  0.00     0.124 S 
ATOM     71  O   UNL A   1      32.275  36.154  30.187  1.00  0.00    -0.237 OA
ATOM     72  O   UNL A   1      33.835  36.634  28.333  1.00  0.00    -0.237 OA
ATOM     73  O   UNL A   1      32.445  34.598  28.281  1.00  0.00    -0.744 OA
ENDBRANCH  69  70
ENDBRANCH  50  64
BRANCH  51  74
ATOM     74  C   UNL A   1      43.894  28.727  36.060  1.00  0.00    -0.014 A 
ATOM     75  C   UNL A   1      45.217  29.137  35.818  1.00  0.00     0.010 A 
ATOM     76  C   UNL A   1      43.660  27.663  36.952  1.00  0.00     0.010 A 
ATOM     77  C   UNL A   1      46.287  28.481  36.437  1.00  0.00     0.020 A 
ATOM     78  C   UNL A   1      44.724  27.025  37.595  1.00  0.00     0.020 A 
ATOM     79  C   UNL A   1      46.033  27.429  37.322  1.00  0.00     0.054 A 
BRANCH  79  80
ATOM     80  S   UNL A   1      47.431  26.617  38.145  1.00  0.00     0.124 S 
ATOM     81  O   UNL A   1      48.574  27.253  37.499  1.00  0.00    -0.237 OA
ATOM     82  O   UNL A   1      47.219  26.969  39.548  1.00  0.00    -0.237 OA
ATOM     83  O   UNL A   1      47.238  25.204  37.830  1.00  0.00    -0.744 OA
ENDBRANCH  79  80
ENDBRANCH  51  74
BRANCH  63  84
ATOM     84  C   UNL A   1      39.974  34.291  37.591  1.00  0.00    -0.014 A 
ATOM     85  C   UNL A   1      40.715  35.484  37.586  1.00  0.00     0.010 A 
ATOM     86  C   UNL A   1      39.152  33.998  38.695  1.00  0.00     0.010 A 
ATOM     87  C   UNL A   1      40.660  36.354  38.680  1.00  0.00     0.020 A 
ATOM     88  C   UNL A   1      39.072  34.878  39.777  1.00  0.00     0.020 A 
ATOM     89  C   UNL A   1      39.839  36.044  39.769  1.00  0.00     0.054 A 
BRANCH  89  90
ATOM     90  S   UNL A   1      39.752  37.209  41.157  1.00  0.00     0.124 S 
ATOM     91  O   UNL A   1      41.161  37.523  41.379  1.00  0.00    -0.237 OA
ATOM     92  O   UNL A   1      38.942  38.297  40.614  1.00  0.00    -0.237 OA
ATOM     93  O   UNL A   1      39.112  36.436  42.218  1.00  0.00    -0.744 OA
ENDBRANCH  89  90
ENDBRANCH  63  84
ENDBRANCH  37  38
ENDBRANCH  30  32
ENDBRANCH  29  30
ENDBRANCH  28  29
ENDBRANCH  27  28
ENDBRANCH  26  27
ENDBRANCH   1  26
TORSDOF 22
ENDMDL
