MODEL 1
REMARK VINA RESULT:     -10.9      0.000      0.000
REMARK SMILES O=C(Cc1ccc(-c2cccc(F)c2F)cc1)OCCOCCOC(=O)c1ccc(-c2c3nc(c(-c4ccc(S(=O)(=O)[O-])cc4)c4ccc([nH]4)c(-c4ccc(S(=O)(=O)[O-])cc4)c4nc(c(-c5ccc(S(=O)(=O)[O-])cc5)c5ccc2[nH]5)C=C4)C=C3)cc1
REMARK SMILES IDX 22 1 21 2 20 3 19 4 18 5 2 6 1 7 3 8 4 9 5 10 17 11 6 12
REMARK SMILES IDX 16 13 7 14 8 15 9 16 14 17 10 18 12 19 15 20 11 21 13 22
REMARK SMILES IDX 23 23 24 24 25 25 26 26 27 27 28 28 86 29 29 30 85 31 30 32
REMARK SMILES IDX 31 33 32 34 79 35 33 36 84 37 78 38 80 39 34 40 83 41 77 42
REMARK SMILES IDX 76 43 35 45 65 46 46 47 64 48 47 49 50 50 63 51 81 52 48 53
REMARK SMILES IDX 49 54 62 56 82 57 51 58 36 59 37 60 45 61 38 62 44 63 39 64
REMARK SMILES IDX 40 65 41 66 42 67 43 68 66 69 67 70 75 71 68 72 74 73 69 74
REMARK SMILES IDX 70 75 71 76 72 77 73 78 52 79 53 80 61 81 54 82 60 83 55 84
REMARK SMILES IDX 56 85 57 86 58 87 59 88
REMARK H PARENT 80 44 50 55
REMARK Flexibility Score: inf
ROOT
ATOM      1  C   UNL A   1      32.511  29.890  25.616  1.00  0.00     0.202 C 
ENDROOT
BRANCH   1   2
ATOM      2  O   UNL A   1      31.413  28.969  25.678  1.00  0.00    -0.374 OA
BRANCH   2   3
ATOM      3  C   UNL A   1      31.532  27.959  26.678  1.00  0.00     0.202 C 
BRANCH   3   4
ATOM      4  C   UNL A   1      32.549  26.853  26.411  1.00  0.00     0.261 C 
BRANCH   4   5
ATOM      5  O   UNL A   1      31.962  25.558  26.219  1.00  0.00    -0.463 OA
BRANCH   5   6
ATOM      6  C   UNL A   1      31.695  24.982  25.025  1.00  0.00     0.310 C 
ATOM      7  O   UNL A   1      32.633  24.539  24.359  1.00  0.00    -0.252 OA
BRANCH   6   8
ATOM      8  C   UNL A   1      30.293  24.981  24.447  1.00  0.00     0.158 C 
BRANCH   8   9
ATOM      9  C   UNL A   1      29.873  26.222  23.717  1.00  0.00    -0.037 A 
ATOM     10  C   UNL A   1      28.572  26.695  23.855  1.00  0.00     0.005 A 
ATOM     11  C   UNL A   1      30.773  26.939  22.920  1.00  0.00     0.005 A 
ATOM     12  C   UNL A   1      28.217  27.924  23.305  1.00  0.00     0.009 A 
ATOM     13  C   UNL A   1      30.440  28.208  22.443  1.00  0.00     0.009 A 
ATOM     14  C   UNL A   1      29.163  28.742  22.661  1.00  0.00    -0.015 A 
BRANCH  14  15
ATOM     15  C   UNL A   1      28.820  30.128  22.299  1.00  0.00     0.020 A 
ATOM     16  C   UNL A   1      28.197  30.389  21.058  1.00  0.00     0.012 A 
ATOM     17  C   UNL A   1      29.066  31.225  23.137  1.00  0.00     0.166 A 
ATOM     18  C   UNL A   1      27.875  31.686  20.654  1.00  0.00     0.004 A 
ATOM     19  C   UNL A   1      28.736  32.518  22.736  1.00  0.00     0.159 A 
ATOM     20  F   UNL A   1      29.638  31.051  24.340  1.00  0.00    -0.203 F 
ATOM     21  C   UNL A   1      28.153  32.756  21.496  1.00  0.00     0.042 A 
ATOM     22  F   UNL A   1      28.990  33.555  23.546  1.00  0.00    -0.204 F 
ENDBRANCH  14  15
ENDBRANCH   8   9
ENDBRANCH   6   8
ENDBRANCH   5   6
ENDBRANCH   4   5
ENDBRANCH   3   4
ENDBRANCH   2   3
ENDBRANCH   1   2
BRANCH   1  23
ATOM     23  C   UNL A   1      32.733  30.713  26.888  1.00  0.00     0.261 C 
BRANCH  23  24
ATOM     24  O   UNL A   1      33.828  30.195  27.650  1.00  0.00    -0.460 OA
BRANCH  24  25
ATOM     25  C   UNL A   1      34.743  31.114  28.042  1.00  0.00     0.338 C 
ATOM     26  O   UNL A   1      34.542  32.285  28.322  1.00  0.00    -0.246 OA
BRANCH  25  27
ATOM     27  C   UNL A   1      36.013  30.408  28.311  1.00  0.00     0.060 A 
ATOM     28  C   UNL A   1      36.229  29.905  29.603  1.00  0.00     0.016 A 
ATOM     29  C   UNL A   1      36.947  30.192  27.296  1.00  0.00     0.016 A 
ATOM     30  C   UNL A   1      37.408  29.226  29.898  1.00  0.00     0.010 A 
ATOM     31  C   UNL A   1      38.128  29.519  27.593  1.00  0.00     0.010 A 
ATOM     32  C   UNL A   1      38.378  29.073  28.903  1.00  0.00    -0.014 A 
BRANCH  32  33
ATOM     33  C   UNL A   1      39.757  28.667  29.242  1.00  0.00     0.031 A 
ATOM     34  C   UNL A   1      40.669  29.722  29.796  1.00  0.00     0.074 A 
ATOM     35  C   UNL A   1      40.207  27.431  28.978  1.00  0.00     0.049 A 
ATOM     36  N   UNL A   1      41.962  29.694  29.974  1.00  0.00    -0.248 NA
ATOM     37  C   UNL A   1      40.031  30.997  30.172  1.00  0.00     0.031 C 
ATOM     38  C   UNL A   1      39.398  26.324  28.471  1.00  0.00     0.029 A 
ATOM     39  N   UNL A   1      41.475  26.916  29.063  1.00  0.00    -0.354 N 
ATOM     40  C   UNL A   1      42.298  30.959  30.443  1.00  0.00     0.074 A 
ATOM     41  C   UNL A   1      41.080  31.733  30.502  1.00  0.00     0.031 C 
ATOM     42  C   UNL A   1      40.198  25.268  28.252  1.00  0.00     0.029 A 
ATOM     43  C   UNL A   1      41.579  25.643  28.557  1.00  0.00     0.049 A 
ATOM     44  H   UNL A   1      42.234  27.409  29.449  1.00  0.00     0.167 HD
ATOM     45  C   UNL A   1      43.520  31.431  30.784  1.00  0.00     0.031 A 
ATOM     46  C   UNL A   1      42.671  24.889  28.321  1.00  0.00     0.031 A 
ATOM     47  C   UNL A   1      44.723  30.650  30.693  1.00  0.00     0.049 A 
ATOM     48  C   UNL A   1      44.029  25.442  28.663  1.00  0.00     0.074 A 
ATOM     49  C   UNL A   1      46.011  31.010  31.042  1.00  0.00     0.029 A 
ATOM     50  N   UNL A   1      44.783  29.353  30.202  1.00  0.00    -0.354 N 
ATOM     51  N   UNL A   1      44.340  26.625  29.139  1.00  0.00    -0.248 NA
ATOM     52  C   UNL A   1      45.183  24.558  28.444  1.00  0.00     0.031 C 
ATOM     53  C   UNL A   1      46.861  29.954  30.698  1.00  0.00     0.029 A 
ATOM     54  C   UNL A   1      46.093  28.906  30.210  1.00  0.00     0.049 A 
ATOM     55  H   UNL A   1      44.010  28.829  29.893  1.00  0.00     0.167 HD
ATOM     56  C   UNL A   1      45.721  26.618  29.309  1.00  0.00     0.074 A 
ATOM     57  C   UNL A   1      46.184  25.311  28.883  1.00  0.00     0.031 C 
ATOM     58  C   UNL A   1      46.530  27.599  29.783  1.00  0.00     0.031 A 
BRANCH  45  59
ATOM     59  C   UNL A   1      43.605  32.872  31.216  1.00  0.00    -0.014 A 
ATOM     60  C   UNL A   1      43.688  33.920  30.280  1.00  0.00     0.010 A 
ATOM     61  C   UNL A   1      43.630  33.181  32.588  1.00  0.00     0.010 A 
ATOM     62  C   UNL A   1      43.866  35.239  30.708  1.00  0.00     0.020 A 
ATOM     63  C   UNL A   1      43.771  34.502  33.020  1.00  0.00     0.020 A 
ATOM     64  C   UNL A   1      43.916  35.520  32.076  1.00  0.00     0.054 A 
BRANCH  64  65
ATOM     65  S   UNL A   1      44.172  37.236  32.604  1.00  0.00     0.124 S 
ATOM     66  O   UNL A   1      44.008  37.963  31.348  1.00  0.00    -0.237 OA
ATOM     67  O   UNL A   1      43.109  37.431  33.586  1.00  0.00    -0.237 OA
ATOM     68  O   UNL A   1      45.528  37.233  33.149  1.00  0.00    -0.744 OA
ENDBRANCH  64  65
ENDBRANCH  45  59
BRANCH  46  69
ATOM     69  C   UNL A   1      42.504  23.541  27.714  1.00  0.00    -0.014 A 
ATOM     70  C   UNL A   1      42.726  23.341  26.341  1.00  0.00     0.010 A 
ATOM     71  C   UNL A   1      42.196  22.433  28.525  1.00  0.00     0.010 A 
ATOM     72  C   UNL A   1      42.659  22.056  25.793  1.00  0.00     0.020 A 
ATOM     73  C   UNL A   1      42.155  21.143  27.988  1.00  0.00     0.020 A 
ATOM     74  C   UNL A   1      42.390  20.964  26.623  1.00  0.00     0.054 A 
BRANCH  74  75
ATOM     75  S   UNL A   1      42.424  19.296  25.907  1.00  0.00     0.124 S 
ATOM     76  O   UNL A   1      41.022  19.083  25.563  1.00  0.00    -0.237 OA
ATOM     77  O   UNL A   1      43.336  19.460  24.778  1.00  0.00    -0.237 OA
ATOM     78  O   UNL A   1      42.936  18.466  26.996  1.00  0.00    -0.744 OA
ENDBRANCH  74  75
ENDBRANCH  46  69
BRANCH  58  79
ATOM     79  C   UNL A   1      47.998  27.292  29.925  1.00  0.00    -0.014 A 
ATOM     80  C   UNL A   1      48.895  27.465  28.857  1.00  0.00     0.010 A 
ATOM     81  C   UNL A   1      48.499  26.922  31.188  1.00  0.00     0.010 A 
ATOM     82  C   UNL A   1      50.265  27.261  29.047  1.00  0.00     0.020 A 
ATOM     83  C   UNL A   1      49.869  26.748  31.389  1.00  0.00     0.020 A 
ATOM     84  C   UNL A   1      50.744  26.912  30.315  1.00  0.00     0.054 A 
BRANCH  84  85
ATOM     85  S   UNL A   1      52.532  26.730  30.553  1.00  0.00     0.124 S 
ATOM     86  O   UNL A   1      52.853  27.904  31.359  1.00  0.00    -0.237 OA
ATOM     87  O   UNL A   1      52.633  25.446  31.244  1.00  0.00    -0.237 OA
ATOM     88  O   UNL A   1      53.067  26.742  29.193  1.00  0.00    -0.744 OA
ENDBRANCH  84  85
ENDBRANCH  58  79
ENDBRANCH  32  33
ENDBRANCH  25  27
ENDBRANCH  24  25
ENDBRANCH  23  24
ENDBRANCH   1  23
TORSDOF 19
ENDMDL
MODEL 2
REMARK VINA RESULT:     -10.6      5.139     10.775
REMARK SMILES O=C(Cc1ccc(-c2cccc(F)c2F)cc1)OCCOCCOC(=O)c1ccc(-c2c3nc(c(-c4ccc(S(=O)(=O)[O-])cc4)c4ccc([nH]4)c(-c4ccc(S(=O)(=O)[O-])cc4)c4nc(c(-c5ccc(S(=O)(=O)[O-])cc5)c5ccc2[nH]5)C=C4)C=C3)cc1
REMARK SMILES IDX 22 1 21 2 20 3 19 4 18 5 2 6 1 7 3 8 4 9 5 10 17 11 6 12
REMARK SMILES IDX 16 13 7 14 8 15 9 16 14 17 10 18 12 19 15 20 11 21 13 22
REMARK SMILES IDX 23 23 24 24 25 25 26 26 27 27 28 28 86 29 29 30 85 31 30 32
REMARK SMILES IDX 31 33 32 34 79 35 33 36 84 37 78 38 80 39 34 40 83 41 77 42
REMARK SMILES IDX 76 43 35 45 65 46 46 47 64 48 47 49 50 50 63 51 81 52 48 53
REMARK SMILES IDX 49 54 62 56 82 57 51 58 36 59 37 60 45 61 38 62 44 63 39 64
REMARK SMILES IDX 40 65 41 66 42 67 43 68 66 69 67 70 75 71 68 72 74 73 69 74
REMARK SMILES IDX 70 75 71 76 72 77 73 78 52 79 53 80 61 81 54 82 60 83 55 84
REMARK SMILES IDX 56 85 57 86 58 87 59 88
REMARK H PARENT 80 44 50 55
REMARK Flexibility Score: inf
ROOT
ATOM      1  C   UNL A   1      37.788  22.816  26.114  1.00  0.00     0.202 C 
ENDROOT
BRANCH   1   2
ATOM      2  O   UNL A   1      36.907  23.716  25.428  1.00  0.00    -0.374 OA
BRANCH   2   3
ATOM      3  C   UNL A   1      35.755  23.105  24.849  1.00  0.00     0.202 C 
BRANCH   3   4
ATOM      4  C   UNL A   1      35.794  22.868  23.342  1.00  0.00     0.261 C 
BRANCH   4   5
ATOM      5  O   UNL A   1      34.805  23.606  22.612  1.00  0.00    -0.463 OA
BRANCH   5   6
ATOM      6  C   UNL A   1      33.467  23.427  22.692  1.00  0.00     0.310 C 
ATOM      7  O   UNL A   1      33.001  22.317  22.425  1.00  0.00    -0.252 OA
BRANCH   6   8
ATOM      8  C   UNL A   1      32.533  24.586  22.985  1.00  0.00     0.158 C 
BRANCH   8   9
ATOM      9  C   UNL A   1      33.070  25.662  23.883  1.00  0.00    -0.037 A 
ATOM     10  C   UNL A   1      33.566  26.837  23.327  1.00  0.00     0.005 A 
ATOM     11  C   UNL A   1      33.054  25.525  25.275  1.00  0.00     0.005 A 
ATOM     12  C   UNL A   1      33.924  27.899  24.154  1.00  0.00     0.009 A 
ATOM     13  C   UNL A   1      33.333  26.618  26.097  1.00  0.00     0.009 A 
ATOM     14  C   UNL A   1      33.737  27.842  25.547  1.00  0.00    -0.015 A 
BRANCH  14  15
ATOM     15  C   UNL A   1      33.903  29.054  26.367  1.00  0.00     0.020 A 
ATOM     16  C   UNL A   1      35.051  29.194  27.179  1.00  0.00     0.012 A 
ATOM     17  C   UNL A   1      32.977  30.107  26.378  1.00  0.00     0.166 A 
ATOM     18  C   UNL A   1      35.244  30.310  27.995  1.00  0.00     0.004 A 
ATOM     19  C   UNL A   1      33.175  31.224  27.188  1.00  0.00     0.159 A 
ATOM     20  F   UNL A   1      31.871  30.052  25.617  1.00  0.00    -0.203 F 
ATOM     21  C   UNL A   1      34.296  31.327  28.003  1.00  0.00     0.042 A 
ATOM     22  F   UNL A   1      32.273  32.215  27.194  1.00  0.00    -0.204 F 
ENDBRANCH  14  15
ENDBRANCH   8   9
ENDBRANCH   6   8
ENDBRANCH   5   6
ENDBRANCH   4   5
ENDBRANCH   3   4
ENDBRANCH   2   3
ENDBRANCH   1   2
BRANCH   1  23
ATOM     23  C   UNL A   1      39.123  23.428  26.547  1.00  0.00     0.261 C 
BRANCH  23  24
ATOM     24  O   UNL A   1      38.954  24.788  26.959  1.00  0.00    -0.460 OA
BRANCH  24  25
ATOM     25  C   UNL A   1      40.077  25.545  26.918  1.00  0.00     0.338 C 
ATOM     26  O   UNL A   1      40.954  25.522  26.070  1.00  0.00    -0.246 OA
BRANCH  25  27
ATOM     27  C   UNL A   1      39.958  26.593  27.954  1.00  0.00     0.060 A 
ATOM     28  C   UNL A   1      40.446  27.874  27.658  1.00  0.00     0.016 A 
ATOM     29  C   UNL A   1      39.325  26.334  29.171  1.00  0.00     0.016 A 
ATOM     30  C   UNL A   1      40.347  28.893  28.602  1.00  0.00     0.010 A 
ATOM     31  C   UNL A   1      39.232  27.351  30.117  1.00  0.00     0.010 A 
ATOM     32  C   UNL A   1      39.780  28.618  29.849  1.00  0.00    -0.014 A 
BRANCH  32  33
ATOM     33  C   UNL A   1      39.951  29.549  30.984  1.00  0.00     0.031 A 
ATOM     34  C   UNL A   1      41.084  29.280  31.931  1.00  0.00     0.074 A 
ATOM     35  C   UNL A   1      39.075  30.539  31.214  1.00  0.00     0.049 A 
ATOM     36  N   UNL A   1      41.329  29.799  33.103  1.00  0.00    -0.248 NA
ATOM     37  C   UNL A   1      42.057  28.258  31.504  1.00  0.00     0.031 C 
ATOM     38  C   UNL A   1      37.961  30.905  30.341  1.00  0.00     0.029 A 
ATOM     39  N   UNL A   1      38.966  31.391  32.283  1.00  0.00    -0.354 N 
ATOM     40  C   UNL A   1      42.459  29.139  33.571  1.00  0.00     0.074 A 
ATOM     41  C   UNL A   1      42.837  28.170  32.568  1.00  0.00     0.031 C 
ATOM     42  C   UNL A   1      37.255  31.885  30.930  1.00  0.00     0.029 A 
ATOM     43  C   UNL A   1      37.840  32.176  32.239  1.00  0.00     0.049 A 
ATOM     44  H   UNL A   1      39.629  31.435  33.009  1.00  0.00     0.167 HD
ATOM     45  C   UNL A   1      43.114  29.321  34.741  1.00  0.00     0.031 A 
ATOM     46  C   UNL A   1      37.318  32.997  33.171  1.00  0.00     0.031 A 
ATOM     47  C   UNL A   1      42.705  30.274  35.737  1.00  0.00     0.049 A 
ATOM     48  C   UNL A   1      38.031  33.159  34.487  1.00  0.00     0.074 A 
ATOM     49  C   UNL A   1      43.309  30.571  36.944  1.00  0.00     0.029 A 
ATOM     50  N   UNL A   1      41.574  31.073  35.642  1.00  0.00    -0.354 N 
ATOM     51  N   UNL A   1      39.119  32.559  34.911  1.00  0.00    -0.248 NA
ATOM     52  C   UNL A   1      37.454  34.112  35.445  1.00  0.00     0.031 C 
ATOM     53  C   UNL A   1      42.505  31.501  37.610  1.00  0.00     0.029 A 
ATOM     54  C   UNL A   1      41.443  31.844  36.784  1.00  0.00     0.049 A 
ATOM     55  H   UNL A   1      40.955  31.089  34.877  1.00  0.00     0.167 HD
ATOM     56  C   UNL A   1      39.377  33.085  36.174  1.00  0.00     0.074 A 
ATOM     57  C   UNL A   1      38.329  34.052  36.442  1.00  0.00     0.031 C 
ATOM     58  C   UNL A   1      40.393  32.803  37.028  1.00  0.00     0.031 A 
BRANCH  45  59
ATOM     59  C   UNL A   1      44.291  28.422  35.019  1.00  0.00    -0.014 A 
ATOM     60  C   UNL A   1      44.198  27.336  35.908  1.00  0.00     0.010 A 
ATOM     61  C   UNL A   1      45.524  28.688  34.396  1.00  0.00     0.010 A 
ATOM     62  C   UNL A   1      45.330  26.579  36.223  1.00  0.00     0.020 A 
ATOM     63  C   UNL A   1      46.650  27.911  34.679  1.00  0.00     0.020 A 
ATOM     64  C   UNL A   1      46.551  26.878  35.613  1.00  0.00     0.054 A 
BRANCH  64  65
ATOM     65  S   UNL A   1      48.010  25.896  36.057  1.00  0.00     0.124 S 
ATOM     66  O   UNL A   1      48.341  26.430  37.375  1.00  0.00    -0.237 OA
ATOM     67  O   UNL A   1      47.493  24.531  36.045  1.00  0.00    -0.237 OA
ATOM     68  O   UNL A   1      48.972  26.205  35.001  1.00  0.00    -0.744 OA
ENDBRANCH  64  65
ENDBRANCH  45  59
BRANCH  46  69
ATOM     69  C   UNL A   1      36.042  33.705  32.879  1.00  0.00    -0.014 A 
ATOM     70  C   UNL A   1      34.806  33.103  33.168  1.00  0.00     0.010 A 
ATOM     71  C   UNL A   1      36.062  35.022  32.381  1.00  0.00     0.010 A 
ATOM     72  C   UNL A   1      33.614  33.810  32.980  1.00  0.00     0.020 A 
ATOM     73  C   UNL A   1      34.874  35.741  32.217  1.00  0.00     0.020 A 
ATOM     74  C   UNL A   1      33.656  35.129  32.520  1.00  0.00     0.054 A 
BRANCH  74  75
ATOM     75  S   UNL A   1      32.103  36.060  32.396  1.00  0.00     0.124 S 
ATOM     76  O   UNL A   1      32.317  37.140  33.354  1.00  0.00    -0.237 OA
ATOM     77  O   UNL A   1      32.089  36.455  30.989  1.00  0.00    -0.237 OA
ATOM     78  O   UNL A   1      31.085  35.080  32.770  1.00  0.00    -0.744 OA
ENDBRANCH  74  75
ENDBRANCH  46  69
BRANCH  58  79
ATOM     79  C   UNL A   1      40.466  33.580  38.316  1.00  0.00    -0.014 A 
ATOM     80  C   UNL A   1      41.133  34.816  38.395  1.00  0.00     0.010 A 
ATOM     81  C   UNL A   1      39.762  33.107  39.439  1.00  0.00     0.010 A 
ATOM     82  C   UNL A   1      41.103  35.556  39.580  1.00  0.00     0.020 A 
ATOM     83  C   UNL A   1      39.705  33.859  40.614  1.00  0.00     0.020 A 
ATOM     84  C   UNL A   1      40.382  35.077  40.680  1.00  0.00     0.054 A 
BRANCH  84  85
ATOM     85  S   UNL A   1      40.295  36.094  42.178  1.00  0.00     0.124 S 
ATOM     86  O   UNL A   1      39.769  35.148  43.159  1.00  0.00    -0.237 OA
ATOM     87  O   UNL A   1      41.686  36.494  42.374  1.00  0.00    -0.237 OA
ATOM     88  O   UNL A   1      39.387  37.178  41.809  1.00  0.00    -0.744 OA
ENDBRANCH  84  85
ENDBRANCH  58  79
ENDBRANCH  32  33
ENDBRANCH  25  27
ENDBRANCH  24  25
ENDBRANCH  23  24
ENDBRANCH   1  23
TORSDOF 19
ENDMDL
MODEL 3
REMARK VINA RESULT:     -10.4      3.696      6.960
REMARK SMILES O=C(Cc1ccc(-c2cccc(F)c2F)cc1)OCCOCCOC(=O)c1ccc(-c2c3nc(c(-c4ccc(S(=O)(=O)[O-])cc4)c4ccc([nH]4)c(-c4ccc(S(=O)(=O)[O-])cc4)c4nc(c(-c5ccc(S(=O)(=O)[O-])cc5)c5ccc2[nH]5)C=C4)C=C3)cc1
REMARK SMILES IDX 22 1 21 2 20 3 19 4 18 5 2 6 1 7 3 8 4 9 5 10 17 11 6 12
REMARK SMILES IDX 16 13 7 14 8 15 9 16 14 17 10 18 12 19 15 20 11 21 13 22
REMARK SMILES IDX 23 23 24 24 25 25 26 26 27 27 28 28 86 29 29 30 85 31 30 32
REMARK SMILES IDX 31 33 32 34 79 35 33 36 84 37 78 38 80 39 34 40 83 41 77 42
REMARK SMILES IDX 76 43 35 45 65 46 46 47 64 48 47 49 50 50 63 51 81 52 48 53
REMARK SMILES IDX 49 54 62 56 82 57 51 58 36 59 37 60 45 61 38 62 44 63 39 64
REMARK SMILES IDX 40 65 41 66 42 67 43 68 66 69 67 70 75 71 68 72 74 73 69 74
REMARK SMILES IDX 70 75 71 76 72 77 73 78 52 79 53 80 61 81 54 82 60 83 55 84
REMARK SMILES IDX 56 85 57 86 58 87 59 88
REMARK H PARENT 80 44 50 55
REMARK Flexibility Score: inf
ROOT
ATOM      1  C   UNL A   1      32.595  32.951  27.584  1.00  0.00     0.202 C 
ENDROOT
BRANCH   1   2
ATOM      2  O   UNL A   1      32.460  34.349  27.876  1.00  0.00    -0.374 OA
BRANCH   2   3
ATOM      3  C   UNL A   1      33.222  34.806  28.992  1.00  0.00     0.202 C 
BRANCH   3   4
ATOM      4  C   UNL A   1      33.179  36.304  29.280  1.00  0.00     0.261 C 
BRANCH   4   5
ATOM      5  O   UNL A   1      32.404  36.651  30.436  1.00  0.00    -0.463 OA
BRANCH   5   6
ATOM      6  C   UNL A   1      32.839  36.622  31.716  1.00  0.00     0.310 C 
ATOM      7  O   UNL A   1      33.178  37.681  32.250  1.00  0.00    -0.252 OA
BRANCH   6   8
ATOM      8  C   UNL A   1      33.028  35.311  32.454  1.00  0.00     0.158 C 
BRANCH   8   9
ATOM      9  C   UNL A   1      34.446  34.888  32.706  1.00  0.00    -0.037 A 
ATOM     10  C   UNL A   1      34.937  34.868  34.008  1.00  0.00     0.005 A 
ATOM     11  C   UNL A   1      35.282  34.481  31.660  1.00  0.00     0.005 A 
ATOM     12  C   UNL A   1      36.196  34.335  34.267  1.00  0.00     0.009 A 
ATOM     13  C   UNL A   1      36.508  33.870  31.932  1.00  0.00     0.009 A 
ATOM     14  C   UNL A   1      36.971  33.751  33.249  1.00  0.00    -0.015 A 
BRANCH  14  15
ATOM     15  C   UNL A   1      38.187  32.990  33.586  1.00  0.00     0.020 A 
ATOM     16  C   UNL A   1      39.353  33.682  33.985  1.00  0.00     0.012 A 
ATOM     17  C   UNL A   1      38.253  31.590  33.550  1.00  0.00     0.166 A 
ATOM     18  C   UNL A   1      40.539  33.012  34.289  1.00  0.00     0.004 A 
ATOM     19  C   UNL A   1      39.435  30.922  33.862  1.00  0.00     0.159 A 
ATOM     20  F   UNL A   1      37.178  30.865  33.198  1.00  0.00    -0.203 F 
ATOM     21  C   UNL A   1      40.580  31.624  34.221  1.00  0.00     0.042 A 
ATOM     22  F   UNL A   1      39.482  29.583  33.810  1.00  0.00    -0.204 F 
ENDBRANCH  14  15
ENDBRANCH   8   9
ENDBRANCH   6   8
ENDBRANCH   5   6
ENDBRANCH   4   5
ENDBRANCH   3   4
ENDBRANCH   2   3
ENDBRANCH   1   2
BRANCH   1  23
ATOM     23  C   UNL A   1      34.010  32.392  27.757  1.00  0.00     0.261 C 
BRANCH  23  24
ATOM     24  O   UNL A   1      33.991  31.167  28.497  1.00  0.00    -0.460 OA
BRANCH  24  25
ATOM     25  C   UNL A   1      34.509  30.095  27.849  1.00  0.00     0.338 C 
ATOM     26  O   UNL A   1      34.013  29.482  26.918  1.00  0.00    -0.246 OA
BRANCH  25  27
ATOM     27  C   UNL A   1      35.907  29.924  28.298  1.00  0.00     0.060 A 
ATOM     28  C   UNL A   1      36.931  30.111  27.357  1.00  0.00     0.016 A 
ATOM     29  C   UNL A   1      36.207  29.642  29.632  1.00  0.00     0.016 A 
ATOM     30  C   UNL A   1      38.263  29.968  27.739  1.00  0.00     0.010 A 
ATOM     31  C   UNL A   1      37.537  29.493  30.012  1.00  0.00     0.010 A 
ATOM     32  C   UNL A   1      38.563  29.613  29.058  1.00  0.00    -0.014 A 
BRANCH  32  33
ATOM     33  C   UNL A   1      39.908  29.128  29.427  1.00  0.00     0.031 A 
ATOM     34  C   UNL A   1      40.867  30.128  30.004  1.00  0.00     0.074 A 
ATOM     35  C   UNL A   1      40.291  27.868  29.169  1.00  0.00     0.049 A 
ATOM     36  N   UNL A   1      42.151  30.025  30.211  1.00  0.00    -0.248 NA
ATOM     37  C   UNL A   1      40.296  31.437  30.369  1.00  0.00     0.031 C 
ATOM     38  C   UNL A   1      39.431  26.811  28.641  1.00  0.00     0.029 A 
ATOM     39  N   UNL A   1      41.526  27.280  29.282  1.00  0.00    -0.354 N 
ATOM     40  C   UNL A   1      42.550  31.267  30.691  1.00  0.00     0.074 A 
ATOM     41  C   UNL A   1      41.377  32.110  30.725  1.00  0.00     0.031 C 
ATOM     42  C   UNL A   1      40.174  25.711  28.437  1.00  0.00     0.029 A 
ATOM     43  C   UNL A   1      41.567  26.005  28.774  1.00  0.00     0.049 A 
ATOM     44  H   UNL A   1      42.303  27.728  29.686  1.00  0.00     0.167 HD
ATOM     45  C   UNL A   1      43.788  31.667  31.061  1.00  0.00     0.031 A 
ATOM     46  C   UNL A   1      42.619  25.189  28.560  1.00  0.00     0.031 A 
ATOM     47  C   UNL A   1      44.946  30.818  30.995  1.00  0.00     0.049 A 
ATOM     48  C   UNL A   1      43.999  25.662  28.934  1.00  0.00     0.074 A 
ATOM     49  C   UNL A   1      46.245  31.102  31.373  1.00  0.00     0.029 A 
ATOM     50  N   UNL A   1      44.943  29.521  30.501  1.00  0.00    -0.354 N 
ATOM     51  N   UNL A   1      44.366  26.825  29.420  1.00  0.00    -0.248 NA
ATOM     52  C   UNL A   1      45.103  24.713  28.739  1.00  0.00     0.031 C 
ATOM     53  C   UNL A   1      47.040  29.999  31.045  1.00  0.00     0.029 A 
ATOM     54  C   UNL A   1      46.224  28.998  30.537  1.00  0.00     0.049 A 
ATOM     55  H   UNL A   1      44.148  29.042  30.173  1.00  0.00     0.167 HD
ATOM     56  C   UNL A   1      45.741  26.737  29.621  1.00  0.00     0.074 A 
ATOM     57  C   UNL A   1      46.137  25.406  29.202  1.00  0.00     0.031 C 
ATOM     58  C   UNL A   1      46.594  27.668  30.117  1.00  0.00     0.031 A 
BRANCH  45  59
ATOM     59  C   UNL A   1      43.947  33.100  31.498  1.00  0.00    -0.014 A 
ATOM     60  C   UNL A   1      43.781  33.486  32.841  1.00  0.00     0.010 A 
ATOM     61  C   UNL A   1      44.243  34.086  30.539  1.00  0.00     0.010 A 
ATOM     62  C   UNL A   1      43.836  34.835  33.203  1.00  0.00     0.020 A 
ATOM     63  C   UNL A   1      44.335  35.432  30.902  1.00  0.00     0.020 A 
ATOM     64  C   UNL A   1      44.104  35.800  32.228  1.00  0.00     0.054 A 
BRANCH  64  65
ATOM     65  S   UNL A   1      44.146  37.545  32.720  1.00  0.00     0.124 S 
ATOM     66  O   UNL A   1      43.026  37.621  33.654  1.00  0.00    -0.237 OA
ATOM     67  O   UNL A   1      45.471  37.677  33.318  1.00  0.00    -0.237 OA
ATOM     68  O   UNL A   1      43.958  38.265  31.462  1.00  0.00    -0.744 OA
ENDBRANCH  64  65
ENDBRANCH  45  59
BRANCH  46  69
ATOM     69  C   UNL A   1      42.387  23.854  27.946  1.00  0.00    -0.014 A 
ATOM     70  C   UNL A   1      42.374  23.701  26.549  1.00  0.00     0.010 A 
ATOM     71  C   UNL A   1      42.257  22.714  28.760  1.00  0.00     0.010 A 
ATOM     72  C   UNL A   1      42.251  22.431  25.978  1.00  0.00     0.020 A 
ATOM     73  C   UNL A   1      42.161  21.439  28.193  1.00  0.00     0.020 A 
ATOM     74  C   UNL A   1      42.160  21.307  26.803  1.00  0.00     0.054 A 
BRANCH  74  75
ATOM     75  S   UNL A   1      42.118  19.662  26.036  1.00  0.00     0.124 S 
ATOM     76  O   UNL A   1      42.623  18.812  27.109  1.00  0.00    -0.237 OA
ATOM     77  O   UNL A   1      40.701  19.504  25.717  1.00  0.00    -0.237 OA
ATOM     78  O   UNL A   1      42.998  19.801  24.877  1.00  0.00    -0.744 OA
ENDBRANCH  74  75
ENDBRANCH  46  69
BRANCH  58  79
ATOM     79  C   UNL A   1      48.038  27.277  30.291  1.00  0.00    -0.014 A 
ATOM     80  C   UNL A   1      49.007  27.580  29.318  1.00  0.00     0.010 A 
ATOM     81  C   UNL A   1      48.444  26.687  31.503  1.00  0.00     0.010 A 
ATOM     82  C   UNL A   1      50.354  27.286  29.552  1.00  0.00     0.020 A 
ATOM     83  C   UNL A   1      49.792  26.420  31.751  1.00  0.00     0.020 A 
ATOM     84  C   UNL A   1      50.739  26.716  30.770  1.00  0.00     0.054 A 
BRANCH  84  85
ATOM     85  S   UNL A   1      52.500  26.417  31.078  1.00  0.00     0.124 S 
ATOM     86  O   UNL A   1      52.916  27.668  31.706  1.00  0.00    -0.237 OA
ATOM     87  O   UNL A   1      52.478  25.250  31.956  1.00  0.00    -0.237 OA
ATOM     88  O   UNL A   1      53.050  26.177  29.746  1.00  0.00    -0.744 OA
ENDBRANCH  84  85
ENDBRANCH  58  79
ENDBRANCH  32  33
ENDBRANCH  25  27
ENDBRANCH  24  25
ENDBRANCH  23  24
ENDBRANCH   1  23
TORSDOF 19
ENDMDL
