MODEL 1
REMARK VINA RESULT:      -9.8      0.000      0.000
REMARK SMILES CC[C@H](C)[C@@H](C(=O)OCCOCCOC(=O)c1ccc(-c2c3nc(c(-c4ccc(S(=O)(=O)[O-])cc4)c4ccc([nH]4)c(-c4ccc(S(=O)(=O)[O-])cc4)c4nc(c(-c5ccc(S(=O)(=O)[O-])cc5)c5ccc2[nH]5)C=C4)C=C3)cc1)N1C(=O)/C(=C/c2ccccc2OC)SC1=S
REMARK SMILES IDX 11 1 10 2 9 3 8 4 6 5 7 6 5 7 3 8 4 9 2 10 1 11 77 12 78 13
REMARK SMILES IDX 91 14 79 15 80 16 90 17 92 18 81 19 82 20 83 21 87 22 84 23
REMARK SMILES IDX 86 24 85 25 88 26 89 27 12 28 13 29 14 30 15 31 16 32 17 33
REMARK SMILES IDX 18 34 76 35 19 36 75 37 20 38 21 39 22 40 69 41 23 42 74 43
REMARK SMILES IDX 68 44 70 45 24 46 73 47 67 48 66 49 25 51 55 52 36 53 54 54
REMARK SMILES IDX 37 55 40 56 53 57 71 58 38 59 39 60 52 62 72 63 41 64 26 65
REMARK SMILES IDX 27 66 35 67 28 68 34 69 29 70 30 71 31 72 32 73 33 74 56 75
REMARK SMILES IDX 57 76 65 77 58 78 64 79 59 80 60 81 61 82 62 83 63 84 42 85
REMARK SMILES IDX 43 86 51 87 44 88 50 89 45 90 46 91 47 92 48 93 49 94
REMARK H PARENT 70 50 40 61
REMARK Flexibility Score: inf
ROOT
ATOM      1  O   UNL A   1      31.713  30.616  26.709  1.00  0.00    -0.374 OA
ENDROOT
BRANCH   1   2
ATOM      2  C   UNL A   1      31.811  30.065  25.396  1.00  0.00     0.202 C 
BRANCH   2   3
ATOM      3  C   UNL A   1      32.525  28.715  25.271  1.00  0.00     0.261 C 
BRANCH   3   4
ATOM      4  O   UNL A   1      31.709  27.623  25.735  1.00  0.00    -0.462 OA
BRANCH   4   5
ATOM      5  C   UNL A   1      32.058  26.385  25.301  1.00  0.00     0.329 C 
ATOM      6  O   UNL A   1      33.042  25.768  25.696  1.00  0.00    -0.250 OA
BRANCH   5   7
ATOM      7  C   UNL A   1      31.084  25.864  24.220  1.00  0.00     0.204 C 
BRANCH   7   8
ATOM      8  C   UNL A   1      29.562  25.804  24.634  1.00  0.00     0.020 C 
ATOM      9  C   UNL A   1      29.320  25.954  26.143  1.00  0.00     0.010 C 
BRANCH   8  10
ATOM     10  C   UNL A   1      28.733  26.809  23.778  1.00  0.00     0.002 C 
ATOM     11  C   UNL A   1      29.468  27.977  23.143  1.00  0.00     0.004 C 
ENDBRANCH   8  10
ENDBRANCH   7   8
BRANCH   7  12
ATOM     12  N   UNL A   1      31.665  24.548  23.795  1.00  0.00    -0.278 N 
ATOM     13  C   UNL A   1      31.585  23.441  24.616  1.00  0.00     0.267 C 
ATOM     14  C   UNL A   1      32.515  24.407  22.707  1.00  0.00     0.149 C 
ATOM     15  O   UNL A   1      31.135  23.394  25.754  1.00  0.00    -0.268 OA
ATOM     16  C   UNL A   1      32.238  22.268  23.990  1.00  0.00     0.081 C 
ATOM     17  S   UNL A   1      33.152  22.758  22.637  1.00  0.00    -0.054 SA
ATOM     18  S   UNL A   1      32.946  25.552  21.570  1.00  0.00    -0.052 S 
ATOM     19  C   UNL A   1      32.154  21.074  24.588  1.00  0.00     0.033 C 
BRANCH  19  20
ATOM     20  C   UNL A   1      33.029  19.925  24.361  1.00  0.00     0.018 A 
ATOM     21  C   UNL A   1      32.489  18.815  23.685  1.00  0.00     0.012 A 
ATOM     22  C   UNL A   1      34.350  19.865  24.843  1.00  0.00     0.126 A 
ATOM     23  C   UNL A   1      33.248  17.659  23.486  1.00  0.00     0.001 A 
ATOM     24  C   UNL A   1      35.099  18.700  24.617  1.00  0.00     0.047 A 
ATOM     25  C   UNL A   1      34.556  17.602  23.950  1.00  0.00     0.004 A 
BRANCH  22  26
ATOM     26  O   UNL A   1      35.075  20.788  25.549  1.00  0.00    -0.496 OA
ATOM     27  C   UNL A   1      36.412  21.111  25.202  1.00  0.00     0.278 C 
ENDBRANCH  22  26
ENDBRANCH  19  20
ENDBRANCH   7  12
ENDBRANCH   5   7
ENDBRANCH   4   5
ENDBRANCH   3   4
ENDBRANCH   2   3
ENDBRANCH   1   2
BRANCH   1  28
ATOM     28  C   UNL A   1      31.638  32.038  26.808  1.00  0.00     0.202 C 
BRANCH  28  29
ATOM     29  C   UNL A   1      32.872  32.750  27.370  1.00  0.00     0.261 C 
BRANCH  29  30
ATOM     30  O   UNL A   1      32.505  33.788  28.297  1.00  0.00    -0.460 OA
BRANCH  30  31
ATOM     31  C   UNL A   1      33.459  34.726  28.501  1.00  0.00     0.338 C 
ATOM     32  O   UNL A   1      33.430  35.896  28.146  1.00  0.00    -0.246 OA
BRANCH  31  33
ATOM     33  C   UNL A   1      34.490  34.198  29.415  1.00  0.00     0.060 A 
ATOM     34  C   UNL A   1      35.830  34.456  29.096  1.00  0.00     0.016 A 
ATOM     35  C   UNL A   1      34.165  33.438  30.541  1.00  0.00     0.016 A 
ATOM     36  C   UNL A   1      36.853  33.920  29.877  1.00  0.00     0.010 A 
ATOM     37  C   UNL A   1      35.192  32.893  31.318  1.00  0.00     0.010 A 
ATOM     38  C   UNL A   1      36.541  33.106  30.973  1.00  0.00    -0.014 A 
BRANCH  38  39
ATOM     39  C   UNL A   1      37.619  32.381  31.690  1.00  0.00     0.031 A 
ATOM     40  C   UNL A   1      38.058  32.874  33.042  1.00  0.00     0.074 A 
ATOM     41  C   UNL A   1      38.195  31.294  31.145  1.00  0.00     0.049 A 
ATOM     42  N   UNL A   1      39.028  32.440  33.804  1.00  0.00    -0.248 NA
ATOM     43  C   UNL A   1      37.306  34.006  33.607  1.00  0.00     0.031 C 
ATOM     44  C   UNL A   1      37.822  30.690  29.867  1.00  0.00     0.029 A 
ATOM     45  N   UNL A   1      39.230  30.513  31.598  1.00  0.00    -0.354 N 
ATOM     46  C   UNL A   1      39.015  33.255  34.931  1.00  0.00     0.074 A 
ATOM     47  C   UNL A   1      37.956  34.221  34.742  1.00  0.00     0.031 C 
ATOM     48  C   UNL A   1      38.627  29.638  29.631  1.00  0.00     0.029 A 
ATOM     49  C   UNL A   1      39.598  29.524  30.717  1.00  0.00     0.049 A 
ATOM     50  H   UNL A   1      39.665  30.647  32.471  1.00  0.00     0.167 HD
ATOM     51  C   UNL A   1      39.813  33.199  36.024  1.00  0.00     0.031 A 
ATOM     52  C   UNL A   1      40.624  28.650  30.762  1.00  0.00     0.031 A 
ATOM     53  C   UNL A   1      40.872  32.240  36.200  1.00  0.00     0.049 A 
ATOM     54  C   UNL A   1      41.556  28.667  31.946  1.00  0.00     0.074 A 
ATOM     55  C   UNL A   1      41.720  32.088  37.283  1.00  0.00     0.029 A 
ATOM     56  N   UNL A   1      41.239  31.283  35.268  1.00  0.00    -0.354 N 
ATOM     57  N   UNL A   1      41.511  29.420  33.020  1.00  0.00    -0.248 NA
ATOM     58  C   UNL A   1      42.678  27.717  31.925  1.00  0.00     0.031 C 
ATOM     59  C   UNL A   1      42.646  31.086  36.975  1.00  0.00     0.029 A 
ATOM     60  C   UNL A   1      42.328  30.564  35.732  1.00  0.00     0.049 A 
ATOM     61  H   UNL A   1      40.792  31.135  34.403  1.00  0.00     0.167 HD
ATOM     62  C   UNL A   1      42.583  29.019  33.811  1.00  0.00     0.074 A 
ATOM     63  C   UNL A   1      43.247  27.944  33.102  1.00  0.00     0.031 C 
ATOM     64  C   UNL A   1      42.982  29.497  35.016  1.00  0.00     0.031 A 
BRANCH  51  65
ATOM     65  C   UNL A   1      39.603  34.233  37.100  1.00  0.00    -0.014 A 
ATOM     66  C   UNL A   1      39.061  33.890  38.351  1.00  0.00     0.010 A 
ATOM     67  C   UNL A   1      40.010  35.561  36.872  1.00  0.00     0.010 A 
ATOM     68  C   UNL A   1      38.899  34.864  39.342  1.00  0.00     0.020 A 
ATOM     69  C   UNL A   1      39.877  36.530  37.869  1.00  0.00     0.020 A 
ATOM     70  C   UNL A   1      39.309  36.177  39.094  1.00  0.00     0.054 A 
BRANCH  70  71
ATOM     71  S   UNL A   1      39.115  37.411  40.410  1.00  0.00     0.124 S 
ATOM     72  O   UNL A   1      38.420  36.645  41.442  1.00  0.00    -0.237 OA
ATOM     73  O   UNL A   1      40.497  37.769  40.717  1.00  0.00    -0.237 OA
ATOM     74  O   UNL A   1      38.325  38.468  39.783  1.00  0.00    -0.744 OA
ENDBRANCH  70  71
ENDBRANCH  51  65
BRANCH  52  75
ATOM     75  C   UNL A   1      40.849  27.710  29.629  1.00  0.00    -0.014 A 
ATOM     76  C   UNL A   1      41.911  27.906  28.730  1.00  0.00     0.010 A 
ATOM     77  C   UNL A   1      39.992  26.609  29.442  1.00  0.00     0.010 A 
ATOM     78  C   UNL A   1      42.105  27.027  27.659  1.00  0.00     0.020 A 
ATOM     79  C   UNL A   1      40.199  25.711  28.392  1.00  0.00     0.020 A 
ATOM     80  C   UNL A   1      41.249  25.932  27.500  1.00  0.00     0.054 A 
BRANCH  80  81
ATOM     81  S   UNL A   1      41.552  24.777  26.135  1.00  0.00     0.124 S 
ATOM     82  O   UNL A   1      42.815  24.162  26.531  1.00  0.00    -0.237 OA
ATOM     83  O   UNL A   1      40.378  23.909  26.192  1.00  0.00    -0.237 OA
ATOM     84  O   UNL A   1      41.618  25.646  24.960  1.00  0.00    -0.744 OA
ENDBRANCH  80  81
ENDBRANCH  52  75
BRANCH  64  85
ATOM     85  C   UNL A   1      44.180  28.853  35.666  1.00  0.00    -0.014 A 
ATOM     86  C   UNL A   1      44.071  27.624  36.339  1.00  0.00     0.010 A 
ATOM     87  C   UNL A   1      45.448  29.447  35.527  1.00  0.00     0.010 A 
ATOM     88  C   UNL A   1      45.206  27.009  36.877  1.00  0.00     0.020 A 
ATOM     89  C   UNL A   1      46.590  28.821  36.035  1.00  0.00     0.020 A 
ATOM     90  C   UNL A   1      46.459  27.609  36.715  1.00  0.00     0.054 A 
BRANCH  90  91
ATOM     91  S   UNL A   1      47.923  26.753  37.359  1.00  0.00     0.124 S 
ATOM     92  O   UNL A   1      48.170  25.751  36.326  1.00  0.00    -0.237 OA
ATOM     93  O   UNL A   1      48.909  27.826  37.443  1.00  0.00    -0.237 OA
ATOM     94  O   UNL A   1      47.477  26.221  38.646  1.00  0.00    -0.744 OA
ENDBRANCH  90  91
ENDBRANCH  64  85
ENDBRANCH  38  39
ENDBRANCH  31  33
ENDBRANCH  30  31
ENDBRANCH  29  30
ENDBRANCH  28  29
ENDBRANCH   1  28
TORSDOF 22
ENDMDL
MODEL 2
REMARK VINA RESULT:      -9.7      5.715     11.700
REMARK SMILES CC[C@H](C)[C@@H](C(=O)OCCOCCOC(=O)c1ccc(-c2c3nc(c(-c4ccc(S(=O)(=O)[O-])cc4)c4ccc([nH]4)c(-c4ccc(S(=O)(=O)[O-])cc4)c4nc(c(-c5ccc(S(=O)(=O)[O-])cc5)c5ccc2[nH]5)C=C4)C=C3)cc1)N1C(=O)/C(=C/c2ccccc2OC)SC1=S
REMARK SMILES IDX 11 1 10 2 9 3 8 4 6 5 7 6 5 7 3 8 4 9 2 10 1 11 77 12 78 13
REMARK SMILES IDX 91 14 79 15 80 16 90 17 92 18 81 19 82 20 83 21 87 22 84 23
REMARK SMILES IDX 86 24 85 25 88 26 89 27 12 28 13 29 14 30 15 31 16 32 17 33
REMARK SMILES IDX 18 34 76 35 19 36 75 37 20 38 21 39 22 40 69 41 23 42 74 43
REMARK SMILES IDX 68 44 70 45 24 46 73 47 67 48 66 49 25 51 55 52 36 53 54 54
REMARK SMILES IDX 37 55 40 56 53 57 71 58 38 59 39 60 52 62 72 63 41 64 26 65
REMARK SMILES IDX 27 66 35 67 28 68 34 69 29 70 30 71 31 72 32 73 33 74 56 75
REMARK SMILES IDX 57 76 65 77 58 78 64 79 59 80 60 81 61 82 62 83 63 84 42 85
REMARK SMILES IDX 43 86 51 87 44 88 50 89 45 90 46 91 47 92 48 93 49 94
REMARK H PARENT 70 50 40 61
REMARK Flexibility Score: inf
ROOT
ATOM      1  O   UNL A   1      37.428  20.168  24.980  1.00  0.00    -0.374 OA
ENDROOT
BRANCH   1   2
ATOM      2  C   UNL A   1      37.414  21.544  24.599  1.00  0.00     0.202 C 
BRANCH   2   3
ATOM      3  C   UNL A   1      36.044  22.228  24.553  1.00  0.00     0.261 C 
BRANCH   3   4
ATOM      4  O   UNL A   1      35.667  22.603  23.216  1.00  0.00    -0.462 OA
BRANCH   4   5
ATOM      5  C   UNL A   1      34.387  23.023  23.046  1.00  0.00     0.329 C 
ATOM      6  O   UNL A   1      33.907  23.352  21.966  1.00  0.00    -0.250 OA
BRANCH   5   7
ATOM      7  C   UNL A   1      33.620  23.070  24.388  1.00  0.00     0.204 C 
BRANCH   7   8
ATOM      8  C   UNL A   1      32.489  21.985  24.573  1.00  0.00     0.020 C 
ATOM      9  C   UNL A   1      32.761  20.667  23.834  1.00  0.00     0.010 C 
BRANCH   8  10
ATOM     10  C   UNL A   1      32.180  21.786  26.089  1.00  0.00     0.002 C 
ATOM     11  C   UNL A   1      33.338  21.878  27.068  1.00  0.00     0.004 C 
ENDBRANCH   8  10
ENDBRANCH   7   8
BRANCH   7  12
ATOM     12  N   UNL A   1      33.146  24.488  24.498  1.00  0.00    -0.278 N 
ATOM     13  C   UNL A   1      33.883  25.429  25.191  1.00  0.00     0.267 C 
ATOM     14  C   UNL A   1      31.865  24.893  24.150  1.00  0.00     0.149 C 
ATOM     15  O   UNL A   1      34.908  25.240  25.833  1.00  0.00    -0.268 OA
ATOM     16  C   UNL A   1      33.210  26.748  25.172  1.00  0.00     0.081 C 
ATOM     17  S   UNL A   1      31.612  26.585  24.602  1.00  0.00    -0.054 SA
ATOM     18  S   UNL A   1      30.660  24.002  23.413  1.00  0.00    -0.052 S 
ATOM     19  C   UNL A   1      33.837  27.810  25.691  1.00  0.00     0.033 C 
BRANCH  19  20
ATOM     20  C   UNL A   1      33.214  29.062  26.122  1.00  0.00     0.018 A 
ATOM     21  C   UNL A   1      32.062  29.489  25.435  1.00  0.00     0.012 A 
ATOM     22  C   UNL A   1      33.753  29.873  27.138  1.00  0.00     0.126 A 
ATOM     23  C   UNL A   1      31.449  30.704  25.752  1.00  0.00     0.001 A 
ATOM     24  C   UNL A   1      33.111  31.080  27.451  1.00  0.00     0.047 A 
ATOM     25  C   UNL A   1      31.973  31.500  26.764  1.00  0.00     0.004 A 
BRANCH  22  26
ATOM     26  O   UNL A   1      34.867  29.691  27.914  1.00  0.00    -0.496 OA
ATOM     27  C   UNL A   1      36.133  30.211  27.537  1.00  0.00     0.278 C 
ENDBRANCH  22  26
ENDBRANCH  19  20
ENDBRANCH   7  12
ENDBRANCH   5   7
ENDBRANCH   4   5
ENDBRANCH   3   4
ENDBRANCH   2   3
ENDBRANCH   1   2
BRANCH   1  28
ATOM     28  C   UNL A   1      38.694  19.610  25.333  1.00  0.00     0.202 C 
BRANCH  28  29
ATOM     29  C   UNL A   1      39.686  20.549  26.024  1.00  0.00     0.261 C 
BRANCH  29  30
ATOM     30  O   UNL A   1      40.804  19.826  26.570  1.00  0.00    -0.460 OA
BRANCH  30  31
ATOM     31  C   UNL A   1      42.010  20.191  26.075  1.00  0.00     0.338 C 
ATOM     32  O   UNL A   1      42.694  19.574  25.271  1.00  0.00    -0.246 OA
BRANCH  31  33
ATOM     33  C   UNL A   1      42.317  21.576  26.482  1.00  0.00     0.060 A 
ATOM     34  C   UNL A   1      42.370  22.549  25.475  1.00  0.00     0.016 A 
ATOM     35  C   UNL A   1      42.581  21.917  27.810  1.00  0.00     0.016 A 
ATOM     36  C   UNL A   1      42.730  23.859  25.784  1.00  0.00     0.010 A 
ATOM     37  C   UNL A   1      42.952  23.231  28.118  1.00  0.00     0.010 A 
ATOM     38  C   UNL A   1      43.057  24.201  27.102  1.00  0.00    -0.014 A 
BRANCH  38  39
ATOM     39  C   UNL A   1      43.623  25.539  27.404  1.00  0.00     0.031 A 
ATOM     40  C   UNL A   1      45.078  25.799  27.122  1.00  0.00     0.074 A 
ATOM     41  C   UNL A   1      42.849  26.512  27.918  1.00  0.00     0.049 A 
ATOM     42  N   UNL A   1      45.792  26.864  27.378  1.00  0.00    -0.248 NA
ATOM     43  C   UNL A   1      45.826  24.714  26.466  1.00  0.00     0.031 C 
ATOM     44  C   UNL A   1      41.416  26.400  28.186  1.00  0.00     0.029 A 
ATOM     45  N   UNL A   1      43.167  27.787  28.317  1.00  0.00    -0.354 N 
ATOM     46  C   UNL A   1      47.076  26.574  26.932  1.00  0.00     0.074 A 
ATOM     47  C   UNL A   1      47.048  25.226  26.409  1.00  0.00     0.031 C 
ATOM     48  C   UNL A   1      40.981  27.555  28.720  1.00  0.00     0.029 A 
ATOM     49  C   UNL A   1      42.111  28.469  28.873  1.00  0.00     0.049 A 
ATOM     50  H   UNL A   1      44.065  28.176  28.215  1.00  0.00     0.167 HD
ATOM     51  C   UNL A   1      48.178  27.361  26.955  1.00  0.00     0.031 A 
ATOM     52  C   UNL A   1      42.066  29.678  29.469  1.00  0.00     0.031 A 
ATOM     53  C   UNL A   1      48.201  28.699  27.487  1.00  0.00     0.049 A 
ATOM     54  C   UNL A   1      43.326  30.499  29.566  1.00  0.00     0.074 A 
ATOM     55  C   UNL A   1      49.262  29.586  27.533  1.00  0.00     0.029 A 
ATOM     56  N   UNL A   1      47.121  29.337  28.076  1.00  0.00    -0.354 N 
ATOM     57  N   UNL A   1      44.525  30.226  29.110  1.00  0.00    -0.248 NA
ATOM     58  C   UNL A   1      43.226  31.792  30.259  1.00  0.00     0.031 C 
ATOM     59  C   UNL A   1      48.844  30.732  28.215  1.00  0.00     0.029 A 
ATOM     60  C   UNL A   1      47.502  30.590  28.528  1.00  0.00     0.049 A 
ATOM     61  H   UNL A   1      46.217  28.957  28.162  1.00  0.00     0.167 HD
ATOM     62  C   UNL A   1      45.316  31.322  29.440  1.00  0.00     0.074 A 
ATOM     63  C   UNL A   1      44.456  32.270  30.117  1.00  0.00     0.031 C 
ATOM     64  C   UNL A   1      46.636  31.525  29.203  1.00  0.00     0.031 A 
BRANCH  51  65
ATOM     65  C   UNL A   1      49.466  26.783  26.430  1.00  0.00    -0.014 A 
ATOM     66  C   UNL A   1      49.906  27.042  25.120  1.00  0.00     0.010 A 
ATOM     67  C   UNL A   1      50.278  26.013  27.284  1.00  0.00     0.010 A 
ATOM     68  C   UNL A   1      51.118  26.512  24.664  1.00  0.00     0.020 A 
ATOM     69  C   UNL A   1      51.502  25.507  26.841  1.00  0.00     0.020 A 
ATOM     70  C   UNL A   1      51.908  25.749  25.528  1.00  0.00     0.054 A 
BRANCH  70  71
ATOM     71  S   UNL A   1      53.489  25.103  24.917  1.00  0.00     0.124 S 
ATOM     72  O   UNL A   1      54.452  25.921  25.650  1.00  0.00    -0.237 OA
ATOM     73  O   UNL A   1      53.432  23.697  25.311  1.00  0.00    -0.237 OA
ATOM     74  O   UNL A   1      53.434  25.346  23.478  1.00  0.00    -0.744 OA
ENDBRANCH  70  71
ENDBRANCH  51  65
BRANCH  52  75
ATOM     75  C   UNL A   1      40.790  30.167  30.061  1.00  0.00    -0.014 A 
ATOM     76  C   UNL A   1      39.931  31.006  29.329  1.00  0.00     0.010 A 
ATOM     77  C   UNL A   1      40.429  29.797  31.369  1.00  0.00     0.010 A 
ATOM     78  C   UNL A   1      38.743  31.474  29.900  1.00  0.00     0.020 A 
ATOM     79  C   UNL A   1      39.228  30.237  31.933  1.00  0.00     0.020 A 
ATOM     80  C   UNL A   1      38.397  31.082  31.197  1.00  0.00     0.054 A 
BRANCH  80  81
ATOM     81  S   UNL A   1      36.826  31.660  31.895  1.00  0.00     0.124 S 
ATOM     82  O   UNL A   1      36.563  30.658  32.923  1.00  0.00    -0.237 OA
ATOM     83  O   UNL A   1      37.171  32.993  32.382  1.00  0.00    -0.237 OA
ATOM     84  O   UNL A   1      35.915  31.639  30.752  1.00  0.00    -0.744 OA
ENDBRANCH  80  81
ENDBRANCH  52  75
BRANCH  64  85
ATOM     85  C   UNL A   1      47.239  32.830  29.657  1.00  0.00    -0.014 A 
ATOM     86  C   UNL A   1      47.864  32.947  30.910  1.00  0.00     0.010 A 
ATOM     87  C   UNL A   1      47.252  33.930  28.780  1.00  0.00     0.010 A 
ATOM     88  C   UNL A   1      48.477  34.147  31.286  1.00  0.00     0.020 A 
ATOM     89  C   UNL A   1      47.891  35.121  29.138  1.00  0.00     0.020 A 
ATOM     90  C   UNL A   1      48.492  35.223  30.393  1.00  0.00     0.054 A 
BRANCH  90  91
ATOM     91  S   UNL A   1      49.358  36.742  30.878  1.00  0.00     0.124 S 
ATOM     92  O   UNL A   1      48.255  37.598  31.307  1.00  0.00    -0.237 OA
ATOM     93  O   UNL A   1      50.244  36.279  31.943  1.00  0.00    -0.237 OA
ATOM     94  O   UNL A   1      50.032  37.165  29.653  1.00  0.00    -0.744 OA
ENDBRANCH  90  91
ENDBRANCH  64  85
ENDBRANCH  38  39
ENDBRANCH  31  33
ENDBRANCH  30  31
ENDBRANCH  29  30
ENDBRANCH  28  29
ENDBRANCH   1  28
TORSDOF 22
ENDMDL
MODEL 3
REMARK VINA RESULT:      -9.3      5.916     10.397
REMARK SMILES CC[C@H](C)[C@@H](C(=O)OCCOCCOC(=O)c1ccc(-c2c3nc(c(-c4ccc(S(=O)(=O)[O-])cc4)c4ccc([nH]4)c(-c4ccc(S(=O)(=O)[O-])cc4)c4nc(c(-c5ccc(S(=O)(=O)[O-])cc5)c5ccc2[nH]5)C=C4)C=C3)cc1)N1C(=O)/C(=C/c2ccccc2OC)SC1=S
REMARK SMILES IDX 11 1 10 2 9 3 8 4 6 5 7 6 5 7 3 8 4 9 2 10 1 11 77 12 78 13
REMARK SMILES IDX 91 14 79 15 80 16 90 17 92 18 81 19 82 20 83 21 87 22 84 23
REMARK SMILES IDX 86 24 85 25 88 26 89 27 12 28 13 29 14 30 15 31 16 32 17 33
REMARK SMILES IDX 18 34 76 35 19 36 75 37 20 38 21 39 22 40 69 41 23 42 74 43
REMARK SMILES IDX 68 44 70 45 24 46 73 47 67 48 66 49 25 51 55 52 36 53 54 54
REMARK SMILES IDX 37 55 40 56 53 57 71 58 38 59 39 60 52 62 72 63 41 64 26 65
REMARK SMILES IDX 27 66 35 67 28 68 34 69 29 70 30 71 31 72 32 73 33 74 56 75
REMARK SMILES IDX 57 76 65 77 58 78 64 79 59 80 60 81 61 82 62 83 63 84 42 85
REMARK SMILES IDX 43 86 51 87 44 88 50 89 45 90 46 91 47 92 48 93 49 94
REMARK H PARENT 70 50 40 61
REMARK Flexibility Score: inf
ROOT
ATOM      1  O   UNL A   1      37.906  21.900  25.658  1.00  0.00    -0.374 OA
ENDROOT
BRANCH   1   2
ATOM      2  C   UNL A   1      37.341  21.227  24.533  1.00  0.00     0.202 C 
BRANCH   2   3
ATOM      3  C   UNL A   1      35.863  21.506  24.240  1.00  0.00     0.261 C 
BRANCH   3   4
ATOM      4  O   UNL A   1      35.685  22.658  23.395  1.00  0.00    -0.462 OA
BRANCH   4   5
ATOM      5  C   UNL A   1      34.407  22.956  23.047  1.00  0.00     0.329 C 
ATOM      6  O   UNL A   1      34.080  23.421  21.959  1.00  0.00    -0.250 OA
BRANCH   5   7
ATOM      7  C   UNL A   1      33.419  22.671  24.201  1.00  0.00     0.204 C 
BRANCH   7   8
ATOM      8  C   UNL A   1      32.122  21.860  23.814  1.00  0.00     0.020 C 
ATOM      9  C   UNL A   1      32.171  21.236  22.413  1.00  0.00     0.010 C 
BRANCH   8  10
ATOM     10  C   UNL A   1      31.780  20.830  24.933  1.00  0.00     0.002 C 
ATOM     11  C   UNL A   1      32.908  19.972  25.478  1.00  0.00     0.004 C 
ENDBRANCH   8  10
ENDBRANCH   7   8
BRANCH   7  12
ATOM     12  N   UNL A   1      33.155  24.017  24.808  1.00  0.00    -0.278 N 
ATOM     13  C   UNL A   1      32.225  24.873  24.252  1.00  0.00     0.267 C 
ATOM     14  C   UNL A   1      33.966  24.588  25.779  1.00  0.00     0.149 C 
ATOM     15  O   UNL A   1      31.589  24.707  23.220  1.00  0.00    -0.268 OA
ATOM     16  C   UNL A   1      32.149  26.141  25.015  1.00  0.00     0.081 C 
ATOM     17  S   UNL A   1      33.457  26.251  26.103  1.00  0.00    -0.054 SA
ATOM     18  S   UNL A   1      35.259  23.903  26.585  1.00  0.00    -0.052 S 
ATOM     19  C   UNL A   1      31.215  27.044  24.694  1.00  0.00     0.033 C 
BRANCH  19  20
ATOM     20  C   UNL A   1      31.228  28.466  25.036  1.00  0.00     0.018 A 
ATOM     21  C   UNL A   1      31.830  28.841  26.252  1.00  0.00     0.012 A 
ATOM     22  C   UNL A   1      30.614  29.448  24.237  1.00  0.00     0.126 A 
ATOM     23  C   UNL A   1      31.826  30.173  26.671  1.00  0.00     0.001 A 
ATOM     24  C   UNL A   1      30.637  30.782  24.670  1.00  0.00     0.047 A 
ATOM     25  C   UNL A   1      31.231  31.147  25.878  1.00  0.00     0.004 A 
BRANCH  22  26
ATOM     26  O   UNL A   1      29.945  29.327  23.048  1.00  0.00    -0.496 OA
ATOM     27  C   UNL A   1      29.129  30.371  22.540  1.00  0.00     0.278 C 
ENDBRANCH  22  26
ENDBRANCH  19  20
ENDBRANCH   7  12
ENDBRANCH   5   7
ENDBRANCH   4   5
ENDBRANCH   3   4
ENDBRANCH   2   3
ENDBRANCH   1   2
BRANCH   1  28
ATOM     28  C   UNL A   1      39.253  21.570  25.997  1.00  0.00     0.202 C 
BRANCH  28  29
ATOM     29  C   UNL A   1      39.586  20.080  26.099  1.00  0.00     0.261 C 
BRANCH  29  30
ATOM     30  O   UNL A   1      40.793  19.759  25.383  1.00  0.00    -0.460 OA
BRANCH  30  31
ATOM     31  C   UNL A   1      41.914  19.742  26.142  1.00  0.00     0.338 C 
ATOM     32  O   UNL A   1      42.640  18.784  26.363  1.00  0.00    -0.246 OA
BRANCH  31  33
ATOM     33  C   UNL A   1      42.279  21.121  26.520  1.00  0.00     0.060 A 
ATOM     34  C   UNL A   1      42.466  22.047  25.484  1.00  0.00     0.016 A 
ATOM     35  C   UNL A   1      42.471  21.500  27.850  1.00  0.00     0.016 A 
ATOM     36  C   UNL A   1      42.886  23.344  25.771  1.00  0.00     0.010 A 
ATOM     37  C   UNL A   1      42.903  22.800  28.135  1.00  0.00     0.010 A 
ATOM     38  C   UNL A   1      43.141  23.719  27.096  1.00  0.00    -0.014 A 
BRANCH  38  39
ATOM     39  C   UNL A   1      43.769  25.032  27.388  1.00  0.00     0.031 A 
ATOM     40  C   UNL A   1      42.911  26.151  27.912  1.00  0.00     0.074 A 
ATOM     41  C   UNL A   1      45.086  25.221  27.195  1.00  0.00     0.049 A 
ATOM     42  N   UNL A   1      43.235  27.394  28.160  1.00  0.00    -0.248 NA
ATOM     43  C   UNL A   1      41.502  25.828  28.191  1.00  0.00     0.031 C 
ATOM     44  C   UNL A   1      46.031  24.201  26.742  1.00  0.00     0.029 A 
ATOM     45  N   UNL A   1      45.856  26.349  27.346  1.00  0.00    -0.354 N 
ATOM     46  C   UNL A   1      42.069  28.006  28.607  1.00  0.00     0.074 A 
ATOM     47  C   UNL A   1      41.027  27.005  28.576  1.00  0.00     0.031 C 
ATOM     48  C   UNL A   1      47.252  24.753  26.638  1.00  0.00     0.029 A 
ATOM     49  C   UNL A   1      47.167  26.174  26.972  1.00  0.00     0.049 A 
ATOM     50  H   UNL A   1      45.502  27.201  27.689  1.00  0.00     0.167 HD
ATOM     51  C   UNL A   1      41.887  29.286  29.009  1.00  0.00     0.031 A 
ATOM     52  C   UNL A   1      48.176  27.063  26.875  1.00  0.00     0.031 A 
ATOM     53  C   UNL A   1      42.928  30.281  29.028  1.00  0.00     0.049 A 
ATOM     54  C   UNL A   1      47.926  28.504  27.240  1.00  0.00     0.074 A 
ATOM     55  C   UNL A   1      42.848  31.599  29.442  1.00  0.00     0.029 A 
ATOM     56  N   UNL A   1      44.231  30.073  28.604  1.00  0.00    -0.354 N 
ATOM     57  N   UNL A   1      46.828  29.061  27.693  1.00  0.00    -0.248 NA
ATOM     58  C   UNL A   1      49.051  29.437  27.080  1.00  0.00     0.031 C 
ATOM     59  C   UNL A   1      44.083  32.208  29.200  1.00  0.00     0.029 A 
ATOM     60  C   UNL A   1      44.954  31.251  28.705  1.00  0.00     0.049 A 
ATOM     61  H   UNL A   1      44.591  29.217  28.279  1.00  0.00     0.167 HD
ATOM     62  C   UNL A   1      47.137  30.402  27.895  1.00  0.00     0.074 A 
ATOM     63  C   UNL A   1      48.529  30.570  27.531  1.00  0.00     0.031 C 
ATOM     64  C   UNL A   1      46.340  31.406  28.339  1.00  0.00     0.031 A 
BRANCH  51  65
ATOM     65  C   UNL A   1      40.499  29.702  29.421  1.00  0.00    -0.014 A 
ATOM     66  C   UNL A   1      40.165  29.909  30.771  1.00  0.00     0.010 A 
ATOM     67  C   UNL A   1      39.528  29.946  28.432  1.00  0.00     0.010 A 
ATOM     68  C   UNL A   1      38.875  30.318  31.125  1.00  0.00     0.020 A 
ATOM     69  C   UNL A   1      38.247  30.383  28.780  1.00  0.00     0.020 A 
ATOM     70  C   UNL A   1      37.926  30.553  30.127  1.00  0.00     0.054 A 
BRANCH  70  71
ATOM     71  S   UNL A   1      36.271  31.114  30.616  1.00  0.00     0.124 S 
ATOM     72  O   UNL A   1      35.523  30.970  29.369  1.00  0.00    -0.237 OA
ATOM     73  O   UNL A   1      35.915  30.171  31.673  1.00  0.00    -0.237 OA
ATOM     74  O   UNL A   1      36.485  32.490  31.057  1.00  0.00    -0.744 OA
ENDBRANCH  70  71
ENDBRANCH  51  65
BRANCH  52  75
ATOM     75  C   UNL A   1      49.507  26.625  26.371  1.00  0.00    -0.014 A 
ATOM     76  C   UNL A   1      49.827  26.718  25.006  1.00  0.00     0.010 A 
ATOM     77  C   UNL A   1      50.464  26.105  27.262  1.00  0.00     0.010 A 
ATOM     78  C   UNL A   1      51.074  26.289  24.540  1.00  0.00     0.020 A 
ATOM     79  C   UNL A   1      51.722  25.703  26.806  1.00  0.00     0.020 A 
ATOM     80  C   UNL A   1      52.016  25.788  25.444  1.00  0.00     0.054 A 
BRANCH  80  81
ATOM     81  S   UNL A   1      53.644  25.286  24.824  1.00  0.00     0.124 S 
ATOM     82  O   UNL A   1      53.643  23.851  25.092  1.00  0.00    -0.237 OA
ATOM     83  O   UNL A   1      53.575  25.668  23.416  1.00  0.00    -0.237 OA
ATOM     84  O   UNL A   1      54.575  26.074  25.630  1.00  0.00    -0.744 OA
ENDBRANCH  80  81
ENDBRANCH  52  75
BRANCH  64  85
ATOM     85  C   UNL A   1      46.950  32.777  28.484  1.00  0.00    -0.014 A 
ATOM     86  C   UNL A   1      47.758  33.102  29.588  1.00  0.00     0.010 A 
ATOM     87  C   UNL A   1      46.780  33.724  27.458  1.00  0.00     0.010 A 
ATOM     88  C   UNL A   1      48.371  34.355  29.671  1.00  0.00     0.020 A 
ATOM     89  C   UNL A   1      47.416  34.967  27.522  1.00  0.00     0.020 A 
ATOM     90  C   UNL A   1      48.201  35.277  28.633  1.00  0.00     0.054 A 
BRANCH  90  91
ATOM     91  S   UNL A   1      49.066  36.869  28.733  1.00  0.00     0.124 S 
ATOM     92  O   UNL A   1      49.034  37.321  27.345  1.00  0.00    -0.237 OA
ATOM     93  O   UNL A   1      48.232  37.628  29.661  1.00  0.00    -0.237 OA
ATOM     94  O   UNL A   1      50.390  36.514  29.241  1.00  0.00    -0.744 OA
ENDBRANCH  90  91
ENDBRANCH  64  85
ENDBRANCH  38  39
ENDBRANCH  31  33
ENDBRANCH  30  31
ENDBRANCH  29  30
ENDBRANCH  28  29
ENDBRANCH   1  28
TORSDOF 22
ENDMDL
