MODEL 1
REMARK VINA RESULT:     -11.1      0.000      0.000
REMARK SMILES Cc1ccc(NC(=O)C[C@H]2SC[C@H](C(=O)OCCOCCOC(=O)c3ccc(-c4c5nc(c(-c6ccc(S(=O)(=O)[O-])cc6)c6ccc([nH]6)c(-c6ccc(S(=O)(=O)[O-])cc6)c6nc(c(-c7ccc(S(=O)(=O)[O-])cc7)c7ccc4[nH]7)C=C6)C=C5)cc3)NC2=O)cc1
REMARK SMILES IDX 19 1 18 2 17 3 16 4 14 5 15 6 13 7 10 8 11 9 86 10 12 11
REMARK SMILES IDX 85 12 87 13 9 15 7 16 6 17 8 19 5 20 1 21 2 22 3 23 89 24
REMARK SMILES IDX 4 25 88 26 20 27 21 28 22 29 23 30 24 31 25 32 26 33 84 34
REMARK SMILES IDX 27 35 83 36 28 37 29 38 30 39 77 40 31 41 82 42 76 43 78 44
REMARK SMILES IDX 32 45 81 46 75 47 74 48 33 50 63 51 44 52 62 53 45 54 48 55
REMARK SMILES IDX 61 56 79 57 46 58 47 59 60 61 80 62 49 63 34 64 35 65 43 66
REMARK SMILES IDX 36 67 42 68 37 69 38 70 39 71 40 72 41 73 64 74 65 75 73 76
REMARK SMILES IDX 66 77 72 78 67 79 68 80 69 81 70 82 71 83 50 84 51 85 59 86
REMARK SMILES IDX 52 87 58 88 53 89 54 90 55 91 56 92 57 93
REMARK H PARENT 85 14 6 18 78 49 48 60
REMARK Flexibility Score: inf
ROOT
ATOM      1  O   UNL A   1      40.645  24.185  27.455  1.00  0.00    -0.374 OA
ENDROOT
BRANCH   1   2
ATOM      2  C   UNL A   1      40.982  22.817  27.696  1.00  0.00     0.202 C 
BRANCH   2   3
ATOM      3  C   UNL A   1      40.640  22.083  26.421  1.00  0.00     0.261 C 
BRANCH   3   4
ATOM      4  O   UNL A   1      39.355  22.497  25.933  1.00  0.00    -0.462 OA
BRANCH   4   5
ATOM      5  C   UNL A   1      38.438  21.526  25.670  1.00  0.00     0.329 C 
ATOM      6  O   UNL A   1      38.669  20.339  25.492  1.00  0.00    -0.250 OA
BRANCH   5   7
ATOM      7  C   UNL A   1      37.051  22.136  25.558  1.00  0.00     0.202 C 
ATOM      8  C   UNL A   1      34.255  21.624  24.612  1.00  0.00     0.145 C 
ATOM      9  S   UNL A   1      35.055  23.121  23.907  1.00  0.00    -0.145 SA
ATOM     10  C   UNL A   1      34.714  21.428  26.065  1.00  0.00     0.234 C 
ATOM     11  C   UNL A   1      36.749  22.514  24.104  1.00  0.00     0.107 C 
ATOM     12  N   UNL A   1      36.068  21.313  26.258  1.00  0.00    -0.341 N 
ATOM     13  O   UNL A   1      33.962  21.275  27.022  1.00  0.00    -0.274 OA
ATOM     14  H   UNL A   1      36.393  20.644  26.902  1.00  0.00     0.164 HD
BRANCH   8  15
ATOM     15  C   UNL A   1      32.759  21.671  24.324  1.00  0.00     0.124 C 
BRANCH  15  16
ATOM     16  C   UNL A   1      32.304  21.131  22.990  1.00  0.00     0.226 C 
ATOM     17  N   UNL A   1      32.155  19.805  22.738  1.00  0.00    -0.326 N 
ATOM     18  H   UNL A   1      31.637  19.626  21.920  1.00  0.00     0.169 HD
ATOM     19  O   UNL A   1      32.044  21.924  22.076  1.00  0.00    -0.275 OA
BRANCH  17  20
ATOM     20  C   UNL A   1      32.574  18.634  23.384  1.00  0.00     0.041 A 
ATOM     21  C   UNL A   1      33.506  15.031  25.577  1.00  0.00     0.044 C 
ATOM     22  C   UNL A   1      33.201  16.294  24.827  1.00  0.00    -0.051 A 
ATOM     23  C   UNL A   1      33.576  16.430  23.486  1.00  0.00     0.005 A 
ATOM     24  C   UNL A   1      32.523  17.344  25.448  1.00  0.00     0.005 A 
ATOM     25  C   UNL A   1      33.258  17.590  22.766  1.00  0.00     0.026 A 
ATOM     26  C   UNL A   1      32.204  18.497  24.727  1.00  0.00     0.026 A 
ENDBRANCH  17  20
ENDBRANCH  15  16
ENDBRANCH   8  15
ENDBRANCH   5   7
ENDBRANCH   4   5
ENDBRANCH   3   4
ENDBRANCH   2   3
ENDBRANCH   1   2
BRANCH   1  27
ATOM     27  C   UNL A   1      41.721  25.057  27.166  1.00  0.00     0.202 C 
BRANCH  27  28
ATOM     28  C   UNL A   1      41.741  25.586  25.726  1.00  0.00     0.261 C 
BRANCH  28  29
ATOM     29  O   UNL A   1      41.054  26.850  25.660  1.00  0.00    -0.460 OA
BRANCH  29  30
ATOM     30  C   UNL A   1      41.859  27.943  25.605  1.00  0.00     0.338 C 
ATOM     31  O   UNL A   1      42.703  28.132  24.733  1.00  0.00    -0.246 OA
BRANCH  30  32
ATOM     32  C   UNL A   1      41.595  28.828  26.768  1.00  0.00     0.060 A 
ATOM     33  C   UNL A   1      42.640  29.496  27.430  1.00  0.00     0.016 A 
ATOM     34  C   UNL A   1      40.311  28.845  27.314  1.00  0.00     0.016 A 
ATOM     35  C   UNL A   1      42.417  30.110  28.676  1.00  0.00     0.010 A 
ATOM     36  C   UNL A   1      40.111  29.391  28.565  1.00  0.00     0.010 A 
ATOM     37  C   UNL A   1      41.154  30.021  29.266  1.00  0.00    -0.014 A 
BRANCH  37  38
ATOM     38  C   UNL A   1      40.790  30.416  30.634  1.00  0.00     0.031 A 
ATOM     39  C   UNL A   1      40.020  31.667  30.858  1.00  0.00     0.074 A 
ATOM     40  C   UNL A   1      40.821  29.503  31.633  1.00  0.00     0.049 A 
ATOM     41  N   UNL A   1      39.733  32.141  32.023  1.00  0.00    -0.248 NA
ATOM     42  C   UNL A   1      39.543  32.526  29.776  1.00  0.00     0.031 C 
ATOM     43  C   UNL A   1      39.938  29.435  32.798  1.00  0.00     0.029 A 
ATOM     44  N   UNL A   1      41.686  28.429  31.819  1.00  0.00    -0.354 N 
ATOM     45  C   UNL A   1      38.735  33.070  31.852  1.00  0.00     0.074 A 
ATOM     46  C   UNL A   1      38.779  33.392  30.447  1.00  0.00     0.031 C 
ATOM     47  C   UNL A   1      40.413  28.531  33.670  1.00  0.00     0.029 A 
ATOM     48  C   UNL A   1      41.706  28.091  33.178  1.00  0.00     0.049 A 
ATOM     49  H   UNL A   1      42.201  27.979  31.110  1.00  0.00     0.167 HD
ATOM     50  C   UNL A   1      37.884  33.326  32.890  1.00  0.00     0.031 A 
ATOM     51  C   UNL A   1      42.879  28.093  33.869  1.00  0.00     0.031 A 
ATOM     52  C   UNL A   1      38.330  32.667  34.131  1.00  0.00     0.049 A 
ATOM     53  C   UNL A   1      42.868  29.189  34.902  1.00  0.00     0.074 A 
ATOM     54  C   UNL A   1      37.812  31.652  34.917  1.00  0.00     0.029 A 
ATOM     55  N   UNL A   1      39.635  32.878  34.589  1.00  0.00    -0.354 N 
ATOM     56  N   UNL A   1      41.980  30.145  34.893  1.00  0.00    -0.248 NA
ATOM     57  C   UNL A   1      43.776  29.298  36.038  1.00  0.00     0.031 C 
ATOM     58  C   UNL A   1      38.845  31.195  35.786  1.00  0.00     0.029 A 
ATOM     59  C   UNL A   1      39.981  31.959  35.562  1.00  0.00     0.049 A 
ATOM     60  H   UNL A   1      40.231  33.590  34.261  1.00  0.00     0.167 HD
ATOM     61  C   UNL A   1      42.135  30.951  35.975  1.00  0.00     0.074 A 
ATOM     62  C   UNL A   1      43.290  30.392  36.660  1.00  0.00     0.031 C 
ATOM     63  C   UNL A   1      41.295  32.001  36.207  1.00  0.00     0.031 A 
BRANCH  50  64
ATOM     64  C   UNL A   1      36.523  33.999  32.737  1.00  0.00    -0.014 A 
ATOM     65  C   UNL A   1      35.738  33.763  31.586  1.00  0.00     0.010 A 
ATOM     66  C   UNL A   1      35.977  34.922  33.652  1.00  0.00     0.010 A 
ATOM     67  C   UNL A   1      34.502  34.406  31.370  1.00  0.00     0.020 A 
ATOM     68  C   UNL A   1      34.741  35.558  33.464  1.00  0.00     0.020 A 
ATOM     69  C   UNL A   1      34.007  35.300  32.318  1.00  0.00     0.054 A 
BRANCH  69  70
ATOM     70  S   UNL A   1      32.408  36.112  32.056  1.00  0.00     0.124 S 
ATOM     71  O   UNL A   1      32.519  37.304  32.891  1.00  0.00    -0.237 OA
ATOM     72  O   UNL A   1      32.406  36.347  30.614  1.00  0.00    -0.237 OA
ATOM     73  O   UNL A   1      31.436  35.123  32.519  1.00  0.00    -0.744 OA
ENDBRANCH  69  70
ENDBRANCH  50  64
BRANCH  51  74
ATOM     74  C   UNL A   1      44.013  27.513  33.083  1.00  0.00    -0.014 A 
ATOM     75  C   UNL A   1      43.973  26.111  32.889  1.00  0.00     0.010 A 
ATOM     76  C   UNL A   1      44.729  28.288  32.149  1.00  0.00     0.010 A 
ATOM     77  C   UNL A   1      44.478  25.522  31.721  1.00  0.00     0.020 A 
ATOM     78  C   UNL A   1      45.224  27.701  30.968  1.00  0.00     0.020 A 
ATOM     79  C   UNL A   1      45.049  26.330  30.738  1.00  0.00     0.054 A 
BRANCH  79  80
ATOM     80  S   UNL A   1      45.237  25.655  29.044  1.00  0.00     0.124 S 
ATOM     81  O   UNL A   1      44.597  24.351  29.152  1.00  0.00    -0.237 OA
ATOM     82  O   UNL A   1      44.533  26.636  28.216  1.00  0.00    -0.237 OA
ATOM     83  O   UNL A   1      46.685  25.651  28.856  1.00  0.00    -0.744 OA
ENDBRANCH  79  80
ENDBRANCH  51  74
BRANCH  63  84
ATOM     84  C   UNL A   1      41.609  33.140  37.138  1.00  0.00    -0.014 A 
ATOM     85  C   UNL A   1      42.917  33.542  37.450  1.00  0.00     0.010 A 
ATOM     86  C   UNL A   1      40.554  33.958  37.602  1.00  0.00     0.010 A 
ATOM     87  C   UNL A   1      43.161  34.668  38.241  1.00  0.00     0.020 A 
ATOM     88  C   UNL A   1      40.787  35.115  38.348  1.00  0.00     0.020 A 
ATOM     89  C   UNL A   1      42.094  35.448  38.685  1.00  0.00     0.054 A 
BRANCH  89  90
ATOM     90  S   UNL A   1      42.439  36.942  39.641  1.00  0.00     0.124 S 
ATOM     91  O   UNL A   1      43.579  37.501  38.920  1.00  0.00    -0.237 OA
ATOM     92  O   UNL A   1      41.193  37.696  39.523  1.00  0.00    -0.237 OA
ATOM     93  O   UNL A   1      42.729  36.436  40.980  1.00  0.00    -0.744 OA
ENDBRANCH  89  90
ENDBRANCH  63  84
ENDBRANCH  37  38
ENDBRANCH  30  32
ENDBRANCH  29  30
ENDBRANCH  28  29
ENDBRANCH  27  28
ENDBRANCH   1  27
TORSDOF 20
ENDMDL
MODEL 2
REMARK VINA RESULT:     -11.0      2.336      3.645
REMARK SMILES Cc1ccc(NC(=O)C[C@H]2SC[C@H](C(=O)OCCOCCOC(=O)c3ccc(-c4c5nc(c(-c6ccc(S(=O)(=O)[O-])cc6)c6ccc([nH]6)c(-c6ccc(S(=O)(=O)[O-])cc6)c6nc(c(-c7ccc(S(=O)(=O)[O-])cc7)c7ccc4[nH]7)C=C6)C=C5)cc3)NC2=O)cc1
REMARK SMILES IDX 19 1 18 2 17 3 16 4 14 5 15 6 13 7 10 8 11 9 86 10 12 11
REMARK SMILES IDX 85 12 87 13 9 15 7 16 6 17 8 19 5 20 1 21 2 22 3 23 89 24
REMARK SMILES IDX 4 25 88 26 20 27 21 28 22 29 23 30 24 31 25 32 26 33 84 34
REMARK SMILES IDX 27 35 83 36 28 37 29 38 30 39 77 40 31 41 82 42 76 43 78 44
REMARK SMILES IDX 32 45 81 46 75 47 74 48 33 50 63 51 44 52 62 53 45 54 48 55
REMARK SMILES IDX 61 56 79 57 46 58 47 59 60 61 80 62 49 63 34 64 35 65 43 66
REMARK SMILES IDX 36 67 42 68 37 69 38 70 39 71 40 72 41 73 64 74 65 75 73 76
REMARK SMILES IDX 66 77 72 78 67 79 68 80 69 81 70 82 71 83 50 84 51 85 59 86
REMARK SMILES IDX 52 87 58 88 53 89 54 90 55 91 56 92 57 93
REMARK H PARENT 85 14 6 18 78 49 48 60
REMARK Flexibility Score: inf
ROOT
ATOM      1  O   UNL A   1      39.426  24.238  26.529  1.00  0.00    -0.374 OA
ENDROOT
BRANCH   1   2
ATOM      2  C   UNL A   1      39.490  22.901  27.032  1.00  0.00     0.202 C 
BRANCH   2   3
ATOM      3  C   UNL A   1      39.101  22.012  25.874  1.00  0.00     0.261 C 
BRANCH   3   4
ATOM      4  O   UNL A   1      37.676  22.010  25.698  1.00  0.00    -0.462 OA
BRANCH   4   5
ATOM      5  C   UNL A   1      37.115  20.918  25.113  1.00  0.00     0.329 C 
ATOM      6  O   UNL A   1      37.617  19.807  25.018  1.00  0.00    -0.250 OA
BRANCH   5   7
ATOM      7  C   UNL A   1      35.765  21.282  24.517  1.00  0.00     0.202 C 
ATOM      8  C   UNL A   1      33.407  23.104  24.815  1.00  0.00     0.145 C 
ATOM      9  S   UNL A   1      33.010  21.310  24.811  1.00  0.00    -0.145 SA
ATOM     10  C   UNL A   1      34.581  23.376  23.863  1.00  0.00     0.234 C 
ATOM     11  C   UNL A   1      34.631  20.779  25.417  1.00  0.00     0.107 C 
ATOM     12  N   UNL A   1      35.739  22.688  24.123  1.00  0.00    -0.341 N 
ATOM     13  O   UNL A   1      34.577  24.218  22.970  1.00  0.00    -0.274 OA
ATOM     14  H   UNL A   1      36.595  23.166  24.039  1.00  0.00     0.164 HD
BRANCH   8  15
ATOM     15  C   UNL A   1      32.122  23.903  24.629  1.00  0.00     0.124 C 
BRANCH  15  16
ATOM     16  C   UNL A   1      31.451  24.417  25.880  1.00  0.00     0.226 C 
ATOM     17  N   UNL A   1      30.575  25.454  25.880  1.00  0.00    -0.326 N 
ATOM     18  H   UNL A   1      30.054  25.517  26.712  1.00  0.00     0.169 HD
ATOM     19  O   UNL A   1      31.697  23.870  26.963  1.00  0.00    -0.275 OA
BRANCH  17  20
ATOM     20  C   UNL A   1      30.248  26.456  24.956  1.00  0.00     0.041 A 
ATOM     21  C   UNL A   1      28.849  29.516  22.247  1.00  0.00     0.044 C 
ATOM     22  C   UNL A   1      29.340  28.439  23.168  1.00  0.00    -0.051 A 
ATOM     23  C   UNL A   1      30.590  28.551  23.786  1.00  0.00     0.005 A 
ATOM     24  C   UNL A   1      28.552  27.319  23.438  1.00  0.00     0.005 A 
ATOM     25  C   UNL A   1      31.039  27.569  24.681  1.00  0.00     0.026 A 
ATOM     26  C   UNL A   1      28.999  26.345  24.332  1.00  0.00     0.026 A 
ENDBRANCH  17  20
ENDBRANCH  15  16
ENDBRANCH   8  15
ENDBRANCH   5   7
ENDBRANCH   4   5
ENDBRANCH   3   4
ENDBRANCH   2   3
ENDBRANCH   1   2
BRANCH   1  27
ATOM     27  C   UNL A   1      40.478  25.104  26.909  1.00  0.00     0.202 C 
BRANCH  27  28
ATOM     28  C   UNL A   1      41.225  25.750  25.736  1.00  0.00     0.261 C 
BRANCH  28  29
ATOM     29  O   UNL A   1      42.240  26.641  26.234  1.00  0.00    -0.460 OA
BRANCH  29  30
ATOM     30  C   UNL A   1      42.150  27.923  25.792  1.00  0.00     0.338 C 
ATOM     31  O   UNL A   1      42.368  28.269  24.633  1.00  0.00    -0.246 OA
BRANCH  30  32
ATOM     32  C   UNL A   1      41.801  28.825  26.919  1.00  0.00     0.060 A 
ATOM     33  C   UNL A   1      42.785  29.586  27.576  1.00  0.00     0.016 A 
ATOM     34  C   UNL A   1      40.508  28.771  27.440  1.00  0.00     0.016 A 
ATOM     35  C   UNL A   1      42.494  30.224  28.797  1.00  0.00     0.010 A 
ATOM     36  C   UNL A   1      40.246  29.343  28.668  1.00  0.00     0.010 A 
ATOM     37  C   UNL A   1      41.228  30.067  29.366  1.00  0.00    -0.014 A 
BRANCH  37  38
ATOM     38  C   UNL A   1      40.809  30.480  30.713  1.00  0.00     0.031 A 
ATOM     39  C   UNL A   1      40.042  31.739  30.890  1.00  0.00     0.074 A 
ATOM     40  C   UNL A   1      40.791  29.578  31.722  1.00  0.00     0.049 A 
ATOM     41  N   UNL A   1      39.710  32.229  32.037  1.00  0.00    -0.248 NA
ATOM     42  C   UNL A   1      39.619  32.590  29.779  1.00  0.00     0.031 C 
ATOM     43  C   UNL A   1      39.859  29.530  32.849  1.00  0.00     0.029 A 
ATOM     44  N   UNL A   1      41.638  28.499  31.957  1.00  0.00    -0.354 N 
ATOM     45  C   UNL A   1      38.727  33.163  31.813  1.00  0.00     0.074 A 
ATOM     46  C   UNL A   1      38.833  33.470  30.408  1.00  0.00     0.031 C 
ATOM     47  C   UNL A   1      40.289  28.632  33.750  1.00  0.00     0.029 A 
ATOM     48  C   UNL A   1      41.597  28.176  33.319  1.00  0.00     0.049 A 
ATOM     49  H   UNL A   1      42.179  28.038  31.275  1.00  0.00     0.167 HD
ATOM     50  C   UNL A   1      37.835  33.438  32.811  1.00  0.00     0.031 A 
ATOM     51  C   UNL A   1      42.740  28.177  34.060  1.00  0.00     0.031 A 
ATOM     52  C   UNL A   1      38.223  32.790  34.078  1.00  0.00     0.049 A 
ATOM     53  C   UNL A   1      42.695  29.285  35.079  1.00  0.00     0.074 A 
ATOM     54  C   UNL A   1      37.663  31.788  34.852  1.00  0.00     0.029 A 
ATOM     55  N   UNL A   1      39.509  32.996  34.588  1.00  0.00    -0.354 N 
ATOM     56  N   UNL A   1      41.816  30.248  35.021  1.00  0.00    -0.248 NA
ATOM     57  C   UNL A   1      43.554  29.399  36.251  1.00  0.00     0.031 C 
ATOM     58  C   UNL A   1      38.655  31.332  35.769  1.00  0.00     0.029 A 
ATOM     59  C   UNL A   1      39.805  32.084  35.585  1.00  0.00     0.049 A 
ATOM     60  H   UNL A   1      40.124  33.699  34.278  1.00  0.00     0.167 HD
ATOM     61  C   UNL A   1      41.932  31.064  36.100  1.00  0.00     0.074 A 
ATOM     62  C   UNL A   1      43.052  30.504  36.840  1.00  0.00     0.031 C 
ATOM     63  C   UNL A   1      41.092  32.123  36.285  1.00  0.00     0.031 A 
BRANCH  50  64
ATOM     64  C   UNL A   1      36.488  34.120  32.593  1.00  0.00    -0.014 A 
ATOM     65  C   UNL A   1      35.901  34.882  33.627  1.00  0.00     0.010 A 
ATOM     66  C   UNL A   1      35.711  34.004  31.422  1.00  0.00     0.010 A 
ATOM     67  C   UNL A   1      34.631  35.481  33.497  1.00  0.00     0.020 A 
ATOM     68  C   UNL A   1      34.453  34.608  31.266  1.00  0.00     0.020 A 
ATOM     69  C   UNL A   1      33.915  35.343  32.309  1.00  0.00     0.054 A 
BRANCH  69  70
ATOM     70  S   UNL A   1      32.292  36.130  32.128  1.00  0.00     0.124 S 
ATOM     71  O   UNL A   1      32.281  36.509  30.719  1.00  0.00    -0.237 OA
ATOM     72  O   UNL A   1      31.377  35.056  32.503  1.00  0.00    -0.237 OA
ATOM     73  O   UNL A   1      32.343  37.251  33.067  1.00  0.00    -0.744 OA
ENDBRANCH  69  70
ENDBRANCH  50  64
BRANCH  51  74
ATOM     74  C   UNL A   1      43.902  27.579  33.329  1.00  0.00    -0.014 A 
ATOM     75  C   UNL A   1      43.924  26.165  33.262  1.00  0.00     0.010 A 
ATOM     76  C   UNL A   1      44.586  28.297  32.329  1.00  0.00     0.010 A 
ATOM     77  C   UNL A   1      44.459  25.496  32.151  1.00  0.00     0.020 A 
ATOM     78  C   UNL A   1      45.111  27.629  31.205  1.00  0.00     0.020 A 
ATOM     79  C   UNL A   1      44.998  26.237  31.100  1.00  0.00     0.054 A 
BRANCH  79  80
ATOM     80  S   UNL A   1      45.222  25.420  29.474  1.00  0.00     0.124 S 
ATOM     81  O   UNL A   1      45.042  24.012  29.801  1.00  0.00    -0.237 OA
ATOM     82  O   UNL A   1      44.165  26.018  28.654  1.00  0.00    -0.237 OA
ATOM     83  O   UNL A   1      46.570  25.828  29.090  1.00  0.00    -0.744 OA
ENDBRANCH  79  80
ENDBRANCH  51  74
BRANCH  63  84
ATOM     84  C   UNL A   1      41.375  33.270  37.216  1.00  0.00    -0.014 A 
ATOM     85  C   UNL A   1      42.042  34.439  36.817  1.00  0.00     0.010 A 
ATOM     86  C   UNL A   1      40.810  33.259  38.512  1.00  0.00     0.010 A 
ATOM     87  C   UNL A   1      42.196  35.520  37.689  1.00  0.00     0.020 A 
ATOM     88  C   UNL A   1      40.911  34.353  39.372  1.00  0.00     0.020 A 
ATOM     89  C   UNL A   1      41.629  35.471  38.961  1.00  0.00     0.054 A 
BRANCH  89  90
ATOM     90  S   UNL A   1      41.775  36.911  40.043  1.00  0.00     0.124 S 
ATOM     91  O   UNL A   1      40.624  37.711  39.631  1.00  0.00    -0.237 OA
ATOM     92  O   UNL A   1      41.683  36.324  41.378  1.00  0.00    -0.237 OA
ATOM     93  O   UNL A   1      43.082  37.468  39.703  1.00  0.00    -0.744 OA
ENDBRANCH  89  90
ENDBRANCH  63  84
ENDBRANCH  37  38
ENDBRANCH  30  32
ENDBRANCH  29  30
ENDBRANCH  28  29
ENDBRANCH  27  28
ENDBRANCH   1  27
TORSDOF 20
ENDMDL
MODEL 3
REMARK VINA RESULT:     -10.9      3.769      8.416
REMARK SMILES Cc1ccc(NC(=O)C[C@H]2SC[C@H](C(=O)OCCOCCOC(=O)c3ccc(-c4c5nc(c(-c6ccc(S(=O)(=O)[O-])cc6)c6ccc([nH]6)c(-c6ccc(S(=O)(=O)[O-])cc6)c6nc(c(-c7ccc(S(=O)(=O)[O-])cc7)c7ccc4[nH]7)C=C6)C=C5)cc3)NC2=O)cc1
REMARK SMILES IDX 19 1 18 2 17 3 16 4 14 5 15 6 13 7 10 8 11 9 86 10 12 11
REMARK SMILES IDX 85 12 87 13 9 15 7 16 6 17 8 19 5 20 1 21 2 22 3 23 89 24
REMARK SMILES IDX 4 25 88 26 20 27 21 28 22 29 23 30 24 31 25 32 26 33 84 34
REMARK SMILES IDX 27 35 83 36 28 37 29 38 30 39 77 40 31 41 82 42 76 43 78 44
REMARK SMILES IDX 32 45 81 46 75 47 74 48 33 50 63 51 44 52 62 53 45 54 48 55
REMARK SMILES IDX 61 56 79 57 46 58 47 59 60 61 80 62 49 63 34 64 35 65 43 66
REMARK SMILES IDX 36 67 42 68 37 69 38 70 39 71 40 72 41 73 64 74 65 75 73 76
REMARK SMILES IDX 66 77 72 78 67 79 68 80 69 81 70 82 71 83 50 84 51 85 59 86
REMARK SMILES IDX 52 87 58 88 53 89 54 90 55 91 56 92 57 93
REMARK H PARENT 85 14 6 18 78 49 48 60
REMARK Flexibility Score: inf
ROOT
ATOM      1  O   UNL A   1      41.145  21.738  27.109  1.00  0.00    -0.374 OA
ENDROOT
BRANCH   1   2
ATOM      2  C   UNL A   1      40.097  21.037  26.436  1.00  0.00     0.202 C 
BRANCH   2   3
ATOM      3  C   UNL A   1      39.041  22.075  26.135  1.00  0.00     0.261 C 
BRANCH   3   4
ATOM      4  O   UNL A   1      37.984  21.502  25.350  1.00  0.00    -0.462 OA
BRANCH   4   5
ATOM      5  C   UNL A   1      37.005  22.337  24.907  1.00  0.00     0.329 C 
ATOM      6  O   UNL A   1      37.163  23.357  24.253  1.00  0.00    -0.250 OA
BRANCH   5   7
ATOM      7  C   UNL A   1      35.650  21.857  25.399  1.00  0.00     0.202 C 
ATOM      8  C   UNL A   1      32.735  22.539  25.494  1.00  0.00     0.145 C 
ATOM      9  S   UNL A   1      33.519  22.242  27.128  1.00  0.00    -0.145 SA
ATOM     10  C   UNL A   1      33.360  21.610  24.443  1.00  0.00     0.234 C 
ATOM     11  C   UNL A   1      35.189  22.694  26.597  1.00  0.00     0.107 C 
ATOM     12  N   UNL A   1      34.719  21.710  24.283  1.00  0.00    -0.341 N 
ATOM     13  O   UNL A   1      32.726  20.874  23.693  1.00  0.00    -0.274 OA
ATOM     14  H   UNL A   1      35.085  21.681  23.370  1.00  0.00     0.164 HD
BRANCH   8  15
ATOM     15  C   UNL A   1      31.219  22.535  25.656  1.00  0.00     0.124 C 
BRANCH  15  16
ATOM     16  C   UNL A   1      30.637  23.509  26.652  1.00  0.00     0.226 C 
ATOM     17  N   UNL A   1      30.807  24.853  26.561  1.00  0.00    -0.326 N 
ATOM     18  H   UNL A   1      30.185  25.358  27.134  1.00  0.00     0.169 HD
ATOM     19  O   UNL A   1      29.963  23.075  27.595  1.00  0.00    -0.275 OA
BRANCH  17  20
ATOM     20  C   UNL A   1      31.671  25.682  25.834  1.00  0.00     0.041 A 
ATOM     21  C   UNL A   1      34.008  28.345  23.363  1.00  0.00     0.044 C 
ATOM     22  C   UNL A   1      33.210  27.401  24.212  1.00  0.00    -0.051 A 
ATOM     23  C   UNL A   1      33.456  27.302  25.586  1.00  0.00     0.005 A 
ATOM     24  C   UNL A   1      32.197  26.621  23.650  1.00  0.00     0.005 A 
ATOM     25  C   UNL A   1      32.686  26.454  26.394  1.00  0.00     0.026 A 
ATOM     26  C   UNL A   1      31.430  25.779  24.458  1.00  0.00     0.026 A 
ENDBRANCH  17  20
ENDBRANCH  15  16
ENDBRANCH   8  15
ENDBRANCH   5   7
ENDBRANCH   4   5
ENDBRANCH   3   4
ENDBRANCH   2   3
ENDBRANCH   1   2
BRANCH   1  27
ATOM     27  C   UNL A   1      41.372  23.074  26.701  1.00  0.00     0.202 C 
BRANCH  27  28
ATOM     28  C   UNL A   1      41.549  24.070  27.854  1.00  0.00     0.261 C 
BRANCH  28  29
ATOM     29  O   UNL A   1      41.123  25.381  27.438  1.00  0.00    -0.460 OA
BRANCH  29  30
ATOM     30  C   UNL A   1      39.870  25.732  27.828  1.00  0.00     0.338 C 
ATOM     31  O   UNL A   1      38.847  25.166  27.450  1.00  0.00    -0.246 OA
BRANCH  30  32
ATOM     32  C   UNL A   1      39.930  26.913  28.728  1.00  0.00     0.060 A 
ATOM     33  C   UNL A   1      41.050  27.763  28.741  1.00  0.00     0.016 A 
ATOM     34  C   UNL A   1      38.936  27.065  29.695  1.00  0.00     0.016 A 
ATOM     35  C   UNL A   1      41.212  28.710  29.770  1.00  0.00     0.010 A 
ATOM     36  C   UNL A   1      39.131  27.948  30.737  1.00  0.00     0.010 A 
ATOM     37  C   UNL A   1      40.267  28.774  30.796  1.00  0.00    -0.014 A 
BRANCH  37  38
ATOM     38  C   UNL A   1      40.370  29.544  32.044  1.00  0.00     0.031 A 
ATOM     39  C   UNL A   1      40.974  28.916  33.247  1.00  0.00     0.074 A 
ATOM     40  C   UNL A   1      40.266  30.894  32.017  1.00  0.00     0.049 A 
ATOM     41  N   UNL A   1      41.026  29.479  34.407  1.00  0.00    -0.248 NA
ATOM     42  C   UNL A   1      41.534  27.566  33.259  1.00  0.00     0.031 C 
ATOM     43  C   UNL A   1      40.954  31.852  32.881  1.00  0.00     0.029 A 
ATOM     44  N   UNL A   1      39.487  31.701  31.194  1.00  0.00    -0.354 N 
ATOM     45  C   UNL A   1      41.948  28.787  35.156  1.00  0.00     0.074 A 
ATOM     46  C   UNL A   1      42.098  27.527  34.470  1.00  0.00     0.031 C 
ATOM     47  C   UNL A   1      40.433  33.076  32.700  1.00  0.00     0.029 A 
ATOM     48  C   UNL A   1      39.282  32.933  31.828  1.00  0.00     0.049 A 
ATOM     49  H   UNL A   1      39.135  31.447  30.309  1.00  0.00     0.167 HD
ATOM     50  C   UNL A   1      42.595  29.432  36.171  1.00  0.00     0.031 A 
ATOM     51  C   UNL A   1      38.019  33.378  32.074  1.00  0.00     0.031 A 
ATOM     52  C   UNL A   1      42.020  30.768  36.417  1.00  0.00     0.049 A 
ATOM     53  C   UNL A   1      37.762  33.410  33.558  1.00  0.00     0.074 A 
ATOM     54  C   UNL A   1      42.499  32.059  36.273  1.00  0.00     0.029 A 
ATOM     55  N   UNL A   1      40.645  30.893  36.642  1.00  0.00    -0.354 N 
ATOM     56  N   UNL A   1      38.547  32.814  34.413  1.00  0.00    -0.248 NA
ATOM     57  C   UNL A   1      36.679  34.128  34.220  1.00  0.00     0.031 C 
ATOM     58  C   UNL A   1      41.388  32.950  36.320  1.00  0.00     0.029 A 
ATOM     59  C   UNL A   1      40.236  32.209  36.538  1.00  0.00     0.049 A 
ATOM     60  H   UNL A   1      40.045  30.140  36.848  1.00  0.00     0.167 HD
ATOM     61  C   UNL A   1      38.147  33.068  35.685  1.00  0.00     0.074 A 
ATOM     62  C   UNL A   1      36.955  33.885  35.517  1.00  0.00     0.031 C 
ATOM     63  C   UNL A   1      38.838  32.585  36.758  1.00  0.00     0.031 A 
BRANCH  50  64
ATOM     64  C   UNL A   1      43.894  28.946  36.807  1.00  0.00    -0.014 A 
ATOM     65  C   UNL A   1      43.981  27.639  37.336  1.00  0.00     0.010 A 
ATOM     66  C   UNL A   1      45.049  29.736  36.975  1.00  0.00     0.010 A 
ATOM     67  C   UNL A   1      45.138  27.164  37.987  1.00  0.00     0.020 A 
ATOM     68  C   UNL A   1      46.216  29.275  37.603  1.00  0.00     0.020 A 
ATOM     69  C   UNL A   1      46.255  27.987  38.112  1.00  0.00     0.054 A 
BRANCH  69  70
ATOM     70  S   UNL A   1      47.753  27.373  38.927  1.00  0.00     0.124 S 
ATOM     71  O   UNL A   1      47.909  26.045  38.341  1.00  0.00    -0.237 OA
ATOM     72  O   UNL A   1      48.754  28.360  38.534  1.00  0.00    -0.237 OA
ATOM     73  O   UNL A   1      47.404  27.382  40.347  1.00  0.00    -0.744 OA
ENDBRANCH  69  70
ENDBRANCH  50  64
BRANCH  51  74
ATOM     74  C   UNL A   1      37.083  33.119  30.934  1.00  0.00    -0.014 A 
ATOM     75  C   UNL A   1      35.789  32.669  31.292  1.00  0.00     0.010 A 
ATOM     76  C   UNL A   1      37.234  33.778  29.699  1.00  0.00     0.010 A 
ATOM     77  C   UNL A   1      34.662  33.011  30.532  1.00  0.00     0.020 A 
ATOM     78  C   UNL A   1      36.101  34.136  28.941  1.00  0.00     0.020 A 
ATOM     79  C   UNL A   1      34.819  33.795  29.390  1.00  0.00     0.054 A 
BRANCH  79  80
ATOM     80  S   UNL A   1      33.350  34.651  28.702  1.00  0.00     0.124 S 
ATOM     81  O   UNL A   1      33.939  35.814  28.052  1.00  0.00    -0.237 OA
ATOM     82  O   UNL A   1      32.774  33.649  27.801  1.00  0.00    -0.237 OA
ATOM     83  O   UNL A   1      32.543  34.913  29.890  1.00  0.00    -0.744 OA
ENDBRANCH  79  80
ENDBRANCH  51  74
BRANCH  63  84
ATOM     84  C   UNL A   1      38.274  32.495  38.151  1.00  0.00    -0.014 A 
ATOM     85  C   UNL A   1      38.461  33.489  39.123  1.00  0.00     0.010 A 
ATOM     86  C   UNL A   1      37.378  31.447  38.462  1.00  0.00     0.010 A 
ATOM     87  C   UNL A   1      37.837  33.411  40.371  1.00  0.00     0.020 A 
ATOM     88  C   UNL A   1      36.708  31.386  39.685  1.00  0.00     0.020 A 
ATOM     89  C   UNL A   1      36.964  32.360  40.644  1.00  0.00     0.054 A 
BRANCH  89  90
ATOM     90  S   UNL A   1      36.109  32.321  42.236  1.00  0.00     0.124 S 
ATOM     91  O   UNL A   1      36.334  33.678  42.728  1.00  0.00    -0.237 OA
ATOM     92  O   UNL A   1      34.732  32.012  41.857  1.00  0.00    -0.237 OA
ATOM     93  O   UNL A   1      36.798  31.264  42.972  1.00  0.00    -0.744 OA
ENDBRANCH  89  90
ENDBRANCH  63  84
ENDBRANCH  37  38
ENDBRANCH  30  32
ENDBRANCH  29  30
ENDBRANCH  28  29
ENDBRANCH  27  28
ENDBRANCH   1  27
TORSDOF 20
ENDMDL
