MODEL 1
REMARK VINA RESULT:     -10.0      0.000      0.000
REMARK SMILES C[C@@H](NC1=[NH+]S(=O)(=O)c2ccccc21)C(=O)OCCOCCOC(=O)c1ccc(-c2c3nc(c(-c4ccc(S(=O)(=O)[O-])cc4)c4ccc([nH]4)c(-c4ccc(S(=O)(=O)[O-])cc4)c4nc(c(-c5ccc(S(=O)(=O)[O-])cc5)c5ccc2[nH]5)C=C4)C=C3)cc1
REMARK SMILES IDX 21 1 20 2 19 3 18 4 17 5 15 6 16 7 2 8 1 9 3 10 4 11 5 13
REMARK SMILES IDX 14 14 6 15 9 17 13 18 7 19 8 20 10 21 12 22 11 23 22 24
REMARK SMILES IDX 23 25 24 26 25 27 26 28 27 29 85 30 28 31 84 32 29 33 30 34
REMARK SMILES IDX 31 35 78 36 32 37 83 38 77 39 79 40 33 41 82 42 76 43 75 44
REMARK SMILES IDX 34 46 64 47 45 48 63 49 46 50 49 51 62 52 80 53 47 54 48 55
REMARK SMILES IDX 61 57 81 58 50 59 35 60 36 61 44 62 37 63 43 64 38 65 39 66
REMARK SMILES IDX 40 67 41 68 42 69 65 70 66 71 74 72 67 73 73 74 68 75 69 76
REMARK SMILES IDX 70 77 71 78 72 79 51 80 52 81 60 82 53 83 59 84 54 85 55 86
REMARK SMILES IDX 56 87 57 88 58 89
REMARK H PARENT 3 12 5 16 79 45 49 56
REMARK Flexibility Score: inf
ROOT
ATOM      1  C   UNL A   1      35.078  23.521  24.417  1.00  0.00     0.202 C 
ENDROOT
BRANCH   1   2
ATOM      2  O   UNL A   1      34.496  24.249  25.496  1.00  0.00    -0.374 OA
BRANCH   2   3
ATOM      3  C   UNL A   1      34.210  25.628  25.261  1.00  0.00     0.202 C 
BRANCH   3   4
ATOM      4  C   UNL A   1      33.665  25.976  23.874  1.00  0.00     0.261 C 
BRANCH   4   5
ATOM      5  O   UNL A   1      32.957  27.228  23.870  1.00  0.00    -0.460 OA
BRANCH   5   6
ATOM      6  C   UNL A   1      31.849  27.295  24.668  1.00  0.00     0.350 C 
ATOM      7  O   UNL A   1      31.838  27.675  25.834  1.00  0.00    -0.247 OA
BRANCH   6   8
ATOM      8  C   UNL A   1      30.578  26.901  23.900  1.00  0.00     0.279 C 
ATOM      9  C   UNL A   1      30.507  27.634  22.557  1.00  0.00     0.071 C 
BRANCH   8  10
ATOM     10  N   UNL A   1      30.429  25.466  23.635  1.00  0.00    -0.260 N 
ATOM     11  C   UNL A   1      30.560  24.476  24.572  1.00  0.00     0.292 C 
ATOM     12  H   UNL A   1      30.219  25.193  22.713  1.00  0.00     0.306 HD
ATOM     13  N   UNL A   1      30.194  24.583  25.814  1.00  0.00    -0.162 N 
ATOM     14  C   UNL A   1      31.203  23.196  24.208  1.00  0.00     0.087 A 
ATOM     15  S   UNL A   1      30.598  23.240  26.667  1.00  0.00     0.329 S 
ATOM     16  H   UNL A   1      29.736  25.367  26.195  1.00  0.00     0.327 HD
ATOM     17  C   UNL A   1      31.329  22.404  25.332  1.00  0.00     0.124 A 
ATOM     18  C   UNL A   1      31.729  22.792  22.993  1.00  0.00     0.018 A 
ATOM     19  O   UNL A   1      29.407  22.515  27.041  1.00  0.00    -0.179 OA
ATOM     20  O   UNL A   1      31.650  23.566  27.611  1.00  0.00    -0.179 OA
ATOM     21  C   UNL A   1      31.987  21.192  25.328  1.00  0.00     0.025 A 
ATOM     22  C   UNL A   1      32.389  21.560  22.950  1.00  0.00     0.001 A 
ATOM     23  C   UNL A   1      32.521  20.770  24.108  1.00  0.00     0.002 A 
ENDBRANCH   8  10
ENDBRANCH   6   8
ENDBRANCH   5   6
ENDBRANCH   4   5
ENDBRANCH   3   4
ENDBRANCH   2   3
ENDBRANCH   1   2
BRANCH   1  24
ATOM     24  C   UNL A   1      36.587  23.281  24.504  1.00  0.00     0.261 C 
BRANCH  24  25
ATOM     25  O   UNL A   1      37.195  24.034  25.569  1.00  0.00    -0.460 OA
BRANCH  25  26
ATOM     26  C   UNL A   1      38.309  23.465  26.090  1.00  0.00     0.338 C 
ATOM     27  O   UNL A   1      38.704  22.324  25.912  1.00  0.00    -0.246 OA
BRANCH  26  28
ATOM     28  C   UNL A   1      39.113  24.472  26.812  1.00  0.00     0.060 A 
ATOM     29  C   UNL A   1      38.876  24.616  28.185  1.00  0.00     0.016 A 
ATOM     30  C   UNL A   1      40.001  25.322  26.151  1.00  0.00     0.016 A 
ATOM     31  C   UNL A   1      39.477  25.656  28.890  1.00  0.00     0.010 A 
ATOM     32  C   UNL A   1      40.600  26.369  26.861  1.00  0.00     0.010 A 
ATOM     33  C   UNL A   1      40.308  26.566  28.223  1.00  0.00    -0.014 A 
BRANCH  33  34
ATOM     34  C   UNL A   1      40.735  27.807  28.915  1.00  0.00     0.031 A 
ATOM     35  C   UNL A   1      42.141  27.899  29.446  1.00  0.00     0.074 A 
ATOM     36  C   UNL A   1      39.901  28.855  29.028  1.00  0.00     0.049 A 
ATOM     37  N   UNL A   1      42.718  28.876  30.097  1.00  0.00    -0.248 NA
ATOM     38  C   UNL A   1      43.012  26.735  29.211  1.00  0.00     0.031 C 
ATOM     39  C   UNL A   1      38.536  28.913  28.505  1.00  0.00     0.029 A 
ATOM     40  N   UNL A   1      40.085  30.080  29.622  1.00  0.00    -0.354 N 
ATOM     41  C   UNL A   1      44.015  28.445  30.354  1.00  0.00     0.074 A 
ATOM     42  C   UNL A   1      44.130  27.107  29.816  1.00  0.00     0.031 C 
ATOM     43  C   UNL A   1      38.006  30.112  28.803  1.00  0.00     0.029 A 
ATOM     44  C   UNL A   1      38.979  30.892  29.566  1.00  0.00     0.049 A 
ATOM     45  H   UNL A   1      40.931  30.349  30.048  1.00  0.00     0.167 HD
ATOM     46  C   UNL A   1      45.022  29.106  30.973  1.00  0.00     0.031 A 
ATOM     47  C   UNL A   1      38.768  32.118  30.085  1.00  0.00     0.031 A 
ATOM     48  C   UNL A   1      44.903  30.432  31.518  1.00  0.00     0.049 A 
ATOM     49  C   UNL A   1      39.875  32.800  30.843  1.00  0.00     0.074 A 
ATOM     50  C   UNL A   1      45.867  31.187  32.164  1.00  0.00     0.029 A 
ATOM     51  N   UNL A   1      43.749  31.200  31.484  1.00  0.00    -0.354 N 
ATOM     52  N   UNL A   1      41.097  32.380  31.076  1.00  0.00    -0.248 NA
ATOM     53  C   UNL A   1      39.577  34.125  31.406  1.00  0.00     0.031 C 
ATOM     54  C   UNL A   1      45.280  32.391  32.567  1.00  0.00     0.029 A 
ATOM     55  C   UNL A   1      43.969  32.411  32.120  1.00  0.00     0.049 A 
ATOM     56  H   UNL A   1      42.900  30.925  31.070  1.00  0.00     0.167 HD
ATOM     57  C   UNL A   1      41.721  33.400  31.786  1.00  0.00     0.074 A 
ATOM     58  C   UNL A   1      40.745  34.461  31.936  1.00  0.00     0.031 C 
ATOM     59  C   UNL A   1      42.988  33.456  32.266  1.00  0.00     0.031 A 
BRANCH  46  60
ATOM     60  C   UNL A   1      46.336  28.384  31.126  1.00  0.00    -0.014 A 
ATOM     61  C   UNL A   1      47.340  28.484  30.145  1.00  0.00     0.010 A 
ATOM     62  C   UNL A   1      46.583  27.623  32.282  1.00  0.00     0.010 A 
ATOM     63  C   UNL A   1      48.551  27.804  30.301  1.00  0.00     0.020 A 
ATOM     64  C   UNL A   1      47.802  26.963  32.454  1.00  0.00     0.020 A 
ATOM     65  C   UNL A   1      48.773  27.044  31.454  1.00  0.00     0.054 A 
BRANCH  65  66
ATOM     66  S   UNL A   1      50.360  26.185  31.640  1.00  0.00     0.124 S 
ATOM     67  O   UNL A   1      50.174  25.021  30.778  1.00  0.00    -0.237 OA
ATOM     68  O   UNL A   1      51.320  27.176  31.160  1.00  0.00    -0.237 OA
ATOM     69  O   UNL A   1      50.432  25.895  33.070  1.00  0.00    -0.744 OA
ENDBRANCH  65  66
ENDBRANCH  46  60
BRANCH  47  70
ATOM     70  C   UNL A   1      37.441  32.771  29.923  1.00  0.00    -0.014 A 
ATOM     71  C   UNL A   1      36.448  32.638  30.907  1.00  0.00     0.010 A 
ATOM     72  C   UNL A   1      37.170  33.541  28.776  1.00  0.00     0.010 A 
ATOM     73  C   UNL A   1      35.203  33.253  30.744  1.00  0.00     0.020 A 
ATOM     74  C   UNL A   1      35.936  34.177  28.622  1.00  0.00     0.020 A 
ATOM     75  C   UNL A   1      34.956  34.021  29.603  1.00  0.00     0.054 A 
BRANCH  75  76
ATOM     76  S   UNL A   1      33.359  34.866  29.436  1.00  0.00     0.124 S 
ATOM     77  O   UNL A   1      32.629  33.961  28.555  1.00  0.00    -0.237 OA
ATOM     78  O   UNL A   1      32.887  34.926  30.817  1.00  0.00    -0.237 OA
ATOM     79  O   UNL A   1      33.717  36.157  28.853  1.00  0.00    -0.744 OA
ENDBRANCH  75  76
ENDBRANCH  47  70
BRANCH  59  80
ATOM     80  C   UNL A   1      43.410  34.717  32.974  1.00  0.00    -0.014 A 
ATOM     81  C   UNL A   1      43.353  34.822  34.374  1.00  0.00     0.010 A 
ATOM     82  C   UNL A   1      43.927  35.792  32.226  1.00  0.00     0.010 A 
ATOM     83  C   UNL A   1      43.779  35.990  35.012  1.00  0.00     0.020 A 
ATOM     84  C   UNL A   1      44.378  36.951  32.862  1.00  0.00     0.020 A 
ATOM     85  C   UNL A   1      44.289  37.048  34.252  1.00  0.00     0.054 A 
BRANCH  85  86
ATOM     86  S   UNL A   1      44.878  38.535  35.107  1.00  0.00     0.124 S 
ATOM     87  O   UNL A   1      44.011  38.574  36.281  1.00  0.00    -0.237 OA
ATOM     88  O   UNL A   1      46.280  38.220  35.372  1.00  0.00    -0.237 OA
ATOM     89  O   UNL A   1      44.660  39.603  34.135  1.00  0.00    -0.744 OA
ENDBRANCH  85  86
ENDBRANCH  59  80
ENDBRANCH  33  34
ENDBRANCH  26  28
ENDBRANCH  25  26
ENDBRANCH  24  25
ENDBRANCH   1  24
TORSDOF 18
ENDMDL
MODEL 2
REMARK VINA RESULT:     -10.0      4.450      9.978
REMARK SMILES C[C@@H](NC1=[NH+]S(=O)(=O)c2ccccc21)C(=O)OCCOCCOC(=O)c1ccc(-c2c3nc(c(-c4ccc(S(=O)(=O)[O-])cc4)c4ccc([nH]4)c(-c4ccc(S(=O)(=O)[O-])cc4)c4nc(c(-c5ccc(S(=O)(=O)[O-])cc5)c5ccc2[nH]5)C=C4)C=C3)cc1
REMARK SMILES IDX 21 1 20 2 19 3 18 4 17 5 15 6 16 7 2 8 1 9 3 10 4 11 5 13
REMARK SMILES IDX 14 14 6 15 9 17 13 18 7 19 8 20 10 21 12 22 11 23 22 24
REMARK SMILES IDX 23 25 24 26 25 27 26 28 27 29 85 30 28 31 84 32 29 33 30 34
REMARK SMILES IDX 31 35 78 36 32 37 83 38 77 39 79 40 33 41 82 42 76 43 75 44
REMARK SMILES IDX 34 46 64 47 45 48 63 49 46 50 49 51 62 52 80 53 47 54 48 55
REMARK SMILES IDX 61 57 81 58 50 59 35 60 36 61 44 62 37 63 43 64 38 65 39 66
REMARK SMILES IDX 40 67 41 68 42 69 65 70 66 71 74 72 67 73 73 74 68 75 69 76
REMARK SMILES IDX 70 77 71 78 72 79 51 80 52 81 60 82 53 83 59 84 54 85 55 86
REMARK SMILES IDX 56 87 57 88 58 89
REMARK H PARENT 3 12 5 16 79 45 49 56
REMARK Flexibility Score: inf
ROOT
ATOM      1  C   UNL A   1      34.853  30.348  27.335  1.00  0.00     0.202 C 
ENDROOT
BRANCH   1   2
ATOM      2  O   UNL A   1      33.595  29.688  27.454  1.00  0.00    -0.374 OA
BRANCH   2   3
ATOM      3  C   UNL A   1      33.271  28.734  26.443  1.00  0.00     0.202 C 
BRANCH   3   4
ATOM      4  C   UNL A   1      32.916  29.306  25.068  1.00  0.00     0.261 C 
BRANCH   4   5
ATOM      5  O   UNL A   1      31.605  28.902  24.637  1.00  0.00    -0.460 OA
BRANCH   5   6
ATOM      6  C   UNL A   1      31.524  27.686  24.017  1.00  0.00     0.350 C 
ATOM      7  O   UNL A   1      32.462  27.093  23.496  1.00  0.00    -0.247 OA
BRANCH   6   8
ATOM      8  C   UNL A   1      30.107  27.100  24.111  1.00  0.00     0.279 C 
ATOM      9  C   UNL A   1      29.161  27.809  23.139  1.00  0.00     0.071 C 
BRANCH   8  10
ATOM     10  N   UNL A   1      30.011  25.658  23.857  1.00  0.00    -0.260 N 
ATOM     11  C   UNL A   1      30.322  24.677  24.762  1.00  0.00     0.292 C 
ATOM     12  H   UNL A   1      29.698  25.373  22.969  1.00  0.00     0.306 HD
ATOM     13  N   UNL A   1      30.116  24.763  26.042  1.00  0.00    -0.162 N 
ATOM     14  C   UNL A   1      30.988  23.439  24.307  1.00  0.00     0.087 A 
ATOM     15  S   UNL A   1      30.708  23.446  26.824  1.00  0.00     0.329 S 
ATOM     16  H   UNL A   1      29.666  25.518  26.485  1.00  0.00     0.327 HD
ATOM     17  C   UNL A   1      31.307  22.656  25.399  1.00  0.00     0.124 A 
ATOM     18  C   UNL A   1      31.373  23.067  23.030  1.00  0.00     0.018 A 
ATOM     19  O   UNL A   1      29.622  22.652  27.345  1.00  0.00    -0.179 OA
ATOM     20  O   UNL A   1      31.853  23.836  27.625  1.00  0.00    -0.179 OA
ATOM     21  C   UNL A   1      32.030  21.486  25.300  1.00  0.00     0.025 A 
ATOM     22  C   UNL A   1      32.094  21.877  22.892  1.00  0.00     0.001 A 
ATOM     23  C   UNL A   1      32.424  21.096  24.017  1.00  0.00     0.002 A 
ENDBRANCH   8  10
ENDBRANCH   6   8
ENDBRANCH   5   6
ENDBRANCH   4   5
ENDBRANCH   3   4
ENDBRANCH   2   3
ENDBRANCH   1   2
BRANCH   1  24
ATOM     24  C   UNL A   1      35.337  31.105  28.575  1.00  0.00     0.261 C 
BRANCH  24  25
ATOM     25  O   UNL A   1      36.759  30.981  28.763  1.00  0.00    -0.460 OA
BRANCH  25  26
ATOM     26  C   UNL A   1      37.134  29.895  29.483  1.00  0.00     0.338 C 
ATOM     27  O   UNL A   1      36.487  29.326  30.346  1.00  0.00    -0.246 OA
BRANCH  26  28
ATOM     28  C   UNL A   1      38.414  29.360  28.977  1.00  0.00     0.060 A 
ATOM     29  C   UNL A   1      39.310  28.843  29.921  1.00  0.00     0.016 A 
ATOM     30  C   UNL A   1      38.775  29.452  27.631  1.00  0.00     0.016 A 
ATOM     31  C   UNL A   1      40.597  28.476  29.533  1.00  0.00     0.010 A 
ATOM     32  C   UNL A   1      40.070  29.087  27.245  1.00  0.00     0.010 A 
ATOM     33  C   UNL A   1      40.999  28.638  28.201  1.00  0.00    -0.014 A 
BRANCH  33  34
ATOM     34  C   UNL A   1      42.433  28.490  27.849  1.00  0.00     0.031 A 
ATOM     35  C   UNL A   1      43.364  29.651  28.080  1.00  0.00     0.074 A 
ATOM     36  C   UNL A   1      42.910  27.326  27.374  1.00  0.00     0.049 A 
ATOM     37  N   UNL A   1      44.644  29.748  27.828  1.00  0.00    -0.248 NA
ATOM     38  C   UNL A   1      42.773  30.861  28.675  1.00  0.00     0.031 C 
ATOM     39  C   UNL A   1      42.123  26.112  27.161  1.00  0.00     0.029 A 
ATOM     40  N   UNL A   1      44.180  26.977  26.987  1.00  0.00    -0.354 N 
ATOM     41  C   UNL A   1      45.011  31.029  28.228  1.00  0.00     0.074 A 
ATOM     42  C   UNL A   1      43.813  31.682  28.710  1.00  0.00     0.031 C 
ATOM     43  C   UNL A   1      42.929  25.150  26.679  1.00  0.00     0.029 A 
ATOM     44  C   UNL A   1      44.279  25.689  26.518  1.00  0.00     0.049 A 
ATOM     45  H   UNL A   1      44.947  27.591  27.040  1.00  0.00     0.167 HD
ATOM     46  C   UNL A   1      46.236  31.607  28.205  1.00  0.00     0.031 A 
ATOM     47  C   UNL A   1      45.333  25.026  26.003  1.00  0.00     0.031 A 
ATOM     48  C   UNL A   1      47.424  30.961  27.715  1.00  0.00     0.049 A 
ATOM     49  C   UNL A   1      46.667  25.716  25.909  1.00  0.00     0.074 A 
ATOM     50  C   UNL A   1      48.713  31.463  27.651  1.00  0.00     0.029 A 
ATOM     51  N   UNL A   1      47.471  29.674  27.202  1.00  0.00    -0.354 N 
ATOM     52  N   UNL A   1      46.998  26.927  26.293  1.00  0.00    -0.248 NA
ATOM     53  C   UNL A   1      47.772  24.950  25.315  1.00  0.00     0.031 C 
ATOM     54  C   UNL A   1      49.528  30.498  27.050  1.00  0.00     0.029 A 
ATOM     55  C   UNL A   1      48.760  29.373  26.796  1.00  0.00     0.049 A 
ATOM     56  H   UNL A   1      46.701  29.064  27.137  1.00  0.00     0.167 HD
ATOM     57  C   UNL A   1      48.355  27.056  26.014  1.00  0.00     0.074 A 
ATOM     58  C   UNL A   1      48.784  25.797  25.438  1.00  0.00     0.031 C 
ATOM     59  C   UNL A   1      49.173  28.118  26.220  1.00  0.00     0.031 A 
BRANCH  46  60
ATOM     60  C   UNL A   1      46.343  33.028  28.695  1.00  0.00    -0.014 A 
ATOM     61  C   UNL A   1      46.153  34.115  27.823  1.00  0.00     0.010 A 
ATOM     62  C   UNL A   1      46.605  33.279  30.054  1.00  0.00     0.010 A 
ATOM     63  C   UNL A   1      46.260  35.427  28.294  1.00  0.00     0.020 A 
ATOM     64  C   UNL A   1      46.688  34.588  30.534  1.00  0.00     0.020 A 
ATOM     65  C   UNL A   1      46.532  35.654  29.646  1.00  0.00     0.054 A 
BRANCH  65  66
ATOM     66  S   UNL A   1      46.650  37.367  30.236  1.00  0.00     0.124 S 
ATOM     67  O   UNL A   1      46.720  38.112  28.981  1.00  0.00    -0.237 OA
ATOM     68  O   UNL A   1      45.414  37.531  30.996  1.00  0.00    -0.237 OA
ATOM     69  O   UNL A   1      47.874  37.375  31.033  1.00  0.00    -0.744 OA
ENDBRANCH  65  66
ENDBRANCH  46  60
BRANCH  47  70
ATOM     70  C   UNL A   1      45.161  23.631  25.513  1.00  0.00    -0.014 A 
ATOM     71  C   UNL A   1      44.626  23.376  24.239  1.00  0.00     0.010 A 
ATOM     72  C   UNL A   1      45.542  22.547  26.324  1.00  0.00     0.010 A 
ATOM     73  C   UNL A   1      44.465  22.062  23.789  1.00  0.00     0.020 A 
ATOM     74  C   UNL A   1      45.407  21.234  25.869  1.00  0.00     0.020 A 
ATOM     75  C   UNL A   1      44.860  20.999  24.606  1.00  0.00     0.054 A 
BRANCH  75  76
ATOM     76  S   UNL A   1      44.704  19.302  23.983  1.00  0.00     0.124 S 
ATOM     77  O   UNL A   1      45.950  18.696  24.440  1.00  0.00    -0.237 OA
ATOM     78  O   UNL A   1      43.489  18.833  24.644  1.00  0.00    -0.237 OA
ATOM     79  O   UNL A   1      44.586  19.482  22.538  1.00  0.00    -0.744 OA
ENDBRANCH  75  76
ENDBRANCH  47  70
BRANCH  59  80
ATOM     80  C   UNL A   1      50.624  27.961  25.852  1.00  0.00    -0.014 A 
ATOM     81  C   UNL A   1      51.604  27.723  26.831  1.00  0.00     0.010 A 
ATOM     82  C   UNL A   1      51.004  27.995  24.496  1.00  0.00     0.010 A 
ATOM     83  C   UNL A   1      52.942  27.550  26.464  1.00  0.00     0.020 A 
ATOM     84  C   UNL A   1      52.336  27.796  24.124  1.00  0.00     0.020 A 
ATOM     85  C   UNL A   1      53.299  27.588  25.112  1.00  0.00     0.054 A 
BRANCH  85  86
ATOM     86  S   UNL A   1      55.034  27.315  24.659  1.00  0.00     0.124 S 
ATOM     87  O   UNL A   1      55.082  25.866  24.498  1.00  0.00    -0.237 OA
ATOM     88  O   UNL A   1      55.170  28.090  23.428  1.00  0.00    -0.237 OA
ATOM     89  O   UNL A   1      55.778  27.841  25.802  1.00  0.00    -0.744 OA
ENDBRANCH  85  86
ENDBRANCH  59  80
ENDBRANCH  33  34
ENDBRANCH  26  28
ENDBRANCH  25  26
ENDBRANCH  24  25
ENDBRANCH   1  24
TORSDOF 18
ENDMDL
MODEL 3
REMARK VINA RESULT:      -9.9      2.610      8.861
REMARK SMILES C[C@@H](NC1=[NH+]S(=O)(=O)c2ccccc21)C(=O)OCCOCCOC(=O)c1ccc(-c2c3nc(c(-c4ccc(S(=O)(=O)[O-])cc4)c4ccc([nH]4)c(-c4ccc(S(=O)(=O)[O-])cc4)c4nc(c(-c5ccc(S(=O)(=O)[O-])cc5)c5ccc2[nH]5)C=C4)C=C3)cc1
REMARK SMILES IDX 21 1 20 2 19 3 18 4 17 5 15 6 16 7 2 8 1 9 3 10 4 11 5 13
REMARK SMILES IDX 14 14 6 15 9 17 13 18 7 19 8 20 10 21 12 22 11 23 22 24
REMARK SMILES IDX 23 25 24 26 25 27 26 28 27 29 85 30 28 31 84 32 29 33 30 34
REMARK SMILES IDX 31 35 78 36 32 37 83 38 77 39 79 40 33 41 82 42 76 43 75 44
REMARK SMILES IDX 34 46 64 47 45 48 63 49 46 50 49 51 62 52 80 53 47 54 48 55
REMARK SMILES IDX 61 57 81 58 50 59 35 60 36 61 44 62 37 63 43 64 38 65 39 66
REMARK SMILES IDX 40 67 41 68 42 69 65 70 66 71 74 72 67 73 73 74 68 75 69 76
REMARK SMILES IDX 70 77 71 78 72 79 51 80 52 81 60 82 53 83 59 84 54 85 55 86
REMARK SMILES IDX 56 87 57 88 58 89
REMARK H PARENT 3 12 5 16 79 45 49 56
REMARK Flexibility Score: inf
ROOT
ATOM      1  C   UNL A   1      31.976  30.398  26.707  1.00  0.00     0.202 C 
ENDROOT
BRANCH   1   2
ATOM      2  O   UNL A   1      31.695  29.809  25.440  1.00  0.00    -0.374 OA
BRANCH   2   3
ATOM      3  C   UNL A   1      32.817  29.477  24.622  1.00  0.00     0.202 C 
BRANCH   3   4
ATOM      4  C   UNL A   1      32.498  28.844  23.266  1.00  0.00     0.261 C 
BRANCH   4   5
ATOM      5  O   UNL A   1      32.201  27.441  23.381  1.00  0.00    -0.460 OA
BRANCH   5   6
ATOM      6  C   UNL A   1      31.445  26.903  22.378  1.00  0.00     0.350 C 
ATOM      7  O   UNL A   1      30.429  27.405  21.909  1.00  0.00    -0.247 OA
BRANCH   6   8
ATOM      8  C   UNL A   1      32.064  25.603  21.842  1.00  0.00     0.279 C 
ATOM      9  C   UNL A   1      33.587  25.626  21.993  1.00  0.00     0.071 C 
BRANCH   8  10
ATOM     10  N   UNL A   1      31.571  24.371  22.470  1.00  0.00    -0.260 N 
ATOM     11  C   UNL A   1      31.850  23.976  23.751  1.00  0.00     0.292 C 
ATOM     12  H   UNL A   1      30.996  23.784  21.929  1.00  0.00     0.306 HD
ATOM     13  N   UNL A   1      31.984  24.785  24.759  1.00  0.00    -0.162 N 
ATOM     14  C   UNL A   1      32.075  22.547  24.050  1.00  0.00     0.087 A 
ATOM     15  S   UNL A   1      32.418  23.969  26.117  1.00  0.00     0.329 S 
ATOM     16  H   UNL A   1      31.845  25.759  24.715  1.00  0.00     0.327 HD
ATOM     17  C   UNL A   1      32.452  22.402  25.370  1.00  0.00     0.124 A 
ATOM     18  C   UNL A   1      32.042  21.456  23.197  1.00  0.00     0.018 A 
ATOM     19  O   UNL A   1      31.333  23.980  27.068  1.00  0.00    -0.179 OA
ATOM     20  O   UNL A   1      33.781  24.317  26.473  1.00  0.00    -0.179 OA
ATOM     21  C   UNL A   1      32.832  21.194  25.916  1.00  0.00     0.025 A 
ATOM     22  C   UNL A   1      32.407  20.212  23.723  1.00  0.00     0.001 A 
ATOM     23  C   UNL A   1      32.803  20.083  25.068  1.00  0.00     0.002 A 
ENDBRANCH   8  10
ENDBRANCH   6   8
ENDBRANCH   5   6
ENDBRANCH   4   5
ENDBRANCH   3   4
ENDBRANCH   2   3
ENDBRANCH   1   2
BRANCH   1  24
ATOM     24  C   UNL A   1      33.320  30.026  27.340  1.00  0.00     0.261 C 
BRANCH  24  25
ATOM     25  O   UNL A   1      34.246  31.128  27.327  1.00  0.00    -0.460 OA
BRANCH  25  26
ATOM     26  C   UNL A   1      34.867  31.348  28.512  1.00  0.00     0.338 C 
ATOM     27  O   UNL A   1      34.437  31.982  29.461  1.00  0.00    -0.246 OA
BRANCH  26  28
ATOM     28  C   UNL A   1      36.121  30.572  28.588  1.00  0.00     0.060 A 
ATOM     29  C   UNL A   1      36.475  30.045  29.836  1.00  0.00     0.016 A 
ATOM     30  C   UNL A   1      36.980  30.446  27.494  1.00  0.00     0.016 A 
ATOM     31  C   UNL A   1      37.721  29.447  30.013  1.00  0.00     0.010 A 
ATOM     32  C   UNL A   1      38.233  29.849  27.675  1.00  0.00     0.010 A 
ATOM     33  C   UNL A   1      38.626  29.386  28.945  1.00  0.00    -0.014 A 
BRANCH  33  34
ATOM     34  C   UNL A   1      40.031  28.986  29.201  1.00  0.00     0.031 A 
ATOM     35  C   UNL A   1      40.959  29.968  29.865  1.00  0.00     0.074 A 
ATOM     36  C   UNL A   1      40.464  27.751  28.891  1.00  0.00     0.049 A 
ATOM     37  N   UNL A   1      42.226  29.837  30.165  1.00  0.00    -0.248 NA
ATOM     38  C   UNL A   1      40.383  31.269  30.242  1.00  0.00     0.031 C 
ATOM     39  C   UNL A   1      39.649  26.691  28.299  1.00  0.00     0.029 A 
ATOM     40  N   UNL A   1      41.705  27.181  29.036  1.00  0.00    -0.354 N 
ATOM     41  C   UNL A   1      42.599  31.037  30.760  1.00  0.00     0.074 A 
ATOM     42  C   UNL A   1      41.434  31.895  30.750  1.00  0.00     0.031 C 
ATOM     43  C   UNL A   1      40.413  25.598  28.129  1.00  0.00     0.029 A 
ATOM     44  C   UNL A   1      41.776  25.891  28.568  1.00  0.00     0.049 A 
ATOM     45  H   UNL A   1      42.470  27.652  29.436  1.00  0.00     0.167 HD
ATOM     46  C   UNL A   1      43.800  31.392  31.277  1.00  0.00     0.031 A 
ATOM     47  C   UNL A   1      42.825  25.048  28.488  1.00  0.00     0.031 A 
ATOM     48  C   UNL A   1      44.961  30.543  31.276  1.00  0.00     0.049 A 
ATOM     49  C   UNL A   1      44.172  25.493  28.992  1.00  0.00     0.074 A 
ATOM     50  C   UNL A   1      46.224  30.811  31.776  1.00  0.00     0.029 A 
ATOM     51  N   UNL A   1      45.005  29.262  30.747  1.00  0.00    -0.354 N 
ATOM     52  N   UNL A   1      44.508  26.631  29.553  1.00  0.00    -0.248 NA
ATOM     53  C   UNL A   1      45.281  24.539  28.855  1.00  0.00     0.031 C 
ATOM     54  C   UNL A   1      47.045  29.712  31.502  1.00  0.00     0.029 A 
ATOM     55  C   UNL A   1      46.278  28.736  30.885  1.00  0.00     0.049 A 
ATOM     56  H   UNL A   1      44.242  28.796  30.335  1.00  0.00     0.167 HD
ATOM     57  C   UNL A   1      45.859  26.517  29.862  1.00  0.00     0.074 A 
ATOM     58  C   UNL A   1      46.276  25.197  29.434  1.00  0.00     0.031 C 
ATOM     59  C   UNL A   1      46.680  27.422  30.451  1.00  0.00     0.031 A 
BRANCH  46  60
ATOM     60  C   UNL A   1      43.926  32.777  31.856  1.00  0.00    -0.014 A 
ATOM     61  C   UNL A   1      43.735  33.012  33.230  1.00  0.00     0.010 A 
ATOM     62  C   UNL A   1      44.274  33.853  31.020  1.00  0.00     0.010 A 
ATOM     63  C   UNL A   1      43.852  34.305  33.749  1.00  0.00     0.020 A 
ATOM     64  C   UNL A   1      44.417  35.142  31.539  1.00  0.00     0.020 A 
ATOM     65  C   UNL A   1      44.188  35.363  32.898  1.00  0.00     0.054 A 
BRANCH  65  66
ATOM     66  S   UNL A   1      44.349  37.028  33.600  1.00  0.00     0.124 S 
ATOM     67  O   UNL A   1      43.316  37.021  34.632  1.00  0.00    -0.237 OA
ATOM     68  O   UNL A   1      45.726  37.039  34.089  1.00  0.00    -0.237 OA
ATOM     69  O   UNL A   1      44.088  37.910  32.465  1.00  0.00    -0.744 OA
ENDBRANCH  65  66
ENDBRANCH  46  60
BRANCH  47  70
ATOM     70  C   UNL A   1      42.645  23.700  27.884  1.00  0.00    -0.014 A 
ATOM     71  C   UNL A   1      42.914  23.479  26.523  1.00  0.00     0.010 A 
ATOM     72  C   UNL A   1      42.208  22.624  28.679  1.00  0.00     0.010 A 
ATOM     73  C   UNL A   1      42.739  22.210  25.964  1.00  0.00     0.020 A 
ATOM     74  C   UNL A   1      42.056  21.349  28.130  1.00  0.00     0.020 A 
ATOM     75  C   UNL A   1      42.314  21.152  26.772  1.00  0.00     0.054 A 
BRANCH  75  76
ATOM     76  S   UNL A   1      42.153  19.496  26.046  1.00  0.00     0.124 S 
ATOM     77  O   UNL A   1      43.029  19.589  24.883  1.00  0.00    -0.237 OA
ATOM     78  O   UNL A   1      42.620  18.631  27.126  1.00  0.00    -0.237 OA
ATOM     79  O   UNL A   1      40.726  19.393  25.751  1.00  0.00    -0.744 OA
ENDBRANCH  75  76
ENDBRANCH  47  70
BRANCH  59  80
ATOM     80  C   UNL A   1      48.107  27.010  30.700  1.00  0.00    -0.014 A 
ATOM     81  C   UNL A   1      49.119  27.279  29.762  1.00  0.00     0.010 A 
ATOM     82  C   UNL A   1      48.449  26.396  31.920  1.00  0.00     0.010 A 
ATOM     83  C   UNL A   1      50.442  26.915  30.027  1.00  0.00     0.020 A 
ATOM     84  C   UNL A   1      49.775  26.055  32.199  1.00  0.00     0.020 A 
ATOM     85  C   UNL A   1      50.762  26.305  31.244  1.00  0.00     0.054 A 
BRANCH  85  86
ATOM     86  S   UNL A   1      52.493  25.884  31.583  1.00  0.00     0.124 S 
ATOM     87  O   UNL A   1      52.384  24.512  32.067  1.00  0.00    -0.237 OA
ATOM     88  O   UNL A   1      53.124  26.042  30.274  1.00  0.00    -0.237 OA
ATOM     89  O   UNL A   1      52.899  26.868  32.585  1.00  0.00    -0.744 OA
ENDBRANCH  85  86
ENDBRANCH  59  80
ENDBRANCH  33  34
ENDBRANCH  26  28
ENDBRANCH  25  26
ENDBRANCH  24  25
ENDBRANCH   1  24
TORSDOF 18
ENDMDL
