MODEL 1
REMARK VINA RESULT:     -10.1      0.000      0.000
REMARK SMILES Cc1cscc1CNC(=O)N[C@@H](C)c1nc(C(=O)OCCOCCOC(=O)c2ccc(-c3c4nc(c(-c5ccc(S(=O)(=O)[O-])cc5)c5ccc([nH]5)c(-c5ccc(S(=O)(=O)[O-])cc5)c5nc(c(-c6ccc(S(=O)(=O)[O-])cc6)c6ccc3[nH]6)C=C5)C=C4)cc2)cs1
REMARK SMILES IDX 21 1 20 2 19 3 17 4 18 5 16 6 14 7 15 8 89 9 88 10 12 11
REMARK SMILES IDX 13 12 11 13 8 14 9 15 10 17 7 19 6 20 1 21 2 22 3 23 4 24
REMARK SMILES IDX 5 25 22 26 23 27 24 28 25 29 26 30 27 31 28 32 29 33 87 34
REMARK SMILES IDX 30 35 86 36 31 37 32 38 33 39 80 40 34 41 85 42 79 43 81 44
REMARK SMILES IDX 35 45 84 46 78 47 77 48 36 50 66 51 47 52 65 53 48 54 51 55
REMARK SMILES IDX 64 56 82 57 49 58 50 59 63 61 83 62 52 63 37 64 38 65 46 66
REMARK SMILES IDX 39 67 45 68 40 69 41 70 42 71 43 72 44 73 67 74 68 75 76 76
REMARK SMILES IDX 69 77 75 78 70 79 71 80 72 81 73 82 74 83 53 84 54 85 62 86
REMARK SMILES IDX 55 87 61 88 56 89 57 90 58 91 59 92 60 93
REMARK H PARENT 8 16 11 18 81 49 51 60
REMARK Flexibility Score: inf
ROOT
ATOM      1  C   UNL A   1      41.038  21.115  27.273  1.00  0.00     0.202 C 
ENDROOT
BRANCH   1   2
ATOM      2  C   UNL A   1      40.140  20.669  26.116  1.00  0.00     0.261 C 
BRANCH   2   3
ATOM      3  O   UNL A   1      39.030  21.575  25.983  1.00  0.00    -0.458 OA
BRANCH   3   4
ATOM      4  C   UNL A   1      37.985  21.109  25.242  1.00  0.00     0.357 C 
ATOM      5  O   UNL A   1      37.894  19.967  24.802  1.00  0.00    -0.244 OA
BRANCH   4   6
ATOM      6  C   UNL A   1      36.895  22.082  25.117  1.00  0.00     0.159 A 
ATOM      7  C   UNL A   1      34.950  22.940  24.435  1.00  0.00     0.116 A 
ATOM      8  N   UNL A   1      35.758  21.901  24.319  1.00  0.00    -0.232 NA
ATOM      9  S   UNL A   1      35.558  24.231  25.405  1.00  0.00    -0.124 S 
ATOM     10  C   UNL A   1      36.941  23.306  25.762  1.00  0.00     0.102 A 
BRANCH   7  11
ATOM     11  C   UNL A   1      33.566  23.072  23.834  1.00  0.00     0.140 C 
ATOM     12  C   UNL A   1      32.923  21.705  23.617  1.00  0.00     0.039 C 
BRANCH  11  13
ATOM     13  N   UNL A   1      33.653  23.788  22.572  1.00  0.00    -0.329 N 
ATOM     14  N   UNL A   1      31.637  24.995  22.268  1.00  0.00    -0.334 N 
ATOM     15  C   UNL A   1      32.832  24.563  21.864  1.00  0.00     0.315 C 
ATOM     16  H   UNL A   1      31.189  25.532  21.575  1.00  0.00     0.165 HD
ATOM     17  O   UNL A   1      33.213  24.937  20.753  1.00  0.00    -0.249 OA
ATOM     18  H   UNL A   1      34.528  23.672  22.136  1.00  0.00     0.166 HD
BRANCH  14  19
ATOM     19  C   UNL A   1      30.829  24.879  23.460  1.00  0.00     0.154 C 
BRANCH  19  20
ATOM     20  C   UNL A   1      31.177  25.943  24.470  1.00  0.00    -0.015 A 
ATOM     21  C   UNL A   1      31.411  24.316  26.502  1.00  0.00     0.045 C 
ATOM     22  C   UNL A   1      31.439  25.671  25.873  1.00  0.00    -0.035 A 
ATOM     23  C   UNL A   1      31.717  26.831  26.574  1.00  0.00     0.068 A 
ATOM     24  S   UNL A   1      31.681  28.224  25.594  1.00  0.00    -0.152 S 
ATOM     25  C   UNL A   1      31.284  27.301  24.216  1.00  0.00     0.070 A 
ENDBRANCH  19  20
ENDBRANCH  14  19
ENDBRANCH  11  13
ENDBRANCH   7  11
ENDBRANCH   4   6
ENDBRANCH   3   4
ENDBRANCH   2   3
ENDBRANCH   1   2
BRANCH   1  26
ATOM     26  O   UNL A   1      42.285  21.666  26.840  1.00  0.00    -0.374 OA
BRANCH  26  27
ATOM     27  C   UNL A   1      42.239  23.029  26.406  1.00  0.00     0.202 C 
BRANCH  27  28
ATOM     28  C   UNL A   1      41.845  24.026  27.499  1.00  0.00     0.261 C 
BRANCH  28  29
ATOM     29  O   UNL A   1      40.567  24.614  27.199  1.00  0.00    -0.460 OA
BRANCH  29  30
ATOM     30  C   UNL A   1      40.608  25.891  26.750  1.00  0.00     0.338 C 
ATOM     31  O   UNL A   1      40.698  26.258  25.590  1.00  0.00    -0.246 OA
BRANCH  30  32
ATOM     32  C   UNL A   1      40.337  26.818  27.870  1.00  0.00     0.060 A 
ATOM     33  C   UNL A   1      40.997  28.052  27.855  1.00  0.00     0.016 A 
ATOM     34  C   UNL A   1      39.482  26.486  28.927  1.00  0.00     0.016 A 
ATOM     35  C   UNL A   1      40.853  28.936  28.923  1.00  0.00     0.010 A 
ATOM     36  C   UNL A   1      39.345  27.371  30.001  1.00  0.00     0.010 A 
ATOM     37  C   UNL A   1      40.061  28.580  30.021  1.00  0.00    -0.014 A 
BRANCH  37  38
ATOM     38  C   UNL A   1      40.127  29.385  31.264  1.00  0.00     0.031 A 
ATOM     39  C   UNL A   1      41.257  29.128  32.223  1.00  0.00     0.074 A 
ATOM     40  C   UNL A   1      39.218  30.341  31.524  1.00  0.00     0.049 A 
ATOM     41  N   UNL A   1      41.496  29.676  33.387  1.00  0.00    -0.248 NA
ATOM     42  C   UNL A   1      42.250  28.120  31.816  1.00  0.00     0.031 C 
ATOM     43  C   UNL A   1      38.108  30.717  30.651  1.00  0.00     0.029 A 
ATOM     44  N   UNL A   1      39.087  31.168  32.612  1.00  0.00    -0.354 N 
ATOM     45  C   UNL A   1      42.657  29.072  33.854  1.00  0.00     0.074 A 
ATOM     46  C   UNL A   1      43.064  28.103  32.860  1.00  0.00     0.031 C 
ATOM     47  C   UNL A   1      37.400  31.695  31.243  1.00  0.00     0.029 A 
ATOM     48  C   UNL A   1      37.988  31.991  32.548  1.00  0.00     0.049 A 
ATOM     49  H   UNL A   1      39.720  31.171  33.366  1.00  0.00     0.167 HD
ATOM     50  C   UNL A   1      43.327  29.304  35.008  1.00  0.00     0.031 A 
ATOM     51  C   UNL A   1      37.502  32.867  33.450  1.00  0.00     0.031 A 
ATOM     52  C   UNL A   1      42.914  30.256  36.001  1.00  0.00     0.049 A 
ATOM     53  C   UNL A   1      38.227  33.062  34.757  1.00  0.00     0.074 A 
ATOM     54  C   UNL A   1      43.525  30.563  37.205  1.00  0.00     0.029 A 
ATOM     55  N   UNL A   1      41.784  31.053  35.908  1.00  0.00    -0.354 N 
ATOM     56  N   UNL A   1      39.330  32.491  35.181  1.00  0.00    -0.248 NA
ATOM     57  C   UNL A   1      37.646  34.026  35.704  1.00  0.00     0.031 C 
ATOM     58  C   UNL A   1      42.739  31.517  37.860  1.00  0.00     0.029 A 
ATOM     59  C   UNL A   1      41.668  31.841  37.040  1.00  0.00     0.049 A 
ATOM     60  H   UNL A   1      41.157  31.058  35.149  1.00  0.00     0.167 HD
ATOM     61  C   UNL A   1      39.590  33.048  36.428  1.00  0.00     0.074 A 
ATOM     62  C   UNL A   1      38.534  34.003  36.691  1.00  0.00     0.031 C 
ATOM     63  C   UNL A   1      40.616  32.796  37.278  1.00  0.00     0.031 A 
BRANCH  50  64
ATOM     64  C   UNL A   1      44.558  28.480  35.268  1.00  0.00    -0.014 A 
ATOM     65  C   UNL A   1      45.832  28.933  34.875  1.00  0.00     0.010 A 
ATOM     66  C   UNL A   1      44.442  27.246  35.932  1.00  0.00     0.010 A 
ATOM     67  C   UNL A   1      46.962  28.146  35.109  1.00  0.00     0.020 A 
ATOM     68  C   UNL A   1      45.574  26.467  36.187  1.00  0.00     0.020 A 
ATOM     69  C   UNL A   1      46.825  26.915  35.758  1.00  0.00     0.054 A 
BRANCH  69  70
ATOM     70  S   UNL A   1      48.309  25.917  36.061  1.00  0.00     0.124 S 
ATOM     71  O   UNL A   1      49.348  26.940  36.145  1.00  0.00    -0.237 OA
ATOM     72  O   UNL A   1      47.992  25.240  37.316  1.00  0.00    -0.237 OA
ATOM     73  O   UNL A   1      48.386  25.047  34.890  1.00  0.00    -0.744 OA
ENDBRANCH  69  70
ENDBRANCH  50  64
BRANCH  51  74
ATOM     74  C   UNL A   1      36.251  33.616  33.156  1.00  0.00    -0.014 A 
ATOM     75  C   UNL A   1      36.299  34.937  32.679  1.00  0.00     0.010 A 
ATOM     76  C   UNL A   1      34.998  33.003  33.350  1.00  0.00     0.010 A 
ATOM     77  C   UNL A   1      35.117  35.637  32.413  1.00  0.00     0.020 A 
ATOM     78  C   UNL A   1      33.817  33.692  33.062  1.00  0.00     0.020 A 
ATOM     79  C   UNL A   1      33.884  35.009  32.605  1.00  0.00     0.054 A 
BRANCH  79  80
ATOM     80  S   UNL A   1      32.364  35.914  32.199  1.00  0.00     0.124 S 
ATOM     81  O   UNL A   1      32.549  37.162  32.933  1.00  0.00    -0.237 OA
ATOM     82  O   UNL A   1      32.435  36.019  30.744  1.00  0.00    -0.237 OA
ATOM     83  O   UNL A   1      31.304  35.042  32.702  1.00  0.00    -0.744 OA
ENDBRANCH  79  80
ENDBRANCH  51  74
BRANCH  63  84
ATOM     84  C   UNL A   1      40.685  33.596  38.549  1.00  0.00    -0.014 A 
ATOM     85  C   UNL A   1      41.407  34.799  38.617  1.00  0.00     0.010 A 
ATOM     86  C   UNL A   1      39.939  33.177  39.668  1.00  0.00     0.010 A 
ATOM     87  C   UNL A   1      41.396  35.563  39.788  1.00  0.00     0.020 A 
ATOM     88  C   UNL A   1      39.908  33.948  40.832  1.00  0.00     0.020 A 
ATOM     89  C   UNL A   1      40.645  35.132  40.888  1.00  0.00     0.054 A 
BRANCH  89  90
ATOM     90  S   UNL A   1      40.590  36.173  42.373  1.00  0.00     0.124 S 
ATOM     91  O   UNL A   1      40.906  35.213  43.428  1.00  0.00    -0.237 OA
ATOM     92  O   UNL A   1      41.622  37.173  42.105  1.00  0.00    -0.237 OA
ATOM     93  O   UNL A   1      39.223  36.687  42.387  1.00  0.00    -0.744 OA
ENDBRANCH  89  90
ENDBRANCH  63  84
ENDBRANCH  37  38
ENDBRANCH  30  32
ENDBRANCH  29  30
ENDBRANCH  28  29
ENDBRANCH  27  28
ENDBRANCH  26  27
ENDBRANCH   1  26
TORSDOF 21
ENDMDL
MODEL 2
REMARK VINA RESULT:     -10.1      1.860      8.565
REMARK SMILES Cc1cscc1CNC(=O)N[C@@H](C)c1nc(C(=O)OCCOCCOC(=O)c2ccc(-c3c4nc(c(-c5ccc(S(=O)(=O)[O-])cc5)c5ccc([nH]5)c(-c5ccc(S(=O)(=O)[O-])cc5)c5nc(c(-c6ccc(S(=O)(=O)[O-])cc6)c6ccc3[nH]6)C=C5)C=C4)cc2)cs1
REMARK SMILES IDX 21 1 20 2 19 3 17 4 18 5 16 6 14 7 15 8 89 9 88 10 12 11
REMARK SMILES IDX 13 12 11 13 8 14 9 15 10 17 7 19 6 20 1 21 2 22 3 23 4 24
REMARK SMILES IDX 5 25 22 26 23 27 24 28 25 29 26 30 27 31 28 32 29 33 87 34
REMARK SMILES IDX 30 35 86 36 31 37 32 38 33 39 80 40 34 41 85 42 79 43 81 44
REMARK SMILES IDX 35 45 84 46 78 47 77 48 36 50 66 51 47 52 65 53 48 54 51 55
REMARK SMILES IDX 64 56 82 57 49 58 50 59 63 61 83 62 52 63 37 64 38 65 46 66
REMARK SMILES IDX 39 67 45 68 40 69 41 70 42 71 43 72 44 73 67 74 68 75 76 76
REMARK SMILES IDX 69 77 75 78 70 79 71 80 72 81 73 82 74 83 53 84 54 85 62 86
REMARK SMILES IDX 55 87 61 88 56 89 57 90 58 91 59 92 60 93
REMARK H PARENT 8 16 11 18 81 49 51 60
REMARK Flexibility Score: inf
ROOT
ATOM      1  C   UNL A   1      36.489  22.033  24.417  1.00  0.00     0.202 C 
ENDROOT
BRANCH   1   2
ATOM      2  C   UNL A   1      35.264  21.458  25.132  1.00  0.00     0.261 C 
BRANCH   2   3
ATOM      3  O   UNL A   1      34.162  22.377  25.027  1.00  0.00    -0.458 OA
BRANCH   3   4
ATOM      4  C   UNL A   1      33.865  23.061  26.168  1.00  0.00     0.357 C 
ATOM      5  O   UNL A   1      34.489  22.970  27.221  1.00  0.00    -0.244 OA
BRANCH   4   6
ATOM      6  C   UNL A   1      32.782  24.033  25.986  1.00  0.00     0.159 A 
ATOM      7  C   UNL A   1      31.802  25.974  25.478  1.00  0.00     0.116 A 
ATOM      8  N   UNL A   1      32.967  25.358  25.569  1.00  0.00    -0.232 NA
ATOM      9  S   UNL A   1      30.444  25.043  25.996  1.00  0.00    -0.124 S 
ATOM     10  C   UNL A   1      31.468  23.711  26.271  1.00  0.00     0.102 A 
BRANCH   7  11
ATOM     11  C   UNL A   1      31.564  27.370  24.942  1.00  0.00     0.140 C 
ATOM     12  C   UNL A   1      30.209  27.474  24.247  1.00  0.00     0.039 C 
BRANCH  11  13
ATOM     13  N   UNL A   1      32.628  27.718  24.014  1.00  0.00    -0.329 N 
ATOM     14  N   UNL A   1      34.292  28.906  25.212  1.00  0.00    -0.334 N 
ATOM     15  C   UNL A   1      33.763  28.412  24.092  1.00  0.00     0.315 C 
ATOM     16  H   UNL A   1      35.120  29.409  25.035  1.00  0.00     0.165 HD
ATOM     17  O   UNL A   1      34.396  28.594  23.050  1.00  0.00    -0.249 OA
ATOM     18  H   UNL A   1      32.472  27.356  23.113  1.00  0.00     0.166 HD
BRANCH  14  19
ATOM     19  C   UNL A   1      33.964  28.896  26.619  1.00  0.00     0.154 C 
BRANCH  19  20
ATOM     20  C   UNL A   1      34.354  30.190  27.288  1.00  0.00    -0.015 A 
ATOM     21  C   UNL A   1      36.786  29.453  27.897  1.00  0.00     0.045 C 
ATOM     22  C   UNL A   1      35.659  30.433  27.879  1.00  0.00    -0.035 A 
ATOM     23  C   UNL A   1      35.737  31.696  28.437  1.00  0.00     0.068 A 
ATOM     24  S   UNL A   1      34.298  32.591  28.261  1.00  0.00    -0.152 S 
ATOM     25  C   UNL A   1      33.541  31.301  27.443  1.00  0.00     0.070 A 
ENDBRANCH  19  20
ENDBRANCH  14  19
ENDBRANCH  11  13
ENDBRANCH   7  11
ENDBRANCH   4   6
ENDBRANCH   3   4
ENDBRANCH   2   3
ENDBRANCH   1   2
BRANCH   1  26
ATOM     26  O   UNL A   1      37.621  22.195  25.277  1.00  0.00    -0.374 OA
BRANCH  26  27
ATOM     27  C   UNL A   1      37.830  23.520  25.777  1.00  0.00     0.202 C 
BRANCH  27  28
ATOM     28  C   UNL A   1      39.190  23.734  26.446  1.00  0.00     0.261 C 
BRANCH  28  29
ATOM     29  O   UNL A   1      39.091  24.745  27.463  1.00  0.00    -0.460 OA
BRANCH  29  30
ATOM     30  C   UNL A   1      39.882  25.828  27.282  1.00  0.00     0.338 C 
ATOM     31  O   UNL A   1      40.503  26.123  26.273  1.00  0.00    -0.246 OA
BRANCH  30  32
ATOM     32  C   UNL A   1      39.749  26.738  28.440  1.00  0.00     0.060 A 
ATOM     33  C   UNL A   1      40.475  27.935  28.402  1.00  0.00     0.016 A 
ATOM     34  C   UNL A   1      38.959  26.425  29.551  1.00  0.00     0.016 A 
ATOM     35  C   UNL A   1      40.463  28.796  29.498  1.00  0.00     0.010 A 
ATOM     36  C   UNL A   1      38.954  27.287  30.653  1.00  0.00     0.010 A 
ATOM     37  C   UNL A   1      39.736  28.455  30.645  1.00  0.00    -0.014 A 
BRANCH  37  38
ATOM     38  C   UNL A   1      39.942  29.221  31.897  1.00  0.00     0.031 A 
ATOM     39  C   UNL A   1      38.962  30.311  32.237  1.00  0.00     0.074 A 
ATOM     40  C   UNL A   1      40.961  28.941  32.727  1.00  0.00     0.049 A 
ATOM     41  N   UNL A   1      38.962  31.138  33.251  1.00  0.00    -0.248 NA
ATOM     42  C   UNL A   1      37.831  30.493  31.311  1.00  0.00     0.031 C 
ATOM     43  C   UNL A   1      41.945  27.878  32.532  1.00  0.00     0.029 A 
ATOM     44  N   UNL A   1      41.338  29.538  33.904  1.00  0.00    -0.354 N 
ATOM     45  C   UNL A   1      37.842  31.942  33.079  1.00  0.00     0.074 A 
ATOM     46  C   UNL A   1      37.197  31.520  31.855  1.00  0.00     0.031 C 
ATOM     47  C   UNL A   1      42.823  27.905  33.551  1.00  0.00     0.029 A 
ATOM     48  C   UNL A   1      42.481  29.005  34.451  1.00  0.00     0.049 A 
ATOM     49  H   UNL A   1      40.837  30.278  34.317  1.00  0.00     0.167 HD
ATOM     50  C   UNL A   1      37.389  32.944  33.870  1.00  0.00     0.031 A 
ATOM     51  C   UNL A   1      43.180  29.378  35.541  1.00  0.00     0.031 A 
ATOM     52  C   UNL A   1      38.038  33.372  35.078  1.00  0.00     0.049 A 
ATOM     53  C   UNL A   1      42.694  30.537  36.372  1.00  0.00     0.074 A 
ATOM     54  C   UNL A   1      37.658  34.380  35.948  1.00  0.00     0.029 A 
ATOM     55  N   UNL A   1      39.204  32.821  35.584  1.00  0.00    -0.354 N 
ATOM     56  N   UNL A   1      41.628  31.283  36.201  1.00  0.00    -0.248 NA
ATOM     57  C   UNL A   1      43.502  30.902  37.545  1.00  0.00     0.031 C 
ATOM     58  C   UNL A   1      38.620  34.465  36.960  1.00  0.00     0.029 A 
ATOM     59  C   UNL A   1      39.569  33.477  36.747  1.00  0.00     0.049 A 
ATOM     60  H   UNL A   1      39.700  32.074  35.177  1.00  0.00     0.167 HD
ATOM     61  C   UNL A   1      41.621  32.183  37.262  1.00  0.00     0.074 A 
ATOM     62  C   UNL A   1      42.786  31.888  38.070  1.00  0.00     0.031 C 
ATOM     63  C   UNL A   1      40.726  33.161  37.545  1.00  0.00     0.031 A 
BRANCH  50  64
ATOM     64  C   UNL A   1      36.147  33.667  33.424  1.00  0.00    -0.014 A 
ATOM     65  C   UNL A   1      34.873  33.092  33.590  1.00  0.00     0.010 A 
ATOM     66  C   UNL A   1      36.255  34.946  32.851  1.00  0.00     0.010 A 
ATOM     67  C   UNL A   1      33.732  33.771  33.153  1.00  0.00     0.020 A 
ATOM     68  C   UNL A   1      35.114  35.637  32.434  1.00  0.00     0.020 A 
ATOM     69  C   UNL A   1      33.861  35.036  32.573  1.00  0.00     0.054 A 
BRANCH  69  70
ATOM     70  S   UNL A   1      32.364  35.902  32.025  1.00  0.00     0.124 S 
ATOM     71  O   UNL A   1      31.326  35.228  32.800  1.00  0.00    -0.237 OA
ATOM     72  O   UNL A   1      32.634  37.286  32.408  1.00  0.00    -0.237 OA
ATOM     73  O   UNL A   1      32.328  35.655  30.586  1.00  0.00    -0.744 OA
ENDBRANCH  69  70
ENDBRANCH  50  64
BRANCH  51  74
ATOM     74  C   UNL A   1      44.429  28.655  35.902  1.00  0.00    -0.014 A 
ATOM     75  C   UNL A   1      44.381  27.466  36.651  1.00  0.00     0.010 A 
ATOM     76  C   UNL A   1      45.679  29.155  35.491  1.00  0.00     0.010 A 
ATOM     77  C   UNL A   1      45.561  26.798  36.993  1.00  0.00     0.020 A 
ATOM     78  C   UNL A   1      46.858  28.476  35.811  1.00  0.00     0.020 A 
ATOM     79  C   UNL A   1      46.792  27.306  36.570  1.00  0.00     0.054 A 
BRANCH  79  80
ATOM     80  S   UNL A   1      48.307  26.394  36.975  1.00  0.00     0.124 S 
ATOM     81  O   UNL A   1      48.264  26.367  38.434  1.00  0.00    -0.237 OA
ATOM     82  O   UNL A   1      48.092  25.110  36.312  1.00  0.00    -0.237 OA
ATOM     83  O   UNL A   1      49.366  27.216  36.394  1.00  0.00    -0.744 OA
ENDBRANCH  79  80
ENDBRANCH  51  74
BRANCH  63  84
ATOM     84  C   UNL A   1      40.933  33.956  38.805  1.00  0.00    -0.014 A 
ATOM     85  C   UNL A   1      41.650  35.164  38.796  1.00  0.00     0.010 A 
ATOM     86  C   UNL A   1      40.322  33.527  39.999  1.00  0.00     0.010 A 
ATOM     87  C   UNL A   1      41.768  35.923  39.965  1.00  0.00     0.020 A 
ATOM     88  C   UNL A   1      40.419  34.293  41.163  1.00  0.00     0.020 A 
ATOM     89  C   UNL A   1      41.149  35.482  41.140  1.00  0.00     0.054 A 
BRANCH  89  90
ATOM     90  S   UNL A   1      41.257  36.515  42.628  1.00  0.00     0.124 S 
ATOM     91  O   UNL A   1      40.498  35.733  43.599  1.00  0.00    -0.237 OA
ATOM     92  O   UNL A   1      42.697  36.586  42.868  1.00  0.00    -0.237 OA
ATOM     93  O   UNL A   1      40.638  37.775  42.221  1.00  0.00    -0.744 OA
ENDBRANCH  89  90
ENDBRANCH  63  84
ENDBRANCH  37  38
ENDBRANCH  30  32
ENDBRANCH  29  30
ENDBRANCH  28  29
ENDBRANCH  27  28
ENDBRANCH  26  27
ENDBRANCH   1  26
TORSDOF 21
ENDMDL
MODEL 3
REMARK VINA RESULT:      -9.9      2.128      3.060
REMARK SMILES Cc1cscc1CNC(=O)N[C@@H](C)c1nc(C(=O)OCCOCCOC(=O)c2ccc(-c3c4nc(c(-c5ccc(S(=O)(=O)[O-])cc5)c5ccc([nH]5)c(-c5ccc(S(=O)(=O)[O-])cc5)c5nc(c(-c6ccc(S(=O)(=O)[O-])cc6)c6ccc3[nH]6)C=C5)C=C4)cc2)cs1
REMARK SMILES IDX 21 1 20 2 19 3 17 4 18 5 16 6 14 7 15 8 89 9 88 10 12 11
REMARK SMILES IDX 13 12 11 13 8 14 9 15 10 17 7 19 6 20 1 21 2 22 3 23 4 24
REMARK SMILES IDX 5 25 22 26 23 27 24 28 25 29 26 30 27 31 28 32 29 33 87 34
REMARK SMILES IDX 30 35 86 36 31 37 32 38 33 39 80 40 34 41 85 42 79 43 81 44
REMARK SMILES IDX 35 45 84 46 78 47 77 48 36 50 66 51 47 52 65 53 48 54 51 55
REMARK SMILES IDX 64 56 82 57 49 58 50 59 63 61 83 62 52 63 37 64 38 65 46 66
REMARK SMILES IDX 39 67 45 68 40 69 41 70 42 71 43 72 44 73 67 74 68 75 76 76
REMARK SMILES IDX 69 77 75 78 70 79 71 80 72 81 73 82 74 83 53 84 54 85 62 86
REMARK SMILES IDX 55 87 61 88 56 89 57 90 58 91 59 92 60 93
REMARK H PARENT 8 16 11 18 81 49 51 60
REMARK Flexibility Score: inf
ROOT
ATOM      1  C   UNL A   1      36.225  20.926  24.713  1.00  0.00     0.202 C 
ENDROOT
BRANCH   1   2
ATOM      2  C   UNL A   1      34.850  20.446  25.182  1.00  0.00     0.261 C 
BRANCH   2   3
ATOM      3  O   UNL A   1      33.877  20.662  24.145  1.00  0.00    -0.458 OA
BRANCH   3   4
ATOM      4  C   UNL A   1      32.728  21.277  24.544  1.00  0.00     0.357 C 
ATOM      5  O   UNL A   1      31.855  20.752  25.229  1.00  0.00    -0.244 OA
BRANCH   4   6
ATOM      6  C   UNL A   1      32.682  22.696  24.178  1.00  0.00     0.159 A 
ATOM      7  C   UNL A   1      32.034  24.832  24.234  1.00  0.00     0.116 A 
ATOM      8  N   UNL A   1      31.823  23.638  24.759  1.00  0.00    -0.232 NA
ATOM      9  S   UNL A   1      33.181  24.869  22.945  1.00  0.00    -0.124 S 
ATOM     10  C   UNL A   1      33.475  23.206  23.165  1.00  0.00     0.102 A 
BRANCH   7  11
ATOM     11  C   UNL A   1      31.401  26.133  24.680  1.00  0.00     0.140 C 
ATOM     12  C   UNL A   1      29.924  25.944  25.016  1.00  0.00     0.039 C 
BRANCH  11  13
ATOM     13  N   UNL A   1      31.550  27.128  23.630  1.00  0.00    -0.329 N 
ATOM     14  N   UNL A   1      31.576  29.270  24.642  1.00  0.00    -0.334 N 
ATOM     15  C   UNL A   1      31.574  28.459  23.583  1.00  0.00     0.315 C 
ATOM     16  H   UNL A   1      31.567  30.218  24.377  1.00  0.00     0.165 HD
ATOM     17  O   UNL A   1      31.623  28.993  22.473  1.00  0.00    -0.249 OA
ATOM     18  H   UNL A   1      31.660  26.720  22.741  1.00  0.00     0.166 HD
BRANCH  14  19
ATOM     19  C   UNL A   1      31.590  29.118  26.079  1.00  0.00     0.154 C 
BRANCH  19  20
ATOM     20  C   UNL A   1      32.880  29.620  26.677  1.00  0.00    -0.015 A 
ATOM     21  C   UNL A   1      34.261  27.455  26.190  1.00  0.00     0.045 C 
ATOM     22  C   UNL A   1      34.105  28.841  26.727  1.00  0.00    -0.035 A 
ATOM     23  C   UNL A   1      35.128  29.539  27.343  1.00  0.00     0.068 A 
ATOM     24  S   UNL A   1      34.658  31.096  27.850  1.00  0.00    -0.152 S 
ATOM     25  C   UNL A   1      33.075  30.861  27.261  1.00  0.00     0.070 A 
ENDBRANCH  19  20
ENDBRANCH  14  19
ENDBRANCH  11  13
ENDBRANCH   7  11
ENDBRANCH   4   6
ENDBRANCH   3   4
ENDBRANCH   2   3
ENDBRANCH   1   2
BRANCH   1  26
ATOM     26  O   UNL A   1      37.004  21.519  25.757  1.00  0.00    -0.374 OA
BRANCH  26  27
ATOM     27  C   UNL A   1      37.580  22.792  25.448  1.00  0.00     0.202 C 
BRANCH  27  28
ATOM     28  C   UNL A   1      38.795  23.159  26.305  1.00  0.00     0.261 C 
BRANCH  28  29
ATOM     29  O   UNL A   1      38.819  24.575  26.553  1.00  0.00    -0.460 OA
BRANCH  29  30
ATOM     30  C   UNL A   1      40.043  25.151  26.500  1.00  0.00     0.338 C 
ATOM     31  O   UNL A   1      40.826  25.125  25.564  1.00  0.00    -0.246 OA
BRANCH  30  32
ATOM     32  C   UNL A   1      40.243  26.000  27.695  1.00  0.00     0.060 A 
ATOM     33  C   UNL A   1      39.311  25.876  28.733  1.00  0.00     0.016 A 
ATOM     34  C   UNL A   1      41.295  26.916  27.795  1.00  0.00     0.016 A 
ATOM     35  C   UNL A   1      39.391  26.707  29.848  1.00  0.00     0.010 A 
ATOM     36  C   UNL A   1      41.370  27.754  28.912  1.00  0.00     0.010 A 
ATOM     37  C   UNL A   1      40.396  27.680  29.922  1.00  0.00    -0.014 A 
BRANCH  37  38
ATOM     38  C   UNL A   1      40.318  28.735  30.960  1.00  0.00     0.031 A 
ATOM     39  C   UNL A   1      41.242  28.643  32.144  1.00  0.00     0.074 A 
ATOM     40  C   UNL A   1      39.463  29.766  30.844  1.00  0.00     0.049 A 
ATOM     41  N   UNL A   1      41.326  29.421  33.192  1.00  0.00    -0.248 NA
ATOM     42  C   UNL A   1      42.200  27.524  32.147  1.00  0.00     0.031 C 
ATOM     43  C   UNL A   1      38.555  29.991  29.722  1.00  0.00     0.029 A 
ATOM     44  N   UNL A   1      39.220  30.817  31.692  1.00  0.00    -0.354 N 
ATOM     45  C   UNL A   1      42.335  28.882  33.981  1.00  0.00     0.074 A 
ATOM     46  C   UNL A   1      42.820  27.700  33.303  1.00  0.00     0.031 C 
ATOM     47  C   UNL A   1      37.842  31.108  29.956  1.00  0.00     0.029 A 
ATOM     48  C   UNL A   1      38.223  31.657  31.257  1.00  0.00     0.049 A 
ATOM     49  H   UNL A   1      39.714  30.957  32.532  1.00  0.00     0.167 HD
ATOM     50  C   UNL A   1      42.816  29.331  35.164  1.00  0.00     0.031 A 
ATOM     51  C   UNL A   1      37.667  32.731  31.851  1.00  0.00     0.031 A 
ATOM     52  C   UNL A   1      42.323  30.496  35.844  1.00  0.00     0.049 A 
ATOM     53  C   UNL A   1      38.173  33.176  33.199  1.00  0.00     0.074 A 
ATOM     54  C   UNL A   1      42.744  31.032  37.049  1.00  0.00     0.029 A 
ATOM     55  N   UNL A   1      41.298  31.305  35.380  1.00  0.00    -0.354 N 
ATOM     56  N   UNL A   1      39.135  32.660  33.929  1.00  0.00    -0.248 NA
ATOM     57  C   UNL A   1      37.524  34.350  33.801  1.00  0.00     0.031 C 
ATOM     58  C   UNL A   1      41.942  32.143  37.334  1.00  0.00     0.029 A 
ATOM     59  C   UNL A   1      41.059  32.327  36.281  1.00  0.00     0.049 A 
ATOM     60  H   UNL A   1      40.811  31.172  34.534  1.00  0.00     0.167 HD
ATOM     61  C   UNL A   1      39.226  33.466  35.059  1.00  0.00     0.074 A 
ATOM     62  C   UNL A   1      38.225  34.503  34.917  1.00  0.00     0.031 C 
ATOM     63  C   UNL A   1      40.067  33.359  36.117  1.00  0.00     0.031 A 
BRANCH  50  64
ATOM     64  C   UNL A   1      43.910  28.528  35.813  1.00  0.00    -0.014 A 
ATOM     65  C   UNL A   1      45.265  28.813  35.565  1.00  0.00     0.010 A 
ATOM     66  C   UNL A   1      43.578  27.487  36.698  1.00  0.00     0.010 A 
ATOM     67  C   UNL A   1      46.268  28.045  36.162  1.00  0.00     0.020 A 
ATOM     68  C   UNL A   1      44.578  26.731  37.315  1.00  0.00     0.020 A 
ATOM     69  C   UNL A   1      45.917  27.005  37.028  1.00  0.00     0.054 A 
BRANCH  69  70
ATOM     70  S   UNL A   1      47.238  26.030  37.801  1.00  0.00     0.124 S 
ATOM     71  O   UNL A   1      47.225  26.538  39.170  1.00  0.00    -0.237 OA
ATOM     72  O   UNL A   1      46.764  24.658  37.636  1.00  0.00    -0.237 OA
ATOM     73  O   UNL A   1      48.424  26.373  37.020  1.00  0.00    -0.744 OA
ENDBRANCH  69  70
ENDBRANCH  50  64
BRANCH  51  74
ATOM     74  C   UNL A   1      36.553  33.454  31.182  1.00  0.00    -0.014 A 
ATOM     75  C   UNL A   1      36.645  33.822  29.828  1.00  0.00     0.010 A 
ATOM     76  C   UNL A   1      35.386  33.776  31.900  1.00  0.00     0.010 A 
ATOM     77  C   UNL A   1      35.595  34.510  29.209  1.00  0.00     0.020 A 
ATOM     78  C   UNL A   1      34.327  34.441  31.278  1.00  0.00     0.020 A 
ATOM     79  C   UNL A   1      34.443  34.813  29.937  1.00  0.00     0.054 A 
BRANCH  79  80
ATOM     80  S   UNL A   1      33.069  35.655  29.101  1.00  0.00     0.124 S 
ATOM     81  O   UNL A   1      33.755  36.743  28.412  1.00  0.00    -0.237 OA
ATOM     82  O   UNL A   1      32.528  34.604  28.243  1.00  0.00    -0.237 OA
ATOM     83  O   UNL A   1      32.197  36.060  30.201  1.00  0.00    -0.744 OA
ENDBRANCH  79  80
ENDBRANCH  51  74
BRANCH  63  84
ATOM     84  C   UNL A   1      39.987  34.416  37.184  1.00  0.00    -0.014 A 
ATOM     85  C   UNL A   1      40.523  35.699  36.985  1.00  0.00     0.010 A 
ATOM     86  C   UNL A   1      39.282  34.142  38.372  1.00  0.00     0.010 A 
ATOM     87  C   UNL A   1      40.372  36.686  37.962  1.00  0.00     0.020 A 
ATOM     88  C   UNL A   1      39.110  35.133  39.342  1.00  0.00     0.020 A 
ATOM     89  C   UNL A   1      39.664  36.397  39.134  1.00  0.00     0.054 A 
BRANCH  89  90
ATOM     90  S   UNL A   1      39.422  37.713  40.359  1.00  0.00     0.124 S 
ATOM     91  O   UNL A   1      40.790  38.168  40.592  1.00  0.00    -0.237 OA
ATOM     92  O   UNL A   1      38.557  38.657  39.653  1.00  0.00    -0.237 OA
ATOM     93  O   UNL A   1      38.793  37.026  41.486  1.00  0.00    -0.744 OA
ENDBRANCH  89  90
ENDBRANCH  63  84
ENDBRANCH  37  38
ENDBRANCH  30  32
ENDBRANCH  29  30
ENDBRANCH  28  29
ENDBRANCH  27  28
ENDBRANCH  26  27
ENDBRANCH   1  26
TORSDOF 21
ENDMDL
