MODEL 1
REMARK VINA RESULT:     -10.0      0.000      0.000
REMARK SMILES COc1ccc(/C=C2\SC(=S)N=C2OCCOCCOC(=O)c2ccc(-c3c4nc(c(-c5ccc(S(=O)(=O)[O-])cc5)c5ccc([nH]5)c(-c5ccc(S(=O)(=O)[O-])cc5)c5nc(c(-c6ccc(S(=O)(=O)[O-])cc6)c6ccc3[nH]6)C=C5)C=C4)cc2)c(C(=O)[O-])c1OC
REMARK SMILES IDX 18 1 17 2 16 3 15 4 14 5 13 6 7 7 8 8 9 9 10 10 12 11 11 12
REMARK SMILES IDX 6 13 3 14 4 15 87 16 5 17 83 18 2 19 1 20 88 21 89 22 84 23
REMARK SMILES IDX 85 24 86 25 19 26 20 27 21 28 22 29 23 30 24 31 82 32 25 33
REMARK SMILES IDX 81 34 26 35 27 36 28 37 75 38 29 39 80 40 74 41 76 42 30 43
REMARK SMILES IDX 79 44 73 45 72 46 31 48 61 49 42 50 60 51 43 52 46 53 59 54
REMARK SMILES IDX 77 55 44 56 45 57 58 59 78 60 47 61 32 62 33 63 41 64 34 65
REMARK SMILES IDX 40 66 35 67 36 68 37 69 38 70 39 71 62 72 63 73 71 74 64 75
REMARK SMILES IDX 70 76 65 77 66 78 67 79 68 80 69 81 48 82 49 83 57 84 50 85
REMARK SMILES IDX 56 86 51 87 52 88 53 89 54 90 55 91
REMARK H PARENT 76 47 46 58
REMARK Flexibility Score: inf
ROOT
ATOM      1  C   UNL A   1      40.396  22.078  26.745  1.00  0.00     0.202 C 
ENDROOT
BRANCH   1   2
ATOM      2  O   UNL A   1      39.544  21.684  25.663  1.00  0.00    -0.374 OA
BRANCH   2   3
ATOM      3  C   UNL A   1      38.146  21.630  25.960  1.00  0.00     0.202 C 
BRANCH   3   4
ATOM      4  C   UNL A   1      37.259  22.743  25.384  1.00  0.00     0.260 C 
BRANCH   4   5
ATOM      5  O   UNL A   1      36.289  22.281  24.426  1.00  0.00    -0.474 OA
BRANCH   5   6
ATOM      6  C   UNL A   1      35.067  21.778  24.626  1.00  0.00     0.229 C 
ATOM      7  C   UNL A   1      33.584  23.846  24.442  1.00  0.00     0.030 C 
ATOM      8  C   UNL A   1      33.780  22.533  24.651  1.00  0.00     0.077 C 
ATOM      9  S   UNL A   1      32.549  21.337  24.920  1.00  0.00    -0.053 SA
ATOM     10  C   UNL A   1      33.737  20.029  24.833  1.00  0.00     0.168 C 
ATOM     11  N   UNL A   1      35.024  20.484  24.744  1.00  0.00    -0.194 NA
ATOM     12  S   UNL A   1      33.280  18.420  24.781  1.00  0.00    -0.050 S 
BRANCH   7  13
ATOM     13  C   UNL A   1      32.406  24.737  24.269  1.00  0.00    -0.011 A 
ATOM     14  C   UNL A   1      30.100  26.356  23.999  1.00  0.00     0.161 A 
ATOM     15  C   UNL A   1      30.265  25.542  25.116  1.00  0.00     0.051 A 
ATOM     16  C   UNL A   1      31.058  26.355  22.975  1.00  0.00     0.170 A 
ATOM     17  C   UNL A   1      31.401  24.745  25.246  1.00  0.00     0.013 A 
ATOM     18  C   UNL A   1      32.179  25.493  23.076  1.00  0.00     0.050 A 
BRANCH  14  19
ATOM     19  O   UNL A   1      29.048  27.231  23.985  1.00  0.00    -0.493 OA
ATOM     20  C   UNL A   1      27.788  26.556  23.976  1.00  0.00     0.278 C 
ENDBRANCH  14  19
BRANCH  16  21
ATOM     21  O   UNL A   1      31.049  27.240  21.922  1.00  0.00    -0.492 OA
ATOM     22  C   UNL A   1      31.164  28.623  22.227  1.00  0.00     0.278 C 
ENDBRANCH  16  21
BRANCH  18  23
ATOM     23  C   UNL A   1      33.097  25.367  21.894  1.00  0.00     0.076 C 
ATOM     24  O   UNL A   1      33.083  24.500  21.040  1.00  0.00    -0.545 OA
ATOM     25  O   UNL A   1      33.940  26.413  21.766  1.00  0.00    -0.545 OA
ENDBRANCH  18  23
ENDBRANCH   7  13
ENDBRANCH   5   6
ENDBRANCH   4   5
ENDBRANCH   3   4
ENDBRANCH   2   3
ENDBRANCH   1   2
BRANCH   1  26
ATOM     26  C   UNL A   1      41.257  23.318  26.495  1.00  0.00     0.261 C 
BRANCH  26  27
ATOM     27  O   UNL A   1      40.444  24.474  26.269  1.00  0.00    -0.460 OA
BRANCH  27  28
ATOM     28  C   UNL A   1      41.143  25.627  26.119  1.00  0.00     0.338 C 
ATOM     29  O   UNL A   1      41.525  26.127  25.079  1.00  0.00    -0.246 OA
BRANCH  28  30
ATOM     30  C   UNL A   1      41.196  26.317  27.424  1.00  0.00     0.060 A 
ATOM     31  C   UNL A   1      40.162  26.060  28.333  1.00  0.00     0.016 A 
ATOM     32  C   UNL A   1      42.236  27.189  27.754  1.00  0.00     0.016 A 
ATOM     33  C   UNL A   1      40.133  26.720  29.557  1.00  0.00     0.010 A 
ATOM     34  C   UNL A   1      42.203  27.854  28.979  1.00  0.00     0.010 A 
ATOM     35  C   UNL A   1      41.130  27.653  29.865  1.00  0.00    -0.014 A 
BRANCH  35  36
ATOM     36  C   UNL A   1      40.960  28.552  31.028  1.00  0.00     0.031 A 
ATOM     37  C   UNL A   1      39.897  29.614  30.960  1.00  0.00     0.074 A 
ATOM     38  C   UNL A   1      41.725  28.414  32.124  1.00  0.00     0.049 A 
ATOM     39  N   UNL A   1      39.592  30.539  31.831  1.00  0.00    -0.248 NA
ATOM     40  C   UNL A   1      39.070  29.637  29.741  1.00  0.00     0.031 C 
ATOM     41  C   UNL A   1      42.749  27.389  32.319  1.00  0.00     0.029 A 
ATOM     42  N   UNL A   1      41.752  29.144  33.283  1.00  0.00    -0.354 N 
ATOM     43  C   UNL A   1      38.547  31.259  31.263  1.00  0.00     0.074 A 
ATOM     44  C   UNL A   1      38.298  30.690  29.957  1.00  0.00     0.031 C 
ATOM     45  C   UNL A   1      43.307  27.556  33.530  1.00  0.00     0.029 A 
ATOM     46  C   UNL A   1      42.707  28.721  34.177  1.00  0.00     0.049 A 
ATOM     47  H   UNL A   1      41.147  29.900  33.459  1.00  0.00     0.167 HD
ATOM     48  C   UNL A   1      37.854  32.297  31.787  1.00  0.00     0.031 A 
ATOM     49  C   UNL A   1      43.064  29.231  35.371  1.00  0.00     0.031 A 
ATOM     50  C   UNL A   1      38.126  32.869  33.078  1.00  0.00     0.049 A 
ATOM     51  C   UNL A   1      42.341  30.445  35.893  1.00  0.00     0.074 A 
ATOM     52  C   UNL A   1      37.483  33.919  33.709  1.00  0.00     0.029 A 
ATOM     53  N   UNL A   1      39.134  32.444  33.933  1.00  0.00    -0.354 N 
ATOM     54  N   UNL A   1      41.341  31.105  35.357  1.00  0.00    -0.248 NA
ATOM     55  C   UNL A   1      42.788  30.976  37.188  1.00  0.00     0.031 C 
ATOM     56  C   UNL A   1      38.142  34.169  34.917  1.00  0.00     0.029 A 
ATOM     57  C   UNL A   1      39.149  33.229  35.073  1.00  0.00     0.049 A 
ATOM     58  H   UNL A   1      39.747  31.695  33.755  1.00  0.00     0.167 HD
ATOM     59  C   UNL A   1      41.018  32.109  36.265  1.00  0.00     0.074 A 
ATOM     60  C   UNL A   1      41.921  31.960  37.389  1.00  0.00     0.031 C 
ATOM     61  C   UNL A   1      40.059  33.065  36.182  1.00  0.00     0.031 A 
BRANCH  48  62
ATOM     62  C   UNL A   1      36.763  32.900  30.939  1.00  0.00    -0.014 A 
ATOM     63  C   UNL A   1      37.046  33.877  29.966  1.00  0.00     0.010 A 
ATOM     64  C   UNL A   1      35.432  32.475  31.110  1.00  0.00     0.010 A 
ATOM     65  C   UNL A   1      36.016  34.455  29.219  1.00  0.00     0.020 A 
ATOM     66  C   UNL A   1      34.403  33.026  30.341  1.00  0.00     0.020 A 
ATOM     67  C   UNL A   1      34.699  34.027  29.415  1.00  0.00     0.054 A 
BRANCH  67  68
ATOM     68  S   UNL A   1      33.383  34.791  28.428  1.00  0.00     0.124 S 
ATOM     69  O   UNL A   1      34.144  35.643  27.518  1.00  0.00    -0.237 OA
ATOM     70  O   UNL A   1      32.735  33.636  27.813  1.00  0.00    -0.237 OA
ATOM     71  O   UNL A   1      32.575  35.502  29.417  1.00  0.00    -0.744 OA
ENDBRANCH  67  68
ENDBRANCH  48  62
BRANCH  49  72
ATOM     72  C   UNL A   1      44.160  28.596  36.155  1.00  0.00    -0.014 A 
ATOM     73  C   UNL A   1      43.886  27.527  37.026  1.00  0.00     0.010 A 
ATOM     74  C   UNL A   1      45.485  29.053  36.031  1.00  0.00     0.010 A 
ATOM     75  C   UNL A   1      44.913  26.937  37.768  1.00  0.00     0.020 A 
ATOM     76  C   UNL A   1      46.520  28.446  36.748  1.00  0.00     0.020 A 
ATOM     77  C   UNL A   1      46.225  27.397  37.621  1.00  0.00     0.054 A 
BRANCH  77  78
ATOM     78  S   UNL A   1      47.546  26.579  38.557  1.00  0.00     0.124 S 
ATOM     79  O   UNL A   1      47.285  27.039  39.918  1.00  0.00    -0.237 OA
ATOM     80  O   UNL A   1      47.279  25.166  38.304  1.00  0.00    -0.237 OA
ATOM     81  O   UNL A   1      48.768  27.094  37.945  1.00  0.00    -0.744 OA
ENDBRANCH  77  78
ENDBRANCH  49  72
BRANCH  61  82
ATOM     82  C   UNL A   1      39.902  33.997  37.355  1.00  0.00    -0.014 A 
ATOM     83  C   UNL A   1      40.467  35.285  37.350  1.00  0.00     0.010 A 
ATOM     84  C   UNL A   1      39.128  33.594  38.460  1.00  0.00     0.010 A 
ATOM     85  C   UNL A   1      40.288  36.139  38.442  1.00  0.00     0.020 A 
ATOM     86  C   UNL A   1      38.920  34.456  39.538  1.00  0.00     0.020 A 
ATOM     87  C   UNL A   1      39.515  35.719  39.529  1.00  0.00     0.054 A 
BRANCH  87  88
ATOM     88  S   UNL A   1      39.262  36.862  40.914  1.00  0.00     0.124 S 
ATOM     89  O   UNL A   1      38.517  36.034  41.860  1.00  0.00    -0.237 OA
ATOM     90  O   UNL A   1      40.629  37.193  41.309  1.00  0.00    -0.237 OA
ATOM     91  O   UNL A   1      38.505  37.963  40.322  1.00  0.00    -0.744 OA
ENDBRANCH  87  88
ENDBRANCH  61  82
ENDBRANCH  35  36
ENDBRANCH  28  30
ENDBRANCH  27  28
ENDBRANCH  26  27
ENDBRANCH   1  26
TORSDOF 20
ENDMDL
MODEL 2
REMARK VINA RESULT:      -9.8      1.811      2.610
REMARK SMILES COc1ccc(/C=C2\SC(=S)N=C2OCCOCCOC(=O)c2ccc(-c3c4nc(c(-c5ccc(S(=O)(=O)[O-])cc5)c5ccc([nH]5)c(-c5ccc(S(=O)(=O)[O-])cc5)c5nc(c(-c6ccc(S(=O)(=O)[O-])cc6)c6ccc3[nH]6)C=C5)C=C4)cc2)c(C(=O)[O-])c1OC
REMARK SMILES IDX 18 1 17 2 16 3 15 4 14 5 13 6 7 7 8 8 9 9 10 10 12 11 11 12
REMARK SMILES IDX 6 13 3 14 4 15 87 16 5 17 83 18 2 19 1 20 88 21 89 22 84 23
REMARK SMILES IDX 85 24 86 25 19 26 20 27 21 28 22 29 23 30 24 31 82 32 25 33
REMARK SMILES IDX 81 34 26 35 27 36 28 37 75 38 29 39 80 40 74 41 76 42 30 43
REMARK SMILES IDX 79 44 73 45 72 46 31 48 61 49 42 50 60 51 43 52 46 53 59 54
REMARK SMILES IDX 77 55 44 56 45 57 58 59 78 60 47 61 32 62 33 63 41 64 34 65
REMARK SMILES IDX 40 66 35 67 36 68 37 69 38 70 39 71 62 72 63 73 71 74 64 75
REMARK SMILES IDX 70 76 65 77 66 78 67 79 68 80 69 81 48 82 49 83 57 84 50 85
REMARK SMILES IDX 56 86 51 87 52 88 53 89 54 90 55 91
REMARK H PARENT 76 47 46 58
REMARK Flexibility Score: inf
ROOT
ATOM      1  C   UNL A   1      40.191  22.420  26.756  1.00  0.00     0.202 C 
ENDROOT
BRANCH   1   2
ATOM      2  O   UNL A   1      39.065  22.685  25.910  1.00  0.00    -0.374 OA
BRANCH   2   3
ATOM      3  C   UNL A   1      38.158  21.596  25.724  1.00  0.00     0.202 C 
BRANCH   3   4
ATOM      4  C   UNL A   1      36.657  21.901  25.825  1.00  0.00     0.260 C 
BRANCH   4   5
ATOM      5  O   UNL A   1      35.810  20.760  25.595  1.00  0.00    -0.474 OA
BRANCH   5   6
ATOM      6  C   UNL A   1      34.611  20.693  25.008  1.00  0.00     0.229 C 
ATOM      7  C   UNL A   1      33.900  23.142  24.928  1.00  0.00     0.030 C 
ATOM      8  C   UNL A   1      33.695  21.831  24.709  1.00  0.00     0.077 C 
ATOM      9  S   UNL A   1      32.319  21.122  23.920  1.00  0.00    -0.053 SA
ATOM     10  C   UNL A   1      33.083  19.526  23.922  1.00  0.00     0.168 C 
ATOM     11  N   UNL A   1      34.265  19.504  24.612  1.00  0.00    -0.194 NA
ATOM     12  S   UNL A   1      32.436  18.233  23.083  1.00  0.00    -0.050 S 
BRANCH   7  13
ATOM     13  C   UNL A   1      33.208  24.407  24.568  1.00  0.00    -0.011 A 
ATOM     14  C   UNL A   1      31.994  26.868  23.874  1.00  0.00     0.161 A 
ATOM     15  C   UNL A   1      33.265  26.550  23.403  1.00  0.00     0.051 A 
ATOM     16  C   UNL A   1      31.314  25.989  24.729  1.00  0.00     0.170 A 
ATOM     17  C   UNL A   1      33.860  25.338  23.747  1.00  0.00     0.013 A 
ATOM     18  C   UNL A   1      31.950  24.788  25.133  1.00  0.00     0.050 A 
BRANCH  14  19
ATOM     19  O   UNL A   1      31.388  27.996  23.390  1.00  0.00    -0.493 OA
ATOM     20  C   UNL A   1      32.209  29.156  23.548  1.00  0.00     0.278 C 
ENDBRANCH  14  19
BRANCH  16  21
ATOM     21  O   UNL A   1      30.003  26.155  25.108  1.00  0.00    -0.492 OA
ATOM     22  C   UNL A   1      29.015  26.103  24.087  1.00  0.00     0.278 C 
ENDBRANCH  16  21
BRANCH  18  23
ATOM     23  C   UNL A   1      31.291  23.947  26.188  1.00  0.00     0.076 C 
ATOM     24  O   UNL A   1      30.457  23.077  26.021  1.00  0.00    -0.545 OA
ATOM     25  O   UNL A   1      31.794  24.159  27.423  1.00  0.00    -0.545 OA
ENDBRANCH  18  23
ENDBRANCH   7  13
ENDBRANCH   5   6
ENDBRANCH   4   5
ENDBRANCH   3   4
ENDBRANCH   2   3
ENDBRANCH   1   2
BRANCH   1  26
ATOM     26  C   UNL A   1      40.716  23.614  27.555  1.00  0.00     0.261 C 
BRANCH  26  27
ATOM     27  O   UNL A   1      39.726  24.642  27.659  1.00  0.00    -0.460 OA
BRANCH  27  28
ATOM     28  C   UNL A   1      40.156  25.871  27.279  1.00  0.00     0.338 C 
ATOM     29  O   UNL A   1      40.419  26.245  26.152  1.00  0.00    -0.246 OA
BRANCH  28  30
ATOM     30  C   UNL A   1      40.059  26.782  28.438  1.00  0.00     0.060 A 
ATOM     31  C   UNL A   1      40.911  27.894  28.460  1.00  0.00     0.016 A 
ATOM     32  C   UNL A   1      39.152  26.558  29.476  1.00  0.00     0.016 A 
ATOM     33  C   UNL A   1      40.898  28.757  29.550  1.00  0.00     0.010 A 
ATOM     34  C   UNL A   1      39.144  27.421  30.571  1.00  0.00     0.010 A 
ATOM     35  C   UNL A   1      40.046  28.497  30.630  1.00  0.00    -0.014 A 
BRANCH  35  36
ATOM     36  C   UNL A   1      40.220  29.240  31.898  1.00  0.00     0.031 A 
ATOM     37  C   UNL A   1      39.229  30.319  32.236  1.00  0.00     0.074 A 
ATOM     38  C   UNL A   1      41.230  28.947  32.736  1.00  0.00     0.049 A 
ATOM     39  N   UNL A   1      39.200  31.127  33.262  1.00  0.00    -0.248 NA
ATOM     40  C   UNL A   1      38.122  30.515  31.283  1.00  0.00     0.031 C 
ATOM     41  C   UNL A   1      42.218  27.889  32.534  1.00  0.00     0.029 A 
ATOM     42  N   UNL A   1      41.586  29.520  33.928  1.00  0.00    -0.354 N 
ATOM     43  C   UNL A   1      38.083  31.933  33.074  1.00  0.00     0.074 A 
ATOM     44  C   UNL A   1      37.483  31.543  31.817  1.00  0.00     0.031 C 
ATOM     45  C   UNL A   1      43.072  27.888  33.571  1.00  0.00     0.029 A 
ATOM     46  C   UNL A   1      42.714  28.968  34.488  1.00  0.00     0.049 A 
ATOM     47  H   UNL A   1      41.083  30.257  34.345  1.00  0.00     0.167 HD
ATOM     48  C   UNL A   1      37.596  32.905  33.881  1.00  0.00     0.031 A 
ATOM     49  C   UNL A   1      43.387  29.312  35.603  1.00  0.00     0.031 A 
ATOM     50  C   UNL A   1      38.215  33.299  35.118  1.00  0.00     0.049 A 
ATOM     51  C   UNL A   1      42.880  30.460  36.437  1.00  0.00     0.074 A 
ATOM     52  C   UNL A   1      37.806  34.269  36.016  1.00  0.00     0.029 A 
ATOM     53  N   UNL A   1      39.384  32.750  35.626  1.00  0.00    -0.354 N 
ATOM     54  N   UNL A   1      41.811  31.201  36.261  1.00  0.00    -0.248 NA
ATOM     55  C   UNL A   1      43.666  30.811  37.627  1.00  0.00     0.031 C 
ATOM     56  C   UNL A   1      38.761  34.349  37.035  1.00  0.00     0.029 A 
ATOM     57  C   UNL A   1      39.727  33.380  36.811  1.00  0.00     0.049 A 
ATOM     58  H   UNL A   1      39.895  32.021  35.207  1.00  0.00     0.167 HD
ATOM     59  C   UNL A   1      41.778  32.083  37.337  1.00  0.00     0.074 A 
ATOM     60  C   UNL A   1      42.928  31.774  38.163  1.00  0.00     0.031 C 
ATOM     61  C   UNL A   1      40.878  33.057  37.620  1.00  0.00     0.031 A 
BRANCH  48  62
ATOM     62  C   UNL A   1      36.358  33.631  33.423  1.00  0.00    -0.014 A 
ATOM     63  C   UNL A   1      36.438  34.867  32.754  1.00  0.00     0.010 A 
ATOM     64  C   UNL A   1      35.091  33.064  33.655  1.00  0.00     0.010 A 
ATOM     65  C   UNL A   1      35.276  35.546  32.374  1.00  0.00     0.020 A 
ATOM     66  C   UNL A   1      33.928  33.723  33.247  1.00  0.00     0.020 A 
ATOM     67  C   UNL A   1      34.028  34.970  32.626  1.00  0.00     0.054 A 
BRANCH  67  68
ATOM     68  S   UNL A   1      32.538  35.870  32.119  1.00  0.00     0.124 S 
ATOM     69  O   UNL A   1      31.475  34.984  32.589  1.00  0.00    -0.237 OA
ATOM     70  O   UNL A   1      32.667  37.133  32.840  1.00  0.00    -0.237 OA
ATOM     71  O   UNL A   1      32.668  35.968  30.667  1.00  0.00    -0.744 OA
ENDBRANCH  67  68
ENDBRANCH  48  62
BRANCH  49  72
ATOM     72  C   UNL A   1      44.612  28.563  35.994  1.00  0.00    -0.014 A 
ATOM     73  C   UNL A   1      44.524  27.443  36.841  1.00  0.00     0.010 A 
ATOM     74  C   UNL A   1      45.876  28.960  35.519  1.00  0.00     0.010 A 
ATOM     75  C   UNL A   1      45.675  26.745  37.216  1.00  0.00     0.020 A 
ATOM     76  C   UNL A   1      47.026  28.246  35.867  1.00  0.00     0.020 A 
ATOM     77  C   UNL A   1      46.919  27.148  36.723  1.00  0.00     0.054 A 
BRANCH  77  78
ATOM     78  S   UNL A   1      48.390  26.193  37.184  1.00  0.00     0.124 S 
ATOM     79  O   UNL A   1      49.472  27.094  36.801  1.00  0.00    -0.237 OA
ATOM     80  O   UNL A   1      48.202  26.003  38.620  1.00  0.00    -0.237 OA
ATOM     81  O   UNL A   1      48.274  24.977  36.382  1.00  0.00    -0.744 OA
ENDBRANCH  77  78
ENDBRANCH  49  72
BRANCH  61  82
ATOM     82  C   UNL A   1      41.070  33.832  38.897  1.00  0.00    -0.014 A 
ATOM     83  C   UNL A   1      40.509  33.398  40.111  1.00  0.00     0.010 A 
ATOM     84  C   UNL A   1      41.876  34.986  38.891  1.00  0.00     0.010 A 
ATOM     85  C   UNL A   1      40.721  34.124  41.287  1.00  0.00     0.020 A 
ATOM     86  C   UNL A   1      42.118  35.695  40.069  1.00  0.00     0.020 A 
ATOM     87  C   UNL A   1      41.526  35.268  41.258  1.00  0.00     0.054 A 
BRANCH  87  88
ATOM     88  S   UNL A   1      41.821  36.165  42.806  1.00  0.00     0.124 S 
ATOM     89  O   UNL A   1      40.996  37.358  42.628  1.00  0.00    -0.237 OA
ATOM     90  O   UNL A   1      41.352  35.222  43.818  1.00  0.00    -0.237 OA
ATOM     91  O   UNL A   1      43.264  36.400  42.801  1.00  0.00    -0.744 OA
ENDBRANCH  87  88
ENDBRANCH  61  82
ENDBRANCH  35  36
ENDBRANCH  28  30
ENDBRANCH  27  28
ENDBRANCH  26  27
ENDBRANCH   1  26
TORSDOF 20
ENDMDL
MODEL 3
REMARK VINA RESULT:      -9.6      6.621     11.817
REMARK SMILES COc1ccc(/C=C2\SC(=S)N=C2OCCOCCOC(=O)c2ccc(-c3c4nc(c(-c5ccc(S(=O)(=O)[O-])cc5)c5ccc([nH]5)c(-c5ccc(S(=O)(=O)[O-])cc5)c5nc(c(-c6ccc(S(=O)(=O)[O-])cc6)c6ccc3[nH]6)C=C5)C=C4)cc2)c(C(=O)[O-])c1OC
REMARK SMILES IDX 18 1 17 2 16 3 15 4 14 5 13 6 7 7 8 8 9 9 10 10 12 11 11 12
REMARK SMILES IDX 6 13 3 14 4 15 87 16 5 17 83 18 2 19 1 20 88 21 89 22 84 23
REMARK SMILES IDX 85 24 86 25 19 26 20 27 21 28 22 29 23 30 24 31 82 32 25 33
REMARK SMILES IDX 81 34 26 35 27 36 28 37 75 38 29 39 80 40 74 41 76 42 30 43
REMARK SMILES IDX 79 44 73 45 72 46 31 48 61 49 42 50 60 51 43 52 46 53 59 54
REMARK SMILES IDX 77 55 44 56 45 57 58 59 78 60 47 61 32 62 33 63 41 64 34 65
REMARK SMILES IDX 40 66 35 67 36 68 37 69 38 70 39 71 62 72 63 73 71 74 64 75
REMARK SMILES IDX 70 76 65 77 66 78 67 79 68 80 69 81 48 82 49 83 57 84 50 85
REMARK SMILES IDX 56 86 51 87 52 88 53 89 54 90 55 91
REMARK H PARENT 76 47 46 58
REMARK Flexibility Score: inf
ROOT
ATOM      1  C   UNL A   1      34.644  28.934  27.247  1.00  0.00     0.202 C 
ENDROOT
BRANCH   1   2
ATOM      2  O   UNL A   1      33.613  28.976  26.253  1.00  0.00    -0.374 OA
BRANCH   2   3
ATOM      3  C   UNL A   1      34.018  29.420  24.956  1.00  0.00     0.202 C 
BRANCH   3   4
ATOM      4  C   UNL A   1      33.344  28.763  23.742  1.00  0.00     0.260 C 
BRANCH   4   5
ATOM      5  O   UNL A   1      33.262  27.328  23.825  1.00  0.00    -0.474 OA
BRANCH   5   6
ATOM      6  C   UNL A   1      32.193  26.530  23.735  1.00  0.00     0.229 C 
ATOM      7  C   UNL A   1      33.229  24.204  23.895  1.00  0.00     0.030 C 
ATOM      8  C   UNL A   1      32.185  25.038  23.750  1.00  0.00     0.077 C 
ATOM      9  S   UNL A   1      30.512  24.584  23.633  1.00  0.00    -0.053 SA
ATOM     10  C   UNL A   1      30.000  26.276  23.718  1.00  0.00     0.168 C 
ATOM     11  N   UNL A   1      31.051  27.151  23.695  1.00  0.00    -0.194 NA
ATOM     12  S   UNL A   1      28.394  26.708  23.893  1.00  0.00    -0.050 S 
BRANCH   7  13
ATOM     13  C   UNL A   1      33.409  22.741  24.093  1.00  0.00    -0.011 A 
ATOM     14  C   UNL A   1      33.637  19.946  24.478  1.00  0.00     0.161 A 
ATOM     15  C   UNL A   1      32.520  20.484  23.842  1.00  0.00     0.051 A 
ATOM     16  C   UNL A   1      34.645  20.787  24.968  1.00  0.00     0.170 A 
ATOM     17  C   UNL A   1      32.411  21.860  23.656  1.00  0.00     0.013 A 
ATOM     18  C   UNL A   1      34.499  22.192  24.838  1.00  0.00     0.050 A 
BRANCH  14  19
ATOM     19  O   UNL A   1      33.773  18.585  24.504  1.00  0.00    -0.493 OA
ATOM     20  C   UNL A   1      32.803  17.965  25.351  1.00  0.00     0.278 C 
ENDBRANCH  14  19
BRANCH  16  21
ATOM     21  O   UNL A   1      35.845  20.331  25.462  1.00  0.00    -0.492 OA
ATOM     22  C   UNL A   1      36.999  20.519  24.655  1.00  0.00     0.278 C 
ENDBRANCH  16  21
BRANCH  18  23
ATOM     23  C   UNL A   1      35.492  23.083  25.527  1.00  0.00     0.076 C 
ATOM     24  O   UNL A   1      36.385  23.728  25.010  1.00  0.00    -0.545 OA
ATOM     25  O   UNL A   1      35.253  23.219  26.849  1.00  0.00    -0.545 OA
ENDBRANCH  18  23
ENDBRANCH   7  13
ENDBRANCH   5   6
ENDBRANCH   4   5
ENDBRANCH   3   4
ENDBRANCH   2   3
ENDBRANCH   1   2
BRANCH   1  26
ATOM     26  C   UNL A   1      35.031  30.282  27.860  1.00  0.00     0.261 C 
BRANCH  26  27
ATOM     27  O   UNL A   1      36.452  30.415  27.960  1.00  0.00    -0.460 OA
BRANCH  27  28
ATOM     28  C   UNL A   1      37.003  29.739  29.000  1.00  0.00     0.338 C 
ATOM     29  O   UNL A   1      36.456  29.400  30.031  1.00  0.00    -0.246 OA
BRANCH  28  30
ATOM     30  C   UNL A   1      38.348  29.278  28.599  1.00  0.00     0.060 A 
ATOM     31  C   UNL A   1      39.190  28.788  29.606  1.00  0.00     0.016 A 
ATOM     32  C   UNL A   1      38.775  29.318  27.270  1.00  0.00     0.016 A 
ATOM     33  C   UNL A   1      40.485  28.387  29.296  1.00  0.00     0.010 A 
ATOM     34  C   UNL A   1      40.075  28.922  26.961  1.00  0.00     0.010 A 
ATOM     35  C   UNL A   1      40.946  28.496  27.978  1.00  0.00    -0.014 A 
BRANCH  35  36
ATOM     36  C   UNL A   1      42.389  28.337  27.691  1.00  0.00     0.031 A 
ATOM     37  C   UNL A   1      43.301  29.504  27.951  1.00  0.00     0.074 A 
ATOM     38  C   UNL A   1      42.876  27.175  27.225  1.00  0.00     0.049 A 
ATOM     39  N   UNL A   1      44.586  29.616  27.738  1.00  0.00    -0.248 NA
ATOM     40  C   UNL A   1      42.677  30.710  28.524  1.00  0.00     0.031 C 
ATOM     41  C   UNL A   1      42.093  25.964  26.985  1.00  0.00     0.029 A 
ATOM     42  N   UNL A   1      44.154  26.827  26.872  1.00  0.00    -0.354 N 
ATOM     43  C   UNL A   1      44.921  30.905  28.141  1.00  0.00     0.074 A 
ATOM     44  C   UNL A   1      43.701  31.548  28.572  1.00  0.00     0.031 C 
ATOM     45  C   UNL A   1      42.909  25.002  26.522  1.00  0.00     0.029 A 
ATOM     46  C   UNL A   1      44.262  25.541  26.398  1.00  0.00     0.049 A 
ATOM     47  H   UNL A   1      44.920  27.439  26.949  1.00  0.00     0.167 HD
ATOM     48  C   UNL A   1      46.140  31.495  28.156  1.00  0.00     0.031 A 
ATOM     49  C   UNL A   1      45.330  24.886  25.903  1.00  0.00     0.031 A 
ATOM     50  C   UNL A   1      47.344  30.851  27.702  1.00  0.00     0.049 A 
ATOM     51  C   UNL A   1      46.658  25.595  25.842  1.00  0.00     0.074 A 
ATOM     52  C   UNL A   1      48.632  31.354  27.677  1.00  0.00     0.029 A 
ATOM     53  N   UNL A   1      47.404  29.566  27.183  1.00  0.00    -0.354 N 
ATOM     54  N   UNL A   1      46.968  26.805  26.244  1.00  0.00    -0.248 NA
ATOM     55  C   UNL A   1      47.783  24.844  25.269  1.00  0.00     0.031 C 
ATOM     56  C   UNL A   1      49.461  30.396  27.084  1.00  0.00     0.029 A 
ATOM     57  C   UNL A   1      48.703  29.268  26.807  1.00  0.00     0.049 A 
ATOM     58  H   UNL A   1      46.638  28.955  27.094  1.00  0.00     0.167 HD
ATOM     59  C   UNL A   1      48.332  26.948  26.004  1.00  0.00     0.074 A 
ATOM     60  C   UNL A   1      48.786  25.696  25.433  1.00  0.00     0.031 C 
ATOM     61  C   UNL A   1      49.137  28.014  26.238  1.00  0.00     0.031 A 
BRANCH  48  62
ATOM     62  C   UNL A   1      46.214  32.919  28.642  1.00  0.00    -0.014 A 
ATOM     63  C   UNL A   1      46.007  34.004  27.769  1.00  0.00     0.010 A 
ATOM     64  C   UNL A   1      46.486  33.179  29.998  1.00  0.00     0.010 A 
ATOM     65  C   UNL A   1      46.122  35.318  28.230  1.00  0.00     0.020 A 
ATOM     66  C   UNL A   1      46.568  34.492  30.471  1.00  0.00     0.020 A 
ATOM     67  C   UNL A   1      46.405  35.554  29.579  1.00  0.00     0.054 A 
BRANCH  67  68
ATOM     68  S   UNL A   1      46.544  37.269  30.150  1.00  0.00     0.124 S 
ATOM     69  O   UNL A   1      46.916  37.091  31.552  1.00  0.00    -0.237 OA
ATOM     70  O   UNL A   1      47.591  37.809  29.287  1.00  0.00    -0.237 OA
ATOM     71  O   UNL A   1      45.209  37.820  29.925  1.00  0.00    -0.744 OA
ENDBRANCH  67  68
ENDBRANCH  48  62
BRANCH  49  72
ATOM     72  C   UNL A   1      45.187  23.483  25.426  1.00  0.00    -0.014 A 
ATOM     73  C   UNL A   1      44.793  23.216  24.102  1.00  0.00     0.010 A 
ATOM     74  C   UNL A   1      45.450  22.404  26.290  1.00  0.00     0.010 A 
ATOM     75  C   UNL A   1      44.650  21.899  23.658  1.00  0.00     0.020 A 
ATOM     76  C   UNL A   1      45.339  21.085  25.840  1.00  0.00     0.020 A 
ATOM     77  C   UNL A   1      44.929  20.841  24.528  1.00  0.00     0.054 A 
BRANCH  77  78
ATOM     78  S   UNL A   1      44.786  19.142  23.909  1.00  0.00     0.124 S 
ATOM     79  O   UNL A   1      44.412  19.356  22.514  1.00  0.00    -0.237 OA
ATOM     80  O   UNL A   1      46.130  18.615  24.131  1.00  0.00    -0.237 OA
ATOM     81  O   UNL A   1      43.748  18.556  24.753  1.00  0.00    -0.744 OA
ENDBRANCH  77  78
ENDBRANCH  49  72
BRANCH  61  82
ATOM     82  C   UNL A   1      50.601  27.862  25.921  1.00  0.00    -0.014 A 
ATOM     83  C   UNL A   1      51.100  28.084  24.626  1.00  0.00     0.010 A 
ATOM     84  C   UNL A   1      51.503  27.544  26.955  1.00  0.00     0.010 A 
ATOM     85  C   UNL A   1      52.467  27.958  24.363  1.00  0.00     0.020 A 
ATOM     86  C   UNL A   1      52.873  27.450  26.704  1.00  0.00     0.020 A 
ATOM     87  C   UNL A   1      53.345  27.643  25.405  1.00  0.00     0.054 A 
BRANCH  87  88
ATOM     88  S   UNL A   1      55.119  27.528  25.047  1.00  0.00     0.124 S 
ATOM     89  O   UNL A   1      55.703  27.576  26.385  1.00  0.00    -0.237 OA
ATOM     90  O   UNL A   1      55.224  26.243  24.361  1.00  0.00    -0.237 OA
ATOM     91  O   UNL A   1      55.381  28.699  24.211  1.00  0.00    -0.744 OA
ENDBRANCH  87  88
ENDBRANCH  61  82
ENDBRANCH  35  36
ENDBRANCH  28  30
ENDBRANCH  27  28
ENDBRANCH  26  27
ENDBRANCH   1  26
TORSDOF 20
ENDMDL
