MODEL 1
REMARK VINA RESULT:     -11.0      0.000      0.000
REMARK SMILES O=C(OCCOCCOC(=O)[C@@H]1CN(C(=O)[C@H]2CC=CCC2)c2ccccc2O1)c1ccc(-c2c3nc(c(-c4ccc(S(=O)(=O)[O-])cc4)c4ccc([nH]4)c(-c4ccc(S(=O)(=O)[O-])cc4)c4nc(c(-c5ccc(S(=O)(=O)[O-])cc5)c5ccc2[nH]5)C=C4)C=C3)cc1
REMARK SMILES IDX 5 1 4 2 3 3 2 4 1 5 30 6 31 7 89 8 32 9 88 10 33 11 34 12
REMARK SMILES IDX 35 13 82 14 36 15 87 16 81 17 83 18 37 19 86 20 80 21 79 22
REMARK SMILES IDX 38 24 68 25 49 26 67 27 50 28 53 29 66 30 84 31 51 32 52 33
REMARK SMILES IDX 65 35 85 36 54 37 39 38 40 39 48 40 41 41 47 42 42 43 43 44
REMARK SMILES IDX 44 45 45 46 46 47 69 48 70 49 78 50 71 51 77 52 72 53 73 54
REMARK SMILES IDX 74 55 75 56 76 57 55 58 56 59 64 60 57 61 63 62 58 63 59 64
REMARK SMILES IDX 60 65 61 66 62 67 6 68 7 69 8 70 9 71 10 72 11 73 12 74
REMARK SMILES IDX 13 75 29 76 14 77 28 78 23 79 27 80 24 81 26 82 25 83 15 84
REMARK SMILES IDX 16 85 17 86 18 87 22 88 19 89 21 90 20 91
REMARK H PARENT 83 23 53 34
REMARK Flexibility Score: inf
ROOT
ATOM      1  C   UNL A   1      36.329  21.711  25.021  1.00  0.00     0.202 C 
ENDROOT
BRANCH   1   2
ATOM      2  C   UNL A   1      37.187  22.988  25.196  1.00  0.00     0.261 C 
BRANCH   2   3
ATOM      3  O   UNL A   1      37.936  23.213  26.415  1.00  0.00    -0.460 OA
BRANCH   3   4
ATOM      4  C   UNL A   1      39.297  23.386  26.420  1.00  0.00     0.338 C 
ATOM      5  O   UNL A   1      40.060  22.581  25.920  1.00  0.00    -0.246 OA
BRANCH   4   6
ATOM      6  C   UNL A   1      39.778  24.589  27.136  1.00  0.00     0.060 A 
ATOM      7  C   UNL A   1      39.368  24.743  28.444  1.00  0.00     0.016 A 
ATOM      8  C   UNL A   1      40.586  25.567  26.567  1.00  0.00     0.016 A 
ATOM      9  C   UNL A   1      39.374  25.957  29.054  1.00  0.00     0.010 A 
ATOM     10  C   UNL A   1      40.902  26.692  27.338  1.00  0.00     0.010 A 
ATOM     11  C   UNL A   1      40.275  26.884  28.582  1.00  0.00    -0.014 A 
BRANCH  11  12
ATOM     12  C   UNL A   1      40.557  27.997  29.493  1.00  0.00     0.031 A 
ATOM     13  C   UNL A   1      41.804  27.949  30.293  1.00  0.00     0.074 A 
ATOM     14  C   UNL A   1      39.723  29.060  29.489  1.00  0.00     0.049 A 
ATOM     15  N   UNL A   1      42.144  28.683  31.310  1.00  0.00    -0.248 NA
ATOM     16  C   UNL A   1      42.792  26.924  29.914  1.00  0.00     0.031 C 
ATOM     17  C   UNL A   1      38.561  29.237  28.597  1.00  0.00     0.029 A 
ATOM     18  N   UNL A   1      39.729  30.208  30.229  1.00  0.00    -0.354 N 
ATOM     19  C   UNL A   1      43.343  28.150  31.758  1.00  0.00     0.074 A 
ATOM     20  C   UNL A   1      43.684  27.050  30.884  1.00  0.00     0.031 C 
ATOM     21  C   UNL A   1      38.007  30.435  28.811  1.00  0.00     0.029 A 
ATOM     22  C   UNL A   1      38.657  31.029  29.961  1.00  0.00     0.049 A 
ATOM     23  H   UNL A   1      40.429  30.426  30.886  1.00  0.00     0.167 HD
ATOM     24  C   UNL A   1      44.049  28.542  32.841  1.00  0.00     0.031 A 
ATOM     25  C   UNL A   1      38.188  32.088  30.641  1.00  0.00     0.031 A 
ATOM     26  C   UNL A   1      43.623  29.642  33.662  1.00  0.00     0.049 A 
ATOM     27  C   UNL A   1      38.934  32.457  31.884  1.00  0.00     0.074 A 
ATOM     28  C   UNL A   1      44.189  30.131  34.822  1.00  0.00     0.029 A 
ATOM     29  N   UNL A   1      42.506  30.430  33.392  1.00  0.00    -0.354 N 
ATOM     30  N   UNL A   1      40.008  31.889  32.385  1.00  0.00    -0.248 NA
ATOM     31  C   UNL A   1      38.413  33.577  32.665  1.00  0.00     0.031 C 
ATOM     32  C   UNL A   1      43.379  31.176  35.281  1.00  0.00     0.029 A 
ATOM     33  C   UNL A   1      42.352  31.392  34.369  1.00  0.00     0.049 A 
ATOM     34  H   UNL A   1      41.910  30.316  32.615  1.00  0.00     0.167 HD
ATOM     35  C   UNL A   1      40.312  32.597  33.533  1.00  0.00     0.074 A 
ATOM     36  C   UNL A   1      39.304  33.640  33.647  1.00  0.00     0.031 C 
ATOM     37  C   UNL A   1      41.329  32.413  34.410  1.00  0.00     0.031 A 
BRANCH  24  38
ATOM     38  C   UNL A   1      45.222  27.687  33.230  1.00  0.00    -0.014 A 
ATOM     39  C   UNL A   1      45.064  26.382  33.733  1.00  0.00     0.010 A 
ATOM     40  C   UNL A   1      46.513  28.245  33.181  1.00  0.00     0.010 A 
ATOM     41  C   UNL A   1      46.161  25.687  34.254  1.00  0.00     0.020 A 
ATOM     42  C   UNL A   1      47.617  27.539  33.667  1.00  0.00     0.020 A 
ATOM     43  C   UNL A   1      47.427  26.277  34.229  1.00  0.00     0.054 A 
BRANCH  43  44
ATOM     44  S   UNL A   1      48.826  25.377  34.954  1.00  0.00     0.124 S 
ATOM     45  O   UNL A   1      48.728  25.750  36.362  1.00  0.00    -0.237 OA
ATOM     46  O   UNL A   1      48.502  23.984  34.650  1.00  0.00    -0.237 OA
ATOM     47  O   UNL A   1      49.987  25.911  34.247  1.00  0.00    -0.744 OA
ENDBRANCH  43  44
ENDBRANCH  24  38
BRANCH  25  48
ATOM     48  C   UNL A   1      36.927  32.749  30.203  1.00  0.00    -0.014 A 
ATOM     49  C   UNL A   1      35.718  32.516  30.877  1.00  0.00     0.010 A 
ATOM     50  C   UNL A   1      36.950  33.705  29.165  1.00  0.00     0.010 A 
ATOM     51  C   UNL A   1      34.562  33.226  30.527  1.00  0.00     0.020 A 
ATOM     52  C   UNL A   1      35.808  34.439  28.833  1.00  0.00     0.020 A 
ATOM     53  C   UNL A   1      34.616  34.189  29.514  1.00  0.00     0.054 A 
BRANCH  53  54
ATOM     54  S   UNL A   1      33.123  35.150  29.135  1.00  0.00     0.124 S 
ATOM     55  O   UNL A   1      32.463  35.209  30.436  1.00  0.00    -0.237 OA
ATOM     56  O   UNL A   1      33.675  36.411  28.647  1.00  0.00    -0.237 OA
ATOM     57  O   UNL A   1      32.441  34.344  28.125  1.00  0.00    -0.744 OA
ENDBRANCH  53  54
ENDBRANCH  25  48
BRANCH  37  58
ATOM     58  C   UNL A   1      41.438  33.405  35.527  1.00  0.00    -0.014 A 
ATOM     59  C   UNL A   1      42.141  34.609  35.366  1.00  0.00     0.010 A 
ATOM     60  C   UNL A   1      40.704  33.171  36.704  1.00  0.00     0.010 A 
ATOM     61  C   UNL A   1      42.099  35.575  36.371  1.00  0.00     0.020 A 
ATOM     62  C   UNL A   1      40.635  34.147  37.694  1.00  0.00     0.020 A 
ATOM     63  C   UNL A   1      41.333  35.344  37.519  1.00  0.00     0.054 A 
BRANCH  63  64
ATOM     64  S   UNL A   1      41.193  36.666  38.749  1.00  0.00     0.124 S 
ATOM     65  O   UNL A   1      41.261  35.921  40.004  1.00  0.00    -0.237 OA
ATOM     66  O   UNL A   1      42.352  37.503  38.449  1.00  0.00    -0.237 OA
ATOM     67  O   UNL A   1      39.898  37.276  38.455  1.00  0.00    -0.744 OA
ENDBRANCH  63  64
ENDBRANCH  37  58
ENDBRANCH  11  12
ENDBRANCH   4   6
ENDBRANCH   3   4
ENDBRANCH   2   3
ENDBRANCH   1   2
BRANCH   1  68
ATOM     68  O   UNL A   1      34.973  21.624  25.439  1.00  0.00    -0.374 OA
BRANCH  68  69
ATOM     69  C   UNL A   1      34.296  22.758  25.955  1.00  0.00     0.202 C 
BRANCH  69  70
ATOM     70  C   UNL A   1      33.711  23.733  24.943  1.00  0.00     0.261 C 
BRANCH  70  71
ATOM     71  O   UNL A   1      32.627  24.518  25.466  1.00  0.00    -0.460 OA
BRANCH  71  72
ATOM     72  C   UNL A   1      31.940  25.220  24.517  1.00  0.00     0.349 C 
ATOM     73  O   UNL A   1      32.322  25.378  23.363  1.00  0.00    -0.248 OA
BRANCH  72  74
ATOM     74  C   UNL A   1      30.689  25.889  25.101  1.00  0.00     0.302 C 
ATOM     75  C   UNL A   1      29.873  26.839  24.217  1.00  0.00     0.183 C 
ATOM     76  O   UNL A   1      30.947  26.455  26.375  1.00  0.00    -0.475 OA
ATOM     77  N   UNL A   1      30.245  28.263  24.202  1.00  0.00    -0.304 N 
ATOM     78  C   UNL A   1      31.489  27.712  26.282  1.00  0.00     0.144 A 
ATOM     79  C   UNL A   1      31.130  28.651  25.293  1.00  0.00     0.086 A 
ATOM     80  C   UNL A   1      32.395  28.018  27.306  1.00  0.00     0.049 A 
ATOM     81  C   UNL A   1      31.658  29.944  25.451  1.00  0.00     0.030 A 
ATOM     82  C   UNL A   1      32.947  29.289  27.397  1.00  0.00     0.004 A 
ATOM     83  C   UNL A   1      32.559  30.257  26.482  1.00  0.00     0.002 A 
BRANCH  77  84
ATOM     84  C   UNL A   1      29.878  29.148  23.171  1.00  0.00     0.230 C 
ATOM     85  O   UNL A   1      30.619  29.330  22.191  1.00  0.00    -0.274 OA
BRANCH  84  86
ATOM     86  C   UNL A   1      28.534  29.951  23.106  1.00  0.00     0.083 C 
ATOM     87  C   UNL A   1      28.403  31.330  23.764  1.00  0.00     0.040 C 
ATOM     88  C   UNL A   1      27.772  29.920  21.782  1.00  0.00     0.018 C 
ATOM     89  C   UNL A   1      28.673  32.468  22.831  1.00  0.00    -0.030 C 
ATOM     90  C   UNL A   1      28.090  31.074  20.832  1.00  0.00     0.028 C 
ATOM     91  C   UNL A   1      28.537  32.343  21.504  1.00  0.00    -0.031 C 
ENDBRANCH  84  86
ENDBRANCH  77  84
ENDBRANCH  72  74
ENDBRANCH  71  72
ENDBRANCH  70  71
ENDBRANCH  69  70
ENDBRANCH  68  69
ENDBRANCH   1  68
TORSDOF 19
ENDMDL
MODEL 2
REMARK VINA RESULT:     -10.9      1.393      2.626
REMARK SMILES O=C(OCCOCCOC(=O)[C@@H]1CN(C(=O)[C@H]2CC=CCC2)c2ccccc2O1)c1ccc(-c2c3nc(c(-c4ccc(S(=O)(=O)[O-])cc4)c4ccc([nH]4)c(-c4ccc(S(=O)(=O)[O-])cc4)c4nc(c(-c5ccc(S(=O)(=O)[O-])cc5)c5ccc2[nH]5)C=C4)C=C3)cc1
REMARK SMILES IDX 5 1 4 2 3 3 2 4 1 5 30 6 31 7 89 8 32 9 88 10 33 11 34 12
REMARK SMILES IDX 35 13 82 14 36 15 87 16 81 17 83 18 37 19 86 20 80 21 79 22
REMARK SMILES IDX 38 24 68 25 49 26 67 27 50 28 53 29 66 30 84 31 51 32 52 33
REMARK SMILES IDX 65 35 85 36 54 37 39 38 40 39 48 40 41 41 47 42 42 43 43 44
REMARK SMILES IDX 44 45 45 46 46 47 69 48 70 49 78 50 71 51 77 52 72 53 73 54
REMARK SMILES IDX 74 55 75 56 76 57 55 58 56 59 64 60 57 61 63 62 58 63 59 64
REMARK SMILES IDX 60 65 61 66 62 67 6 68 7 69 8 70 9 71 10 72 11 73 12 74
REMARK SMILES IDX 13 75 29 76 14 77 28 78 23 79 27 80 24 81 26 82 25 83 15 84
REMARK SMILES IDX 16 85 17 86 18 87 22 88 19 89 21 90 20 91
REMARK H PARENT 83 23 53 34
REMARK Flexibility Score: inf
ROOT
ATOM      1  C   UNL A   1      35.833  22.241  25.293  1.00  0.00     0.202 C 
ENDROOT
BRANCH   1   2
ATOM      2  C   UNL A   1      36.519  23.606  25.043  1.00  0.00     0.261 C 
BRANCH   2   3
ATOM      3  O   UNL A   1      37.962  23.702  24.958  1.00  0.00    -0.460 OA
BRANCH   3   4
ATOM      4  C   UNL A   1      38.784  23.367  26.004  1.00  0.00     0.338 C 
ATOM      5  O   UNL A   1      38.968  22.214  26.348  1.00  0.00    -0.246 OA
BRANCH   4   6
ATOM      6  C   UNL A   1      39.383  24.510  26.728  1.00  0.00     0.060 A 
ATOM      7  C   UNL A   1      39.137  24.588  28.084  1.00  0.00     0.016 A 
ATOM      8  C   UNL A   1      40.144  25.505  26.127  1.00  0.00     0.016 A 
ATOM      9  C   UNL A   1      39.252  25.760  28.762  1.00  0.00     0.010 A 
ATOM     10  C   UNL A   1      40.584  26.571  26.921  1.00  0.00     0.010 A 
ATOM     11  C   UNL A   1      40.116  26.696  28.242  1.00  0.00    -0.014 A 
BRANCH  11  12
ATOM     12  C   UNL A   1      40.538  27.742  29.179  1.00  0.00     0.031 A 
ATOM     13  C   UNL A   1      41.818  27.557  29.904  1.00  0.00     0.074 A 
ATOM     14  C   UNL A   1      39.796  28.868  29.264  1.00  0.00     0.049 A 
ATOM     15  N   UNL A   1      42.271  28.216  30.929  1.00  0.00    -0.248 NA
ATOM     16  C   UNL A   1      42.696  26.474  29.430  1.00  0.00     0.031 C 
ATOM     17  C   UNL A   1      38.608  29.178  28.446  1.00  0.00     0.029 A 
ATOM     18  N   UNL A   1      39.937  29.978  30.046  1.00  0.00    -0.354 N 
ATOM     19  C   UNL A   1      43.443  27.569  31.287  1.00  0.00     0.074 A 
ATOM     20  C   UNL A   1      43.645  26.484  30.353  1.00  0.00     0.031 C 
ATOM     21  C   UNL A   1      38.167  30.405  28.738  1.00  0.00     0.029 A 
ATOM     22  C   UNL A   1      38.925  30.893  29.872  1.00  0.00     0.049 A 
ATOM     23  H   UNL A   1      40.687  30.109  30.671  1.00  0.00     0.167 HD
ATOM     24  C   UNL A   1      44.236  27.855  32.343  1.00  0.00     0.031 A 
ATOM     25  C   UNL A   1      38.582  31.957  30.619  1.00  0.00     0.031 A 
ATOM     26  C   UNL A   1      43.948  28.948  33.229  1.00  0.00     0.049 A 
ATOM     27  C   UNL A   1      39.422  32.209  31.831  1.00  0.00     0.074 A 
ATOM     28  C   UNL A   1      44.612  29.338  34.373  1.00  0.00     0.029 A 
ATOM     29  N   UNL A   1      42.887  29.835  33.054  1.00  0.00    -0.354 N 
ATOM     30  N   UNL A   1      40.469  31.534  32.248  1.00  0.00    -0.248 NA
ATOM     31  C   UNL A   1      39.037  33.332  32.684  1.00  0.00     0.031 C 
ATOM     32  C   UNL A   1      43.918  30.424  34.918  1.00  0.00     0.029 A 
ATOM     33  C   UNL A   1      42.866  30.762  34.075  1.00  0.00     0.049 A 
ATOM     34  H   UNL A   1      42.243  29.804  32.308  1.00  0.00     0.167 HD
ATOM     35  C   UNL A   1      40.892  32.165  33.404  1.00  0.00     0.074 A 
ATOM     36  C   UNL A   1      39.982  33.279  33.616  1.00  0.00     0.031 C 
ATOM     37  C   UNL A   1      41.935  31.860  34.215  1.00  0.00     0.031 A 
BRANCH  24  38
ATOM     38  C   UNL A   1      45.353  26.891  32.631  1.00  0.00    -0.014 A 
ATOM     39  C   UNL A   1      45.191  25.794  33.498  1.00  0.00     0.010 A 
ATOM     40  C   UNL A   1      46.627  27.150  32.093  1.00  0.00     0.010 A 
ATOM     41  C   UNL A   1      46.297  25.028  33.884  1.00  0.00     0.020 A 
ATOM     42  C   UNL A   1      47.727  26.365  32.447  1.00  0.00     0.020 A 
ATOM     43  C   UNL A   1      47.559  25.328  33.366  1.00  0.00     0.054 A 
BRANCH  43  44
ATOM     44  S   UNL A   1      48.986  24.352  33.917  1.00  0.00     0.124 S 
ATOM     45  O   UNL A   1      49.539  25.196  34.973  1.00  0.00    -0.237 OA
ATOM     46  O   UNL A   1      48.367  23.108  34.368  1.00  0.00    -0.237 OA
ATOM     47  O   UNL A   1      49.811  24.235  32.718  1.00  0.00    -0.744 OA
ENDBRANCH  43  44
ENDBRANCH  24  38
BRANCH  25  48
ATOM     48  C   UNL A   1      37.359  32.736  30.279  1.00  0.00    -0.014 A 
ATOM     49  C   UNL A   1      37.396  33.749  29.308  1.00  0.00     0.010 A 
ATOM     50  C   UNL A   1      36.117  32.395  30.856  1.00  0.00     0.010 A 
ATOM     51  C   UNL A   1      36.218  34.400  28.917  1.00  0.00     0.020 A 
ATOM     52  C   UNL A   1      34.935  33.020  30.447  1.00  0.00     0.020 A 
ATOM     53  C   UNL A   1      34.995  34.026  29.482  1.00  0.00     0.054 A 
BRANCH  53  54
ATOM     54  S   UNL A   1      33.475  34.831  28.900  1.00  0.00     0.124 S 
ATOM     55  O   UNL A   1      33.962  36.153  28.517  1.00  0.00    -0.237 OA
ATOM     56  O   UNL A   1      33.061  33.965  27.800  1.00  0.00    -0.237 OA
ATOM     57  O   UNL A   1      32.600  34.802  30.070  1.00  0.00    -0.744 OA
ENDBRANCH  53  54
ENDBRANCH  25  48
BRANCH  37  58
ATOM     58  C   UNL A   1      42.185  32.790  35.362  1.00  0.00    -0.014 A 
ATOM     59  C   UNL A   1      42.944  33.960  35.199  1.00  0.00     0.010 A 
ATOM     60  C   UNL A   1      41.529  32.542  36.580  1.00  0.00     0.010 A 
ATOM     61  C   UNL A   1      43.034  34.877  36.246  1.00  0.00     0.020 A 
ATOM     62  C   UNL A   1      41.591  33.471  37.614  1.00  0.00     0.020 A 
ATOM     63  C   UNL A   1      42.344  34.634  37.438  1.00  0.00     0.054 A 
BRANCH  63  64
ATOM     64  S   UNL A   1      42.374  35.902  38.732  1.00  0.00     0.124 S 
ATOM     65  O   UNL A   1      41.876  37.075  38.018  1.00  0.00    -0.237 OA
ATOM     66  O   UNL A   1      41.474  35.348  39.740  1.00  0.00    -0.237 OA
ATOM     67  O   UNL A   1      43.780  35.962  39.125  1.00  0.00    -0.744 OA
ENDBRANCH  63  64
ENDBRANCH  37  58
ENDBRANCH  11  12
ENDBRANCH   4   6
ENDBRANCH   3   4
ENDBRANCH   2   3
ENDBRANCH   1   2
BRANCH   1  68
ATOM     68  O   UNL A   1      34.530  22.115  25.844  1.00  0.00    -0.374 OA
BRANCH  68  69
ATOM     69  C   UNL A   1      34.206  22.711  27.090  1.00  0.00     0.202 C 
BRANCH  69  70
ATOM     70  C   UNL A   1      32.730  22.921  27.393  1.00  0.00     0.261 C 
BRANCH  70  71
ATOM     71  O   UNL A   1      32.261  24.239  27.067  1.00  0.00    -0.460 OA
BRANCH  71  72
ATOM     72  C   UNL A   1      31.182  24.256  26.229  1.00  0.00     0.349 C 
ATOM     73  O   UNL A   1      30.022  24.103  26.594  1.00  0.00    -0.248 OA
BRANCH  72  74
ATOM     74  C   UNL A   1      31.607  24.369  24.760  1.00  0.00     0.302 C 
ATOM     75  C   UNL A   1      32.786  25.277  24.394  1.00  0.00     0.183 C 
ATOM     76  O   UNL A   1      30.493  24.593  23.910  1.00  0.00    -0.475 OA
ATOM     77  N   UNL A   1      32.506  26.690  24.096  1.00  0.00    -0.304 N 
ATOM     78  C   UNL A   1      30.156  25.921  23.841  1.00  0.00     0.144 A 
ATOM     79  C   UNL A   1      31.097  26.972  23.852  1.00  0.00     0.086 A 
ATOM     80  C   UNL A   1      28.783  26.152  23.686  1.00  0.00     0.049 A 
ATOM     81  C   UNL A   1      30.587  28.257  23.602  1.00  0.00     0.030 A 
ATOM     82  C   UNL A   1      28.306  27.443  23.501  1.00  0.00     0.004 A 
ATOM     83  C   UNL A   1      29.212  28.491  23.437  1.00  0.00     0.002 A 
BRANCH  77  84
ATOM     84  C   UNL A   1      33.484  27.702  24.151  1.00  0.00     0.230 C 
ATOM     85  O   UNL A   1      34.134  28.016  23.140  1.00  0.00    -0.274 OA
BRANCH  84  86
ATOM     86  C   UNL A   1      33.837  28.549  25.420  1.00  0.00     0.083 C 
ATOM     87  C   UNL A   1      33.413  30.018  25.534  1.00  0.00     0.040 C 
ATOM     88  C   UNL A   1      33.712  27.852  26.774  1.00  0.00     0.018 C 
ATOM     89  C   UNL A   1      32.112  30.212  26.247  1.00  0.00    -0.030 C 
ATOM     90  C   UNL A   1      32.362  28.038  27.467  1.00  0.00     0.028 C 
ATOM     91  C   UNL A   1      31.639  29.308  27.116  1.00  0.00    -0.031 C 
ENDBRANCH  84  86
ENDBRANCH  77  84
ENDBRANCH  72  74
ENDBRANCH  71  72
ENDBRANCH  70  71
ENDBRANCH  69  70
ENDBRANCH  68  69
ENDBRANCH   1  68
TORSDOF 19
ENDMDL
MODEL 3
REMARK VINA RESULT:     -10.7      2.487      8.719
REMARK SMILES O=C(OCCOCCOC(=O)[C@@H]1CN(C(=O)[C@H]2CC=CCC2)c2ccccc2O1)c1ccc(-c2c3nc(c(-c4ccc(S(=O)(=O)[O-])cc4)c4ccc([nH]4)c(-c4ccc(S(=O)(=O)[O-])cc4)c4nc(c(-c5ccc(S(=O)(=O)[O-])cc5)c5ccc2[nH]5)C=C4)C=C3)cc1
REMARK SMILES IDX 5 1 4 2 3 3 2 4 1 5 30 6 31 7 89 8 32 9 88 10 33 11 34 12
REMARK SMILES IDX 35 13 82 14 36 15 87 16 81 17 83 18 37 19 86 20 80 21 79 22
REMARK SMILES IDX 38 24 68 25 49 26 67 27 50 28 53 29 66 30 84 31 51 32 52 33
REMARK SMILES IDX 65 35 85 36 54 37 39 38 40 39 48 40 41 41 47 42 42 43 43 44
REMARK SMILES IDX 44 45 45 46 46 47 69 48 70 49 78 50 71 51 77 52 72 53 73 54
REMARK SMILES IDX 74 55 75 56 76 57 55 58 56 59 64 60 57 61 63 62 58 63 59 64
REMARK SMILES IDX 60 65 61 66 62 67 6 68 7 69 8 70 9 71 10 72 11 73 12 74
REMARK SMILES IDX 13 75 29 76 14 77 28 78 23 79 27 80 24 81 26 82 25 83 15 84
REMARK SMILES IDX 16 85 17 86 18 87 22 88 19 89 21 90 20 91
REMARK H PARENT 83 23 53 34
REMARK Flexibility Score: inf
ROOT
ATOM      1  C   UNL A   1      36.032  21.510  25.017  1.00  0.00     0.202 C 
ENDROOT
BRANCH   1   2
ATOM      2  C   UNL A   1      36.394  22.785  25.816  1.00  0.00     0.261 C 
BRANCH   2   3
ATOM      3  O   UNL A   1      37.595  23.533  25.509  1.00  0.00    -0.460 OA
BRANCH   3   4
ATOM      4  C   UNL A   1      38.790  23.298  26.142  1.00  0.00     0.338 C 
ATOM      5  O   UNL A   1      39.291  22.191  26.205  1.00  0.00    -0.246 OA
BRANCH   4   6
ATOM      6  C   UNL A   1      39.396  24.475  26.804  1.00  0.00     0.060 A 
ATOM      7  C   UNL A   1      39.195  24.600  28.163  1.00  0.00     0.016 A 
ATOM      8  C   UNL A   1      40.122  25.457  26.140  1.00  0.00     0.016 A 
ATOM      9  C   UNL A   1      39.316  25.797  28.794  1.00  0.00     0.010 A 
ATOM     10  C   UNL A   1      40.573  26.557  26.880  1.00  0.00     0.010 A 
ATOM     11  C   UNL A   1      40.149  26.724  28.211  1.00  0.00    -0.014 A 
BRANCH  11  12
ATOM     12  C   UNL A   1      40.588  27.810  29.093  1.00  0.00     0.031 A 
ATOM     13  C   UNL A   1      39.638  28.913  29.372  1.00  0.00     0.074 A 
ATOM     14  C   UNL A   1      41.795  27.706  29.690  1.00  0.00     0.049 A 
ATOM     15  N   UNL A   1      39.875  30.068  29.919  1.00  0.00    -0.248 NA
ATOM     16  C   UNL A   1      38.239  28.700  28.962  1.00  0.00     0.031 C 
ATOM     17  C   UNL A   1      42.712  26.555  29.581  1.00  0.00     0.029 A 
ATOM     18  N   UNL A   1      42.457  28.555  30.530  1.00  0.00    -0.354 N 
ATOM     19  C   UNL A   1      38.678  30.762  29.834  1.00  0.00     0.074 A 
ATOM     20  C   UNL A   1      37.710  29.888  29.210  1.00  0.00     0.031 C 
ATOM     21  C   UNL A   1      43.780  26.753  30.359  1.00  0.00     0.029 A 
ATOM     22  C   UNL A   1      43.709  28.104  30.878  1.00  0.00     0.049 A 
ATOM     23  H   UNL A   1      42.076  29.404  30.854  1.00  0.00     0.167 HD
ATOM     24  C   UNL A   1      38.454  32.039  30.213  1.00  0.00     0.031 A 
ATOM     25  C   UNL A   1      44.732  28.753  31.460  1.00  0.00     0.031 A 
ATOM     26  C   UNL A   1      39.484  32.840  30.816  1.00  0.00     0.049 A 
ATOM     27  C   UNL A   1      44.493  30.190  31.797  1.00  0.00     0.074 A 
ATOM     28  C   UNL A   1      39.442  34.163  31.204  1.00  0.00     0.029 A 
ATOM     29  N   UNL A   1      40.762  32.369  31.116  1.00  0.00    -0.354 N 
ATOM     30  N   UNL A   1      43.399  30.896  31.618  1.00  0.00    -0.248 NA
ATOM     31  C   UNL A   1      45.609  30.930  32.388  1.00  0.00     0.031 C 
ATOM     32  C   UNL A   1      40.710  34.505  31.686  1.00  0.00     0.029 A 
ATOM     33  C   UNL A   1      41.523  33.377  31.671  1.00  0.00     0.049 A 
ATOM     34  H   UNL A   1      41.076  31.449  30.956  1.00  0.00     0.167 HD
ATOM     35  C   UNL A   1      43.681  32.163  32.097  1.00  0.00     0.074 A 
ATOM     36  C   UNL A   1      45.054  32.121  32.576  1.00  0.00     0.031 C 
ATOM     37  C   UNL A   1      42.885  33.259  32.143  1.00  0.00     0.031 A 
BRANCH  24  38
ATOM     38  C   UNL A   1      37.121  32.630  29.847  1.00  0.00    -0.014 A 
ATOM     39  C   UNL A   1      36.888  33.239  28.600  1.00  0.00     0.010 A 
ATOM     40  C   UNL A   1      36.105  32.662  30.820  1.00  0.00     0.010 A 
ATOM     41  C   UNL A   1      35.699  33.937  28.364  1.00  0.00     0.020 A 
ATOM     42  C   UNL A   1      34.900  33.327  30.575  1.00  0.00     0.020 A 
ATOM     43  C   UNL A   1      34.719  33.987  29.359  1.00  0.00     0.054 A 
BRANCH  43  44
ATOM     44  S   UNL A   1      33.205  34.937  29.049  1.00  0.00     0.124 S 
ATOM     45  O   UNL A   1      32.577  34.943  30.368  1.00  0.00    -0.237 OA
ATOM     46  O   UNL A   1      33.724  36.226  28.595  1.00  0.00    -0.237 OA
ATOM     47  O   UNL A   1      32.507  34.157  28.031  1.00  0.00    -0.744 OA
ENDBRANCH  43  44
ENDBRANCH  24  38
BRANCH  25  48
ATOM     48  C   UNL A   1      46.043  28.067  31.630  1.00  0.00    -0.014 A 
ATOM     49  C   UNL A   1      46.995  28.063  30.598  1.00  0.00     0.010 A 
ATOM     50  C   UNL A   1      46.390  27.498  32.875  1.00  0.00     0.010 A 
ATOM     51  C   UNL A   1      48.266  27.512  30.808  1.00  0.00     0.020 A 
ATOM     52  C   UNL A   1      47.667  26.975  33.098  1.00  0.00     0.020 A 
ATOM     53  C   UNL A   1      48.597  26.979  32.058  1.00  0.00     0.054 A 
BRANCH  53  54
ATOM     54  S   UNL A   1      50.276  26.343  32.325  1.00  0.00     0.124 S 
ATOM     55  O   UNL A   1      50.172  24.986  31.798  1.00  0.00    -0.237 OA
ATOM     56  O   UNL A   1      51.091  27.266  31.540  1.00  0.00    -0.237 OA
ATOM     57  O   UNL A   1      50.456  26.440  33.772  1.00  0.00    -0.744 OA
ENDBRANCH  53  54
ENDBRANCH  25  48
BRANCH  37  58
ATOM     58  C   UNL A   1      43.459  34.477  32.799  1.00  0.00    -0.014 A 
ATOM     59  C   UNL A   1      44.054  35.499  32.044  1.00  0.00     0.010 A 
ATOM     60  C   UNL A   1      43.270  34.645  34.182  1.00  0.00     0.010 A 
ATOM     61  C   UNL A   1      44.445  36.683  32.668  1.00  0.00     0.020 A 
ATOM     62  C   UNL A   1      43.630  35.838  34.801  1.00  0.00     0.020 A 
ATOM     63  C   UNL A   1      44.215  36.850  34.037  1.00  0.00     0.054 A 
BRANCH  63  64
ATOM     64  S   UNL A   1      44.614  38.446  34.796  1.00  0.00     0.124 S 
ATOM     65  O   UNL A   1      44.244  38.219  36.191  1.00  0.00    -0.237 OA
ATOM     66  O   UNL A   1      46.046  38.571  34.536  1.00  0.00    -0.237 OA
ATOM     67  O   UNL A   1      43.770  39.394  34.073  1.00  0.00    -0.744 OA
ENDBRANCH  63  64
ENDBRANCH  37  58
ENDBRANCH  11  12
ENDBRANCH   4   6
ENDBRANCH   3   4
ENDBRANCH   2   3
ENDBRANCH   1   2
BRANCH   1  68
ATOM     68  O   UNL A   1      34.756  21.297  24.429  1.00  0.00    -0.374 OA
BRANCH  68  69
ATOM     69  C   UNL A   1      33.957  22.391  24.009  1.00  0.00     0.202 C 
BRANCH  69  70
ATOM     70  C   UNL A   1      34.434  23.167  22.789  1.00  0.00     0.261 C 
BRANCH  70  71
ATOM     71  O   UNL A   1      33.891  24.494  22.707  1.00  0.00    -0.460 OA
BRANCH  71  72
ATOM     72  C   UNL A   1      33.045  24.685  21.652  1.00  0.00     0.349 C 
ATOM     73  O   UNL A   1      33.256  24.281  20.515  1.00  0.00    -0.248 OA
BRANCH  72  74
ATOM     74  C   UNL A   1      31.853  25.572  22.034  1.00  0.00     0.302 C 
ATOM     75  C   UNL A   1      32.119  26.947  22.658  1.00  0.00     0.183 C 
ATOM     76  O   UNL A   1      30.877  24.848  22.766  1.00  0.00    -0.475 OA
ATOM     77  N   UNL A   1      32.250  27.031  24.121  1.00  0.00    -0.304 N 
ATOM     78  C   UNL A   1      31.173  24.790  24.104  1.00  0.00     0.144 A 
ATOM     79  C   UNL A   1      31.769  25.847  24.823  1.00  0.00     0.086 A 
ATOM     80  C   UNL A   1      30.766  23.602  24.726  1.00  0.00     0.049 A 
ATOM     81  C   UNL A   1      31.843  25.679  26.216  1.00  0.00     0.030 A 
ATOM     82  C   UNL A   1      30.909  23.445  26.098  1.00  0.00     0.004 A 
ATOM     83  C   UNL A   1      31.427  24.494  26.844  1.00  0.00     0.002 A 
BRANCH  77  84
ATOM     84  C   UNL A   1      32.881  28.101  24.782  1.00  0.00     0.230 C 
ATOM     85  O   UNL A   1      33.454  28.998  24.142  1.00  0.00    -0.274 OA
BRANCH  84  86
ATOM     86  C   UNL A   1      32.910  28.314  26.334  1.00  0.00     0.083 C 
ATOM     87  C   UNL A   1      34.238  28.422  27.093  1.00  0.00     0.040 C 
ATOM     88  C   UNL A   1      31.882  29.280  26.920  1.00  0.00     0.018 C 
ATOM     89  C   UNL A   1      34.705  29.829  27.286  1.00  0.00    -0.030 C 
ATOM     90  C   UNL A   1      32.373  30.719  27.075  1.00  0.00     0.028 C 
ATOM     91  C   UNL A   1      33.856  30.866  27.269  1.00  0.00    -0.031 C 
ENDBRANCH  84  86
ENDBRANCH  77  84
ENDBRANCH  72  74
ENDBRANCH  71  72
ENDBRANCH  70  71
ENDBRANCH  69  70
ENDBRANCH  68  69
ENDBRANCH   1  68
TORSDOF 19
ENDMDL
