MODEL 1
REMARK VINA RESULT:      -7.5      0.000      0.000
REMARK SMILES O=C(OCCOCCOC(=O)c1ccc(C[NH2+][C@@H]2CCCC[C@H]2O)nc1)c1ccc(-c2c3nc(c(-c4ccc(S(=O)(=O)[O-])cc4)c4ccc([nH]4)c(-c4ccc(S(=O)(=O)[O-])cc4)c4nc(c(-c5ccc(S(=O)(=O)[O-])cc5)c5ccc2[nH]5)C=C4)C=C3)cc1
REMARK SMILES IDX 7 1 6 2 5 3 4 4 3 5 2 6 1 7 27 8 28 9 86 10 29 11 85 12
REMARK SMILES IDX 30 13 31 14 32 15 79 16 33 17 84 18 78 19 80 20 34 21 83 22
REMARK SMILES IDX 77 23 76 24 35 26 65 27 46 28 64 29 47 30 50 31 63 32 81 33
REMARK SMILES IDX 48 34 49 35 62 37 82 38 51 39 36 40 37 41 45 42 38 43 44 44
REMARK SMILES IDX 39 45 40 46 41 47 42 48 43 49 66 50 67 51 75 52 68 53 74 54
REMARK SMILES IDX 69 55 70 56 71 57 72 58 73 59 52 60 53 61 61 62 54 63 60 64
REMARK SMILES IDX 55 65 56 66 57 67 58 68 59 69 8 70 9 71 10 72 11 73 12 74
REMARK SMILES IDX 13 75 26 76 14 77 25 78 15 79 16 80 17 81 18 84 19 85 23 86
REMARK SMILES IDX 20 87 22 88 21 89 24 90
REMARK H PARENT 80 25 50 36 17 82 17 83 24 91
REMARK Flexibility Score: inf
ROOT
ATOM      1  C   UNL A   1      35.322  33.546  32.872  1.00  0.00     0.202 C 
ENDROOT
BRANCH   1   2
ATOM      2  O   UNL A   1      35.270  34.728  32.063  1.00  0.00    -0.374 OA
BRANCH   2   3
ATOM      3  C   UNL A   1      33.975  35.118  31.601  1.00  0.00     0.202 C 
BRANCH   3   4
ATOM      4  C   UNL A   1      33.717  34.887  30.107  1.00  0.00     0.261 C 
BRANCH   4   5
ATOM      5  O   UNL A   1      33.924  33.504  29.763  1.00  0.00    -0.460 OA
BRANCH   5   6
ATOM      6  C   UNL A   1      34.824  32.978  28.897  1.00  0.00     0.338 C 
ATOM      7  O   UNL A   1      34.524  32.912  27.705  1.00  0.00    -0.246 OA
BRANCH   6   8
ATOM      8  C   UNL A   1      36.159  32.455  29.316  1.00  0.00     0.060 A 
ATOM      9  C   UNL A   1      36.346  31.295  30.065  1.00  0.00     0.016 A 
ATOM     10  C   UNL A   1      37.302  33.125  28.848  1.00  0.00     0.016 A 
ATOM     11  C   UNL A   1      37.608  30.857  30.423  1.00  0.00     0.010 A 
ATOM     12  C   UNL A   1      38.586  32.653  29.148  1.00  0.00     0.010 A 
ATOM     13  C   UNL A   1      38.737  31.522  29.956  1.00  0.00    -0.014 A 
BRANCH  13  14
ATOM     14  C   UNL A   1      40.043  31.017  30.416  1.00  0.00     0.031 A 
ATOM     15  C   UNL A   1      40.701  31.690  31.579  1.00  0.00     0.074 A 
ATOM     16  C   UNL A   1      40.504  29.857  29.909  1.00  0.00     0.049 A 
ATOM     17  N   UNL A   1      41.812  31.379  32.187  1.00  0.00    -0.248 NA
ATOM     18  C   UNL A   1      40.005  32.856  32.151  1.00  0.00     0.031 C 
ATOM     19  C   UNL A   1      39.843  29.076  28.855  1.00  0.00     0.029 A 
ATOM     20  N   UNL A   1      41.593  29.100  30.245  1.00  0.00    -0.354 N 
ATOM     21  C   UNL A   1      41.955  32.312  33.205  1.00  0.00     0.074 A 
ATOM     22  C   UNL A   1      40.830  33.214  33.124  1.00  0.00     0.031 C 
ATOM     23  C   UNL A   1      40.519  27.933  28.664  1.00  0.00     0.029 A 
ATOM     24  C   UNL A   1      41.696  27.933  29.524  1.00  0.00     0.049 A 
ATOM     25  H   UNL A   1      42.242  29.366  30.936  1.00  0.00     0.167 HD
ATOM     26  C   UNL A   1      42.944  32.401  34.124  1.00  0.00     0.031 A 
ATOM     27  C   UNL A   1      42.655  26.988  29.540  1.00  0.00     0.031 A 
ATOM     28  C   UNL A   1      44.061  31.498  34.163  1.00  0.00     0.049 A 
ATOM     29  C   UNL A   1      43.799  27.174  30.499  1.00  0.00     0.074 A 
ATOM     30  C   UNL A   1      45.180  31.539  34.973  1.00  0.00     0.029 A 
ATOM     31  N   UNL A   1      44.191  30.380  33.349  1.00  0.00    -0.354 N 
ATOM     32  N   UNL A   1      43.971  28.116  31.400  1.00  0.00    -0.248 NA
ATOM     33  C   UNL A   1      44.880  26.185  30.442  1.00  0.00     0.031 C 
ATOM     34  C   UNL A   1      46.008  30.467  34.618  1.00  0.00     0.029 A 
ATOM     35  C   UNL A   1      45.376  29.726  33.628  1.00  0.00     0.049 A 
ATOM     36  H   UNL A   1      43.535  30.095  32.673  1.00  0.00     0.167 HD
ATOM     37  C   UNL A   1      45.177  27.828  32.023  1.00  0.00     0.074 A 
ATOM     38  C   UNL A   1      45.673  26.605  31.418  1.00  0.00     0.031 C 
ATOM     39  C   UNL A   1      45.829  28.511  32.997  1.00  0.00     0.031 A 
BRANCH  26  40
ATOM     40  C   UNL A   1      42.876  33.546  35.096  1.00  0.00    -0.014 A 
ATOM     41  C   UNL A   1      43.582  34.743  34.868  1.00  0.00     0.010 A 
ATOM     42  C   UNL A   1      42.112  33.417  36.269  1.00  0.00     0.010 A 
ATOM     43  C   UNL A   1      43.554  35.772  35.815  1.00  0.00     0.020 A 
ATOM     44  C   UNL A   1      42.063  34.452  37.207  1.00  0.00     0.020 A 
ATOM     45  C   UNL A   1      42.798  35.617  36.981  1.00  0.00     0.054 A 
BRANCH  45  46
ATOM     46  S   UNL A   1      42.777  36.969  38.191  1.00  0.00     0.124 S 
ATOM     47  O   UNL A   1      43.584  36.416  39.275  1.00  0.00    -0.237 OA
ATOM     48  O   UNL A   1      43.387  38.070  37.452  1.00  0.00    -0.237 OA
ATOM     49  O   UNL A   1      41.358  37.138  38.498  1.00  0.00    -0.744 OA
ENDBRANCH  45  46
ENDBRANCH  26  40
BRANCH  27  50
ATOM     50  C   UNL A   1      42.617  25.852  28.573  1.00  0.00    -0.014 A 
ATOM     51  C   UNL A   1      41.941  24.656  28.864  1.00  0.00     0.010 A 
ATOM     52  C   UNL A   1      43.295  25.963  27.343  1.00  0.00     0.010 A 
ATOM     53  C   UNL A   1      41.971  23.584  27.962  1.00  0.00     0.020 A 
ATOM     54  C   UNL A   1      43.299  24.911  26.424  1.00  0.00     0.020 A 
ATOM     55  C   UNL A   1      42.654  23.718  26.749  1.00  0.00     0.054 A 
BRANCH  55  56
ATOM     56  S   UNL A   1      42.680  22.323  25.587  1.00  0.00     0.124 S 
ATOM     57  O   UNL A   1      41.313  21.822  25.686  1.00  0.00    -0.237 OA
ATOM     58  O   UNL A   1      43.029  22.968  24.324  1.00  0.00    -0.237 OA
ATOM     59  O   UNL A   1      43.711  21.443  26.134  1.00  0.00    -0.744 OA
ENDBRANCH  55  56
ENDBRANCH  27  50
BRANCH  39  60
ATOM     60  C   UNL A   1      47.128  27.928  33.476  1.00  0.00    -0.014 A 
ATOM     61  C   UNL A   1      47.160  26.996  34.528  1.00  0.00     0.010 A 
ATOM     62  C   UNL A   1      48.325  28.289  32.833  1.00  0.00     0.010 A 
ATOM     63  C   UNL A   1      48.378  26.466  34.957  1.00  0.00     0.020 A 
ATOM     64  C   UNL A   1      49.540  27.737  33.238  1.00  0.00     0.020 A 
ATOM     65  C   UNL A   1      49.560  26.842  34.311  1.00  0.00     0.054 A 
BRANCH  65  66
ATOM     66  S   UNL A   1      51.125  26.114  34.863  1.00  0.00     0.124 S 
ATOM     67  O   UNL A   1      50.764  24.708  35.025  1.00  0.00    -0.237 OA
ATOM     68  O   UNL A   1      52.026  26.408  33.752  1.00  0.00    -0.237 OA
ATOM     69  O   UNL A   1      51.420  26.829  36.103  1.00  0.00    -0.744 OA
ENDBRANCH  65  66
ENDBRANCH  39  60
ENDBRANCH  13  14
ENDBRANCH   6   8
ENDBRANCH   5   6
ENDBRANCH   4   5
ENDBRANCH   3   4
ENDBRANCH   2   3
ENDBRANCH   1   2
BRANCH   1  70
ATOM     70  C   UNL A   1      36.605  33.554  33.710  1.00  0.00     0.261 C 
BRANCH  70  71
ATOM     71  O   UNL A   1      36.925  32.195  34.044  1.00  0.00    -0.460 OA
BRANCH  71  72
ATOM     72  C   UNL A   1      37.595  32.056  35.221  1.00  0.00     0.339 C 
ATOM     73  O   UNL A   1      37.333  32.556  36.291  1.00  0.00    -0.246 OA
BRANCH  72  74
ATOM     74  C   UNL A   1      38.587  30.986  35.031  1.00  0.00     0.078 A 
ATOM     75  C   UNL A   1      39.727  30.858  35.823  1.00  0.00     0.019 A 
ATOM     76  C   UNL A   1      38.426  30.132  33.954  1.00  0.00     0.127 A 
ATOM     77  C   UNL A   1      40.668  29.885  35.502  1.00  0.00     0.031 A 
ATOM     78  N   UNL A   1      39.327  29.177  33.624  1.00  0.00    -0.254 NA
ATOM     79  C   UNL A   1      40.436  29.060  34.402  1.00  0.00     0.094 A 
BRANCH  79  80
ATOM     80  C   UNL A   1      41.461  27.998  34.035  1.00  0.00     0.318 C 
BRANCH  80  81
ATOM     81  N   UNL A   1      41.240  26.748  34.759  1.00  0.00    -0.337 N 
ATOM     82  H   UNL A   1      41.203  25.993  34.074  1.00  0.00     0.346 HD
ATOM     83  H   UNL A   1      40.374  26.877  35.280  1.00  0.00     0.346 HD
BRANCH  81  84
ATOM     84  C   UNL A   1      42.257  26.405  35.753  1.00  0.00     0.211 C 
ATOM     85  C   UNL A   1      43.663  26.233  35.146  1.00  0.00     0.068 C 
ATOM     86  C   UNL A   1      41.844  25.086  36.459  1.00  0.00     0.172 C 
ATOM     87  C   UNL A   1      43.727  25.061  34.168  1.00  0.00     0.006 C 
ATOM     88  C   UNL A   1      41.904  23.890  35.501  1.00  0.00     0.038 C 
ATOM     89  C   UNL A   1      43.267  23.759  34.819  1.00  0.00     0.003 C 
BRANCH  86  90
ATOM     90  O   UNL A   1      42.703  24.828  37.576  1.00  0.00    -0.387 OA
ATOM     91  H   UNL A   1      43.236  24.037  37.397  1.00  0.00     0.211 HD
ENDBRANCH  86  90
ENDBRANCH  81  84
ENDBRANCH  80  81
ENDBRANCH  79  80
ENDBRANCH  72  74
ENDBRANCH  71  72
ENDBRANCH  70  71
ENDBRANCH   1  70
TORSDOF 21
ENDMDL
MODEL 2
REMARK VINA RESULT:      -7.5      4.888     11.556
REMARK SMILES O=C(OCCOCCOC(=O)c1ccc(C[NH2+][C@@H]2CCCC[C@H]2O)nc1)c1ccc(-c2c3nc(c(-c4ccc(S(=O)(=O)[O-])cc4)c4ccc([nH]4)c(-c4ccc(S(=O)(=O)[O-])cc4)c4nc(c(-c5ccc(S(=O)(=O)[O-])cc5)c5ccc2[nH]5)C=C4)C=C3)cc1
REMARK SMILES IDX 7 1 6 2 5 3 4 4 3 5 2 6 1 7 27 8 28 9 86 10 29 11 85 12
REMARK SMILES IDX 30 13 31 14 32 15 79 16 33 17 84 18 78 19 80 20 34 21 83 22
REMARK SMILES IDX 77 23 76 24 35 26 65 27 46 28 64 29 47 30 50 31 63 32 81 33
REMARK SMILES IDX 48 34 49 35 62 37 82 38 51 39 36 40 37 41 45 42 38 43 44 44
REMARK SMILES IDX 39 45 40 46 41 47 42 48 43 49 66 50 67 51 75 52 68 53 74 54
REMARK SMILES IDX 69 55 70 56 71 57 72 58 73 59 52 60 53 61 61 62 54 63 60 64
REMARK SMILES IDX 55 65 56 66 57 67 58 68 59 69 8 70 9 71 10 72 11 73 12 74
REMARK SMILES IDX 13 75 26 76 14 77 25 78 15 79 16 80 17 81 18 84 19 85 23 86
REMARK SMILES IDX 20 87 22 88 21 89 24 90
REMARK H PARENT 80 25 50 36 17 82 17 83 24 91
REMARK Flexibility Score: inf
ROOT
ATOM      1  C   UNL A   1      41.819  21.527  26.217  1.00  0.00     0.202 C 
ENDROOT
BRANCH   1   2
ATOM      2  O   UNL A   1      42.697  22.249  25.344  1.00  0.00    -0.374 OA
BRANCH   2   3
ATOM      3  C   UNL A   1      43.532  23.230  25.962  1.00  0.00     0.202 C 
BRANCH   3   4
ATOM      4  C   UNL A   1      44.059  24.325  25.026  1.00  0.00     0.261 C 
BRANCH   4   5
ATOM      5  O   UNL A   1      43.493  25.604  25.370  1.00  0.00    -0.460 OA
BRANCH   5   6
ATOM      6  C   UNL A   1      42.237  25.880  25.801  1.00  0.00     0.338 C 
ATOM      7  O   UNL A   1      41.285  25.500  25.120  1.00  0.00    -0.246 OA
BRANCH   6   8
ATOM      8  C   UNL A   1      41.946  26.640  27.054  1.00  0.00     0.060 A 
ATOM      9  C   UNL A   1      40.839  26.412  27.868  1.00  0.00     0.016 A 
ATOM     10  C   UNL A   1      42.898  27.580  27.486  1.00  0.00     0.016 A 
ATOM     11  C   UNL A   1      40.622  27.147  29.020  1.00  0.00     0.010 A 
ATOM     12  C   UNL A   1      42.721  28.281  28.685  1.00  0.00     0.010 A 
ATOM     13  C   UNL A   1      41.567  28.075  29.445  1.00  0.00    -0.014 A 
BRANCH  13  14
ATOM     14  C   UNL A   1      41.242  28.845  30.659  1.00  0.00     0.031 A 
ATOM     15  C   UNL A   1      42.176  28.770  31.826  1.00  0.00     0.074 A 
ATOM     16  C   UNL A   1      40.232  29.736  30.610  1.00  0.00     0.049 A 
ATOM     17  N   UNL A   1      42.122  29.406  32.964  1.00  0.00    -0.248 NA
ATOM     18  C   UNL A   1      43.341  27.878  31.687  1.00  0.00     0.031 C 
ATOM     19  C   UNL A   1      39.355  29.954  29.452  1.00  0.00     0.029 A 
ATOM     20  N   UNL A   1      39.808  30.663  31.523  1.00  0.00    -0.354 N 
ATOM     21  C   UNL A   1      43.235  28.986  33.679  1.00  0.00     0.074 A 
ATOM     22  C   UNL A   1      43.938  28.027  32.859  1.00  0.00     0.031 C 
ATOM     23  C   UNL A   1      38.529  30.978  29.712  1.00  0.00     0.029 A 
ATOM     24  C   UNL A   1      38.765  31.439  31.074  1.00  0.00     0.049 A 
ATOM     25  H   UNL A   1      40.211  30.765  32.415  1.00  0.00     0.167 HD
ATOM     26  C   UNL A   1      43.630  29.373  34.914  1.00  0.00     0.031 A 
ATOM     27  C   UNL A   1      38.061  32.395  31.710  1.00  0.00     0.031 A 
ATOM     28  C   UNL A   1      42.894  30.315  35.712  1.00  0.00     0.049 A 
ATOM     29  C   UNL A   1      38.457  32.726  33.124  1.00  0.00     0.074 A 
ATOM     30  C   UNL A   1      43.125  30.714  37.014  1.00  0.00     0.029 A 
ATOM     31  N   UNL A   1      41.777  31.012  35.268  1.00  0.00    -0.354 N 
ATOM     32  N   UNL A   1      39.462  32.253  33.827  1.00  0.00    -0.248 NA
ATOM     33  C   UNL A   1      37.627  33.703  33.834  1.00  0.00     0.031 C 
ATOM     34  C   UNL A   1      42.120  31.621  37.372  1.00  0.00     0.029 A 
ATOM     35  C   UNL A   1      41.299  31.831  36.273  1.00  0.00     0.049 A 
ATOM     36  H   UNL A   1      41.383  30.933  34.369  1.00  0.00     0.167 HD
ATOM     37  C   UNL A   1      39.389  32.883  35.062  1.00  0.00     0.074 A 
ATOM     38  C   UNL A   1      38.261  33.794  34.994  1.00  0.00     0.031 C 
ATOM     39  C   UNL A   1      40.169  32.721  36.159  1.00  0.00     0.031 A 
BRANCH  26  40
ATOM     40  C   UNL A   1      44.863  28.723  35.476  1.00  0.00    -0.014 A 
ATOM     41  C   UNL A   1      46.138  29.289  35.292  1.00  0.00     0.010 A 
ATOM     42  C   UNL A   1      44.748  27.512  36.182  1.00  0.00     0.010 A 
ATOM     43  C   UNL A   1      47.278  28.635  35.771  1.00  0.00     0.020 A 
ATOM     44  C   UNL A   1      45.883  26.868  36.682  1.00  0.00     0.020 A 
ATOM     45  C   UNL A   1      47.143  27.426  36.459  1.00  0.00     0.054 A 
BRANCH  45  46
ATOM     46  S   UNL A   1      48.638  26.600  37.072  1.00  0.00     0.124 S 
ATOM     47  O   UNL A   1      48.605  26.934  38.494  1.00  0.00    -0.237 OA
ATOM     48  O   UNL A   1      48.385  25.199  36.750  1.00  0.00    -0.237 OA
ATOM     49  O   UNL A   1      49.717  27.227  36.312  1.00  0.00    -0.744 OA
ENDBRANCH  45  46
ENDBRANCH  26  40
BRANCH  27  50
ATOM     50  C   UNL A   1      36.879  33.029  31.057  1.00  0.00    -0.014 A 
ATOM     51  C   UNL A   1      35.565  32.702  31.429  1.00  0.00     0.010 A 
ATOM     52  C   UNL A   1      37.075  33.966  30.022  1.00  0.00     0.010 A 
ATOM     53  C   UNL A   1      34.473  33.270  30.759  1.00  0.00     0.020 A 
ATOM     54  C   UNL A   1      35.991  34.562  29.375  1.00  0.00     0.020 A 
ATOM     55  C   UNL A   1      34.695  34.194  29.732  1.00  0.00     0.054 A 
BRANCH  55  56
ATOM     56  S   UNL A   1      33.270  34.926  28.877  1.00  0.00     0.124 S 
ATOM     57  O   UNL A   1      32.376  35.236  29.988  1.00  0.00    -0.237 OA
ATOM     58  O   UNL A   1      33.864  36.076  28.200  1.00  0.00    -0.237 OA
ATOM     59  O   UNL A   1      32.819  33.856  27.989  1.00  0.00    -0.744 OA
ENDBRANCH  55  56
ENDBRANCH  27  50
BRANCH  39  60
ATOM     60  C   UNL A   1      39.836  33.569  37.354  1.00  0.00    -0.014 A 
ATOM     61  C   UNL A   1      38.836  33.180  38.263  1.00  0.00     0.010 A 
ATOM     62  C   UNL A   1      40.566  34.748  37.588  1.00  0.00     0.010 A 
ATOM     63  C   UNL A   1      38.544  33.983  39.367  1.00  0.00     0.020 A 
ATOM     64  C   UNL A   1      40.297  35.535  38.707  1.00  0.00     0.020 A 
ATOM     65  C   UNL A   1      39.275  35.156  39.580  1.00  0.00     0.054 A 
BRANCH  65  66
ATOM     66  S   UNL A   1      38.899  36.163  41.040  1.00  0.00     0.124 S 
ATOM     67  O   UNL A   1      40.165  36.125  41.767  1.00  0.00    -0.237 OA
ATOM     68  O   UNL A   1      38.547  37.455  40.455  1.00  0.00    -0.237 OA
ATOM     69  O   UNL A   1      37.792  35.451  41.675  1.00  0.00    -0.744 OA
ENDBRANCH  65  66
ENDBRANCH  39  60
ENDBRANCH  13  14
ENDBRANCH   6   8
ENDBRANCH   5   6
ENDBRANCH   4   5
ENDBRANCH   3   4
ENDBRANCH   2   3
ENDBRANCH   1   2
BRANCH   1  70
ATOM     70  C   UNL A   1      40.722  22.464  26.731  1.00  0.00     0.261 C 
BRANCH  70  71
ATOM     71  O   UNL A   1      39.627  22.418  25.803  1.00  0.00    -0.460 OA
BRANCH  71  72
ATOM     72  C   UNL A   1      38.560  23.182  26.164  1.00  0.00     0.339 C 
ATOM     73  O   UNL A   1      38.554  24.348  26.489  1.00  0.00    -0.246 OA
BRANCH  72  74
ATOM     74  C   UNL A   1      37.348  22.403  25.867  1.00  0.00     0.078 A 
ATOM     75  C   UNL A   1      37.385  21.107  25.357  1.00  0.00     0.019 A 
ATOM     76  C   UNL A   1      36.121  23.028  26.009  1.00  0.00     0.127 A 
ATOM     77  C   UNL A   1      36.192  20.486  25.000  1.00  0.00     0.031 A 
ATOM     78  N   UNL A   1      34.949  22.444  25.669  1.00  0.00    -0.254 NA
ATOM     79  C   UNL A   1      34.994  21.178  25.173  1.00  0.00     0.094 A 
BRANCH  79  80
ATOM     80  C   UNL A   1      33.684  20.515  24.778  1.00  0.00     0.318 C 
BRANCH  80  81
ATOM     81  N   UNL A   1      33.625  19.118  25.203  1.00  0.00    -0.337 N 
ATOM     82  H   UNL A   1      32.971  19.057  25.984  1.00  0.00     0.346 HD
ATOM     83  H   UNL A   1      34.581  18.860  25.444  1.00  0.00     0.346 HD
BRANCH  81  84
ATOM     84  C   UNL A   1      33.198  18.164  24.181  1.00  0.00     0.211 C 
ATOM     85  C   UNL A   1      32.095  17.205  24.672  1.00  0.00     0.068 C 
ATOM     86  C   UNL A   1      34.427  17.332  23.725  1.00  0.00     0.172 C 
ATOM     87  C   UNL A   1      32.581  16.303  25.805  1.00  0.00     0.006 C 
ATOM     88  C   UNL A   1      34.933  16.413  24.843  1.00  0.00     0.038 C 
ATOM     89  C   UNL A   1      33.828  15.518  25.405  1.00  0.00     0.003 C 
BRANCH  86  90
ATOM     90  O   UNL A   1      34.094  16.534  22.584  1.00  0.00    -0.387 OA
ATOM     91  H   UNL A   1      34.455  16.947  21.784  1.00  0.00     0.211 HD
ENDBRANCH  86  90
ENDBRANCH  81  84
ENDBRANCH  80  81
ENDBRANCH  79  80
ENDBRANCH  72  74
ENDBRANCH  71  72
ENDBRANCH  70  71
ENDBRANCH   1  70
TORSDOF 21
ENDMDL
MODEL 3
REMARK VINA RESULT:      -7.4      3.418     10.754
REMARK SMILES O=C(OCCOCCOC(=O)c1ccc(C[NH2+][C@@H]2CCCC[C@H]2O)nc1)c1ccc(-c2c3nc(c(-c4ccc(S(=O)(=O)[O-])cc4)c4ccc([nH]4)c(-c4ccc(S(=O)(=O)[O-])cc4)c4nc(c(-c5ccc(S(=O)(=O)[O-])cc5)c5ccc2[nH]5)C=C4)C=C3)cc1
REMARK SMILES IDX 7 1 6 2 5 3 4 4 3 5 2 6 1 7 27 8 28 9 86 10 29 11 85 12
REMARK SMILES IDX 30 13 31 14 32 15 79 16 33 17 84 18 78 19 80 20 34 21 83 22
REMARK SMILES IDX 77 23 76 24 35 26 65 27 46 28 64 29 47 30 50 31 63 32 81 33
REMARK SMILES IDX 48 34 49 35 62 37 82 38 51 39 36 40 37 41 45 42 38 43 44 44
REMARK SMILES IDX 39 45 40 46 41 47 42 48 43 49 66 50 67 51 75 52 68 53 74 54
REMARK SMILES IDX 69 55 70 56 71 57 72 58 73 59 52 60 53 61 61 62 54 63 60 64
REMARK SMILES IDX 55 65 56 66 57 67 58 68 59 69 8 70 9 71 10 72 11 73 12 74
REMARK SMILES IDX 13 75 26 76 14 77 25 78 15 79 16 80 17 81 18 84 19 85 23 86
REMARK SMILES IDX 20 87 22 88 21 89 24 90
REMARK H PARENT 80 25 50 36 17 82 17 83 24 91
REMARK Flexibility Score: inf
ROOT
ATOM      1  C   UNL A   1      43.068  22.968  25.106  1.00  0.00     0.202 C 
ENDROOT
BRANCH   1   2
ATOM      2  O   UNL A   1      42.181  21.875  25.379  1.00  0.00    -0.374 OA
BRANCH   2   3
ATOM      3  C   UNL A   1      41.701  21.775  26.720  1.00  0.00     0.202 C 
BRANCH   3   4
ATOM      4  C   UNL A   1      40.254  21.287  26.863  1.00  0.00     0.261 C 
BRANCH   4   5
ATOM      5  O   UNL A   1      39.405  21.924  25.890  1.00  0.00    -0.460 OA
BRANCH   5   6
ATOM      6  C   UNL A   1      38.692  23.070  26.017  1.00  0.00     0.338 C 
ATOM      7  O   UNL A   1      37.613  23.160  25.434  1.00  0.00    -0.246 OA
BRANCH   6   8
ATOM      8  C   UNL A   1      39.158  24.243  26.817  1.00  0.00     0.060 A 
ATOM      9  C   UNL A   1      38.851  24.446  28.161  1.00  0.00     0.016 A 
ATOM     10  C   UNL A   1      40.037  25.150  26.200  1.00  0.00     0.016 A 
ATOM     11  C   UNL A   1      39.313  25.551  28.853  1.00  0.00     0.010 A 
ATOM     12  C   UNL A   1      40.565  26.236  26.911  1.00  0.00     0.010 A 
ATOM     13  C   UNL A   1      40.184  26.445  28.239  1.00  0.00    -0.014 A 
BRANCH  13  14
ATOM     14  C   UNL A   1      40.598  27.618  29.031  1.00  0.00     0.031 A 
ATOM     15  C   UNL A   1      42.003  27.677  29.542  1.00  0.00     0.074 A 
ATOM     16  C   UNL A   1      39.769  28.678  29.099  1.00  0.00     0.049 A 
ATOM     17  N   UNL A   1      42.598  28.632  30.202  1.00  0.00    -0.248 NA
ATOM     18  C   UNL A   1      42.863  26.515  29.253  1.00  0.00     0.031 C 
ATOM     19  C   UNL A   1      38.425  28.737  28.510  1.00  0.00     0.029 A 
ATOM     20  N   UNL A   1      39.948  29.924  29.636  1.00  0.00    -0.354 N 
ATOM     21  C   UNL A   1      43.895  28.186  30.415  1.00  0.00     0.074 A 
ATOM     22  C   UNL A   1      43.999  26.868  29.835  1.00  0.00     0.031 C 
ATOM     23  C   UNL A   1      37.922  29.969  28.682  1.00  0.00     0.029 A 
ATOM     24  C   UNL A   1      38.872  30.761  29.454  1.00  0.00     0.049 A 
ATOM     25  H   UNL A   1      40.768  30.195  30.108  1.00  0.00     0.167 HD
ATOM     26  C   UNL A   1      44.906  28.829  31.044  1.00  0.00     0.031 A 
ATOM     27  C   UNL A   1      38.669  32.018  29.892  1.00  0.00     0.031 A 
ATOM     28  C   UNL A   1      44.762  30.133  31.630  1.00  0.00     0.049 A 
ATOM     29  C   UNL A   1      39.773  32.666  30.683  1.00  0.00     0.074 A 
ATOM     30  C   UNL A   1      45.672  30.850  32.382  1.00  0.00     0.029 A 
ATOM     31  N   UNL A   1      43.621  30.919  31.518  1.00  0.00    -0.354 N 
ATOM     32  N   UNL A   1      40.970  32.196  30.959  1.00  0.00    -0.248 NA
ATOM     33  C   UNL A   1      39.504  33.999  31.230  1.00  0.00     0.031 C 
ATOM     34  C   UNL A   1      45.064  32.053  32.762  1.00  0.00     0.029 A 
ATOM     35  C   UNL A   1      43.798  32.110  32.195  1.00  0.00     0.049 A 
ATOM     36  H   UNL A   1      42.806  30.663  31.027  1.00  0.00     0.167 HD
ATOM     37  C   UNL A   1      41.599  33.182  31.706  1.00  0.00     0.074 A 
ATOM     38  C   UNL A   1      40.662  34.285  31.808  1.00  0.00     0.031 C 
ATOM     39  C   UNL A   1      42.833  33.179  32.271  1.00  0.00     0.031 A 
BRANCH  26  40
ATOM     40  C   UNL A   1      46.211  28.093  31.176  1.00  0.00    -0.014 A 
ATOM     41  C   UNL A   1      47.259  28.290  30.257  1.00  0.00     0.010 A 
ATOM     42  C   UNL A   1      46.384  27.170  32.222  1.00  0.00     0.010 A 
ATOM     43  C   UNL A   1      48.441  27.550  30.363  1.00  0.00     0.020 A 
ATOM     44  C   UNL A   1      47.572  26.445  32.345  1.00  0.00     0.020 A 
ATOM     45  C   UNL A   1      48.587  26.628  31.404  1.00  0.00     0.054 A 
BRANCH  45  46
ATOM     46  S   UNL A   1      50.132  25.683  31.520  1.00  0.00     0.124 S 
ATOM     47  O   UNL A   1      49.826  24.735  32.589  1.00  0.00    -0.237 OA
ATOM     48  O   UNL A   1      50.255  25.106  30.185  1.00  0.00    -0.237 OA
ATOM     49  O   UNL A   1      51.133  26.694  31.855  1.00  0.00    -0.744 OA
ENDBRANCH  45  46
ENDBRANCH  26  40
BRANCH  27  50
ATOM     50  C   UNL A   1      37.359  32.697  29.671  1.00  0.00    -0.014 A 
ATOM     51  C   UNL A   1      37.125  33.505  28.546  1.00  0.00     0.010 A 
ATOM     52  C   UNL A   1      36.330  32.550  30.623  1.00  0.00     0.010 A 
ATOM     53  C   UNL A   1      35.905  34.177  28.394  1.00  0.00     0.020 A 
ATOM     54  C   UNL A   1      35.100  33.190  30.459  1.00  0.00     0.020 A 
ATOM     55  C   UNL A   1      34.901  34.018  29.355  1.00  0.00     0.054 A 
BRANCH  55  56
ATOM     56  S   UNL A   1      33.324  34.891  29.142  1.00  0.00     0.124 S 
ATOM     57  O   UNL A   1      32.764  34.837  30.489  1.00  0.00    -0.237 OA
ATOM     58  O   UNL A   1      33.751  36.211  28.686  1.00  0.00    -0.237 OA
ATOM     59  O   UNL A   1      32.623  34.091  28.140  1.00  0.00    -0.744 OA
ENDBRANCH  55  56
ENDBRANCH  27  50
BRANCH  39  60
ATOM     60  C   UNL A   1      43.234  34.419  33.019  1.00  0.00    -0.014 A 
ATOM     61  C   UNL A   1      43.991  35.427  32.397  1.00  0.00     0.010 A 
ATOM     62  C   UNL A   1      42.811  34.590  34.349  1.00  0.00     0.010 A 
ATOM     63  C   UNL A   1      44.353  36.571  33.110  1.00  0.00     0.020 A 
ATOM     64  C   UNL A   1      43.144  35.746  35.054  1.00  0.00     0.020 A 
ATOM     65  C   UNL A   1      43.929  36.722  34.434  1.00  0.00     0.054 A 
BRANCH  65  66
ATOM     66  S   UNL A   1      44.383  38.232  35.328  1.00  0.00     0.124 S 
ATOM     67  O   UNL A   1      45.835  38.244  35.183  1.00  0.00    -0.237 OA
ATOM     68  O   UNL A   1      43.667  39.269  34.590  1.00  0.00    -0.237 OA
ATOM     69  O   UNL A   1      43.893  37.991  36.684  1.00  0.00    -0.744 OA
ENDBRANCH  65  66
ENDBRANCH  39  60
ENDBRANCH  13  14
ENDBRANCH   6   8
ENDBRANCH   5   6
ENDBRANCH   4   5
ENDBRANCH   3   4
ENDBRANCH   2   3
ENDBRANCH   1   2
BRANCH   1  70
ATOM     70  C   UNL A   1      43.641  23.505  26.421  1.00  0.00     0.261 C 
BRANCH  70  71
ATOM     71  O   UNL A   1      44.165  24.819  26.174  1.00  0.00    -0.460 OA
BRANCH  71  72
ATOM     72  C   UNL A   1      45.398  25.034  26.707  1.00  0.00     0.339 C 
ATOM     73  O   UNL A   1      46.195  24.212  27.099  1.00  0.00    -0.246 OA
BRANCH  72  74
ATOM     74  C   UNL A   1      45.711  26.459  26.515  1.00  0.00     0.078 A 
ATOM     75  C   UNL A   1      46.968  27.002  26.774  1.00  0.00     0.019 A 
ATOM     76  C   UNL A   1      44.680  27.310  26.156  1.00  0.00     0.127 A 
ATOM     77  C   UNL A   1      47.144  28.378  26.673  1.00  0.00     0.031 A 
ATOM     78  N   UNL A   1      44.828  28.651  26.050  1.00  0.00    -0.254 NA
ATOM     79  C   UNL A   1      46.059  29.172  26.304  1.00  0.00     0.094 A 
BRANCH  79  80
ATOM     80  C   UNL A   1      46.236  30.678  26.198  1.00  0.00     0.318 C 
BRANCH  80  81
ATOM     81  N   UNL A   1      45.353  31.401  27.112  1.00  0.00    -0.337 N 
ATOM     82  H   UNL A   1      45.127  30.778  27.887  1.00  0.00     0.346 HD
ATOM     83  H   UNL A   1      44.545  31.679  26.556  1.00  0.00     0.346 HD
BRANCH  81  84
ATOM     84  C   UNL A   1      45.898  32.637  27.672  1.00  0.00     0.211 C 
ATOM     85  C   UNL A   1      45.177  33.090  28.956  1.00  0.00     0.068 C 
ATOM     86  C   UNL A   1      45.791  33.761  26.606  1.00  0.00     0.172 C 
ATOM     87  C   UNL A   1      43.713  33.443  28.697  1.00  0.00     0.006 C 
ATOM     88  C   UNL A   1      44.331  34.140  26.330  1.00  0.00     0.038 C 
ATOM     89  C   UNL A   1      43.573  34.504  27.608  1.00  0.00     0.003 C 
BRANCH  86  90
ATOM     90  O   UNL A   1      46.499  34.928  27.039  1.00  0.00    -0.387 OA
ATOM     91  H   UNL A   1      46.725  34.838  27.978  1.00  0.00     0.211 HD
ENDBRANCH  86  90
ENDBRANCH  81  84
ENDBRANCH  80  81
ENDBRANCH  79  80
ENDBRANCH  72  74
ENDBRANCH  71  72
ENDBRANCH  70  71
ENDBRANCH   1  70
TORSDOF 21
ENDMDL
