MODEL 1
REMARK VINA RESULT:     -11.4      0.000      0.000
REMARK SMILES COc1ccc(-c2ccc(CCC(=O)OCCOCCOC(=O)c3ccc(-c4c5nc(c(-c6ccc(S(=O)(=O)[O-])cc6)c6ccc([nH]6)c(-c6ccc(S(=O)(=O)[O-])cc6)c6nc(c(-c7ccc(S(=O)(=O)[O-])cc7)c7ccc4[nH]7)C=C6)C=C5)cc3)n2-c2ccc(C(C)=O)cc2)cc1
REMARK SMILES IDX 17 1 16 2 15 3 13 4 14 5 12 6 11 7 10 8 7 9 8 10 84 11 9 12
REMARK SMILES IDX 6 13 3 14 4 15 95 16 5 17 94 18 2 19 1 20 85 21 86 22 93 23
REMARK SMILES IDX 87 24 92 25 88 26 89 27 90 28 91 29 18 30 19 31 20 32 21 33
REMARK SMILES IDX 22 34 23 35 24 36 25 37 83 38 26 39 82 40 27 41 28 42 29 43
REMARK SMILES IDX 76 44 30 45 81 46 75 47 77 48 31 49 80 50 74 51 73 52 32 54
REMARK SMILES IDX 62 55 43 56 61 57 44 58 47 59 60 60 78 61 45 62 46 63 59 65
REMARK SMILES IDX 79 66 48 67 33 68 34 69 42 70 35 71 41 72 36 73 37 74 38 75
REMARK SMILES IDX 39 76 40 77 63 78 64 79 72 80 65 81 71 82 66 83 67 84 68 85
REMARK SMILES IDX 69 86 70 87 49 88 50 89 58 90 51 91 57 92 52 93 53 94 54 95
REMARK SMILES IDX 55 96 56 97
REMARK H PARENT 77 53 47 64
REMARK Flexibility Score: inf
ROOT
ATOM      1  C   UNL A   1      32.117  29.843  26.546  1.00  0.00     0.202 C 
ENDROOT
BRANCH   1   2
ATOM      2  C   UNL A   1      31.751  28.418  26.131  1.00  0.00     0.261 C 
BRANCH   2   3
ATOM      3  O   UNL A   1      31.313  28.375  24.758  1.00  0.00    -0.463 OA
BRANCH   3   4
ATOM      4  C   UNL A   1      32.263  28.283  23.798  1.00  0.00     0.306 C 
ATOM      5  O   UNL A   1      32.270  28.935  22.762  1.00  0.00    -0.252 OA
BRANCH   4   6
ATOM      6  C   UNL A   1      33.335  27.266  24.138  1.00  0.00     0.129 C 
BRANCH   6   7
ATOM      7  C   UNL A   1      33.578  26.122  23.143  1.00  0.00     0.066 C 
BRANCH   7   8
ATOM      8  C   UNL A   1      32.702  24.917  23.355  1.00  0.00     0.024 A 
ATOM      9  C   UNL A   1      32.131  22.743  23.600  1.00  0.00     0.053 A 
ATOM     10  C   UNL A   1      30.990  23.444  23.260  1.00  0.00     0.029 A 
ATOM     11  N   UNL A   1      33.156  23.669  23.777  1.00  0.00    -0.314 N 
ATOM     12  C   UNL A   1      31.341  24.797  23.149  1.00  0.00     0.024 A 
BRANCH   9  13
ATOM     13  C   UNL A   1      32.238  21.306  23.821  1.00  0.00    -0.001 A 
ATOM     14  C   UNL A   1      32.546  18.554  24.170  1.00  0.00     0.118 A 
ATOM     15  C   UNL A   1      32.510  19.396  25.280  1.00  0.00     0.047 A 
ATOM     16  C   UNL A   1      32.354  19.073  22.890  1.00  0.00     0.047 A 
ATOM     17  C   UNL A   1      32.363  20.773  25.108  1.00  0.00     0.014 A 
ATOM     18  C   UNL A   1      32.202  20.447  22.717  1.00  0.00     0.014 A 
BRANCH  14  19
ATOM     19  O   UNL A   1      32.720  17.220  24.412  1.00  0.00    -0.497 OA
ATOM     20  C   UNL A   1      33.609  16.600  23.486  1.00  0.00     0.278 C 
ENDBRANCH  14  19
ENDBRANCH   9  13
BRANCH  11  21
ATOM     21  C   UNL A   1      34.454  23.394  24.277  1.00  0.00     0.046 A 
ATOM     22  C   UNL A   1      35.429  22.891  23.409  1.00  0.00     0.027 A 
ATOM     23  C   UNL A   1      34.756  23.642  25.614  1.00  0.00     0.027 A 
ATOM     24  C   UNL A   1      36.712  22.611  23.889  1.00  0.00     0.014 A 
ATOM     25  C   UNL A   1      36.033  23.342  26.092  1.00  0.00     0.014 A 
ATOM     26  C   UNL A   1      37.020  22.819  25.240  1.00  0.00     0.017 A 
BRANCH  26  27
ATOM     27  C   UNL A   1      38.350  22.495  25.844  1.00  0.00     0.159 C 
ATOM     28  C   UNL A   1      38.939  23.345  26.943  1.00  0.00     0.093 C 
ATOM     29  O   UNL A   1      38.975  21.516  25.432  1.00  0.00    -0.295 OA
ENDBRANCH  26  27
ENDBRANCH  11  21
ENDBRANCH   7   8
ENDBRANCH   6   7
ENDBRANCH   4   6
ENDBRANCH   3   4
ENDBRANCH   2   3
ENDBRANCH   1   2
BRANCH   1  30
ATOM     30  O   UNL A   1      33.041  29.948  27.634  1.00  0.00    -0.374 OA
BRANCH  30  31
ATOM     31  C   UNL A   1      33.942  31.053  27.635  1.00  0.00     0.202 C 
BRANCH  31  32
ATOM     32  C   UNL A   1      35.427  30.727  27.643  1.00  0.00     0.261 C 
BRANCH  32  33
ATOM     33  O   UNL A   1      35.860  30.464  28.968  1.00  0.00    -0.460 OA
BRANCH  33  34
ATOM     34  C   UNL A   1      37.145  30.814  29.194  1.00  0.00     0.338 C 
ATOM     35  O   UNL A   1      37.581  31.917  29.448  1.00  0.00    -0.246 OA
BRANCH  34  36
ATOM     36  C   UNL A   1      37.997  29.651  28.940  1.00  0.00     0.060 A 
ATOM     37  C   UNL A   1      37.958  28.686  29.947  1.00  0.00     0.016 A 
ATOM     38  C   UNL A   1      39.083  29.810  28.068  1.00  0.00     0.016 A 
ATOM     39  C   UNL A   1      39.139  28.085  30.289  1.00  0.00     0.010 A 
ATOM     40  C   UNL A   1      40.273  29.246  28.436  1.00  0.00     0.010 A 
ATOM     41  C   UNL A   1      40.292  28.443  29.581  1.00  0.00    -0.014 A 
BRANCH  41  42
ATOM     42  C   UNL A   1      41.532  27.772  29.930  1.00  0.00     0.031 A 
ATOM     43  C   UNL A   1      41.668  26.529  29.016  1.00  0.00     0.074 A 
ATOM     44  C   UNL A   1      42.219  28.356  30.967  1.00  0.00     0.049 A 
ATOM     45  N   UNL A   1      42.464  25.522  29.126  1.00  0.00    -0.248 NA
ATOM     46  C   UNL A   1      40.778  26.343  27.818  1.00  0.00     0.031 C 
ATOM     47  C   UNL A   1      41.843  29.619  31.673  1.00  0.00     0.029 A 
ATOM     48  N   UNL A   1      43.361  28.027  31.657  1.00  0.00    -0.354 N 
ATOM     49  C   UNL A   1      42.327  24.712  27.976  1.00  0.00     0.074 A 
ATOM     50  C   UNL A   1      41.234  25.237  27.226  1.00  0.00     0.031 C 
ATOM     51  C   UNL A   1      42.657  29.859  32.731  1.00  0.00     0.029 A 
ATOM     52  C   UNL A   1      43.660  28.817  32.808  1.00  0.00     0.049 A 
ATOM     53  H   UNL A   1      43.942  27.285  31.373  1.00  0.00     0.167 HD
ATOM     54  C   UNL A   1      43.198  23.700  27.706  1.00  0.00     0.031 A 
ATOM     55  C   UNL A   1      44.627  28.590  33.760  1.00  0.00     0.031 A 
ATOM     56  C   UNL A   1      44.068  23.531  28.821  1.00  0.00     0.049 A 
ATOM     57  C   UNL A   1      45.405  27.475  33.200  1.00  0.00     0.074 A 
ATOM     58  C   UNL A   1      43.815  23.014  30.065  1.00  0.00     0.029 A 
ATOM     59  N   UNL A   1      45.180  24.338  28.868  1.00  0.00    -0.354 N 
ATOM     60  N   UNL A   1      46.201  27.565  32.181  1.00  0.00    -0.248 NA
ATOM     61  C   UNL A   1      45.190  26.129  33.745  1.00  0.00     0.031 C 
ATOM     62  C   UNL A   1      44.432  23.953  30.911  1.00  0.00     0.029 A 
ATOM     63  C   UNL A   1      45.283  24.778  30.165  1.00  0.00     0.049 A 
ATOM     64  H   UNL A   1      45.782  24.558  28.120  1.00  0.00     0.167 HD
ATOM     65  C   UNL A   1      46.246  26.271  31.735  1.00  0.00     0.074 A 
ATOM     66  C   UNL A   1      45.914  25.434  32.874  1.00  0.00     0.031 C 
ATOM     67  C   UNL A   1      46.010  25.994  30.425  1.00  0.00     0.031 A 
BRANCH  54  68
ATOM     68  C   UNL A   1      43.493  22.884  26.485  1.00  0.00    -0.014 A 
ATOM     69  C   UNL A   1      42.839  21.627  26.410  1.00  0.00     0.010 A 
ATOM     70  C   UNL A   1      44.603  23.093  25.658  1.00  0.00     0.010 A 
ATOM     71  C   UNL A   1      43.370  20.564  25.687  1.00  0.00     0.020 A 
ATOM     72  C   UNL A   1      45.120  22.033  24.887  1.00  0.00     0.020 A 
ATOM     73  C   UNL A   1      44.534  20.764  24.957  1.00  0.00     0.054 A 
BRANCH  73  74
ATOM     74  S   UNL A   1      45.293  19.310  24.184  1.00  0.00     0.124 S 
ATOM     75  O   UNL A   1      46.712  19.650  24.215  1.00  0.00    -0.237 OA
ATOM     76  O   UNL A   1      44.890  18.230  25.082  1.00  0.00    -0.237 OA
ATOM     77  O   UNL A   1      44.684  19.268  22.857  1.00  0.00    -0.744 OA
ENDBRANCH  73  74
ENDBRANCH  54  68
BRANCH  55  78
ATOM     78  C   UNL A   1      45.042  29.010  35.162  1.00  0.00    -0.014 A 
ATOM     79  C   UNL A   1      46.180  29.734  35.532  1.00  0.00     0.010 A 
ATOM     80  C   UNL A   1      44.095  28.794  36.212  1.00  0.00     0.010 A 
ATOM     81  C   UNL A   1      46.270  30.348  36.816  1.00  0.00     0.020 A 
ATOM     82  C   UNL A   1      44.139  29.441  37.451  1.00  0.00     0.020 A 
ATOM     83  C   UNL A   1      45.217  30.253  37.736  1.00  0.00     0.054 A 
BRANCH  83  84
ATOM     84  S   UNL A   1      45.161  31.300  39.226  1.00  0.00     0.124 S 
ATOM     85  O   UNL A   1      43.761  31.215  39.623  1.00  0.00    -0.237 OA
ATOM     86  O   UNL A   1      46.113  30.637  40.116  1.00  0.00    -0.237 OA
ATOM     87  O   UNL A   1      45.594  32.611  38.744  1.00  0.00    -0.744 OA
ENDBRANCH  83  84
ENDBRANCH  55  78
BRANCH  67  88
ATOM     88  C   UNL A   1      46.232  27.137  29.436  1.00  0.00    -0.014 A 
ATOM     89  C   UNL A   1      45.112  27.780  28.876  1.00  0.00     0.010 A 
ATOM     90  C   UNL A   1      47.500  27.569  28.988  1.00  0.00     0.010 A 
ATOM     91  C   UNL A   1      45.243  28.810  27.933  1.00  0.00     0.020 A 
ATOM     92  C   UNL A   1      47.645  28.603  28.035  1.00  0.00     0.020 A 
ATOM     93  C   UNL A   1      46.508  29.226  27.522  1.00  0.00     0.054 A 
BRANCH  93  94
ATOM     94  S   UNL A   1      46.629  30.598  26.332  1.00  0.00     0.124 S 
ATOM     95  O   UNL A   1      47.987  31.094  26.544  1.00  0.00    -0.237 OA
ATOM     96  O   UNL A   1      46.403  29.928  25.055  1.00  0.00    -0.237 OA
ATOM     97  O   UNL A   1      45.570  31.519  26.744  1.00  0.00    -0.744 OA
ENDBRANCH  93  94
ENDBRANCH  67  88
ENDBRANCH  41  42
ENDBRANCH  34  36
ENDBRANCH  33  34
ENDBRANCH  32  33
ENDBRANCH  31  32
ENDBRANCH  30  31
ENDBRANCH   1  30
TORSDOF 23
ENDMDL
MODEL 2
REMARK VINA RESULT:     -10.5      3.658      8.665
REMARK SMILES COc1ccc(-c2ccc(CCC(=O)OCCOCCOC(=O)c3ccc(-c4c5nc(c(-c6ccc(S(=O)(=O)[O-])cc6)c6ccc([nH]6)c(-c6ccc(S(=O)(=O)[O-])cc6)c6nc(c(-c7ccc(S(=O)(=O)[O-])cc7)c7ccc4[nH]7)C=C6)C=C5)cc3)n2-c2ccc(C(C)=O)cc2)cc1
REMARK SMILES IDX 17 1 16 2 15 3 13 4 14 5 12 6 11 7 10 8 7 9 8 10 84 11 9 12
REMARK SMILES IDX 6 13 3 14 4 15 95 16 5 17 94 18 2 19 1 20 85 21 86 22 93 23
REMARK SMILES IDX 87 24 92 25 88 26 89 27 90 28 91 29 18 30 19 31 20 32 21 33
REMARK SMILES IDX 22 34 23 35 24 36 25 37 83 38 26 39 82 40 27 41 28 42 29 43
REMARK SMILES IDX 76 44 30 45 81 46 75 47 77 48 31 49 80 50 74 51 73 52 32 54
REMARK SMILES IDX 62 55 43 56 61 57 44 58 47 59 60 60 78 61 45 62 46 63 59 65
REMARK SMILES IDX 79 66 48 67 33 68 34 69 42 70 35 71 41 72 36 73 37 74 38 75
REMARK SMILES IDX 39 76 40 77 63 78 64 79 72 80 65 81 71 82 66 83 67 84 68 85
REMARK SMILES IDX 69 86 70 87 49 88 50 89 58 90 51 91 57 92 52 93 53 94 54 95
REMARK SMILES IDX 55 96 56 97
REMARK H PARENT 77 53 47 64
REMARK Flexibility Score: inf
ROOT
ATOM      1  C   UNL A   1      39.104  21.836  25.874  1.00  0.00     0.202 C 
ENDROOT
BRANCH   1   2
ATOM      2  C   UNL A   1      38.118  22.941  26.253  1.00  0.00     0.261 C 
BRANCH   2   3
ATOM      3  O   UNL A   1      37.045  23.027  25.294  1.00  0.00    -0.463 OA
BRANCH   3   4
ATOM      4  C   UNL A   1      35.787  22.797  25.736  1.00  0.00     0.306 C 
ATOM      5  O   UNL A   1      35.445  21.812  26.379  1.00  0.00    -0.252 OA
BRANCH   4   6
ATOM      6  C   UNL A   1      34.822  23.898  25.343  1.00  0.00     0.129 C 
BRANCH   6   7
ATOM      7  C   UNL A   1      33.354  23.749  25.766  1.00  0.00     0.066 C 
BRANCH   7   8
ATOM      8  C   UNL A   1      32.360  24.201  24.729  1.00  0.00     0.024 A 
ATOM      9  C   UNL A   1      30.789  25.487  23.735  1.00  0.00     0.053 A 
ATOM     10  C   UNL A   1      30.727  24.229  23.167  1.00  0.00     0.029 A 
ATOM     11  N   UNL A   1      31.874  25.501  24.608  1.00  0.00    -0.314 N 
ATOM     12  C   UNL A   1      31.729  23.447  23.758  1.00  0.00     0.024 A 
BRANCH   9  13
ATOM     13  C   UNL A   1      29.934  26.626  23.424  1.00  0.00    -0.001 A 
ATOM     14  C   UNL A   1      28.281  28.825  22.953  1.00  0.00     0.118 A 
ATOM     15  C   UNL A   1      29.582  28.814  22.453  1.00  0.00     0.047 A 
ATOM     16  C   UNL A   1      27.778  27.712  23.625  1.00  0.00     0.047 A 
ATOM     17  C   UNL A   1      30.413  27.718  22.693  1.00  0.00     0.014 A 
ATOM     18  C   UNL A   1      28.605  26.615  23.861  1.00  0.00     0.014 A 
BRANCH  14  19
ATOM     19  O   UNL A   1      27.534  29.943  22.704  1.00  0.00    -0.497 OA
ATOM     20  C   UNL A   1      27.999  30.680  21.576  1.00  0.00     0.278 C 
ENDBRANCH  14  19
ENDBRANCH   9  13
BRANCH  11  21
ATOM     21  C   UNL A   1      32.389  26.636  25.283  1.00  0.00     0.046 A 
ATOM     22  C   UNL A   1      31.916  26.943  26.563  1.00  0.00     0.027 A 
ATOM     23  C   UNL A   1      33.369  27.423  24.682  1.00  0.00     0.027 A 
ATOM     24  C   UNL A   1      32.411  28.062  27.239  1.00  0.00     0.014 A 
ATOM     25  C   UNL A   1      33.845  28.550  25.354  1.00  0.00     0.014 A 
ATOM     26  C   UNL A   1      33.370  28.885  26.634  1.00  0.00     0.017 A 
BRANCH  26  27
ATOM     27  C   UNL A   1      33.911  30.128  27.265  1.00  0.00     0.159 C 
ATOM     28  C   UNL A   1      35.246  30.133  27.968  1.00  0.00     0.093 C 
ATOM     29  O   UNL A   1      33.249  31.167  27.210  1.00  0.00    -0.295 OA
ENDBRANCH  26  27
ENDBRANCH  11  21
ENDBRANCH   7   8
ENDBRANCH   6   7
ENDBRANCH   4   6
ENDBRANCH   3   4
ENDBRANCH   2   3
ENDBRANCH   1   2
BRANCH   1  30
ATOM     30  O   UNL A   1      39.887  21.314  26.953  1.00  0.00    -0.374 OA
BRANCH  30  31
ATOM     31  C   UNL A   1      41.205  21.828  27.124  1.00  0.00     0.202 C 
BRANCH  31  32
ATOM     32  C   UNL A   1      42.239  21.426  26.084  1.00  0.00     0.261 C 
BRANCH  32  33
ATOM     33  O   UNL A   1      42.322  22.417  25.072  1.00  0.00    -0.460 OA
BRANCH  33  34
ATOM     34  C   UNL A   1      43.587  22.685  24.683  1.00  0.00     0.338 C 
ATOM     35  O   UNL A   1      44.316  21.997  24.000  1.00  0.00    -0.246 OA
BRANCH  34  36
ATOM     36  C   UNL A   1      44.029  23.912  25.347  1.00  0.00     0.060 A 
ATOM     37  C   UNL A   1      45.308  23.831  25.899  1.00  0.00     0.016 A 
ATOM     38  C   UNL A   1      43.049  24.803  25.804  1.00  0.00     0.016 A 
ATOM     39  C   UNL A   1      45.505  24.419  27.119  1.00  0.00     0.010 A 
ATOM     40  C   UNL A   1      43.227  25.353  27.043  1.00  0.00     0.010 A 
ATOM     41  C   UNL A   1      44.431  25.097  27.707  1.00  0.00    -0.014 A 
BRANCH  41  42
ATOM     42  C   UNL A   1      44.664  25.747  28.984  1.00  0.00     0.031 A 
ATOM     43  C   UNL A   1      45.138  27.193  28.698  1.00  0.00     0.074 A 
ATOM     44  C   UNL A   1      44.458  24.938  30.077  1.00  0.00     0.049 A 
ATOM     45  N   UNL A   1      45.683  28.044  29.497  1.00  0.00    -0.248 NA
ATOM     46  C   UNL A   1      45.029  27.789  27.321  1.00  0.00     0.031 C 
ATOM     47  C   UNL A   1      43.956  23.531  30.049  1.00  0.00     0.029 A 
ATOM     48  N   UNL A   1      44.627  25.105  31.430  1.00  0.00    -0.354 N 
ATOM     49  C   UNL A   1      45.804  29.280  28.824  1.00  0.00     0.074 A 
ATOM     50  C   UNL A   1      45.433  29.053  27.466  1.00  0.00     0.031 C 
ATOM     51  C   UNL A   1      43.983  22.968  31.283  1.00  0.00     0.029 A 
ATOM     52  C   UNL A   1      44.461  23.943  32.242  1.00  0.00     0.049 A 
ATOM     53  H   UNL A   1      44.851  25.981  31.820  1.00  0.00     0.167 HD
ATOM     54  C   UNL A   1      46.138  30.425  29.484  1.00  0.00     0.031 A 
ATOM     55  C   UNL A   1      44.745  23.800  33.580  1.00  0.00     0.031 A 
ATOM     56  C   UNL A   1      46.492  30.097  30.824  1.00  0.00     0.049 A 
ATOM     57  C   UNL A   1      45.052  25.170  34.015  1.00  0.00     0.074 A 
ATOM     58  C   UNL A   1      47.607  29.463  31.310  1.00  0.00     0.029 A 
ATOM     59  N   UNL A   1      45.464  29.995  31.731  1.00  0.00    -0.354 N 
ATOM     60  N   UNL A   1      44.180  26.123  34.136  1.00  0.00    -0.248 NA
ATOM     61  C   UNL A   1      46.457  25.542  34.217  1.00  0.00     0.031 C 
ATOM     62  C   UNL A   1      47.054  28.540  32.217  1.00  0.00     0.029 A 
ATOM     63  C   UNL A   1      45.719  28.872  32.480  1.00  0.00     0.049 A 
ATOM     64  H   UNL A   1      44.697  30.606  31.824  1.00  0.00     0.167 HD
ATOM     65  C   UNL A   1      44.959  27.243  34.026  1.00  0.00     0.074 A 
ATOM     66  C   UNL A   1      46.301  26.848  34.411  1.00  0.00     0.031 C 
ATOM     67  C   UNL A   1      44.620  28.224  33.147  1.00  0.00     0.031 A 
BRANCH  54  68
ATOM     68  C   UNL A   1      46.066  31.880  29.139  1.00  0.00    -0.014 A 
ATOM     69  C   UNL A   1      45.082  32.240  28.183  1.00  0.00     0.010 A 
ATOM     70  C   UNL A   1      47.100  32.792  29.387  1.00  0.00     0.010 A 
ATOM     71  C   UNL A   1      45.217  33.365  27.376  1.00  0.00     0.020 A 
ATOM     72  C   UNL A   1      47.217  33.958  28.604  1.00  0.00     0.020 A 
ATOM     73  C   UNL A   1      46.309  34.201  27.567  1.00  0.00     0.054 A 
BRANCH  73  74
ATOM     74  S   UNL A   1      46.547  35.547  26.377  1.00  0.00     0.124 S 
ATOM     75  O   UNL A   1      47.775  36.172  26.858  1.00  0.00    -0.237 OA
ATOM     76  O   UNL A   1      46.668  34.829  25.110  1.00  0.00    -0.237 OA
ATOM     77  O   UNL A   1      45.335  36.350  26.517  1.00  0.00    -0.744 OA
ENDBRANCH  73  74
ENDBRANCH  54  68
BRANCH  55  78
ATOM     78  C   UNL A   1      44.950  22.737  34.648  1.00  0.00    -0.014 A 
ATOM     79  C   UNL A   1      45.287  21.392  34.459  1.00  0.00     0.010 A 
ATOM     80  C   UNL A   1      44.967  23.178  36.009  1.00  0.00     0.010 A 
ATOM     81  C   UNL A   1      45.779  20.603  35.540  1.00  0.00     0.020 A 
ATOM     82  C   UNL A   1      45.506  22.438  37.065  1.00  0.00     0.020 A 
ATOM     83  C   UNL A   1      45.950  21.155  36.817  1.00  0.00     0.054 A 
BRANCH  83  84
ATOM     84  S   UNL A   1      46.887  20.280  38.111  1.00  0.00     0.124 S 
ATOM     85  O   UNL A   1      45.958  19.234  38.524  1.00  0.00    -0.237 OA
ATOM     86  O   UNL A   1      48.075  19.824  37.392  1.00  0.00    -0.237 OA
ATOM     87  O   UNL A   1      47.144  21.316  39.111  1.00  0.00    -0.744 OA
ENDBRANCH  83  84
ENDBRANCH  55  78
BRANCH  67  88
ATOM     88  C   UNL A   1      43.152  28.285  32.727  1.00  0.00    -0.014 A 
ATOM     89  C   UNL A   1      42.166  28.443  33.719  1.00  0.00     0.010 A 
ATOM     90  C   UNL A   1      42.695  28.137  31.398  1.00  0.00     0.010 A 
ATOM     91  C   UNL A   1      40.798  28.468  33.408  1.00  0.00     0.020 A 
ATOM     92  C   UNL A   1      41.321  28.156  31.073  1.00  0.00     0.020 A 
ATOM     93  C   UNL A   1      40.379  28.334  32.086  1.00  0.00     0.054 A 
BRANCH  93  94
ATOM     94  S   UNL A   1      38.597  28.421  31.725  1.00  0.00     0.124 S 
ATOM     95  O   UNL A   1      38.413  27.364  30.734  1.00  0.00    -0.237 OA
ATOM     96  O   UNL A   1      37.999  28.161  33.032  1.00  0.00    -0.237 OA
ATOM     97  O   UNL A   1      38.404  29.779  31.215  1.00  0.00    -0.744 OA
ENDBRANCH  93  94
ENDBRANCH  67  88
ENDBRANCH  41  42
ENDBRANCH  34  36
ENDBRANCH  33  34
ENDBRANCH  32  33
ENDBRANCH  31  32
ENDBRANCH  30  31
ENDBRANCH   1  30
TORSDOF 23
ENDMDL
MODEL 3
REMARK VINA RESULT:      -9.9     10.421     16.271
REMARK SMILES COc1ccc(-c2ccc(CCC(=O)OCCOCCOC(=O)c3ccc(-c4c5nc(c(-c6ccc(S(=O)(=O)[O-])cc6)c6ccc([nH]6)c(-c6ccc(S(=O)(=O)[O-])cc6)c6nc(c(-c7ccc(S(=O)(=O)[O-])cc7)c7ccc4[nH]7)C=C6)C=C5)cc3)n2-c2ccc(C(C)=O)cc2)cc1
REMARK SMILES IDX 17 1 16 2 15 3 13 4 14 5 12 6 11 7 10 8 7 9 8 10 84 11 9 12
REMARK SMILES IDX 6 13 3 14 4 15 95 16 5 17 94 18 2 19 1 20 85 21 86 22 93 23
REMARK SMILES IDX 87 24 92 25 88 26 89 27 90 28 91 29 18 30 19 31 20 32 21 33
REMARK SMILES IDX 22 34 23 35 24 36 25 37 83 38 26 39 82 40 27 41 28 42 29 43
REMARK SMILES IDX 76 44 30 45 81 46 75 47 77 48 31 49 80 50 74 51 73 52 32 54
REMARK SMILES IDX 62 55 43 56 61 57 44 58 47 59 60 60 78 61 45 62 46 63 59 65
REMARK SMILES IDX 79 66 48 67 33 68 34 69 42 70 35 71 41 72 36 73 37 74 38 75
REMARK SMILES IDX 39 76 40 77 63 78 64 79 72 80 65 81 71 82 66 83 67 84 68 85
REMARK SMILES IDX 69 86 70 87 49 88 50 89 58 90 51 91 57 92 52 93 53 94 54 95
REMARK SMILES IDX 55 96 56 97
REMARK H PARENT 77 53 47 64
REMARK Flexibility Score: inf
ROOT
ATOM      1  C   UNL A   1      46.941  39.847  25.234  1.00  0.00     0.202 C 
ENDROOT
BRANCH   1   2
ATOM      2  C   UNL A   1      46.968  40.147  23.736  1.00  0.00     0.261 C 
BRANCH   2   3
ATOM      3  O   UNL A   1      47.179  41.553  23.493  1.00  0.00    -0.463 OA
BRANCH   3   4
ATOM      4  C   UNL A   1      47.550  41.926  22.247  1.00  0.00     0.306 C 
ATOM      5  O   UNL A   1      47.171  41.383  21.216  1.00  0.00    -0.252 OA
BRANCH   4   6
ATOM      6  C   UNL A   1      48.505  43.103  22.253  1.00  0.00     0.129 C 
BRANCH   6   7
ATOM      7  C   UNL A   1      48.198  44.270  23.202  1.00  0.00     0.066 C 
BRANCH   7   8
ATOM      8  C   UNL A   1      47.992  45.592  22.514  1.00  0.00     0.024 A 
ATOM      9  C   UNL A   1      47.108  47.114  21.094  1.00  0.00     0.053 A 
ATOM     10  C   UNL A   1      48.346  47.578  21.495  1.00  0.00     0.029 A 
ATOM     11  N   UNL A   1      46.841  45.953  21.816  1.00  0.00    -0.314 N 
ATOM     12  C   UNL A   1      48.872  46.651  22.406  1.00  0.00     0.024 A 
BRANCH   9  13
ATOM     13  C   UNL A   1      46.200  47.757  20.152  1.00  0.00    -0.001 A 
ATOM     14  C   UNL A   1      44.418  48.871  18.317  1.00  0.00     0.118 A 
ATOM     15  C   UNL A   1      44.362  49.250  19.657  1.00  0.00     0.047 A 
ATOM     16  C   UNL A   1      45.408  47.994  17.876  1.00  0.00     0.047 A 
ATOM     17  C   UNL A   1      45.248  48.688  20.579  1.00  0.00     0.014 A 
ATOM     18  C   UNL A   1      46.296  47.437  18.794  1.00  0.00     0.014 A 
BRANCH  14  19
ATOM     19  O   UNL A   1      43.502  49.441  17.476  1.00  0.00    -0.497 OA
ATOM     20  C   UNL A   1      44.095  50.320  16.524  1.00  0.00     0.278 C 
ENDBRANCH  14  19
ENDBRANCH   9  13
BRANCH  11  21
ATOM     21  C   UNL A   1      45.617  45.239  21.826  1.00  0.00     0.046 A 
ATOM     22  C   UNL A   1      44.735  45.409  22.899  1.00  0.00     0.027 A 
ATOM     23  C   UNL A   1      45.291  44.392  20.769  1.00  0.00     0.027 A 
ATOM     24  C   UNL A   1      43.525  44.709  22.925  1.00  0.00     0.014 A 
ATOM     25  C   UNL A   1      44.091  43.680  20.810  1.00  0.00     0.014 A 
ATOM     26  C   UNL A   1      43.200  43.825  21.888  1.00  0.00     0.017 A 
BRANCH  26  27
ATOM     27  C   UNL A   1      41.953  42.998  21.865  1.00  0.00     0.159 C 
ATOM     28  C   UNL A   1      41.717  41.910  22.883  1.00  0.00     0.093 C 
ATOM     29  O   UNL A   1      41.107  43.212  20.995  1.00  0.00    -0.295 OA
ENDBRANCH  26  27
ENDBRANCH  11  21
ENDBRANCH   7   8
ENDBRANCH   6   7
ENDBRANCH   4   6
ENDBRANCH   3   4
ENDBRANCH   2   3
ENDBRANCH   1   2
BRANCH   1  30
ATOM     30  O   UNL A   1      45.638  39.730  25.815  1.00  0.00    -0.374 OA
BRANCH  30  31
ATOM     31  C   UNL A   1      45.394  38.621  26.677  1.00  0.00     0.202 C 
BRANCH  31  32
ATOM     32  C   UNL A   1      46.614  37.898  27.227  1.00  0.00     0.261 C 
BRANCH  32  33
ATOM     33  O   UNL A   1      46.332  37.381  28.518  1.00  0.00    -0.460 OA
BRANCH  33  34
ATOM     34  C   UNL A   1      46.258  36.033  28.553  1.00  0.00     0.338 C 
ATOM     35  O   UNL A   1      47.040  35.233  28.082  1.00  0.00    -0.246 OA
BRANCH  34  36
ATOM     36  C   UNL A   1      44.975  35.650  29.143  1.00  0.00     0.060 A 
ATOM     37  C   UNL A   1      45.088  34.855  30.284  1.00  0.00     0.016 A 
ATOM     38  C   UNL A   1      43.844  35.653  28.316  1.00  0.00     0.016 A 
ATOM     39  C   UNL A   1      44.198  33.824  30.423  1.00  0.00     0.010 A 
ATOM     40  C   UNL A   1      42.981  34.598  28.426  1.00  0.00     0.010 A 
ATOM     41  C   UNL A   1      43.213  33.664  29.442  1.00  0.00    -0.014 A 
BRANCH  41  42
ATOM     42  C   UNL A   1      42.254  32.589  29.620  1.00  0.00     0.031 A 
ATOM     43  C   UNL A   1      42.795  31.345  28.875  1.00  0.00     0.074 A 
ATOM     44  C   UNL A   1      41.135  32.943  30.336  1.00  0.00     0.049 A 
ATOM     45  N   UNL A   1      42.183  30.256  28.558  1.00  0.00    -0.248 NA
ATOM     46  C   UNL A   1      44.211  31.296  28.369  1.00  0.00     0.031 C 
ATOM     47  C   UNL A   1      40.885  34.267  30.983  1.00  0.00     0.029 A 
ATOM     48  N   UNL A   1      39.973  32.291  30.671  1.00  0.00    -0.354 N 
ATOM     49  C   UNL A   1      43.125  29.351  28.019  1.00  0.00     0.074 A 
ATOM     50  C   UNL A   1      44.352  30.063  27.876  1.00  0.00     0.031 C 
ATOM     51  C   UNL A   1      39.635  34.338  31.505  1.00  0.00     0.029 A 
ATOM     52  C   UNL A   1      38.956  33.076  31.293  1.00  0.00     0.049 A 
ATOM     53  H   UNL A   1      39.847  31.331  30.490  1.00  0.00     0.167 HD
ATOM     54  C   UNL A   1      42.817  28.042  27.802  1.00  0.00     0.031 A 
ATOM     55  C   UNL A   1      37.656  32.716  31.560  1.00  0.00     0.031 A 
ATOM     56  C   UNL A   1      41.423  27.853  28.031  1.00  0.00     0.049 A 
ATOM     57  C   UNL A   1      37.626  31.279  31.250  1.00  0.00     0.074 A 
ATOM     58  C   UNL A   1      40.346  28.256  27.285  1.00  0.00     0.029 A 
ATOM     59  N   UNL A   1      41.034  27.624  29.330  1.00  0.00    -0.354 N 
ATOM     60  N   UNL A   1      38.198  30.356  31.960  1.00  0.00    -0.248 NA
ATOM     61  C   UNL A   1      37.013  30.848  29.989  1.00  0.00     0.031 C 
ATOM     62  C   UNL A   1      39.486  28.787  28.264  1.00  0.00     0.029 A 
ATOM     63  C   UNL A   1      39.914  28.392  29.538  1.00  0.00     0.049 A 
ATOM     64  H   UNL A   1      41.470  27.028  29.980  1.00  0.00     0.167 HD
ATOM     65  C   UNL A   1      38.356  29.348  31.048  1.00  0.00     0.074 A 
ATOM     66  C   UNL A   1      37.353  29.563  30.021  1.00  0.00     0.031 C 
ATOM     67  C   UNL A   1      39.572  28.760  30.887  1.00  0.00     0.031 A 
BRANCH  54  68
ATOM     68  C   UNL A   1      43.632  26.815  27.532  1.00  0.00    -0.014 A 
ATOM     69  C   UNL A   1      45.006  27.035  27.259  1.00  0.00     0.010 A 
ATOM     70  C   UNL A   1      43.082  25.579  27.167  1.00  0.00     0.010 A 
ATOM     71  C   UNL A   1      45.755  26.147  26.494  1.00  0.00     0.020 A 
ATOM     72  C   UNL A   1      43.850  24.655  26.430  1.00  0.00     0.020 A 
ATOM     73  C   UNL A   1      45.158  24.975  26.049  1.00  0.00     0.054 A 
BRANCH  73  74
ATOM     74  S   UNL A   1      46.106  23.938  24.903  1.00  0.00     0.124 S 
ATOM     75  O   UNL A   1      47.043  24.896  24.323  1.00  0.00    -0.237 OA
ATOM     76  O   UNL A   1      46.701  22.946  25.796  1.00  0.00    -0.237 OA
ATOM     77  O   UNL A   1      45.092  23.417  23.991  1.00  0.00    -0.744 OA
ENDBRANCH  73  74
ENDBRANCH  54  68
BRANCH  55  78
ATOM     78  C   UNL A   1      36.305  33.312  31.927  1.00  0.00    -0.014 A 
ATOM     79  C   UNL A   1      35.909  33.827  33.166  1.00  0.00     0.010 A 
ATOM     80  C   UNL A   1      35.379  33.530  30.859  1.00  0.00     0.010 A 
ATOM     81  C   UNL A   1      34.754  34.655  33.278  1.00  0.00     0.020 A 
ATOM     82  C   UNL A   1      34.281  34.391  30.938  1.00  0.00     0.020 A 
ATOM     83  C   UNL A   1      33.992  34.986  32.149  1.00  0.00     0.054 A 
BRANCH  83  84
ATOM     84  S   UNL A   1      32.732  36.301  32.206  1.00  0.00     0.124 S 
ATOM     85  O   UNL A   1      31.515  35.562  32.520  1.00  0.00    -0.237 OA
ATOM     86  O   UNL A   1      33.233  37.175  33.265  1.00  0.00    -0.237 OA
ATOM     87  O   UNL A   1      32.780  36.884  30.866  1.00  0.00    -0.744 OA
ENDBRANCH  83  84
ENDBRANCH  55  78
BRANCH  67  88
ATOM     88  C   UNL A   1      40.542  28.869  32.063  1.00  0.00    -0.014 A 
ATOM     89  C   UNL A   1      40.372  28.013  33.167  1.00  0.00     0.010 A 
ATOM     90  C   UNL A   1      41.583  29.820  32.152  1.00  0.00     0.010 A 
ATOM     91  C   UNL A   1      41.202  28.085  34.296  1.00  0.00     0.020 A 
ATOM     92  C   UNL A   1      42.423  29.905  33.285  1.00  0.00     0.020 A 
ATOM     93  C   UNL A   1      42.231  29.024  34.348  1.00  0.00     0.054 A 
BRANCH  93  94
ATOM     94  S   UNL A   1      43.312  29.049  35.812  1.00  0.00     0.124 S 
ATOM     95  O   UNL A   1      42.377  29.311  36.904  1.00  0.00    -0.237 OA
ATOM     96  O   UNL A   1      43.892  27.709  35.798  1.00  0.00    -0.237 OA
ATOM     97  O   UNL A   1      44.255  30.134  35.539  1.00  0.00    -0.744 OA
ENDBRANCH  93  94
ENDBRANCH  67  88
ENDBRANCH  41  42
ENDBRANCH  34  36
ENDBRANCH  33  34
ENDBRANCH  32  33
ENDBRANCH  31  32
ENDBRANCH  30  31
ENDBRANCH   1  30
TORSDOF 23
ENDMDL
