MODEL 1
REMARK VINA RESULT:      -9.9      0.000      0.000
REMARK SMILES CN(CC(N)=O)C(=O)c1csc(/C=C/C(=O)OCCOCCOC(=O)c2ccc(-c3c4nc(c(-c5ccc(S(=O)(=O)[O-])cc5)c5ccc([nH]5)c(-c5ccc(S(=O)(=O)[O-])cc5)c5nc(c(-c6ccc(S(=O)(=O)[O-])cc6)c6ccc3[nH]6)C=C5)C=C4)cc2)c1
REMARK SMILES IDX 19 1 18 2 17 3 15 4 16 5 14 6 13 7 12 8 9 9 10 10 86 11
REMARK SMILES IDX 11 12 7 13 8 14 2 15 1 16 3 17 4 18 5 19 6 20 20 23 21 24
REMARK SMILES IDX 22 25 23 26 24 27 25 28 26 29 27 30 85 31 28 32 84 33 29 34
REMARK SMILES IDX 30 35 31 36 78 37 32 38 83 39 77 40 79 41 33 42 82 43 76 44
REMARK SMILES IDX 75 45 34 47 64 48 45 49 63 50 46 51 49 52 62 53 80 54 47 55
REMARK SMILES IDX 48 56 61 58 81 59 50 60 35 61 36 62 44 63 37 64 43 65 38 66
REMARK SMILES IDX 39 67 40 68 41 69 42 70 65 71 66 72 74 73 67 74 73 75 68 76
REMARK SMILES IDX 69 77 70 78 71 79 72 80 51 81 52 82 60 83 53 84 59 85 54 86
REMARK SMILES IDX 55 87 56 88 57 89 58 90
REMARK H PARENT 5 21 5 22 79 46 49 57
REMARK Flexibility Score: inf
ROOT
ATOM      1  C   UNL A   1      38.129  21.954  25.447  1.00  0.00     0.202 C 
ENDROOT
BRANCH   1   2
ATOM      2  C   UNL A   1      37.155  20.861  25.003  1.00  0.00     0.261 C 
BRANCH   2   3
ATOM      3  O   UNL A   1      35.933  20.913  25.758  1.00  0.00    -0.460 OA
BRANCH   3   4
ATOM      4  C   UNL A   1      34.814  20.618  25.060  1.00  0.00     0.330 C 
ATOM      5  O   UNL A   1      34.507  19.527  24.600  1.00  0.00    -0.247 OA
BRANCH   4   6
ATOM      6  C   UNL A   1      33.895  21.767  24.945  1.00  0.00     0.095 C 
ATOM      7  C   UNL A   1      34.085  22.883  24.223  1.00  0.00     0.026 C 
BRANCH   7   8
ATOM      8  C   UNL A   1      33.112  23.937  24.156  1.00  0.00     0.028 A 
ATOM      9  C   UNL A   1      31.953  25.958  24.607  1.00  0.00     0.051 A 
ATOM     10  C   UNL A   1      31.322  25.517  23.463  1.00  0.00     0.079 A 
ATOM     11  C   UNL A   1      33.004  25.048  24.982  1.00  0.00     0.033 A 
ATOM     12  S   UNL A   1      31.862  23.986  22.964  1.00  0.00    -0.144 S 
BRANCH   9  13
ATOM     13  C   UNL A   1      31.667  27.245  25.237  1.00  0.00     0.254 C 
ATOM     14  O   UNL A   1      31.280  27.288  26.402  1.00  0.00    -0.269 OA
BRANCH  13  15
ATOM     15  N   UNL A   1      31.850  28.399  24.475  1.00  0.00    -0.332 N 
ATOM     16  C   UNL A   1      33.214  28.828  24.228  1.00  0.00     0.147 C 
BRANCH  15  17
ATOM     17  C   UNL A   1      30.773  29.282  24.026  1.00  0.00     0.219 C 
BRANCH  17  18
ATOM     18  C   UNL A   1      30.465  29.131  22.533  1.00  0.00     0.237 C 
ATOM     19  N   UNL A   1      31.002  30.094  21.724  1.00  0.00    -0.368 N 
ATOM     20  O   UNL A   1      29.798  28.219  22.053  1.00  0.00    -0.273 OA
ATOM     21  H   UNL A   1      31.536  30.823  22.115  1.00  0.00     0.159 HD
ATOM     22  H   UNL A   1      30.853  30.059  20.752  1.00  0.00     0.159 HD
ENDBRANCH  17  18
ENDBRANCH  15  17
ENDBRANCH  13  15
ENDBRANCH   9  13
ENDBRANCH   7   8
ENDBRANCH   4   6
ENDBRANCH   3   4
ENDBRANCH   2   3
ENDBRANCH   1   2
BRANCH   1  23
ATOM     23  O   UNL A   1      39.438  21.501  25.795  1.00  0.00    -0.374 OA
BRANCH  23  24
ATOM     24  C   UNL A   1      40.051  22.127  26.924  1.00  0.00     0.202 C 
BRANCH  24  25
ATOM     25  C   UNL A   1      41.575  21.985  27.010  1.00  0.00     0.261 C 
BRANCH  25  26
ATOM     26  O   UNL A   1      42.186  23.166  27.563  1.00  0.00    -0.460 OA
BRANCH  26  27
ATOM     27  C   UNL A   1      42.048  24.286  26.815  1.00  0.00     0.338 C 
ATOM     28  O   UNL A   1      42.086  24.365  25.595  1.00  0.00    -0.246 OA
BRANCH  27  29
ATOM     29  C   UNL A   1      41.654  25.420  27.673  1.00  0.00     0.060 A 
ATOM     30  C   UNL A   1      42.590  26.446  27.858  1.00  0.00     0.016 A 
ATOM     31  C   UNL A   1      40.419  25.462  28.325  1.00  0.00     0.016 A 
ATOM     32  C   UNL A   1      42.317  27.492  28.736  1.00  0.00     0.010 A 
ATOM     33  C   UNL A   1      40.149  26.510  29.212  1.00  0.00     0.010 A 
ATOM     34  C   UNL A   1      41.110  27.510  29.447  1.00  0.00    -0.014 A 
BRANCH  34  35
ATOM     35  C   UNL A   1      40.916  28.497  30.536  1.00  0.00     0.031 A 
ATOM     36  C   UNL A   1      41.796  28.429  31.753  1.00  0.00     0.074 A 
ATOM     37  C   UNL A   1      39.979  29.457  30.436  1.00  0.00     0.049 A 
ATOM     38  N   UNL A   1      41.793  29.186  32.821  1.00  0.00    -0.248 NA
ATOM     39  C   UNL A   1      42.809  27.363  31.770  1.00  0.00     0.031 C 
ATOM     40  C   UNL A   1      39.083  29.646  29.296  1.00  0.00     0.029 A 
ATOM     41  N   UNL A   1      39.623  30.449  31.314  1.00  0.00    -0.354 N 
ATOM     42  C   UNL A   1      42.798  28.684  33.641  1.00  0.00     0.074 A 
ATOM     43  C   UNL A   1      43.366  27.539  32.960  1.00  0.00     0.031 C 
ATOM     44  C   UNL A   1      38.269  30.685  29.552  1.00  0.00     0.029 A 
ATOM     45  C   UNL A   1      38.570  31.215  30.880  1.00  0.00     0.049 A 
ATOM     46  H   UNL A   1      40.081  30.596  32.174  1.00  0.00     0.167 HD
ATOM     47  C   UNL A   1      43.211  29.133  34.849  1.00  0.00     0.031 A 
ATOM     48  C   UNL A   1      37.909  32.218  31.492  1.00  0.00     0.031 A 
ATOM     49  C   UNL A   1      42.631  30.256  35.536  1.00  0.00     0.049 A 
ATOM     50  C   UNL A   1      38.346  32.671  32.858  1.00  0.00     0.074 A 
ATOM     51  C   UNL A   1      42.996  30.806  36.752  1.00  0.00     0.029 A 
ATOM     52  N   UNL A   1      41.549  30.993  35.074  1.00  0.00    -0.354 N 
ATOM     53  N   UNL A   1      39.325  32.214  33.602  1.00  0.00    -0.248 NA
ATOM     54  C   UNL A   1      37.599  33.783  33.460  1.00  0.00     0.031 C 
ATOM     55  C   UNL A   1      42.100  31.839  37.051  1.00  0.00     0.029 A 
ATOM     56  C   UNL A   1      41.214  31.971  35.994  1.00  0.00     0.049 A 
ATOM     57  H   UNL A   1      41.089  30.841  34.217  1.00  0.00     0.167 HD
ATOM     58  C   UNL A   1      39.322  32.993  34.755  1.00  0.00     0.074 A 
ATOM     59  C   UNL A   1      38.253  33.959  34.601  1.00  0.00     0.031 C 
ATOM     60  C   UNL A   1      40.136  32.917  35.838  1.00  0.00     0.031 A 
BRANCH  47  61
ATOM     61  C   UNL A   1      44.320  28.366  35.521  1.00  0.00    -0.014 A 
ATOM     62  C   UNL A   1      45.649  28.827  35.496  1.00  0.00     0.010 A 
ATOM     63  C   UNL A   1      44.028  27.155  36.174  1.00  0.00     0.010 A 
ATOM     64  C   UNL A   1      46.675  28.060  36.056  1.00  0.00     0.020 A 
ATOM     65  C   UNL A   1      45.047  26.399  36.760  1.00  0.00     0.020 A 
ATOM     66  C   UNL A   1      46.367  26.843  36.673  1.00  0.00     0.054 A 
BRANCH  66  67
ATOM     67  S   UNL A   1      47.718  25.850  37.365  1.00  0.00     0.124 S 
ATOM     68  O   UNL A   1      48.827  26.193  36.478  1.00  0.00    -0.237 OA
ATOM     69  O   UNL A   1      47.826  26.357  38.730  1.00  0.00    -0.237 OA
ATOM     70  O   UNL A   1      47.232  24.477  37.250  1.00  0.00    -0.744 OA
ENDBRANCH  66  67
ENDBRANCH  47  61
BRANCH  48  71
ATOM     71  C   UNL A   1      36.753  32.850  30.802  1.00  0.00    -0.014 A 
ATOM     72  C   UNL A   1      35.435  32.511  31.149  1.00  0.00     0.010 A 
ATOM     73  C   UNL A   1      36.972  33.844  29.830  1.00  0.00     0.010 A 
ATOM     74  C   UNL A   1      34.356  33.163  30.545  1.00  0.00     0.020 A 
ATOM     75  C   UNL A   1      35.896  34.514  29.241  1.00  0.00     0.020 A 
ATOM     76  C   UNL A   1      34.593  34.168  29.603  1.00  0.00     0.054 A 
BRANCH  76  77
ATOM     77  S   UNL A   1      33.181  35.074  28.913  1.00  0.00     0.124 S 
ATOM     78  O   UNL A   1      32.655  34.122  27.939  1.00  0.00    -0.237 OA
ATOM     79  O   UNL A   1      32.347  35.301  30.091  1.00  0.00    -0.237 OA
ATOM     80  O   UNL A   1      33.788  36.277  28.350  1.00  0.00    -0.744 OA
ENDBRANCH  76  77
ENDBRANCH  48  71
BRANCH  60  81
ATOM     81  C   UNL A   1      39.917  33.918  36.943  1.00  0.00    -0.014 A 
ATOM     82  C   UNL A   1      40.246  35.274  36.774  1.00  0.00     0.010 A 
ATOM     83  C   UNL A   1      39.314  33.503  38.146  1.00  0.00     0.010 A 
ATOM     84  C   UNL A   1      40.005  36.193  37.800  1.00  0.00     0.020 A 
ATOM     85  C   UNL A   1      39.048  34.423  39.162  1.00  0.00     0.020 A 
ATOM     86  C   UNL A   1      39.408  35.761  38.989  1.00  0.00     0.054 A 
BRANCH  86  87
ATOM     87  S   UNL A   1      39.060  36.980  40.287  1.00  0.00     0.124 S 
ATOM     88  O   UNL A   1      38.534  38.103  39.515  1.00  0.00    -0.237 OA
ATOM     89  O   UNL A   1      38.088  36.286  41.129  1.00  0.00    -0.237 OA
ATOM     90  O   UNL A   1      40.363  37.206  40.908  1.00  0.00    -0.744 OA
ENDBRANCH  86  87
ENDBRANCH  60  81
ENDBRANCH  34  35
ENDBRANCH  27  29
ENDBRANCH  26  27
ENDBRANCH  25  26
ENDBRANCH  24  25
ENDBRANCH  23  24
ENDBRANCH   1  23
TORSDOF 22
ENDMDL
MODEL 2
REMARK VINA RESULT:      -9.3      2.424      9.521
REMARK SMILES CN(CC(N)=O)C(=O)c1csc(/C=C/C(=O)OCCOCCOC(=O)c2ccc(-c3c4nc(c(-c5ccc(S(=O)(=O)[O-])cc5)c5ccc([nH]5)c(-c5ccc(S(=O)(=O)[O-])cc5)c5nc(c(-c6ccc(S(=O)(=O)[O-])cc6)c6ccc3[nH]6)C=C5)C=C4)cc2)c1
REMARK SMILES IDX 19 1 18 2 17 3 15 4 16 5 14 6 13 7 12 8 9 9 10 10 86 11
REMARK SMILES IDX 11 12 7 13 8 14 2 15 1 16 3 17 4 18 5 19 6 20 20 23 21 24
REMARK SMILES IDX 22 25 23 26 24 27 25 28 26 29 27 30 85 31 28 32 84 33 29 34
REMARK SMILES IDX 30 35 31 36 78 37 32 38 83 39 77 40 79 41 33 42 82 43 76 44
REMARK SMILES IDX 75 45 34 47 64 48 45 49 63 50 46 51 49 52 62 53 80 54 47 55
REMARK SMILES IDX 48 56 61 58 81 59 50 60 35 61 36 62 44 63 37 64 43 65 38 66
REMARK SMILES IDX 39 67 40 68 41 69 42 70 65 71 66 72 74 73 67 74 73 75 68 76
REMARK SMILES IDX 69 77 70 78 71 79 72 80 51 81 52 82 60 83 53 84 59 85 54 86
REMARK SMILES IDX 55 87 56 88 57 89 58 90
REMARK H PARENT 5 21 5 22 79 46 49 57
REMARK Flexibility Score: inf
ROOT
ATOM      1  C   UNL A   1      35.094  33.733  28.210  1.00  0.00     0.202 C 
ENDROOT
BRANCH   1   2
ATOM      2  C   UNL A   1      34.243  32.463  28.157  1.00  0.00     0.261 C 
BRANCH   2   3
ATOM      3  O   UNL A   1      34.908  31.363  28.801  1.00  0.00    -0.460 OA
BRANCH   3   4
ATOM      4  C   UNL A   1      35.524  30.498  27.965  1.00  0.00     0.330 C 
ATOM      5  O   UNL A   1      36.678  30.562  27.567  1.00  0.00    -0.247 OA
BRANCH   4   6
ATOM      6  C   UNL A   1      34.667  29.353  27.599  1.00  0.00     0.095 C 
ATOM      7  C   UNL A   1      34.136  29.094  26.393  1.00  0.00     0.026 C 
BRANCH   7   8
ATOM      8  C   UNL A   1      33.333  27.933  26.133  1.00  0.00     0.028 A 
ATOM      9  C   UNL A   1      32.676  25.669  25.864  1.00  0.00     0.051 A 
ATOM     10  C   UNL A   1      31.465  26.327  25.800  1.00  0.00     0.079 A 
ATOM     11  C   UNL A   1      33.745  26.608  26.083  1.00  0.00     0.033 A 
ATOM     12  S   UNL A   1      31.634  28.016  25.830  1.00  0.00    -0.144 S 
BRANCH   9  13
ATOM     13  C   UNL A   1      32.801  24.213  25.856  1.00  0.00     0.254 C 
ATOM     14  O   UNL A   1      33.076  23.614  26.891  1.00  0.00    -0.269 OA
BRANCH  13  15
ATOM     15  N   UNL A   1      32.597  23.548  24.647  1.00  0.00    -0.332 N 
ATOM     16  C   UNL A   1      31.275  23.004  24.398  1.00  0.00     0.147 C 
BRANCH  15  17
ATOM     17  C   UNL A   1      33.649  23.239  23.678  1.00  0.00     0.219 C 
BRANCH  17  18
ATOM     18  C   UNL A   1      33.445  23.947  22.334  1.00  0.00     0.237 C 
ATOM     19  N   UNL A   1      33.277  25.302  22.405  1.00  0.00    -0.368 N 
ATOM     20  O   UNL A   1      33.437  23.377  21.247  1.00  0.00    -0.273 OA
ATOM     21  H   UNL A   1      33.284  25.753  23.280  1.00  0.00     0.159 HD
ATOM     22  H   UNL A   1      33.148  25.825  21.581  1.00  0.00     0.159 HD
ENDBRANCH  17  18
ENDBRANCH  15  17
ENDBRANCH  13  15
ENDBRANCH   9  13
ENDBRANCH   7   8
ENDBRANCH   4   6
ENDBRANCH   3   4
ENDBRANCH   2   3
ENDBRANCH   1   2
BRANCH   1  23
ATOM     23  O   UNL A   1      34.361  34.959  28.221  1.00  0.00    -0.374 OA
BRANCH  23  24
ATOM     24  C   UNL A   1      33.080  34.930  28.852  1.00  0.00     0.202 C 
BRANCH  24  25
ATOM     25  C   UNL A   1      32.845  36.008  29.917  1.00  0.00     0.261 C 
BRANCH  25  26
ATOM     26  O   UNL A   1      32.287  35.450  31.121  1.00  0.00    -0.460 OA
BRANCH  26  27
ATOM     27  C   UNL A   1      32.971  35.733  32.256  1.00  0.00     0.338 C 
ATOM     28  O   UNL A   1      32.608  36.460  33.170  1.00  0.00    -0.246 OA
BRANCH  27  29
ATOM     29  C   UNL A   1      34.176  34.887  32.343  1.00  0.00     0.060 A 
ATOM     30  C   UNL A   1      34.050  33.647  32.982  1.00  0.00     0.016 A 
ATOM     31  C   UNL A   1      35.416  35.311  31.858  1.00  0.00     0.016 A 
ATOM     32  C   UNL A   1      35.173  32.848  33.185  1.00  0.00     0.010 A 
ATOM     33  C   UNL A   1      36.544  34.511  32.069  1.00  0.00     0.010 A 
ATOM     34  C   UNL A   1      36.433  33.292  32.764  1.00  0.00    -0.014 A 
BRANCH  34  35
ATOM     35  C   UNL A   1      37.647  32.547  33.174  1.00  0.00     0.031 A 
ATOM     36  C   UNL A   1      38.329  32.911  34.463  1.00  0.00     0.074 A 
ATOM     37  C   UNL A   1      38.127  31.545  32.418  1.00  0.00     0.049 A 
ATOM     38  N   UNL A   1      39.403  32.396  35.007  1.00  0.00    -0.248 NA
ATOM     39  C   UNL A   1      37.724  34.004  35.240  1.00  0.00     0.031 C 
ATOM     40  C   UNL A   1      37.540  31.078  31.162  1.00  0.00     0.029 A 
ATOM     41  N   UNL A   1      39.227  30.744  32.596  1.00  0.00    -0.354 N 
ATOM     42  C   UNL A   1      39.607  33.106  36.184  1.00  0.00     0.074 A 
ATOM     43  C   UNL A   1      38.564  34.107  36.260  1.00  0.00     0.031 C 
ATOM     44  C   UNL A   1      38.296  30.079  30.675  1.00  0.00     0.029 A 
ATOM     45  C   UNL A   1      39.430  29.854  31.570  1.00  0.00     0.049 A 
ATOM     46  H   UNL A   1      39.814  30.802  33.385  1.00  0.00     0.167 HD
ATOM     47  C   UNL A   1      40.572  32.940  37.120  1.00  0.00     0.031 A 
ATOM     48  C   UNL A   1      40.428  28.972  31.363  1.00  0.00     0.031 A 
ATOM     49  C   UNL A   1      41.621  31.960  37.033  1.00  0.00     0.049 A 
ATOM     50  C   UNL A   1      41.523  28.836  32.385  1.00  0.00     0.074 A 
ATOM     51  C   UNL A   1      42.632  31.695  37.941  1.00  0.00     0.029 A 
ATOM     52  N   UNL A   1      41.808  31.092  35.966  1.00  0.00    -0.354 N 
ATOM     53  N   UNL A   1      41.679  29.486  33.514  1.00  0.00    -0.248 NA
ATOM     54  C   UNL A   1      42.568  27.841  32.112  1.00  0.00     0.031 C 
ATOM     55  C   UNL A   1      43.460  30.706  37.397  1.00  0.00     0.029 A 
ATOM     56  C   UNL A   1      42.933  30.314  36.177  1.00  0.00     0.049 A 
ATOM     57  H   UNL A   1      41.224  31.039  35.174  1.00  0.00     0.167 HD
ATOM     58  C   UNL A   1      42.831  28.967  34.096  1.00  0.00     0.074 A 
ATOM     59  C   UNL A   1      43.323  27.940  33.199  1.00  0.00     0.031 C 
ATOM     60  C   UNL A   1      43.423  29.306  35.269  1.00  0.00     0.031 A 
BRANCH  47  61
ATOM     61  C   UNL A   1      40.554  33.882  38.294  1.00  0.00    -0.014 A 
ATOM     62  C   UNL A   1      41.225  35.118  38.252  1.00  0.00     0.010 A 
ATOM     63  C   UNL A   1      39.867  33.517  39.466  1.00  0.00     0.010 A 
ATOM     64  C   UNL A   1      41.263  35.942  39.381  1.00  0.00     0.020 A 
ATOM     65  C   UNL A   1      39.879  34.350  40.588  1.00  0.00     0.020 A 
ATOM     66  C   UNL A   1      40.600  35.545  40.546  1.00  0.00     0.054 A 
BRANCH  66  67
ATOM     67  S   UNL A   1      40.689  36.615  42.008  1.00  0.00     0.124 S 
ATOM     68  O   UNL A   1      42.056  37.124  41.924  1.00  0.00    -0.237 OA
ATOM     69  O   UNL A   1      39.638  37.596  41.756  1.00  0.00    -0.237 OA
ATOM     70  O   UNL A   1      40.433  35.703  43.121  1.00  0.00    -0.744 OA
ENDBRANCH  66  67
ENDBRANCH  47  61
BRANCH  48  71
ATOM     71  C   UNL A   1      40.427  28.155  30.120  1.00  0.00    -0.014 A 
ATOM     72  C   UNL A   1      41.236  28.508  29.027  1.00  0.00     0.010 A 
ATOM     73  C   UNL A   1      39.655  26.980  30.051  1.00  0.00     0.010 A 
ATOM     74  C   UNL A   1      41.281  27.694  27.891  1.00  0.00     0.020 A 
ATOM     75  C   UNL A   1      39.715  26.153  28.927  1.00  0.00     0.020 A 
ATOM     76  C   UNL A   1      40.529  26.516  27.853  1.00  0.00     0.054 A 
BRANCH  76  77
ATOM     77  S   UNL A   1      40.688  25.422  26.414  1.00  0.00     0.124 S 
ATOM     78  O   UNL A   1      39.315  24.965  26.226  1.00  0.00    -0.237 OA
ATOM     79  O   UNL A   1      41.201  26.325  25.387  1.00  0.00    -0.237 OA
ATOM     80  O   UNL A   1      41.633  24.402  26.863  1.00  0.00    -0.744 OA
ENDBRANCH  76  77
ENDBRANCH  48  71
BRANCH  60  81
ATOM     81  C   UNL A   1      44.664  28.550  35.665  1.00  0.00    -0.014 A 
ATOM     82  C   UNL A   1      44.587  27.352  36.396  1.00  0.00     0.010 A 
ATOM     83  C   UNL A   1      45.925  29.017  35.245  1.00  0.00     0.010 A 
ATOM     84  C   UNL A   1      45.749  26.648  36.725  1.00  0.00     0.020 A 
ATOM     85  C   UNL A   1      47.086  28.303  35.550  1.00  0.00     0.020 A 
ATOM     86  C   UNL A   1      46.992  27.129  36.301  1.00  0.00     0.054 A 
BRANCH  86  87
ATOM     87  S   UNL A   1      48.483  26.174  36.699  1.00  0.00     0.124 S 
ATOM     88  O   UNL A   1      47.921  24.885  37.092  1.00  0.00    -0.237 OA
ATOM     89  O   UNL A   1      49.218  26.182  35.436  1.00  0.00    -0.237 OA
ATOM     90  O   UNL A   1      49.105  26.937  37.778  1.00  0.00    -0.744 OA
ENDBRANCH  86  87
ENDBRANCH  60  81
ENDBRANCH  34  35
ENDBRANCH  27  29
ENDBRANCH  26  27
ENDBRANCH  25  26
ENDBRANCH  24  25
ENDBRANCH  23  24
ENDBRANCH   1  23
TORSDOF 22
ENDMDL
MODEL 3
REMARK VINA RESULT:      -8.4      7.415     12.511
REMARK SMILES CN(CC(N)=O)C(=O)c1csc(/C=C/C(=O)OCCOCCOC(=O)c2ccc(-c3c4nc(c(-c5ccc(S(=O)(=O)[O-])cc5)c5ccc([nH]5)c(-c5ccc(S(=O)(=O)[O-])cc5)c5nc(c(-c6ccc(S(=O)(=O)[O-])cc6)c6ccc3[nH]6)C=C5)C=C4)cc2)c1
REMARK SMILES IDX 19 1 18 2 17 3 15 4 16 5 14 6 13 7 12 8 9 9 10 10 86 11
REMARK SMILES IDX 11 12 7 13 8 14 2 15 1 16 3 17 4 18 5 19 6 20 20 23 21 24
REMARK SMILES IDX 22 25 23 26 24 27 25 28 26 29 27 30 85 31 28 32 84 33 29 34
REMARK SMILES IDX 30 35 31 36 78 37 32 38 83 39 77 40 79 41 33 42 82 43 76 44
REMARK SMILES IDX 75 45 34 47 64 48 45 49 63 50 46 51 49 52 62 53 80 54 47 55
REMARK SMILES IDX 48 56 61 58 81 59 50 60 35 61 36 62 44 63 37 64 43 65 38 66
REMARK SMILES IDX 39 67 40 68 41 69 42 70 65 71 66 72 74 73 67 74 73 75 68 76
REMARK SMILES IDX 69 77 70 78 71 79 72 80 51 81 52 82 60 83 53 84 59 85 54 86
REMARK SMILES IDX 55 87 56 88 57 89 58 90
REMARK H PARENT 5 21 5 22 79 46 49 57
REMARK Flexibility Score: inf
ROOT
ATOM      1  C   UNL A   1      34.804  33.440  30.469  1.00  0.00     0.202 C 
ENDROOT
BRANCH   1   2
ATOM      2  C   UNL A   1      35.633  32.712  29.409  1.00  0.00     0.261 C 
BRANCH   2   3
ATOM      3  O   UNL A   1      35.446  31.289  29.488  1.00  0.00    -0.460 OA
BRANCH   3   4
ATOM      4  C   UNL A   1      35.470  30.640  28.302  1.00  0.00     0.330 C 
ATOM      5  O   UNL A   1      34.645  30.730  27.405  1.00  0.00    -0.247 OA
BRANCH   4   6
ATOM      6  C   UNL A   1      36.681  29.814  28.130  1.00  0.00     0.095 C 
ATOM      7  C   UNL A   1      37.429  29.265  29.100  1.00  0.00     0.026 C 
BRANCH   7   8
ATOM      8  C   UNL A   1      38.579  28.451  28.824  1.00  0.00     0.028 A 
ATOM      9  C   UNL A   1      40.193  27.163  27.656  1.00  0.00     0.051 A 
ATOM     10  C   UNL A   1      40.771  27.280  28.903  1.00  0.00     0.079 A 
ATOM     11  C   UNL A   1      38.939  27.867  27.617  1.00  0.00     0.033 A 
ATOM     12  S   UNL A   1      39.761  28.060  30.023  1.00  0.00    -0.144 S 
BRANCH   9  13
ATOM     13  C   UNL A   1      40.859  26.532  26.518  1.00  0.00     0.254 C 
ATOM     14  O   UNL A   1      40.427  25.478  26.060  1.00  0.00    -0.269 OA
BRANCH  13  15
ATOM     15  N   UNL A   1      41.982  27.165  25.986  1.00  0.00    -0.332 N 
ATOM     16  C   UNL A   1      41.859  28.572  25.649  1.00  0.00     0.147 C 
BRANCH  15  17
ATOM     17  C   UNL A   1      43.224  26.488  25.614  1.00  0.00     0.219 C 
BRANCH  17  18
ATOM     18  C   UNL A   1      43.868  25.742  26.788  1.00  0.00     0.237 C 
ATOM     19  N   UNL A   1      44.138  24.420  26.565  1.00  0.00    -0.368 N 
ATOM     20  O   UNL A   1      44.147  26.258  27.866  1.00  0.00    -0.273 OA
ATOM     21  H   UNL A   1      43.912  24.011  25.699  1.00  0.00     0.159 HD
ATOM     22  H   UNL A   1      44.559  23.878  27.271  1.00  0.00     0.159 HD
ENDBRANCH  17  18
ENDBRANCH  15  17
ENDBRANCH  13  15
ENDBRANCH   9  13
ENDBRANCH   7   8
ENDBRANCH   4   6
ENDBRANCH   3   4
ENDBRANCH   2   3
ENDBRANCH   1   2
BRANCH   1  23
ATOM     23  O   UNL A   1      34.327  32.621  31.538  1.00  0.00    -0.374 OA
BRANCH  23  24
ATOM     24  C   UNL A   1      34.908  32.848  32.823  1.00  0.00     0.202 C 
BRANCH  24  25
ATOM     25  C   UNL A   1      36.422  33.091  32.830  1.00  0.00     0.261 C 
BRANCH  25  26
ATOM     26  O   UNL A   1      37.127  32.017  33.479  1.00  0.00    -0.460 OA
BRANCH  26  27
ATOM     27  C   UNL A   1      37.431  30.966  32.681  1.00  0.00     0.338 C 
ATOM     28  O   UNL A   1      36.715  30.008  32.422  1.00  0.00    -0.246 OA
BRANCH  27  29
ATOM     29  C   UNL A   1      38.712  31.210  31.992  1.00  0.00     0.060 A 
ATOM     30  C   UNL A   1      39.889  30.964  32.710  1.00  0.00     0.016 A 
ATOM     31  C   UNL A   1      38.769  31.715  30.690  1.00  0.00     0.016 A 
ATOM     32  C   UNL A   1      41.127  31.271  32.150  1.00  0.00     0.010 A 
ATOM     33  C   UNL A   1      40.013  32.030  30.132  1.00  0.00     0.010 A 
ATOM     34  C   UNL A   1      41.194  31.842  30.872  1.00  0.00    -0.014 A 
BRANCH  34  35
ATOM     35  C   UNL A   1      42.488  32.367  30.372  1.00  0.00     0.031 A 
ATOM     36  C   UNL A   1      42.831  33.812  30.604  1.00  0.00     0.074 A 
ATOM     37  C   UNL A   1      43.356  31.563  29.734  1.00  0.00     0.049 A 
ATOM     38  N   UNL A   1      43.900  34.477  30.247  1.00  0.00    -0.248 NA
ATOM     39  C   UNL A   1      41.834  34.614  31.330  1.00  0.00     0.031 C 
ATOM     40  C   UNL A   1      43.152  30.138  29.472  1.00  0.00     0.029 A 
ATOM     41  N   UNL A   1      44.582  31.836  29.183  1.00  0.00    -0.354 N 
ATOM     42  C   UNL A   1      43.702  35.777  30.697  1.00  0.00     0.074 A 
ATOM     43  C   UNL A   1      42.398  35.813  31.325  1.00  0.00     0.031 C 
ATOM     44  C   UNL A   1      44.214  29.665  28.798  1.00  0.00     0.029 A 
ATOM     45  C   UNL A   1      45.158  30.756  28.560  1.00  0.00     0.049 A 
ATOM     46  H   UNL A   1      45.009  32.722  29.231  1.00  0.00     0.167 HD
ATOM     47  C   UNL A   1      44.529  36.845  30.599  1.00  0.00     0.031 A 
ATOM     48  C   UNL A   1      46.305  30.661  27.858  1.00  0.00     0.031 A 
ATOM     49  C   UNL A   1      45.815  36.814  29.954  1.00  0.00     0.049 A 
ATOM     50  C   UNL A   1      47.188  31.870  27.712  1.00  0.00     0.074 A 
ATOM     51  C   UNL A   1      46.739  37.836  29.826  1.00  0.00     0.029 A 
ATOM     52  N   UNL A   1      46.352  35.708  29.313  1.00  0.00    -0.354 N 
ATOM     53  N   UNL A   1      47.007  33.082  28.180  1.00  0.00    -0.248 NA
ATOM     54  C   UNL A   1      48.435  31.695  26.955  1.00  0.00     0.031 C 
ATOM     55  C   UNL A   1      47.810  37.362  29.059  1.00  0.00     0.029 A 
ATOM     56  C   UNL A   1      47.580  36.028  28.761  1.00  0.00     0.049 A 
ATOM     57  H   UNL A   1      45.922  34.823  29.261  1.00  0.00     0.167 HD
ATOM     58  C   UNL A   1      48.125  33.811  27.789  1.00  0.00     0.074 A 
ATOM     59  C   UNL A   1      48.982  32.899  27.058  1.00  0.00     0.031 C 
ATOM     60  C   UNL A   1      48.417  35.116  28.020  1.00  0.00     0.031 A 
BRANCH  47  61
ATOM     61  C   UNL A   1      44.033  38.149  31.167  1.00  0.00    -0.014 A 
ATOM     62  C   UNL A   1      43.599  39.193  30.332  1.00  0.00     0.010 A 
ATOM     63  C   UNL A   1      44.016  38.336  32.562  1.00  0.00     0.010 A 
ATOM     64  C   UNL A   1      43.217  40.423  30.876  1.00  0.00     0.020 A 
ATOM     65  C   UNL A   1      43.609  39.554  33.112  1.00  0.00     0.020 A 
ATOM     66  C   UNL A   1      43.238  40.599  32.263  1.00  0.00     0.054 A 
BRANCH  66  67
ATOM     67  S   UNL A   1      42.769  42.213  32.945  1.00  0.00     0.124 S 
ATOM     68  O   UNL A   1      42.241  42.894  31.766  1.00  0.00    -0.237 OA
ATOM     69  O   UNL A   1      41.782  41.861  33.961  1.00  0.00    -0.237 OA
ATOM     70  O   UNL A   1      44.027  42.749  33.462  1.00  0.00    -0.744 OA
ENDBRANCH  66  67
ENDBRANCH  47  61
BRANCH  48  71
ATOM     71  C   UNL A   1      46.667  29.360  27.236  1.00  0.00    -0.014 A 
ATOM     72  C   UNL A   1      47.388  28.394  27.957  1.00  0.00     0.010 A 
ATOM     73  C   UNL A   1      46.235  29.060  25.930  1.00  0.00     0.010 A 
ATOM     74  C   UNL A   1      47.661  27.147  27.388  1.00  0.00     0.020 A 
ATOM     75  C   UNL A   1      46.486  27.806  25.367  1.00  0.00     0.020 A 
ATOM     76  C   UNL A   1      47.199  26.856  26.101  1.00  0.00     0.054 A 
BRANCH  76  77
ATOM     77  S   UNL A   1      47.471  25.195  25.426  1.00  0.00     0.124 S 
ATOM     78  O   UNL A   1      46.406  25.090  24.433  1.00  0.00    -0.237 OA
ATOM     79  O   UNL A   1      48.827  25.291  24.892  1.00  0.00    -0.237 OA
ATOM     80  O   UNL A   1      47.331  24.325  26.591  1.00  0.00    -0.744 OA
ENDBRANCH  76  77
ENDBRANCH  48  71
BRANCH  60  81
ATOM     81  C   UNL A   1      49.728  35.639  27.492  1.00  0.00    -0.014 A 
ATOM     82  C   UNL A   1      49.814  36.247  26.228  1.00  0.00     0.010 A 
ATOM     83  C   UNL A   1      50.878  35.574  28.301  1.00  0.00     0.010 A 
ATOM     84  C   UNL A   1      51.033  36.756  25.769  1.00  0.00     0.020 A 
ATOM     85  C   UNL A   1      52.092  36.104  27.857  1.00  0.00     0.020 A 
ATOM     86  C   UNL A   1      52.165  36.679  26.587  1.00  0.00     0.054 A 
BRANCH  86  87
ATOM     87  S   UNL A   1      53.725  37.388  25.990  1.00  0.00     0.124 S 
ATOM     88  O   UNL A   1      54.085  38.290  27.081  1.00  0.00    -0.237 OA
ATOM     89  O   UNL A   1      54.578  36.211  25.841  1.00  0.00    -0.237 OA
ATOM     90  O   UNL A   1      53.352  38.041  24.738  1.00  0.00    -0.744 OA
ENDBRANCH  86  87
ENDBRANCH  60  81
ENDBRANCH  34  35
ENDBRANCH  27  29
ENDBRANCH  26  27
ENDBRANCH  25  26
ENDBRANCH  24  25
ENDBRANCH  23  24
ENDBRANCH   1  23
TORSDOF 22
ENDMDL
