MODEL 1
REMARK VINA RESULT:      -9.6      0.000      0.000
REMARK SMILES CC[C@H](C(=O)OCCOCCOC(=O)c1ccc(-c2c3nc(c(-c4ccc(S(=O)(=O)[O-])cc4)c4ccc([nH]4)c(-c4ccc(S(=O)(=O)[O-])cc4)c4nc(c(-c5ccc(S(=O)(=O)[O-])cc5)c5ccc2[nH]5)C=C4)C=C3)cc1)N1C(=O)/C(=C\c2cccs2)SC1=S
REMARK SMILES IDX 10 1 9 2 8 3 7 4 6 5 4 6 5 7 3 8 2 9 1 10 75 11 76 12 86 13
REMARK SMILES IDX 77 14 78 15 85 16 87 17 79 18 80 19 81 20 84 21 82 22 83 23
REMARK SMILES IDX 11 24 12 25 13 26 14 27 15 28 16 29 74 30 17 31 73 32 18 33
REMARK SMILES IDX 19 34 20 35 67 36 21 37 72 38 66 39 68 40 22 41 71 42 65 43
REMARK SMILES IDX 64 44 23 46 53 47 34 48 52 49 35 50 38 51 51 52 69 53 36 54
REMARK SMILES IDX 37 55 50 57 70 58 39 59 24 60 25 61 33 62 26 63 32 64 27 65
REMARK SMILES IDX 28 66 29 67 30 68 31 69 54 70 55 71 63 72 56 73 62 74 57 75
REMARK SMILES IDX 58 76 59 77 60 78 61 79 40 80 41 81 49 82 42 83 48 84 43 85
REMARK SMILES IDX 44 86 45 87 46 88 47 89
REMARK H PARENT 68 45 38 56
REMARK Flexibility Score: inf
ROOT
ATOM      1  C   UNL A   1      33.227  31.317  27.215  1.00  0.00     0.202 C 
ENDROOT
BRANCH   1   2
ATOM      2  O   UNL A   1      32.535  30.074  27.261  1.00  0.00    -0.374 OA
BRANCH   2   3
ATOM      3  C   UNL A   1      33.324  28.900  27.453  1.00  0.00     0.202 C 
BRANCH   3   4
ATOM      4  C   UNL A   1      32.956  27.656  26.634  1.00  0.00     0.261 C 
BRANCH   4   5
ATOM      5  O   UNL A   1      32.134  27.997  25.501  1.00  0.00    -0.462 OA
BRANCH   5   6
ATOM      6  C   UNL A   1      32.773  28.292  24.330  1.00  0.00     0.329 C 
ATOM      7  O   UNL A   1      33.486  29.269  24.135  1.00  0.00    -0.250 OA
BRANCH   6   8
ATOM      8  C   UNL A   1      32.440  27.233  23.258  1.00  0.00     0.201 C 
BRANCH   8   9
ATOM      9  C   UNL A   1      33.338  26.006  23.516  1.00  0.00     0.034 C 
ATOM     10  C   UNL A   1      33.700  25.154  22.301  1.00  0.00     0.007 C 
ENDBRANCH   8   9
BRANCH   8  11
ATOM     11  N   UNL A   1      30.949  27.037  23.314  1.00  0.00    -0.278 N 
ATOM     12  C   UNL A   1      30.182  27.983  22.642  1.00  0.00     0.267 C 
ATOM     13  C   UNL A   1      30.201  26.004  23.830  1.00  0.00     0.149 C 
ATOM     14  O   UNL A   1      30.580  28.664  21.709  1.00  0.00    -0.268 OA
ATOM     15  C   UNL A   1      28.774  27.972  23.120  1.00  0.00     0.081 C 
ATOM     16  S   UNL A   1      28.505  26.491  23.955  1.00  0.00    -0.054 SA
ATOM     17  S   UNL A   1      30.621  24.443  24.235  1.00  0.00    -0.052 S 
ATOM     18  C   UNL A   1      27.832  28.924  23.043  1.00  0.00     0.040 C 
BRANCH  18  19
ATOM     19  C   UNL A   1      28.007  30.207  22.456  1.00  0.00     0.028 A 
ATOM     20  C   UNL A   1      27.892  30.621  21.141  1.00  0.00     0.020 A 
ATOM     21  S   UNL A   1      28.350  31.553  23.480  1.00  0.00    -0.144 S 
ATOM     22  C   UNL A   1      28.131  32.018  20.970  1.00  0.00     0.012 A 
ATOM     23  C   UNL A   1      28.407  32.641  22.165  1.00  0.00     0.065 A 
ENDBRANCH  18  19
ENDBRANCH   8  11
ENDBRANCH   6   8
ENDBRANCH   5   6
ENDBRANCH   4   5
ENDBRANCH   3   4
ENDBRANCH   2   3
ENDBRANCH   1   2
BRANCH   1  24
ATOM     24  C   UNL A   1      32.460  32.591  27.597  1.00  0.00     0.261 C 
BRANCH  24  25
ATOM     25  O   UNL A   1      33.285  33.758  27.719  1.00  0.00    -0.460 OA
BRANCH  25  26
ATOM     26  C   UNL A   1      33.498  34.148  28.998  1.00  0.00     0.338 C 
ATOM     27  O   UNL A   1      32.724  34.749  29.733  1.00  0.00    -0.246 OA
BRANCH  26  28
ATOM     28  C   UNL A   1      34.784  33.614  29.468  1.00  0.00     0.060 A 
ATOM     29  C   UNL A   1      34.761  32.580  30.411  1.00  0.00     0.016 A 
ATOM     30  C   UNL A   1      35.992  34.172  29.046  1.00  0.00     0.016 A 
ATOM     31  C   UNL A   1      35.952  32.116  30.963  1.00  0.00     0.010 A 
ATOM     32  C   UNL A   1      37.185  33.714  29.610  1.00  0.00     0.010 A 
ATOM     33  C   UNL A   1      37.167  32.705  30.593  1.00  0.00    -0.014 A 
BRANCH  33  34
ATOM     34  C   UNL A   1      38.405  32.371  31.333  1.00  0.00     0.031 A 
ATOM     35  C   UNL A   1      39.344  31.351  30.753  1.00  0.00     0.074 A 
ATOM     36  C   UNL A   1      38.688  32.975  32.501  1.00  0.00     0.049 A 
ATOM     37  N   UNL A   1      40.440  30.852  31.261  1.00  0.00    -0.248 NA
ATOM     38  C   UNL A   1      38.998  30.818  29.424  1.00  0.00     0.031 C 
ATOM     39  C   UNL A   1      37.879  34.015  33.133  1.00  0.00     0.029 A 
ATOM     40  N   UNL A   1      39.735  32.789  33.369  1.00  0.00    -0.354 N 
ATOM     41  C   UNL A   1      40.907  29.937  30.325  1.00  0.00     0.074 A 
ATOM     42  C   UNL A   1      39.963  29.930  29.230  1.00  0.00     0.031 C 
ATOM     43  C   UNL A   1      38.454  34.369  34.296  1.00  0.00     0.029 A 
ATOM     44  C   UNL A   1      39.646  33.549  34.509  1.00  0.00     0.049 A 
ATOM     45  H   UNL A   1      40.480  32.169  33.190  1.00  0.00     0.167 HD
ATOM     46  C   UNL A   1      42.025  29.173  30.374  1.00  0.00     0.031 A 
ATOM     47  C   UNL A   1      40.421  33.562  35.612  1.00  0.00     0.031 A 
ATOM     48  C   UNL A   1      42.951  29.178  31.475  1.00  0.00     0.049 A 
ATOM     49  C   UNL A   1      41.614  32.643  35.680  1.00  0.00     0.074 A 
ATOM     50  C   UNL A   1      44.122  28.454  31.617  1.00  0.00     0.029 A 
ATOM     51  N   UNL A   1      42.809  29.939  32.626  1.00  0.00    -0.354 N 
ATOM     52  N   UNL A   1      42.055  31.797  34.779  1.00  0.00    -0.248 NA
ATOM     53  C   UNL A   1      42.416  32.685  36.911  1.00  0.00     0.031 C 
ATOM     54  C   UNL A   1      44.652  28.728  32.882  1.00  0.00     0.029 A 
ATOM     55  C   UNL A   1      43.853  29.678  33.497  1.00  0.00     0.049 A 
ATOM     56  H   UNL A   1      42.074  30.572  32.798  1.00  0.00     0.167 HD
ATOM     57  C   UNL A   1      43.205  31.231  35.321  1.00  0.00     0.074 A 
ATOM     58  C   UNL A   1      43.395  31.838  36.623  1.00  0.00     0.031 C 
ATOM     59  C   UNL A   1      44.029  30.296  34.788  1.00  0.00     0.031 A 
BRANCH  46  60
ATOM     60  C   UNL A   1      42.284  28.238  29.222  1.00  0.00    -0.014 A 
ATOM     61  C   UNL A   1      43.105  28.612  28.144  1.00  0.00     0.010 A 
ATOM     62  C   UNL A   1      41.726  26.946  29.240  1.00  0.00     0.010 A 
ATOM     63  C   UNL A   1      43.334  27.725  27.087  1.00  0.00     0.020 A 
ATOM     64  C   UNL A   1      41.976  26.046  28.200  1.00  0.00     0.020 A 
ATOM     65  C   UNL A   1      42.767  26.448  27.122  1.00  0.00     0.054 A 
BRANCH  65  66
ATOM     66  S   UNL A   1      43.102  25.310  25.750  1.00  0.00     0.124 S 
ATOM     67  O   UNL A   1      44.442  25.719  25.341  1.00  0.00    -0.237 OA
ATOM     68  O   UNL A   1      43.014  24.001  26.391  1.00  0.00    -0.237 OA
ATOM     69  O   UNL A   1      42.041  25.603  24.788  1.00  0.00    -0.744 OA
ENDBRANCH  65  66
ENDBRANCH  46  60
BRANCH  47  70
ATOM     70  C   UNL A   1      40.077  34.455  36.752  1.00  0.00    -0.014 A 
ATOM     71  C   UNL A   1      40.477  35.802  36.756  1.00  0.00     0.010 A 
ATOM     72  C   UNL A   1      39.340  33.959  37.845  1.00  0.00     0.010 A 
ATOM     73  C   UNL A   1      40.160  36.632  37.837  1.00  0.00     0.020 A 
ATOM     74  C   UNL A   1      38.995  34.793  38.911  1.00  0.00     0.020 A 
ATOM     75  C   UNL A   1      39.418  36.123  38.905  1.00  0.00     0.054 A 
BRANCH  75  76
ATOM     76  S   UNL A   1      38.974  37.232  40.270  1.00  0.00     0.124 S 
ATOM     77  O   UNL A   1      38.398  38.371  39.561  1.00  0.00    -0.237 OA
ATOM     78  O   UNL A   1      38.032  36.422  41.039  1.00  0.00    -0.237 OA
ATOM     79  O   UNL A   1      40.250  37.486  40.933  1.00  0.00    -0.744 OA
ENDBRANCH  75  76
ENDBRANCH  47  70
BRANCH  59  80
ATOM     80  C   UNL A   1      45.243  29.897  35.587  1.00  0.00    -0.014 A 
ATOM     81  C   UNL A   1      46.455  30.603  35.482  1.00  0.00     0.010 A 
ATOM     82  C   UNL A   1      45.144  28.842  36.514  1.00  0.00     0.010 A 
ATOM     83  C   UNL A   1      47.551  30.245  36.272  1.00  0.00     0.020 A 
ATOM     84  C   UNL A   1      46.227  28.501  37.327  1.00  0.00     0.020 A 
ATOM     85  C   UNL A   1      47.429  29.199  37.192  1.00  0.00     0.054 A 
BRANCH  85  86
ATOM     86  S   UNL A   1      48.848  28.794  38.247  1.00  0.00     0.124 S 
ATOM     87  O   UNL A   1      49.973  29.213  37.416  1.00  0.00    -0.237 OA
ATOM     88  O   UNL A   1      48.606  29.610  39.435  1.00  0.00    -0.237 OA
ATOM     89  O   UNL A   1      48.728  27.353  38.453  1.00  0.00    -0.744 OA
ENDBRANCH  85  86
ENDBRANCH  59  80
ENDBRANCH  33  34
ENDBRANCH  26  28
ENDBRANCH  25  26
ENDBRANCH  24  25
ENDBRANCH   1  24
TORSDOF 20
ENDMDL
MODEL 2
REMARK VINA RESULT:      -9.5      1.150      8.222
REMARK SMILES CC[C@H](C(=O)OCCOCCOC(=O)c1ccc(-c2c3nc(c(-c4ccc(S(=O)(=O)[O-])cc4)c4ccc([nH]4)c(-c4ccc(S(=O)(=O)[O-])cc4)c4nc(c(-c5ccc(S(=O)(=O)[O-])cc5)c5ccc2[nH]5)C=C4)C=C3)cc1)N1C(=O)/C(=C\c2cccs2)SC1=S
REMARK SMILES IDX 10 1 9 2 8 3 7 4 6 5 4 6 5 7 3 8 2 9 1 10 75 11 76 12 86 13
REMARK SMILES IDX 77 14 78 15 85 16 87 17 79 18 80 19 81 20 84 21 82 22 83 23
REMARK SMILES IDX 11 24 12 25 13 26 14 27 15 28 16 29 74 30 17 31 73 32 18 33
REMARK SMILES IDX 19 34 20 35 67 36 21 37 72 38 66 39 68 40 22 41 71 42 65 43
REMARK SMILES IDX 64 44 23 46 53 47 34 48 52 49 35 50 38 51 51 52 69 53 36 54
REMARK SMILES IDX 37 55 50 57 70 58 39 59 24 60 25 61 33 62 26 63 32 64 27 65
REMARK SMILES IDX 28 66 29 67 30 68 31 69 54 70 55 71 63 72 56 73 62 74 57 75
REMARK SMILES IDX 58 76 59 77 60 78 61 79 40 80 41 81 49 82 42 83 48 84 43 85
REMARK SMILES IDX 44 86 45 87 46 88 47 89
REMARK H PARENT 68 45 38 56
REMARK Flexibility Score: inf
ROOT
ATOM      1  C   UNL A   1      31.596  32.052  27.089  1.00  0.00     0.202 C 
ENDROOT
BRANCH   1   2
ATOM      2  O   UNL A   1      31.689  31.107  26.029  1.00  0.00    -0.374 OA
BRANCH   2   3
ATOM      3  C   UNL A   1      32.827  30.244  26.029  1.00  0.00     0.202 C 
BRANCH   3   4
ATOM      4  C   UNL A   1      32.587  28.755  25.749  1.00  0.00     0.261 C 
BRANCH   4   5
ATOM      5  O   UNL A   1      33.474  28.262  24.725  1.00  0.00    -0.462 OA
BRANCH   5   6
ATOM      6  C   UNL A   1      33.225  27.014  24.229  1.00  0.00     0.329 C 
ATOM      7  O   UNL A   1      33.489  25.959  24.793  1.00  0.00    -0.250 OA
BRANCH   6   8
ATOM      8  C   UNL A   1      32.591  27.113  22.827  1.00  0.00     0.201 C 
BRANCH   8   9
ATOM      9  C   UNL A   1      33.287  26.076  21.922  1.00  0.00     0.034 C 
ATOM     10  C   UNL A   1      32.570  25.708  20.624  1.00  0.00     0.007 C 
ENDBRANCH   8   9
BRANCH   8  11
ATOM     11  N   UNL A   1      31.105  26.983  23.030  1.00  0.00    -0.278 N 
ATOM     12  C   UNL A   1      30.332  28.055  22.596  1.00  0.00     0.267 C 
ATOM     13  C   UNL A   1      30.353  25.922  23.480  1.00  0.00     0.149 C 
ATOM     14  O   UNL A   1      30.668  28.846  21.729  1.00  0.00    -0.268 OA
ATOM     15  C   UNL A   1      28.988  28.040  23.232  1.00  0.00     0.081 C 
ATOM     16  S   UNL A   1      28.717  26.466  23.873  1.00  0.00    -0.054 SA
ATOM     17  S   UNL A   1      30.713  24.299  23.605  1.00  0.00    -0.052 S 
ATOM     18  C   UNL A   1      28.107  29.037  23.404  1.00  0.00     0.040 C 
BRANCH  18  19
ATOM     19  C   UNL A   1      28.299  30.383  22.989  1.00  0.00     0.028 A 
ATOM     20  C   UNL A   1      28.748  31.489  23.689  1.00  0.00     0.020 A 
ATOM     21  S   UNL A   1      28.022  30.793  21.336  1.00  0.00    -0.144 S 
ATOM     22  C   UNL A   1      28.816  32.669  22.889  1.00  0.00     0.012 A 
ATOM     23  C   UNL A   1      28.433  32.431  21.590  1.00  0.00     0.065 A 
ENDBRANCH  18  19
ENDBRANCH   8  11
ENDBRANCH   6   8
ENDBRANCH   5   6
ENDBRANCH   4   5
ENDBRANCH   3   4
ENDBRANCH   2   3
ENDBRANCH   1   2
BRANCH   1  24
ATOM     24  C   UNL A   1      32.886  32.722  27.580  1.00  0.00     0.261 C 
BRANCH  24  25
ATOM     25  O   UNL A   1      32.678  33.748  28.561  1.00  0.00    -0.460 OA
BRANCH  25  26
ATOM     26  C   UNL A   1      33.672  34.665  28.615  1.00  0.00     0.338 C 
ATOM     27  O   UNL A   1      33.691  35.777  28.102  1.00  0.00    -0.246 OA
BRANCH  26  28
ATOM     28  C   UNL A   1      34.726  34.196  29.527  1.00  0.00     0.060 A 
ATOM     29  C   UNL A   1      36.057  34.462  29.185  1.00  0.00     0.016 A 
ATOM     30  C   UNL A   1      34.414  33.442  30.660  1.00  0.00     0.016 A 
ATOM     31  C   UNL A   1      37.090  33.946  29.962  1.00  0.00     0.010 A 
ATOM     32  C   UNL A   1      35.453  32.915  31.431  1.00  0.00     0.010 A 
ATOM     33  C   UNL A   1      36.795  33.140  31.068  1.00  0.00    -0.014 A 
BRANCH  33  34
ATOM     34  C   UNL A   1      37.881  32.412  31.763  1.00  0.00     0.031 A 
ATOM     35  C   UNL A   1      38.335  32.899  33.110  1.00  0.00     0.074 A 
ATOM     36  C   UNL A   1      38.448  31.329  31.201  1.00  0.00     0.049 A 
ATOM     37  N   UNL A   1      39.312  32.465  33.861  1.00  0.00    -0.248 NA
ATOM     38  C   UNL A   1      37.588  34.030  33.687  1.00  0.00     0.031 C 
ATOM     39  C   UNL A   1      38.055  30.736  29.924  1.00  0.00     0.029 A 
ATOM     40  N   UNL A   1      39.485  30.542  31.633  1.00  0.00    -0.354 N 
ATOM     41  C   UNL A   1      39.311  33.277  34.989  1.00  0.00     0.074 A 
ATOM     42  C   UNL A   1      38.252  34.245  34.814  1.00  0.00     0.031 C 
ATOM     43  C   UNL A   1      38.851  29.683  29.669  1.00  0.00     0.029 A 
ATOM     44  C   UNL A   1      39.835  29.556  30.744  1.00  0.00     0.049 A 
ATOM     45  H   UNL A   1      39.936  30.672  32.499  1.00  0.00     0.167 HD
ATOM     46  C   UNL A   1      40.119  33.217  36.074  1.00  0.00     0.031 A 
ATOM     47  C   UNL A   1      40.852  28.670  30.777  1.00  0.00     0.031 A 
ATOM     48  C   UNL A   1      41.179  32.258  36.232  1.00  0.00     0.049 A 
ATOM     49  C   UNL A   1      41.789  28.677  31.957  1.00  0.00     0.074 A 
ATOM     50  C   UNL A   1      42.046  32.102  37.300  1.00  0.00     0.029 A 
ATOM     51  N   UNL A   1      41.522  31.294  35.295  1.00  0.00    -0.354 N 
ATOM     52  N   UNL A   1      41.764  29.437  33.026  1.00  0.00    -0.248 NA
ATOM     53  C   UNL A   1      42.889  27.701  31.937  1.00  0.00     0.031 C 
ATOM     54  C   UNL A   1      42.955  31.088  36.979  1.00  0.00     0.029 A 
ATOM     55  C   UNL A   1      42.607  30.563  35.745  1.00  0.00     0.049 A 
ATOM     56  H   UNL A   1      41.061  31.153  34.436  1.00  0.00     0.167 HD
ATOM     57  C   UNL A   1      42.824  29.010  33.821  1.00  0.00     0.074 A 
ATOM     58  C   UNL A   1      43.462  27.918  33.113  1.00  0.00     0.031 C 
ATOM     59  C   UNL A   1      43.228  29.476  35.028  1.00  0.00     0.031 A 
BRANCH  46  60
ATOM     60  C   UNL A   1      39.914  34.246  37.156  1.00  0.00    -0.014 A 
ATOM     61  C   UNL A   1      40.540  35.504  37.100  1.00  0.00     0.010 A 
ATOM     62  C   UNL A   1      39.046  33.962  38.227  1.00  0.00     0.010 A 
ATOM     63  C   UNL A   1      40.331  36.443  38.115  1.00  0.00     0.020 A 
ATOM     64  C   UNL A   1      38.811  34.909  39.226  1.00  0.00     0.020 A 
ATOM     65  C   UNL A   1      39.468  36.139  39.172  1.00  0.00     0.054 A 
BRANCH  65  66
ATOM     66  S   UNL A   1      39.197  37.388  40.459  1.00  0.00     0.124 S 
ATOM     67  O   UNL A   1      38.735  36.570  41.578  1.00  0.00    -0.237 OA
ATOM     68  O   UNL A   1      40.523  37.978  40.618  1.00  0.00    -0.237 OA
ATOM     69  O   UNL A   1      38.188  38.273  39.878  1.00  0.00    -0.744 OA
ENDBRANCH  65  66
ENDBRANCH  46  60
BRANCH  47  70
ATOM     70  C   UNL A   1      41.051  27.724  29.646  1.00  0.00    -0.014 A 
ATOM     71  C   UNL A   1      42.035  27.964  28.672  1.00  0.00     0.010 A 
ATOM     72  C   UNL A   1      40.254  26.567  29.540  1.00  0.00     0.010 A 
ATOM     73  C   UNL A   1      42.208  27.076  27.605  1.00  0.00     0.020 A 
ATOM     74  C   UNL A   1      40.445  25.662  28.493  1.00  0.00     0.020 A 
ATOM     75  C   UNL A   1      41.414  25.929  27.526  1.00  0.00     0.054 A 
BRANCH  75  76
ATOM     76  S   UNL A   1      41.693  24.765  26.162  1.00  0.00     0.124 S 
ATOM     77  O   UNL A   1      40.394  24.112  26.049  1.00  0.00    -0.237 OA
ATOM     78  O   UNL A   1      42.054  25.654  25.060  1.00  0.00    -0.237 OA
ATOM     79  O   UNL A   1      42.780  23.920  26.651  1.00  0.00    -0.744 OA
ENDBRANCH  75  76
ENDBRANCH  47  70
BRANCH  59  80
ATOM     80  C   UNL A   1      44.391  28.784  35.691  1.00  0.00    -0.014 A 
ATOM     81  C   UNL A   1      45.713  29.219  35.495  1.00  0.00     0.010 A 
ATOM     82  C   UNL A   1      44.144  27.724  36.584  1.00  0.00     0.010 A 
ATOM     83  C   UNL A   1      46.769  28.592  36.162  1.00  0.00     0.020 A 
ATOM     84  C   UNL A   1      45.194  27.114  37.276  1.00  0.00     0.020 A 
ATOM     85  C   UNL A   1      46.503  27.546  37.052  1.00  0.00     0.054 A 
BRANCH  85  86
ATOM     86  S   UNL A   1      47.885  26.789  37.950  1.00  0.00     0.124 S 
ATOM     87  O   UNL A   1      49.040  27.299  37.216  1.00  0.00    -0.237 OA
ATOM     88  O   UNL A   1      47.715  27.317  39.301  1.00  0.00    -0.237 OA
ATOM     89  O   UNL A   1      47.645  25.355  37.813  1.00  0.00    -0.744 OA
ENDBRANCH  85  86
ENDBRANCH  59  80
ENDBRANCH  33  34
ENDBRANCH  26  28
ENDBRANCH  25  26
ENDBRANCH  24  25
ENDBRANCH   1  24
TORSDOF 20
ENDMDL
MODEL 3
REMARK VINA RESULT:      -9.4      5.984      8.236
REMARK SMILES CC[C@H](C(=O)OCCOCCOC(=O)c1ccc(-c2c3nc(c(-c4ccc(S(=O)(=O)[O-])cc4)c4ccc([nH]4)c(-c4ccc(S(=O)(=O)[O-])cc4)c4nc(c(-c5ccc(S(=O)(=O)[O-])cc5)c5ccc2[nH]5)C=C4)C=C3)cc1)N1C(=O)/C(=C\c2cccs2)SC1=S
REMARK SMILES IDX 10 1 9 2 8 3 7 4 6 5 4 6 5 7 3 8 2 9 1 10 75 11 76 12 86 13
REMARK SMILES IDX 77 14 78 15 85 16 87 17 79 18 80 19 81 20 84 21 82 22 83 23
REMARK SMILES IDX 11 24 12 25 13 26 14 27 15 28 16 29 74 30 17 31 73 32 18 33
REMARK SMILES IDX 19 34 20 35 67 36 21 37 72 38 66 39 68 40 22 41 71 42 65 43
REMARK SMILES IDX 64 44 23 46 53 47 34 48 52 49 35 50 38 51 51 52 69 53 36 54
REMARK SMILES IDX 37 55 50 57 70 58 39 59 24 60 25 61 33 62 26 63 32 64 27 65
REMARK SMILES IDX 28 66 29 67 30 68 31 69 54 70 55 71 63 72 56 73 62 74 57 75
REMARK SMILES IDX 58 76 59 77 60 78 61 79 40 80 41 81 49 82 42 83 48 84 43 85
REMARK SMILES IDX 44 86 45 87 46 88 47 89
REMARK H PARENT 68 45 38 56
REMARK Flexibility Score: inf
ROOT
ATOM      1  C   UNL A   1      35.090  29.657  27.140  1.00  0.00     0.202 C 
ENDROOT
BRANCH   1   2
ATOM      2  O   UNL A   1      34.388  30.811  27.587  1.00  0.00    -0.374 OA
BRANCH   2   3
ATOM      3  C   UNL A   1      32.990  30.870  27.302  1.00  0.00     0.202 C 
BRANCH   3   4
ATOM      4  C   UNL A   1      32.219  29.545  27.256  1.00  0.00     0.261 C 
BRANCH   4   5
ATOM      5  O   UNL A   1      32.014  29.102  25.901  1.00  0.00    -0.462 OA
BRANCH   5   6
ATOM      6  C   UNL A   1      32.494  27.867  25.566  1.00  0.00     0.329 C 
ATOM      7  O   UNL A   1      32.964  27.051  26.349  1.00  0.00    -0.250 OA
BRANCH   6   8
ATOM      8  C   UNL A   1      32.397  27.651  24.042  1.00  0.00     0.201 C 
BRANCH   8   9
ATOM      9  C   UNL A   1      33.443  26.588  23.650  1.00  0.00     0.034 C 
ATOM     10  C   UNL A   1      33.536  26.231  22.167  1.00  0.00     0.007 C 
ENDBRANCH   8   9
BRANCH   8  11
ATOM     11  N   UNL A   1      30.950  27.353  23.754  1.00  0.00    -0.278 N 
ATOM     12  C   UNL A   1      30.247  28.337  23.067  1.00  0.00     0.267 C 
ATOM     13  C   UNL A   1      30.214  26.208  23.958  1.00  0.00     0.149 C 
ATOM     14  O   UNL A   1      30.758  29.174  22.338  1.00  0.00    -0.268 OA
ATOM     15  C   UNL A   1      28.780  28.163  23.231  1.00  0.00     0.081 C 
ATOM     16  S   UNL A   1      28.490  26.560  23.785  1.00  0.00    -0.054 SA
ATOM     17  S   UNL A   1      30.690  24.634  24.231  1.00  0.00    -0.052 S 
ATOM     18  C   UNL A   1      27.787  29.053  23.084  1.00  0.00     0.040 C 
BRANCH  18  19
ATOM     19  C   UNL A   1      27.953  30.418  22.723  1.00  0.00     0.028 A 
ATOM     20  C   UNL A   1      28.162  31.540  23.505  1.00  0.00     0.020 A 
ATOM     21  S   UNL A   1      27.989  30.839  21.050  1.00  0.00    -0.144 S 
ATOM     22  C   UNL A   1      28.300  32.738  22.741  1.00  0.00     0.012 A 
ATOM     23  C   UNL A   1      28.210  32.499  21.390  1.00  0.00     0.065 A 
ENDBRANCH  18  19
ENDBRANCH   8  11
ENDBRANCH   6   8
ENDBRANCH   5   6
ENDBRANCH   4   5
ENDBRANCH   3   4
ENDBRANCH   2   3
ENDBRANCH   1   2
BRANCH   1  24
ATOM     24  C   UNL A   1      36.434  29.321  27.800  1.00  0.00     0.261 C 
BRANCH  24  25
ATOM     25  O   UNL A   1      36.679  30.028  29.024  1.00  0.00    -0.460 OA
BRANCH  25  26
ATOM     26  C   UNL A   1      37.404  29.327  29.927  1.00  0.00     0.338 C 
ATOM     27  O   UNL A   1      37.026  28.879  31.002  1.00  0.00    -0.246 OA
BRANCH  26  28
ATOM     28  C   UNL A   1      38.733  29.032  29.370  1.00  0.00     0.060 A 
ATOM     29  C   UNL A   1      39.710  28.528  30.235  1.00  0.00     0.016 A 
ATOM     30  C   UNL A   1      39.034  29.319  28.037  1.00  0.00     0.016 A 
ATOM     31  C   UNL A   1      41.011  28.335  29.776  1.00  0.00     0.010 A 
ATOM     32  C   UNL A   1      40.342  29.136  27.582  1.00  0.00     0.010 A 
ATOM     33  C   UNL A   1      41.342  28.672  28.458  1.00  0.00    -0.014 A 
BRANCH  33  34
ATOM     34  C   UNL A   1      42.760  28.678  28.032  1.00  0.00     0.031 A 
ATOM     35  C   UNL A   1      43.335  27.438  27.407  1.00  0.00     0.074 A 
ATOM     36  C   UNL A   1      43.519  29.776  28.194  1.00  0.00     0.049 A 
ATOM     37  N   UNL A   1      44.562  27.194  27.031  1.00  0.00    -0.248 NA
ATOM     38  C   UNL A   1      42.401  26.321  27.181  1.00  0.00     0.031 C 
ATOM     39  C   UNL A   1      43.056  31.051  28.739  1.00  0.00     0.029 A 
ATOM     40  N   UNL A   1      44.847  29.989  27.923  1.00  0.00    -0.354 N 
ATOM     41  C   UNL A   1      44.555  25.894  26.539  1.00  0.00     0.074 A 
ATOM     42  C   UNL A   1      43.207  25.391  26.687  1.00  0.00     0.031 C 
ATOM     43  C   UNL A   1      44.088  31.912  28.773  1.00  0.00     0.029 A 
ATOM     44  C   UNL A   1      45.292  31.234  28.293  1.00  0.00     0.049 A 
ATOM     45  H   UNL A   1      45.426  29.313  27.501  1.00  0.00     0.167 HD
ATOM     46  C   UNL A   1      45.580  25.185  26.009  1.00  0.00     0.031 A 
ATOM     47  C   UNL A   1      46.534  31.759  28.275  1.00  0.00     0.031 A 
ATOM     48  C   UNL A   1      46.921  25.690  25.877  1.00  0.00     0.049 A 
ATOM     49  C   UNL A   1      47.675  30.921  27.757  1.00  0.00     0.074 A 
ATOM     50  C   UNL A   1      48.028  25.058  25.340  1.00  0.00     0.029 A 
ATOM     51  N   UNL A   1      47.338  26.945  26.293  1.00  0.00    -0.354 N 
ATOM     52  N   UNL A   1      47.650  29.701  27.276  1.00  0.00    -0.248 NA
ATOM     53  C   UNL A   1      49.011  31.535  27.773  1.00  0.00     0.031 C 
ATOM     54  C   UNL A   1      49.130  25.907  25.492  1.00  0.00     0.029 A 
ATOM     55  C   UNL A   1      48.693  27.096  26.054  1.00  0.00     0.049 A 
ATOM     56  H   UNL A   1      46.755  27.629  26.699  1.00  0.00     0.167 HD
ATOM     57  C   UNL A   1      48.959  29.413  26.903  1.00  0.00     0.074 A 
ATOM     58  C   UNL A   1      49.747  30.591  27.205  1.00  0.00     0.031 C 
ATOM     59  C   UNL A   1      49.462  28.278  26.358  1.00  0.00     0.031 A 
BRANCH  46  60
ATOM     60  C   UNL A   1      45.298  23.771  25.569  1.00  0.00    -0.014 A 
ATOM     61  C   UNL A   1      44.845  23.483  24.270  1.00  0.00     0.010 A 
ATOM     62  C   UNL A   1      45.532  22.709  26.463  1.00  0.00     0.010 A 
ATOM     63  C   UNL A   1      44.595  22.162  23.885  1.00  0.00     0.020 A 
ATOM     64  C   UNL A   1      45.311  21.386  26.072  1.00  0.00     0.020 A 
ATOM     65  C   UNL A   1      44.828  21.122  24.789  1.00  0.00     0.054 A 
BRANCH  65  66
ATOM     66  S   UNL A   1      44.519  19.417  24.253  1.00  0.00     0.124 S 
ATOM     67  O   UNL A   1      43.191  19.164  24.806  1.00  0.00    -0.237 OA
ATOM     68  O   UNL A   1      44.584  19.523  22.798  1.00  0.00    -0.237 OA
ATOM     69  O   UNL A   1      45.604  18.656  24.870  1.00  0.00    -0.744 OA
ENDBRANCH  65  66
ENDBRANCH  46  60
BRANCH  47  70
ATOM     70  C   UNL A   1      46.767  33.136  28.789  1.00  0.00    -0.014 A 
ATOM     71  C   UNL A   1      47.027  33.361  30.152  1.00  0.00     0.010 A 
ATOM     72  C   UNL A   1      46.733  34.236  27.911  1.00  0.00     0.010 A 
ATOM     73  C   UNL A   1      47.233  34.660  30.629  1.00  0.00     0.020 A 
ATOM     74  C   UNL A   1      46.969  35.531  28.378  1.00  0.00     0.020 A 
ATOM     75  C   UNL A   1      47.207  35.735  29.738  1.00  0.00     0.054 A 
BRANCH  75  76
ATOM     76  S   UNL A   1      47.529  37.405  30.372  1.00  0.00     0.124 S 
ATOM     77  O   UNL A   1      46.197  37.999  30.355  1.00  0.00    -0.237 OA
ATOM     78  O   UNL A   1      48.087  37.135  31.695  1.00  0.00    -0.237 OA
ATOM     79  O   UNL A   1      48.476  37.960  29.407  1.00  0.00    -0.744 OA
ENDBRANCH  75  76
ENDBRANCH  47  70
BRANCH  59  80
ATOM     80  C   UNL A   1      50.926  28.261  26.004  1.00  0.00    -0.014 A 
ATOM     81  C   UNL A   1      51.385  28.707  24.753  1.00  0.00     0.010 A 
ATOM     82  C   UNL A   1      51.865  27.861  26.975  1.00  0.00     0.010 A 
ATOM     83  C   UNL A   1      52.753  28.729  24.469  1.00  0.00     0.020 A 
ATOM     84  C   UNL A   1      53.235  27.911  26.706  1.00  0.00     0.020 A 
ATOM     85  C   UNL A   1      53.670  28.335  25.448  1.00  0.00     0.054 A 
BRANCH  85  86
ATOM     86  S   UNL A   1      55.442  28.431  25.075  1.00  0.00     0.124 S 
ATOM     87  O   UNL A   1      55.826  27.022  25.061  1.00  0.00    -0.237 OA
ATOM     88  O   UNL A   1      55.460  29.100  23.776  1.00  0.00    -0.237 OA
ATOM     89  O   UNL A   1      55.989  29.214  26.180  1.00  0.00    -0.744 OA
ENDBRANCH  85  86
ENDBRANCH  59  80
ENDBRANCH  33  34
ENDBRANCH  26  28
ENDBRANCH  25  26
ENDBRANCH  24  25
ENDBRANCH   1  24
TORSDOF 20
ENDMDL
