MODEL 1
REMARK VINA RESULT:     -10.9      0.000      0.000
REMARK SMILES O=C(OCCOCCOC(=O)[C@H]1O[C@@H](Oc2c(-c3cc(O)c(O)c(O)c3)oc3cc(O)cc(O)c3c2=O)[C@H](O)[C@@H](O)[C@@H]1O)c1ccc(-c2c3nc(c(-c4ccc(S(=O)(=O)[O-])cc4)c4ccc([nH]4)c(-c4ccc(S(=O)(=O)[O-])cc4)c4nc(c(-c5ccc(S(=O)(=O)[O-])cc5)c5ccc2[nH]5)C=C4)C=C3)cc1
REMARK SMILES IDX 7 1 6 2 5 3 4 4 3 5 2 6 1 7 44 8 45 9 103 10 46 11 102 12
REMARK SMILES IDX 47 13 48 14 49 15 96 16 50 17 101 18 95 19 97 20 51 21
REMARK SMILES IDX 100 22 94 23 93 24 52 26 82 27 63 28 81 29 64 30 67 31 80 32
REMARK SMILES IDX 98 33 65 34 66 35 79 37 99 38 68 39 53 40 54 41 62 42 55 43
REMARK SMILES IDX 61 44 56 45 57 46 58 47 59 48 60 49 83 50 84 51 92 52 85 53
REMARK SMILES IDX 91 54 86 55 87 56 88 57 89 58 90 59 69 60 70 61 78 62 71 63
REMARK SMILES IDX 77 64 72 65 73 66 74 67 75 68 76 69 8 70 9 71 10 72 11 73
REMARK SMILES IDX 12 74 13 75 42 76 14 77 40 78 38 79 43 80 15 82 16 83 17 84
REMARK SMILES IDX 36 85 27 86 35 87 37 88 28 89 33 90 29 91 32 92 30 93 18 94
REMARK SMILES IDX 19 95 26 96 20 97 24 98 22 99 21 100 25 102 23 104 34 106
REMARK SMILES IDX 31 108 41 110 39 112
REMARK H PARENT 97 25 67 36 43 81 21 101 25 103 23 105 34 107 31 109 41 111
REMARK H PARENT 39 113
REMARK Flexibility Score: inf
ROOT
ATOM      1  C   UNL A   1      38.114  21.797  25.618  1.00  0.00     0.202 C 
ENDROOT
BRANCH   1   2
ATOM      2  O   UNL A   1      38.085  20.506  24.986  1.00  0.00    -0.374 OA
BRANCH   2   3
ATOM      3  C   UNL A   1      39.092  19.578  25.414  1.00  0.00     0.202 C 
BRANCH   3   4
ATOM      4  C   UNL A   1      40.236  20.120  26.282  1.00  0.00     0.261 C 
BRANCH   4   5
ATOM      5  O   UNL A   1      41.473  19.438  26.006  1.00  0.00    -0.460 OA
BRANCH   5   6
ATOM      6  C   UNL A   1      42.641  19.974  25.580  1.00  0.00     0.338 C 
ATOM      7  O   UNL A   1      43.419  19.273  24.933  1.00  0.00    -0.246 OA
BRANCH   6   8
ATOM      8  C   UNL A   1      43.045  21.377  25.887  1.00  0.00     0.060 A 
ATOM      9  C   UNL A   1      43.022  22.417  24.960  1.00  0.00     0.016 A 
ATOM     10  C   UNL A   1      43.392  21.685  27.211  1.00  0.00     0.016 A 
ATOM     11  C   UNL A   1      43.421  23.693  25.285  1.00  0.00     0.010 A 
ATOM     12  C   UNL A   1      43.735  22.992  27.573  1.00  0.00     0.010 A 
ATOM     13  C   UNL A   1      43.766  23.992  26.595  1.00  0.00    -0.014 A 
BRANCH  13  14
ATOM     14  C   UNL A   1      44.259  25.355  26.827  1.00  0.00     0.031 A 
ATOM     15  C   UNL A   1      43.347  26.323  27.509  1.00  0.00     0.074 A 
ATOM     16  C   UNL A   1      45.570  25.604  26.643  1.00  0.00     0.049 A 
ATOM     17  N   UNL A   1      43.578  27.554  27.869  1.00  0.00    -0.248 NA
ATOM     18  C   UNL A   1      42.000  25.832  27.858  1.00  0.00     0.031 C 
ATOM     19  C   UNL A   1      46.549  24.634  26.134  1.00  0.00     0.029 A 
ATOM     20  N   UNL A   1      46.319  26.712  26.922  1.00  0.00    -0.354 N 
ATOM     21  C   UNL A   1      42.404  27.991  28.467  1.00  0.00     0.074 A 
ATOM     22  C   UNL A   1      41.456  26.904  28.413  1.00  0.00     0.031 C 
ATOM     23  C   UNL A   1      47.774  25.181  26.174  1.00  0.00     0.029 A 
ATOM     24  C   UNL A   1      47.654  26.559  26.628  1.00  0.00     0.049 A 
ATOM     25  H   UNL A   1      45.940  27.539  27.298  1.00  0.00     0.167 HD
ATOM     26  C   UNL A   1      42.152  29.203  29.010  1.00  0.00     0.031 A 
ATOM     27  C   UNL A   1      48.654  27.458  26.683  1.00  0.00     0.031 A 
ATOM     28  C   UNL A   1      43.122  30.262  29.026  1.00  0.00     0.049 A 
ATOM     29  C   UNL A   1      48.310  28.839  27.169  1.00  0.00     0.074 A 
ATOM     30  C   UNL A   1      42.970  31.570  29.442  1.00  0.00     0.029 A 
ATOM     31  N   UNL A   1      44.440  30.120  28.609  1.00  0.00    -0.354 N 
ATOM     32  N   UNL A   1      47.163  29.283  27.634  1.00  0.00    -0.248 NA
ATOM     33  C   UNL A   1      49.378  29.841  27.130  1.00  0.00     0.031 C 
ATOM     34  C   UNL A   1      44.185  32.231  29.227  1.00  0.00     0.029 A 
ATOM     35  C   UNL A   1      45.111  31.320  28.743  1.00  0.00     0.049 A 
ATOM     36  H   UNL A   1      44.837  29.286  28.268  1.00  0.00     0.167 HD
ATOM     37  C   UNL A   1      47.375  30.617  27.953  1.00  0.00     0.074 A 
ATOM     38  C   UNL A   1      48.770  30.893  27.661  1.00  0.00     0.031 C 
ATOM     39  C   UNL A   1      46.503  31.539  28.432  1.00  0.00     0.031 A 
BRANCH  26  40
ATOM     40  C   UNL A   1      40.766  29.444  29.538  1.00  0.00    -0.014 A 
ATOM     41  C   UNL A   1      39.735  29.921  28.709  1.00  0.00     0.010 A 
ATOM     42  C   UNL A   1      40.498  29.213  30.899  1.00  0.00     0.010 A 
ATOM     43  C   UNL A   1      38.470  30.192  29.238  1.00  0.00     0.020 A 
ATOM     44  C   UNL A   1      39.228  29.459  31.428  1.00  0.00     0.020 A 
ATOM     45  C   UNL A   1      38.226  29.960  30.596  1.00  0.00     0.054 A 
BRANCH  45  46
ATOM     46  S   UNL A   1      36.569  30.300  31.252  1.00  0.00     0.124 S 
ATOM     47  O   UNL A   1      35.754  29.323  30.537  1.00  0.00    -0.237 OA
ATOM     48  O   UNL A   1      36.735  30.054  32.682  1.00  0.00    -0.237 OA
ATOM     49  O   UNL A   1      36.331  31.695  30.887  1.00  0.00    -0.744 OA
ENDBRANCH  45  46
ENDBRANCH  26  40
BRANCH  27  50
ATOM     50  C   UNL A   1      50.015  27.113  26.177  1.00  0.00    -0.014 A 
ATOM     51  C   UNL A   1      50.331  27.171  24.809  1.00  0.00     0.010 A 
ATOM     52  C   UNL A   1      51.007  26.689  27.083  1.00  0.00     0.010 A 
ATOM     53  C   UNL A   1      51.597  26.779  24.357  1.00  0.00     0.020 A 
ATOM     54  C   UNL A   1      52.283  26.332  26.642  1.00  0.00     0.020 A 
ATOM     55  C   UNL A   1      52.564  26.357  25.276  1.00  0.00     0.054 A 
BRANCH  55  56
ATOM     56  S   UNL A   1      54.199  25.853  24.672  1.00  0.00     0.124 S 
ATOM     57  O   UNL A   1      54.149  24.403  24.840  1.00  0.00    -0.237 OA
ATOM     58  O   UNL A   1      54.188  26.331  23.292  1.00  0.00    -0.237 OA
ATOM     59  O   UNL A   1      55.124  26.554  25.559  1.00  0.00    -0.744 OA
ENDBRANCH  55  56
ENDBRANCH  27  50
BRANCH  39  60
ATOM     60  C   UNL A   1      47.055  32.912  28.692  1.00  0.00    -0.014 A 
ATOM     61  C   UNL A   1      47.697  33.220  29.904  1.00  0.00     0.010 A 
ATOM     62  C   UNL A   1      46.960  33.891  27.687  1.00  0.00     0.010 A 
ATOM     63  C   UNL A   1      48.194  34.504  30.125  1.00  0.00     0.020 A 
ATOM     64  C   UNL A   1      47.488  35.165  27.893  1.00  0.00     0.020 A 
ATOM     65  C   UNL A   1      48.085  35.468  29.118  1.00  0.00     0.054 A 
BRANCH  65  66
ATOM     66  S   UNL A   1      48.764  37.121  29.419  1.00  0.00     0.124 S 
ATOM     67  O   UNL A   1      47.570  37.957  29.339  1.00  0.00    -0.237 OA
ATOM     68  O   UNL A   1      49.351  36.987  30.751  1.00  0.00    -0.237 OA
ATOM     69  O   UNL A   1      49.727  37.301  28.336  1.00  0.00    -0.744 OA
ENDBRANCH  65  66
ENDBRANCH  39  60
ENDBRANCH  13  14
ENDBRANCH   6   8
ENDBRANCH   5   6
ENDBRANCH   4   5
ENDBRANCH   3   4
ENDBRANCH   2   3
ENDBRANCH   1   2
BRANCH   1  70
ATOM     70  C   UNL A   1      37.047  22.704  25.005  1.00  0.00     0.261 C 
BRANCH  70  71
ATOM     71  O   UNL A   1      35.909  22.639  25.869  1.00  0.00    -0.461 OA
BRANCH  71  72
ATOM     72  C   UNL A   1      34.774  22.364  25.190  1.00  0.00     0.338 C 
ATOM     73  O   UNL A   1      34.627  21.447  24.380  1.00  0.00    -0.249 OA
BRANCH  72  74
ATOM     74  C   UNL A   1      33.649  23.324  25.523  1.00  0.00     0.263 C 
ATOM     75  O   UNL A   1      33.351  24.349  24.558  1.00  0.00    -0.322 OA
ATOM     76  C   UNL A   1      32.399  22.488  25.743  1.00  0.00     0.186 C 
ATOM     77  C   UNL A   1      32.521  25.361  25.143  1.00  0.00     0.340 C 
ATOM     78  C   UNL A   1      31.345  23.384  26.386  1.00  0.00     0.181 C 
ATOM     79  C   UNL A   1      31.223  24.749  25.716  1.00  0.00     0.214 C 
BRANCH  76  80
ATOM     80  O   UNL A   1      32.521  21.360  26.622  1.00  0.00    -0.387 OA
ATOM     81  H   UNL A   1      32.335  20.544  26.130  1.00  0.00     0.211 HD
ENDBRANCH  76  80
BRANCH  77  82
ATOM     82  O   UNL A   1      32.169  26.483  24.289  1.00  0.00    -0.454 OA
BRANCH  82  83
ATOM     83  C   UNL A   1      32.298  27.798  24.700  1.00  0.00     0.214 A 
ATOM     84  C   UNL A   1      31.340  28.746  24.584  1.00  0.00     0.181 A 
ATOM     85  C   UNL A   1      33.456  28.121  25.604  1.00  0.00     0.239 A 
ATOM     86  O   UNL A   1      31.429  30.033  25.064  1.00  0.00    -0.452 OA
ATOM     87  C   UNL A   1      33.418  29.434  26.316  1.00  0.00     0.111 A 
ATOM     88  O   UNL A   1      34.367  27.313  25.744  1.00  0.00    -0.285 OA
ATOM     89  C   UNL A   1      32.410  30.329  25.966  1.00  0.00     0.146 A 
ATOM     90  C   UNL A   1      34.331  29.827  27.309  1.00  0.00     0.134 A 
ATOM     91  C   UNL A   1      32.329  31.600  26.542  1.00  0.00     0.094 A 
ATOM     92  C   UNL A   1      34.255  31.100  27.898  1.00  0.00     0.093 A 
ATOM     93  C   UNL A   1      33.255  31.979  27.498  1.00  0.00     0.123 A 
BRANCH  84  94
ATOM     94  C   UNL A   1      30.074  28.533  23.878  1.00  0.00     0.029 A 
ATOM     95  C   UNL A   1      29.388  27.326  24.099  1.00  0.00     0.062 A 
ATOM     96  C   UNL A   1      29.485  29.557  23.112  1.00  0.00     0.062 A 
ATOM     97  C   UNL A   1      28.069  27.212  23.692  1.00  0.00     0.162 A 
ATOM     98  C   UNL A   1      28.155  29.428  22.726  1.00  0.00     0.162 A 
ATOM     99  C   UNL A   1      27.443  28.280  23.059  1.00  0.00     0.200 A 
BRANCH  97 100
ATOM    100  O   UNL A   1      27.367  26.095  24.036  1.00  0.00    -0.504 OA
ATOM    101  H   UNL A   1      27.124  25.473  23.378  1.00  0.00     0.293 HD
ENDBRANCH  97 100
BRANCH  98 102
ATOM    102  O   UNL A   1      27.508  30.504  22.189  1.00  0.00    -0.504 OA
ATOM    103  H   UNL A   1      26.918  30.384  21.470  1.00  0.00     0.293 HD
ENDBRANCH  98 102
BRANCH  99 104
ATOM    104  O   UNL A   1      26.074  28.307  22.993  1.00  0.00    -0.502 OA
ATOM    105  H   UNL A   1      25.636  28.025  22.214  1.00  0.00     0.293 HD
ENDBRANCH  99 104
ENDBRANCH  84  94
BRANCH  90 106
ATOM    106  O   UNL A   1      35.294  28.966  27.751  1.00  0.00    -0.507 OA
ATOM    107  H   UNL A   1      36.156  29.283  27.939  1.00  0.00     0.293 HD
ENDBRANCH  90 106
BRANCH  93 108
ATOM    108  O   UNL A   1      33.137  33.229  28.030  1.00  0.00    -0.508 OA
ATOM    109  H   UNL A   1      32.606  33.872  27.603  1.00  0.00     0.293 HD
ENDBRANCH  93 108
ENDBRANCH  82  83
ENDBRANCH  77  82
BRANCH  78 110
ATOM    110  O   UNL A   1      30.072  22.680  26.328  1.00  0.00    -0.387 OA
ATOM    111  H   UNL A   1      29.709  22.740  25.431  1.00  0.00     0.211 HD
ENDBRANCH  78 110
BRANCH  79 112
ATOM    112  O   UNL A   1      30.553  25.659  26.596  1.00  0.00    -0.384 OA
ATOM    113  H   UNL A   1      30.012  26.272  26.075  1.00  0.00     0.211 HD
ENDBRANCH  79 112
ENDBRANCH  72  74
ENDBRANCH  71  72
ENDBRANCH  70  71
ENDBRANCH   1  70
TORSDOF 28
ENDMDL
MODEL 2
REMARK VINA RESULT:     -10.9      0.630      7.560
REMARK SMILES O=C(OCCOCCOC(=O)[C@H]1O[C@@H](Oc2c(-c3cc(O)c(O)c(O)c3)oc3cc(O)cc(O)c3c2=O)[C@H](O)[C@@H](O)[C@@H]1O)c1ccc(-c2c3nc(c(-c4ccc(S(=O)(=O)[O-])cc4)c4ccc([nH]4)c(-c4ccc(S(=O)(=O)[O-])cc4)c4nc(c(-c5ccc(S(=O)(=O)[O-])cc5)c5ccc2[nH]5)C=C4)C=C3)cc1
REMARK SMILES IDX 7 1 6 2 5 3 4 4 3 5 2 6 1 7 44 8 45 9 103 10 46 11 102 12
REMARK SMILES IDX 47 13 48 14 49 15 96 16 50 17 101 18 95 19 97 20 51 21
REMARK SMILES IDX 100 22 94 23 93 24 52 26 82 27 63 28 81 29 64 30 67 31 80 32
REMARK SMILES IDX 98 33 65 34 66 35 79 37 99 38 68 39 53 40 54 41 62 42 55 43
REMARK SMILES IDX 61 44 56 45 57 46 58 47 59 48 60 49 83 50 84 51 92 52 85 53
REMARK SMILES IDX 91 54 86 55 87 56 88 57 89 58 90 59 69 60 70 61 78 62 71 63
REMARK SMILES IDX 77 64 72 65 73 66 74 67 75 68 76 69 8 70 9 71 10 72 11 73
REMARK SMILES IDX 12 74 13 75 42 76 14 77 40 78 38 79 43 80 15 82 16 83 17 84
REMARK SMILES IDX 36 85 27 86 35 87 37 88 28 89 33 90 29 91 32 92 30 93 18 94
REMARK SMILES IDX 19 95 26 96 20 97 24 98 22 99 21 100 25 102 23 104 34 106
REMARK SMILES IDX 31 108 41 110 39 112
REMARK H PARENT 97 25 67 36 43 81 21 101 25 103 23 105 34 107 31 109 41 111
REMARK H PARENT 39 113
REMARK Flexibility Score: inf
ROOT
ATOM      1  C   UNL A   1      38.060  22.164  25.742  1.00  0.00     0.202 C 
ENDROOT
BRANCH   1   2
ATOM      2  O   UNL A   1      37.932  20.936  25.006  1.00  0.00    -0.374 OA
BRANCH   2   3
ATOM      3  C   UNL A   1      38.882  19.911  25.330  1.00  0.00     0.202 C 
BRANCH   3   4
ATOM      4  C   UNL A   1      39.994  20.261  26.327  1.00  0.00     0.261 C 
BRANCH   4   5
ATOM      5  O   UNL A   1      41.222  19.586  26.002  1.00  0.00    -0.460 OA
BRANCH   5   6
ATOM      6  C   UNL A   1      42.422  20.138  25.702  1.00  0.00     0.338 C 
ATOM      7  O   UNL A   1      43.235  19.483  25.051  1.00  0.00    -0.246 OA
BRANCH   6   8
ATOM      8  C   UNL A   1      42.817  21.503  26.154  1.00  0.00     0.060 A 
ATOM      9  C   UNL A   1      42.824  22.627  25.330  1.00  0.00     0.016 A 
ATOM     10  C   UNL A   1      43.122  21.682  27.512  1.00  0.00     0.016 A 
ATOM     11  C   UNL A   1      43.214  23.865  25.788  1.00  0.00     0.010 A 
ATOM     12  C   UNL A   1      43.456  22.948  28.007  1.00  0.00     0.010 A 
ATOM     13  C   UNL A   1      43.518  24.036  27.131  1.00  0.00    -0.014 A 
BRANCH  13  14
ATOM     14  C   UNL A   1      44.005  25.369  27.507  1.00  0.00     0.031 A 
ATOM     15  C   UNL A   1      45.388  25.752  27.089  1.00  0.00     0.074 A 
ATOM     16  C   UNL A   1      43.121  26.265  27.987  1.00  0.00     0.049 A 
ATOM     17  N   UNL A   1      46.011  26.885  27.255  1.00  0.00    -0.248 NA
ATOM     18  C   UNL A   1      46.168  24.732  26.363  1.00  0.00     0.031 C 
ATOM     19  C   UNL A   1      41.703  25.988  28.258  1.00  0.00     0.029 A 
ATOM     20  N   UNL A   1      43.257  27.595  28.268  1.00  0.00    -0.354 N 
ATOM     21  C   UNL A   1      47.260  26.709  26.674  1.00  0.00     0.074 A 
ATOM     22  C   UNL A   1      47.316  25.360  26.162  1.00  0.00     0.031 C 
ATOM     23  C   UNL A   1      41.096  27.126  28.630  1.00  0.00     0.029 A 
ATOM     24  C   UNL A   1      42.093  28.184  28.704  1.00  0.00     0.049 A 
ATOM     25  H   UNL A   1      44.106  28.084  28.168  1.00  0.00     0.167 HD
ATOM     26  C   UNL A   1      48.266  27.606  26.584  1.00  0.00     0.031 A 
ATOM     27  C   UNL A   1      41.880  29.434  29.155  1.00  0.00     0.031 A 
ATOM     28  C   UNL A   1      48.171  28.934  27.124  1.00  0.00     0.049 A 
ATOM     29  C   UNL A   1      43.056  30.370  29.164  1.00  0.00     0.074 A 
ATOM     30  C   UNL A   1      49.145  29.909  27.203  1.00  0.00     0.029 A 
ATOM     31  N   UNL A   1      47.013  29.472  27.675  1.00  0.00    -0.354 N 
ATOM     32  N   UNL A   1      44.273  30.164  28.712  1.00  0.00    -0.248 NA
ATOM     33  C   UNL A   1      42.843  31.696  29.751  1.00  0.00     0.031 C 
ATOM     34  C   UNL A   1      48.589  31.019  27.848  1.00  0.00     0.029 A 
ATOM     35  C   UNL A   1      47.251  30.761  28.109  1.00  0.00     0.049 A 
ATOM     36  H   UNL A   1      46.151  29.002  27.743  1.00  0.00     0.167 HD
ATOM     37  C   UNL A   1      44.970  31.340  28.950  1.00  0.00     0.074 A 
ATOM     38  C   UNL A   1      44.026  32.263  29.553  1.00  0.00     0.031 C 
ATOM     39  C   UNL A   1      46.272  31.636  28.708  1.00  0.00     0.031 A 
BRANCH  26  40
ATOM     40  C   UNL A   1      49.550  27.139  25.959  1.00  0.00    -0.014 A 
ATOM     41  C   UNL A   1      50.527  26.457  26.705  1.00  0.00     0.010 A 
ATOM     42  C   UNL A   1      49.793  27.412  24.601  1.00  0.00     0.010 A 
ATOM     43  C   UNL A   1      51.737  26.084  26.113  1.00  0.00     0.020 A 
ATOM     44  C   UNL A   1      50.991  27.019  23.998  1.00  0.00     0.020 A 
ATOM     45  C   UNL A   1      51.961  26.370  24.762  1.00  0.00     0.054 A 
BRANCH  45  46
ATOM     46  S   UNL A   1      53.532  25.856  24.014  1.00  0.00     0.124 S 
ATOM     47  O   UNL A   1      53.681  24.497  24.525  1.00  0.00    -0.237 OA
ATOM     48  O   UNL A   1      53.255  25.963  22.585  1.00  0.00    -0.237 OA
ATOM     49  O   UNL A   1      54.497  26.824  24.533  1.00  0.00    -0.744 OA
ENDBRANCH  45  46
ENDBRANCH  26  40
BRANCH  27  50
ATOM     50  C   UNL A   1      40.554  29.823  29.718  1.00  0.00    -0.014 A 
ATOM     51  C   UNL A   1      39.531  30.346  28.909  1.00  0.00     0.010 A 
ATOM     52  C   UNL A   1      40.321  29.693  31.102  1.00  0.00     0.010 A 
ATOM     53  C   UNL A   1      38.321  30.763  29.476  1.00  0.00     0.020 A 
ATOM     54  C   UNL A   1      39.102  30.073  31.667  1.00  0.00     0.020 A 
ATOM     55  C   UNL A   1      38.115  30.628  30.853  1.00  0.00     0.054 A 
BRANCH  55  56
ATOM     56  S   UNL A   1      36.540  31.173  31.570  1.00  0.00     0.124 S 
ATOM     57  O   UNL A   1      36.381  32.498  30.977  1.00  0.00    -0.237 OA
ATOM     58  O   UNL A   1      35.608  30.152  31.100  1.00  0.00    -0.237 OA
ATOM     59  O   UNL A   1      36.796  31.160  33.009  1.00  0.00    -0.744 OA
ENDBRANCH  55  56
ENDBRANCH  27  50
BRANCH  39  60
ATOM     60  C   UNL A   1      46.723  33.022  29.071  1.00  0.00    -0.014 A 
ATOM     61  C   UNL A   1      46.613  34.085  28.158  1.00  0.00     0.010 A 
ATOM     62  C   UNL A   1      47.226  33.264  30.362  1.00  0.00     0.010 A 
ATOM     63  C   UNL A   1      47.046  35.362  28.516  1.00  0.00     0.020 A 
ATOM     64  C   UNL A   1      47.626  34.546  30.733  1.00  0.00     0.020 A 
ATOM     65  C   UNL A   1      47.551  35.583  29.801  1.00  0.00     0.054 A 
BRANCH  65  66
ATOM     66  S   UNL A   1      48.080  37.256  30.251  1.00  0.00     0.124 S 
ATOM     67  O   UNL A   1      47.600  38.041  29.117  1.00  0.00    -0.237 OA
ATOM     68  O   UNL A   1      47.382  37.483  31.515  1.00  0.00    -0.237 OA
ATOM     69  O   UNL A   1      49.533  37.141  30.361  1.00  0.00    -0.744 OA
ENDBRANCH  65  66
ENDBRANCH  39  60
ENDBRANCH  13  14
ENDBRANCH   6   8
ENDBRANCH   5   6
ENDBRANCH   4   5
ENDBRANCH   3   4
ENDBRANCH   2   3
ENDBRANCH   1   2
BRANCH   1  70
ATOM     70  C   UNL A   1      37.038  23.184  25.241  1.00  0.00     0.261 C 
BRANCH  70  71
ATOM     71  O   UNL A   1      35.978  23.208  26.201  1.00  0.00    -0.461 OA
BRANCH  71  72
ATOM     72  C   UNL A   1      34.801  22.821  25.663  1.00  0.00     0.338 C 
ATOM     73  O   UNL A   1      34.609  21.786  25.024  1.00  0.00    -0.249 OA
BRANCH  72  74
ATOM     74  C   UNL A   1      33.688  23.817  25.924  1.00  0.00     0.263 C 
ATOM     75  O   UNL A   1      33.450  24.817  24.917  1.00  0.00    -0.322 OA
ATOM     76  C   UNL A   1      32.410  23.018  26.124  1.00  0.00     0.186 C 
ATOM     77  C   UNL A   1      32.624  25.866  25.438  1.00  0.00     0.340 C 
ATOM     78  C   UNL A   1      31.356  23.958  26.699  1.00  0.00     0.181 C 
ATOM     79  C   UNL A   1      31.291  25.303  25.982  1.00  0.00     0.214 C 
BRANCH  76  80
ATOM     80  O   UNL A   1      32.474  21.917  27.042  1.00  0.00    -0.387 OA
ATOM     81  H   UNL A   1      32.403  21.082  26.553  1.00  0.00     0.211 HD
ENDBRANCH  76  80
BRANCH  77  82
ATOM     82  O   UNL A   1      32.330  26.968  24.536  1.00  0.00    -0.454 OA
BRANCH  82  83
ATOM     83  C   UNL A   1      32.373  28.291  24.940  1.00  0.00     0.214 A 
ATOM     84  C   UNL A   1      31.384  29.194  24.751  1.00  0.00     0.181 A 
ATOM     85  C   UNL A   1      33.452  28.672  25.916  1.00  0.00     0.239 A 
ATOM     86  O   UNL A   1      31.384  30.487  25.222  1.00  0.00    -0.452 OA
ATOM     87  C   UNL A   1      33.309  29.987  26.610  1.00  0.00     0.111 A 
ATOM     88  O   UNL A   1      34.387  27.906  26.125  1.00  0.00    -0.285 OA
ATOM     89  C   UNL A   1      32.288  30.833  26.184  1.00  0.00     0.146 A 
ATOM     90  C   UNL A   1      34.135  30.428  27.658  1.00  0.00     0.134 A 
ATOM     91  C   UNL A   1      32.113  32.104  26.740  1.00  0.00     0.094 A 
ATOM     92  C   UNL A   1      33.964  31.701  28.226  1.00  0.00     0.093 A 
ATOM     93  C   UNL A   1      32.955  32.532  27.751  1.00  0.00     0.123 A 
BRANCH  84  94
ATOM     94  C   UNL A   1      30.179  28.919  23.965  1.00  0.00     0.029 A 
ATOM     95  C   UNL A   1      29.561  27.666  24.117  1.00  0.00     0.062 A 
ATOM     96  C   UNL A   1      29.572  29.923  23.185  1.00  0.00     0.062 A 
ATOM     97  C   UNL A   1      28.278  27.479  23.628  1.00  0.00     0.162 A 
ATOM     98  C   UNL A   1      28.279  29.720  22.716  1.00  0.00     0.162 A 
ATOM     99  C   UNL A   1      27.623  28.521  22.981  1.00  0.00     0.200 A 
BRANCH  97 100
ATOM    100  O   UNL A   1      27.630  26.312  23.904  1.00  0.00    -0.504 OA
ATOM    101  H   UNL A   1      28.107  25.506  23.926  1.00  0.00     0.293 HD
ENDBRANCH  97 100
BRANCH  98 102
ATOM    102  O   UNL A   1      27.597  30.765  22.163  1.00  0.00    -0.504 OA
ATOM    103  H   UNL A   1      27.546  31.584  22.618  1.00  0.00     0.293 HD
ENDBRANCH  98 102
BRANCH  99 104
ATOM    104  O   UNL A   1      26.262  28.463  22.832  1.00  0.00    -0.502 OA
ATOM    105  H   UNL A   1      25.782  27.736  23.177  1.00  0.00     0.293 HD
ENDBRANCH  99 104
ENDBRANCH  84  94
BRANCH  90 106
ATOM    106  O   UNL A   1      35.104  29.614  28.172  1.00  0.00    -0.507 OA
ATOM    107  H   UNL A   1      34.918  29.081  28.920  1.00  0.00     0.293 HD
ENDBRANCH  90 106
BRANCH  93 108
ATOM    108  O   UNL A   1      32.747  33.779  28.261  1.00  0.00    -0.508 OA
ATOM    109  H   UNL A   1      32.926  33.951  29.164  1.00  0.00     0.293 HD
ENDBRANCH  93 108
ENDBRANCH  82  83
ENDBRANCH  77  82
BRANCH  78 110
ATOM    110  O   UNL A   1      30.069  23.282  26.616  1.00  0.00    -0.387 OA
ATOM    111  H   UNL A   1      29.664  23.249  27.496  1.00  0.00     0.211 HD
ENDBRANCH  78 110
BRANCH  79 112
ATOM    112  O   UNL A   1      30.612  26.256  26.806  1.00  0.00    -0.384 OA
ATOM    113  H   UNL A   1      30.390  25.847  27.657  1.00  0.00     0.211 HD
ENDBRANCH  79 112
ENDBRANCH  72  74
ENDBRANCH  71  72
ENDBRANCH  70  71
ENDBRANCH   1  70
TORSDOF 28
ENDMDL
MODEL 3
REMARK VINA RESULT:     -10.8      5.973     10.446
REMARK SMILES O=C(OCCOCCOC(=O)[C@H]1O[C@@H](Oc2c(-c3cc(O)c(O)c(O)c3)oc3cc(O)cc(O)c3c2=O)[C@H](O)[C@@H](O)[C@@H]1O)c1ccc(-c2c3nc(c(-c4ccc(S(=O)(=O)[O-])cc4)c4ccc([nH]4)c(-c4ccc(S(=O)(=O)[O-])cc4)c4nc(c(-c5ccc(S(=O)(=O)[O-])cc5)c5ccc2[nH]5)C=C4)C=C3)cc1
REMARK SMILES IDX 7 1 6 2 5 3 4 4 3 5 2 6 1 7 44 8 45 9 103 10 46 11 102 12
REMARK SMILES IDX 47 13 48 14 49 15 96 16 50 17 101 18 95 19 97 20 51 21
REMARK SMILES IDX 100 22 94 23 93 24 52 26 82 27 63 28 81 29 64 30 67 31 80 32
REMARK SMILES IDX 98 33 65 34 66 35 79 37 99 38 68 39 53 40 54 41 62 42 55 43
REMARK SMILES IDX 61 44 56 45 57 46 58 47 59 48 60 49 83 50 84 51 92 52 85 53
REMARK SMILES IDX 91 54 86 55 87 56 88 57 89 58 90 59 69 60 70 61 78 62 71 63
REMARK SMILES IDX 77 64 72 65 73 66 74 67 75 68 76 69 8 70 9 71 10 72 11 73
REMARK SMILES IDX 12 74 13 75 42 76 14 77 40 78 38 79 43 80 15 82 16 83 17 84
REMARK SMILES IDX 36 85 27 86 35 87 37 88 28 89 33 90 29 91 32 92 30 93 18 94
REMARK SMILES IDX 19 95 26 96 20 97 24 98 22 99 21 100 25 102 23 104 34 106
REMARK SMILES IDX 31 108 41 110 39 112
REMARK H PARENT 97 25 67 36 43 81 21 101 25 103 23 105 34 107 31 109 41 111
REMARK H PARENT 39 113
REMARK Flexibility Score: inf
ROOT
ATOM      1  C   UNL A   1      35.768  22.824  24.081  1.00  0.00     0.202 C 
ENDROOT
BRANCH   1   2
ATOM      2  O   UNL A   1      36.756  22.486  25.069  1.00  0.00    -0.374 OA
BRANCH   2   3
ATOM      3  C   UNL A   1      37.145  23.547  25.953  1.00  0.00     0.202 C 
BRANCH   3   4
ATOM      4  C   UNL A   1      38.578  24.084  25.833  1.00  0.00     0.261 C 
BRANCH   4   5
ATOM      5  O   UNL A   1      39.017  24.688  27.062  1.00  0.00    -0.460 OA
BRANCH   5   6
ATOM      6  C   UNL A   1      39.840  25.752  27.220  1.00  0.00     0.338 C 
ATOM      7  O   UNL A   1      40.661  26.008  26.340  1.00  0.00    -0.246 OA
BRANCH   6   8
ATOM      8  C   UNL A   1      39.815  26.617  28.435  1.00  0.00     0.060 A 
ATOM      9  C   UNL A   1      40.510  27.819  28.553  1.00  0.00     0.016 A 
ATOM     10  C   UNL A   1      38.976  26.238  29.493  1.00  0.00     0.016 A 
ATOM     11  C   UNL A   1      40.471  28.575  29.701  1.00  0.00     0.010 A 
ATOM     12  C   UNL A   1      38.872  27.031  30.641  1.00  0.00     0.010 A 
ATOM     13  C   UNL A   1      39.641  28.194  30.746  1.00  0.00    -0.014 A 
BRANCH  13  14
ATOM     14  C   UNL A   1      39.731  29.015  31.961  1.00  0.00     0.031 A 
ATOM     15  C   UNL A   1      40.956  28.881  32.806  1.00  0.00     0.074 A 
ATOM     16  C   UNL A   1      38.841  30.012  32.130  1.00  0.00     0.049 A 
ATOM     17  N   UNL A   1      41.284  29.536  33.884  1.00  0.00    -0.248 NA
ATOM     18  C   UNL A   1      41.962  27.896  32.366  1.00  0.00     0.031 C 
ATOM     19  C   UNL A   1      37.712  30.296  31.233  1.00  0.00     0.029 A 
ATOM     20  N   UNL A   1      38.778  31.008  33.063  1.00  0.00    -0.354 N 
ATOM     21  C   UNL A   1      42.520  29.030  34.262  1.00  0.00     0.074 A 
ATOM     22  C   UNL A   1      42.882  28.006  33.311  1.00  0.00     0.031 C 
ATOM     23  C   UNL A   1      37.094  31.414  31.643  1.00  0.00     0.029 A 
ATOM     24  C   UNL A   1      37.728  31.874  32.870  1.00  0.00     0.049 A 
ATOM     25  H   UNL A   1      39.424  31.096  33.802  1.00  0.00     0.167 HD
ATOM     26  C   UNL A   1      43.278  29.397  35.319  1.00  0.00     0.031 A 
ATOM     27  C   UNL A   1      37.308  32.899  33.635  1.00  0.00     0.031 A 
ATOM     28  C   UNL A   1      42.869  30.411  36.251  1.00  0.00     0.049 A 
ATOM     29  C   UNL A   1      38.101  33.197  34.877  1.00  0.00     0.074 A 
ATOM     30  C   UNL A   1      43.481  30.808  37.423  1.00  0.00     0.029 A 
ATOM     31  N   UNL A   1      41.733  31.197  36.100  1.00  0.00    -0.354 N 
ATOM     32  N   UNL A   1      39.217  32.641  35.293  1.00  0.00    -0.248 NA
ATOM     33  C   UNL A   1      37.581  34.246  35.759  1.00  0.00     0.031 C 
ATOM     34  C   UNL A   1      42.685  31.800  38.007  1.00  0.00     0.029 A 
ATOM     35  C   UNL A   1      41.616  32.069  37.165  1.00  0.00     0.049 A 
ATOM     36  H   UNL A   1      41.104  31.141  35.345  1.00  0.00     0.167 HD
ATOM     37  C   UNL A   1      39.539  33.279  36.482  1.00  0.00     0.074 A 
ATOM     38  C   UNL A   1      38.518  34.288  36.697  1.00  0.00     0.031 C 
ATOM     39  C   UNL A   1      40.573  33.053  37.331  1.00  0.00     0.031 A 
BRANCH  26  40
ATOM     40  C   UNL A   1      44.556  28.640  35.544  1.00  0.00    -0.014 A 
ATOM     41  C   UNL A   1      45.772  29.064  34.978  1.00  0.00     0.010 A 
ATOM     42  C   UNL A   1      44.534  27.465  36.316  1.00  0.00     0.010 A 
ATOM     43  C   UNL A   1      46.936  28.310  35.154  1.00  0.00     0.020 A 
ATOM     44  C   UNL A   1      45.700  26.721  36.515  1.00  0.00     0.020 A 
ATOM     45  C   UNL A   1      46.891  27.142  35.921  1.00  0.00     0.054 A 
BRANCH  45  46
ATOM     46  S   UNL A   1      48.421  26.193  36.151  1.00  0.00     0.124 S 
ATOM     47  O   UNL A   1      48.526  26.137  37.606  1.00  0.00    -0.237 OA
ATOM     48  O   UNL A   1      48.112  24.926  35.494  1.00  0.00    -0.237 OA
ATOM     49  O   UNL A   1      49.437  27.006  35.486  1.00  0.00    -0.744 OA
ENDBRANCH  45  46
ENDBRANCH  26  40
BRANCH  27  50
ATOM     50  C   UNL A   1      36.047  33.625  33.307  1.00  0.00    -0.014 A 
ATOM     51  C   UNL A   1      34.789  33.010  33.421  1.00  0.00     0.010 A 
ATOM     52  C   UNL A   1      36.110  34.954  32.843  1.00  0.00     0.010 A 
ATOM     53  C   UNL A   1      33.627  33.695  33.043  1.00  0.00     0.020 A 
ATOM     54  C   UNL A   1      34.952  35.655  32.500  1.00  0.00     0.020 A 
ATOM     55  C   UNL A   1      33.716  35.012  32.581  1.00  0.00     0.054 A 
BRANCH  55  56
ATOM     56  S   UNL A   1      32.201  35.885  32.096  1.00  0.00     0.124 S 
ATOM     57  O   UNL A   1      32.493  37.253  32.516  1.00  0.00    -0.237 OA
ATOM     58  O   UNL A   1      32.154  35.661  30.654  1.00  0.00    -0.237 OA
ATOM     59  O   UNL A   1      31.156  35.207  32.860  1.00  0.00    -0.744 OA
ENDBRANCH  55  56
ENDBRANCH  27  50
BRANCH  39  60
ATOM     60  C   UNL A   1      40.652  33.938  38.541  1.00  0.00    -0.014 A 
ATOM     61  C   UNL A   1      41.556  35.014  38.599  1.00  0.00     0.010 A 
ATOM     62  C   UNL A   1      39.778  33.707  39.619  1.00  0.00     0.010 A 
ATOM     63  C   UNL A   1      41.616  35.816  39.737  1.00  0.00     0.020 A 
ATOM     64  C   UNL A   1      39.813  34.530  40.743  1.00  0.00     0.020 A 
ATOM     65  C   UNL A   1      40.745  35.568  40.803  1.00  0.00     0.054 A 
BRANCH  65  66
ATOM     66  S   UNL A   1      40.823  36.643  42.259  1.00  0.00     0.124 S 
ATOM     67  O   UNL A   1      41.500  37.823  41.728  1.00  0.00    -0.237 OA
ATOM     68  O   UNL A   1      39.414  36.825  42.598  1.00  0.00    -0.237 OA
ATOM     69  O   UNL A   1      41.594  35.862  43.223  1.00  0.00    -0.744 OA
ENDBRANCH  65  66
ENDBRANCH  39  60
ENDBRANCH  13  14
ENDBRANCH   6   8
ENDBRANCH   5   6
ENDBRANCH   4   5
ENDBRANCH   3   4
ENDBRANCH   2   3
ENDBRANCH   1   2
BRANCH   1  70
ATOM     70  C   UNL A   1      34.737  21.701  23.967  1.00  0.00     0.261 C 
BRANCH  70  71
ATOM     71  O   UNL A   1      33.460  22.290  24.227  1.00  0.00    -0.461 OA
BRANCH  71  72
ATOM     72  C   UNL A   1      33.232  22.437  25.551  1.00  0.00     0.338 C 
ATOM     73  O   UNL A   1      33.499  21.608  26.421  1.00  0.00    -0.249 OA
BRANCH  72  74
ATOM     74  C   UNL A   1      32.589  23.769  25.885  1.00  0.00     0.263 C 
ATOM     75  O   UNL A   1      32.585  24.774  24.856  1.00  0.00    -0.322 OA
ATOM     76  C   UNL A   1      31.151  23.482  26.287  1.00  0.00     0.186 C 
ATOM     77  C   UNL A   1      32.261  26.057  25.411  1.00  0.00     0.340 C 
ATOM     78  C   UNL A   1      30.585  24.744  26.929  1.00  0.00     0.181 C 
ATOM     79  C   UNL A   1      30.902  26.015  26.146  1.00  0.00     0.214 C 
BRANCH  76  80
ATOM     80  O   UNL A   1      30.945  22.442  27.255  1.00  0.00    -0.387 OA
ATOM     81  H   UNL A   1      29.996  22.254  27.332  1.00  0.00     0.211 HD
ENDBRANCH  76  80
BRANCH  77  82
ATOM     82  O   UNL A   1      32.256  27.179  24.487  1.00  0.00    -0.454 OA
BRANCH  82  83
ATOM     83  C   UNL A   1      32.303  28.494  24.916  1.00  0.00     0.214 A 
ATOM     84  C   UNL A   1      31.309  29.398  24.760  1.00  0.00     0.181 A 
ATOM     85  C   UNL A   1      33.397  28.859  25.882  1.00  0.00     0.239 A 
ATOM     86  O   UNL A   1      31.314  30.682  25.255  1.00  0.00    -0.452 OA
ATOM     87  C   UNL A   1      33.261  30.160  26.603  1.00  0.00     0.111 A 
ATOM     88  O   UNL A   1      34.336  28.092  26.062  1.00  0.00    -0.285 OA
ATOM     89  C   UNL A   1      32.232  31.012  26.209  1.00  0.00     0.146 A 
ATOM     90  C   UNL A   1      34.103  30.583  27.645  1.00  0.00     0.134 A 
ATOM     91  C   UNL A   1      32.063  32.272  26.792  1.00  0.00     0.094 A 
ATOM     92  C   UNL A   1      33.938  31.845  28.241  1.00  0.00     0.093 A 
ATOM     93  C   UNL A   1      32.920  32.682  27.798  1.00  0.00     0.123 A 
BRANCH  84  94
ATOM     94  C   UNL A   1      30.092  29.136  23.987  1.00  0.00     0.029 A 
ATOM     95  C   UNL A   1      29.606  27.817  23.945  1.00  0.00     0.062 A 
ATOM     96  C   UNL A   1      29.348  30.188  23.419  1.00  0.00     0.062 A 
ATOM     97  C   UNL A   1      28.322  27.583  23.484  1.00  0.00     0.162 A 
ATOM     98  C   UNL A   1      28.054  29.933  22.975  1.00  0.00     0.162 A 
ATOM     99  C   UNL A   1      27.534  28.645  23.054  1.00  0.00     0.200 A 
BRANCH  97 100
ATOM    100  O   UNL A   1      27.806  26.325  23.580  1.00  0.00    -0.504 OA
ATOM    101  H   UNL A   1      27.877  25.849  24.384  1.00  0.00     0.293 HD
ENDBRANCH  97 100
BRANCH  98 102
ATOM    102  O   UNL A   1      27.244  30.979  22.640  1.00  0.00    -0.504 OA
ATOM    103  H   UNL A   1      26.786  30.973  21.822  1.00  0.00     0.293 HD
ENDBRANCH  98 102
BRANCH  99 104
ATOM    104  O   UNL A   1      26.177  28.471  22.953  1.00  0.00    -0.502 OA
ATOM    105  H   UNL A   1      25.673  28.260  23.714  1.00  0.00     0.293 HD
ENDBRANCH  99 104
ENDBRANCH  84  94
BRANCH  90 106
ATOM    106  O   UNL A   1      35.081  29.762  28.129  1.00  0.00    -0.507 OA
ATOM    107  H   UNL A   1      35.629  30.050  28.833  1.00  0.00     0.293 HD
ENDBRANCH  90 106
BRANCH  93 108
ATOM    108  O   UNL A   1      32.718  33.919  28.334  1.00  0.00    -0.508 OA
ATOM    109  H   UNL A   1      33.448  34.478  28.512  1.00  0.00     0.293 HD
ENDBRANCH  93 108
ENDBRANCH  82  83
ENDBRANCH  77  82
BRANCH  78 110
ATOM    110  O   UNL A   1      29.144  24.572  27.045  1.00  0.00    -0.387 OA
ATOM    111  H   UNL A   1      28.845  24.912  27.903  1.00  0.00     0.211 HD
ENDBRANCH  78 110
BRANCH  79 112
ATOM    112  O   UNL A   1      30.722  27.157  26.989  1.00  0.00    -0.384 OA
ATOM    113  H   UNL A   1      31.500  27.265  27.558  1.00  0.00     0.211 HD
ENDBRANCH  79 112
ENDBRANCH  72  74
ENDBRANCH  71  72
ENDBRANCH  70  71
ENDBRANCH   1  70
TORSDOF 28
ENDMDL
