MODEL 1
REMARK VINA RESULT:     -10.0      0.000      0.000
REMARK SMILES CNC(=O)[C@H](C)S(=O)(=O)c1cc(C(=O)OCCOCCOC(=O)c2ccc(-c3c4nc(c(-c5ccc(S(=O)(=O)[O-])cc5)c5ccc([nH]5)c(-c5ccc(S(=O)(=O)[O-])cc5)c5nc(c(-c6ccc(S(=O)(=O)[O-])cc6)c6ccc3[nH]6)C=C5)C=C4)cc2)c(C)cc1C
REMARK SMILES IDX 18 1 17 2 16 3 15 4 13 5 14 6 12 7 10 8 11 9 87 10 86 11
REMARK SMILES IDX 88 12 84 13 85 14 7 15 8 16 9 17 5 18 6 19 3 20 1 21 2 22
REMARK SMILES IDX 4 24 19 25 20 26 21 27 22 28 23 29 24 30 25 31 83 32 26 33
REMARK SMILES IDX 82 34 27 35 28 36 29 37 76 38 30 39 81 40 75 41 77 42 31 43
REMARK SMILES IDX 80 44 74 45 73 46 32 48 62 49 43 50 61 51 44 52 47 53 60 54
REMARK SMILES IDX 78 55 45 56 46 57 59 59 79 60 48 61 33 62 34 63 42 64 35 65
REMARK SMILES IDX 41 66 36 67 37 68 38 69 39 70 40 71 63 72 64 73 72 74 65 75
REMARK SMILES IDX 71 76 66 77 67 78 68 79 69 80 70 81 49 82 50 83 58 84 51 85
REMARK SMILES IDX 57 86 52 87 53 88 54 89 55 90 56 91
REMARK H PARENT 2 23 77 47 47 58
REMARK Flexibility Score: inf
ROOT
ATOM      1  O   UNL A   1      37.558  20.904  25.001  1.00  0.00    -0.374 OA
ENDROOT
BRANCH   1   2
ATOM      2  C   UNL A   1      37.167  22.140  24.395  1.00  0.00     0.202 C 
BRANCH   2   3
ATOM      3  C   UNL A   1      37.053  23.318  25.366  1.00  0.00     0.261 C 
BRANCH   3   4
ATOM      4  O   UNL A   1      35.773  23.948  25.185  1.00  0.00    -0.460 OA
BRANCH   4   5
ATOM      5  C   UNL A   1      34.747  23.445  25.898  1.00  0.00     0.338 C 
ATOM      6  O   UNL A   1      34.824  22.677  26.844  1.00  0.00    -0.246 OA
BRANCH   5   7
ATOM      7  C   UNL A   1      33.469  24.109  25.518  1.00  0.00     0.064 A 
ATOM      8  C   UNL A   1      32.073  26.101  25.908  1.00  0.00     0.071 A 
ATOM      9  C   UNL A   1      33.244  25.352  26.136  1.00  0.00     0.036 A 
ATOM     10  C   UNL A   1      31.072  25.567  25.088  1.00  0.00    -0.032 A 
ATOM     11  C   UNL A   1      31.329  24.335  24.447  1.00  0.00     0.009 A 
ATOM     12  C   UNL A   1      29.711  26.138  24.831  1.00  0.00     0.046 C 
ATOM     13  C   UNL A   1      32.532  23.622  24.599  1.00  0.00    -0.036 A 
ATOM     14  C   UNL A   1      32.706  22.368  23.787  1.00  0.00     0.045 C 
BRANCH   8  15
ATOM     15  S   UNL A   1      32.128  27.786  26.512  1.00  0.00     0.190 S 
ATOM     16  O   UNL A   1      33.527  27.997  26.850  1.00  0.00    -0.223 OA
ATOM     17  O   UNL A   1      31.158  27.870  27.595  1.00  0.00    -0.223 OA
BRANCH  15  18
ATOM     18  C   UNL A   1      31.620  29.004  25.339  1.00  0.00     0.199 C 
ATOM     19  C   UNL A   1      31.823  30.421  25.924  1.00  0.00     0.036 C 
BRANCH  18  20
ATOM     20  C   UNL A   1      32.157  28.885  23.932  1.00  0.00     0.238 C 
ATOM     21  C   UNL A   1      30.109  29.508  22.482  1.00  0.00     0.142 C 
ATOM     22  N   UNL A   1      31.481  29.182  22.798  1.00  0.00    -0.358 N 
ATOM     23  H   UNL A   1      32.060  29.174  22.002  1.00  0.00     0.163 HD
ATOM     24  O   UNL A   1      33.352  28.612  23.745  1.00  0.00    -0.274 OA
ENDBRANCH  18  20
ENDBRANCH  15  18
ENDBRANCH   8  15
ENDBRANCH   5   7
ENDBRANCH   4   5
ENDBRANCH   3   4
ENDBRANCH   2   3
ENDBRANCH   1   2
BRANCH   1  25
ATOM     25  C   UNL A   1      38.786  20.904  25.730  1.00  0.00     0.202 C 
BRANCH  25  26
ATOM     26  C   UNL A   1      39.593  19.602  25.670  1.00  0.00     0.261 C 
BRANCH  26  27
ATOM     27  O   UNL A   1      40.688  19.604  26.603  1.00  0.00    -0.460 OA
BRANCH  27  28
ATOM     28  C   UNL A   1      41.885  19.952  26.069  1.00  0.00     0.338 C 
ATOM     29  O   UNL A   1      42.545  19.314  25.266  1.00  0.00    -0.246 OA
BRANCH  28  30
ATOM     30  C   UNL A   1      42.230  21.332  26.463  1.00  0.00     0.060 A 
ATOM     31  C   UNL A   1      42.328  22.285  25.443  1.00  0.00     0.016 A 
ATOM     32  C   UNL A   1      42.516  21.675  27.787  1.00  0.00     0.016 A 
ATOM     33  C   UNL A   1      42.759  23.578  25.735  1.00  0.00     0.010 A 
ATOM     34  C   UNL A   1      42.954  22.973  28.077  1.00  0.00     0.010 A 
ATOM     35  C   UNL A   1      43.110  23.919  27.049  1.00  0.00    -0.014 A 
BRANCH  35  36
ATOM     36  C   UNL A   1      43.752  25.230  27.315  1.00  0.00     0.031 A 
ATOM     37  C   UNL A   1      42.911  26.371  27.819  1.00  0.00     0.074 A 
ATOM     38  C   UNL A   1      45.076  25.390  27.144  1.00  0.00     0.049 A 
ATOM     39  N   UNL A   1      43.272  27.592  28.121  1.00  0.00    -0.248 NA
ATOM     40  C   UNL A   1      41.477  26.101  28.008  1.00  0.00     0.031 C 
ATOM     41  C   UNL A   1      46.003  24.351  26.697  1.00  0.00     0.029 A 
ATOM     42  N   UNL A   1      45.871  26.494  27.330  1.00  0.00    -0.354 N 
ATOM     43  C   UNL A   1      42.110  28.238  28.530  1.00  0.00     0.074 A 
ATOM     44  C   UNL A   1      41.030  27.283  28.408  1.00  0.00     0.031 C 
ATOM     45  C   UNL A   1      47.242  24.868  26.640  1.00  0.00     0.029 A 
ATOM     46  C   UNL A   1      47.192  26.280  27.017  1.00  0.00     0.049 A 
ATOM     47  H   UNL A   1      45.527  27.357  27.656  1.00  0.00     0.167 HD
ATOM     48  C   UNL A   1      41.957  29.510  28.972  1.00  0.00     0.031 A 
ATOM     49  C   UNL A   1      48.239  27.128  27.021  1.00  0.00     0.031 A 
ATOM     50  C   UNL A   1      43.030  30.463  29.079  1.00  0.00     0.049 A 
ATOM     51  C   UNL A   1      48.034  28.556  27.453  1.00  0.00     0.074 A 
ATOM     52  C   UNL A   1      42.978  31.770  29.536  1.00  0.00     0.029 A 
ATOM     53  N   UNL A   1      44.345  30.220  28.715  1.00  0.00    -0.354 N 
ATOM     54  N   UNL A   1      46.935  29.141  27.866  1.00  0.00    -0.248 NA
ATOM     55  C   UNL A   1      49.213  29.433  27.427  1.00  0.00     0.031 C 
ATOM     56  C   UNL A   1      44.251  32.333  29.394  1.00  0.00     0.029 A 
ATOM     57  C   UNL A   1      45.108  31.360  28.906  1.00  0.00     0.049 A 
ATOM     58  H   UNL A   1      44.686  29.363  28.370  1.00  0.00     0.167 HD
ATOM     59  C   UNL A   1      47.295  30.450  28.171  1.00  0.00     0.074 A 
ATOM     60  C   UNL A   1      48.715  30.565  27.908  1.00  0.00     0.031 C 
ATOM     61  C   UNL A   1      46.519  31.463  28.631  1.00  0.00     0.031 A 
BRANCH  48  62
ATOM     62  C   UNL A   1      40.565  29.952  29.341  1.00  0.00    -0.014 A 
ATOM     63  C   UNL A   1      39.518  29.928  28.402  1.00  0.00     0.010 A 
ATOM     64  C   UNL A   1      40.296  30.375  30.656  1.00  0.00     0.010 A 
ATOM     65  C   UNL A   1      38.238  30.359  28.760  1.00  0.00     0.020 A 
ATOM     66  C   UNL A   1      39.011  30.782  31.024  1.00  0.00     0.020 A 
ATOM     67  C   UNL A   1      37.994  30.790  30.068  1.00  0.00     0.054 A 
BRANCH  67  68
ATOM     68  S   UNL A   1      36.321  31.337  30.508  1.00  0.00     0.124 S 
ATOM     69  O   UNL A   1      36.509  32.777  30.669  1.00  0.00    -0.237 OA
ATOM     70  O   UNL A   1      35.535  30.933  29.345  1.00  0.00    -0.237 OA
ATOM     71  O   UNL A   1      36.029  30.605  31.739  1.00  0.00    -0.744 OA
ENDBRANCH  67  68
ENDBRANCH  48  62
BRANCH  49  72
ATOM     72  C   UNL A   1      49.578  26.648  26.585  1.00  0.00    -0.014 A 
ATOM     73  C   UNL A   1      50.429  25.978  27.480  1.00  0.00     0.010 A 
ATOM     74  C   UNL A   1      50.001  26.846  25.257  1.00  0.00     0.010 A 
ATOM     75  C   UNL A   1      51.681  25.521  27.058  1.00  0.00     0.020 A 
ATOM     76  C   UNL A   1      51.239  26.368  24.824  1.00  0.00     0.020 A 
ATOM     77  C   UNL A   1      52.077  25.715  25.730  1.00  0.00     0.054 A 
BRANCH  77  78
ATOM     78  S   UNL A   1      53.675  25.052  25.185  1.00  0.00     0.124 S 
ATOM     79  O   UNL A   1      53.469  23.614  25.316  1.00  0.00    -0.237 OA
ATOM     80  O   UNL A   1      53.775  25.556  23.818  1.00  0.00    -0.237 OA
ATOM     81  O   UNL A   1      54.627  25.638  26.126  1.00  0.00    -0.744 OA
ENDBRANCH  77  78
ENDBRANCH  49  72
BRANCH  61  82
ATOM     82  C   UNL A   1      47.194  32.783  28.905  1.00  0.00    -0.014 A 
ATOM     83  C   UNL A   1      47.736  33.077  30.168  1.00  0.00     0.010 A 
ATOM     84  C   UNL A   1      47.331  33.722  27.865  1.00  0.00     0.010 A 
ATOM     85  C   UNL A   1      48.376  34.299  30.396  1.00  0.00     0.020 A 
ATOM     86  C   UNL A   1      47.992  34.933  28.081  1.00  0.00     0.020 A 
ATOM     87  C   UNL A   1      48.498  35.221  29.351  1.00  0.00     0.054 A 
BRANCH  87  88
ATOM     88  S   UNL A   1      49.364  36.784  29.661  1.00  0.00     0.124 S 
ATOM     89  O   UNL A   1      50.308  36.835  28.548  1.00  0.00    -0.237 OA
ATOM     90  O   UNL A   1      48.284  37.766  29.614  1.00  0.00    -0.237 OA
ATOM     91  O   UNL A   1      49.965  36.591  30.979  1.00  0.00    -0.744 OA
ENDBRANCH  87  88
ENDBRANCH  61  82
ENDBRANCH  35  36
ENDBRANCH  28  30
ENDBRANCH  27  28
ENDBRANCH  26  27
ENDBRANCH  25  26
ENDBRANCH   1  25
TORSDOF 20
ENDMDL
MODEL 2
REMARK VINA RESULT:      -9.9      0.684      8.114
REMARK SMILES CNC(=O)[C@H](C)S(=O)(=O)c1cc(C(=O)OCCOCCOC(=O)c2ccc(-c3c4nc(c(-c5ccc(S(=O)(=O)[O-])cc5)c5ccc([nH]5)c(-c5ccc(S(=O)(=O)[O-])cc5)c5nc(c(-c6ccc(S(=O)(=O)[O-])cc6)c6ccc3[nH]6)C=C5)C=C4)cc2)c(C)cc1C
REMARK SMILES IDX 18 1 17 2 16 3 15 4 13 5 14 6 12 7 10 8 11 9 87 10 86 11
REMARK SMILES IDX 88 12 84 13 85 14 7 15 8 16 9 17 5 18 6 19 3 20 1 21 2 22
REMARK SMILES IDX 4 24 19 25 20 26 21 27 22 28 23 29 24 30 25 31 83 32 26 33
REMARK SMILES IDX 82 34 27 35 28 36 29 37 76 38 30 39 81 40 75 41 77 42 31 43
REMARK SMILES IDX 80 44 74 45 73 46 32 48 62 49 43 50 61 51 44 52 47 53 60 54
REMARK SMILES IDX 78 55 45 56 46 57 59 59 79 60 48 61 33 62 34 63 42 64 35 65
REMARK SMILES IDX 41 66 36 67 37 68 38 69 39 70 40 71 63 72 64 73 72 74 65 75
REMARK SMILES IDX 71 76 66 77 67 78 68 79 69 80 70 81 49 82 50 83 58 84 51 85
REMARK SMILES IDX 57 86 52 87 53 88 54 89 55 90 56 91
REMARK H PARENT 2 23 77 47 47 58
REMARK Flexibility Score: inf
ROOT
ATOM      1  O   UNL A   1      37.106  20.385  24.979  1.00  0.00    -0.374 OA
ENDROOT
BRANCH   1   2
ATOM      2  C   UNL A   1      37.130  21.765  24.600  1.00  0.00     0.202 C 
BRANCH   2   3
ATOM      3  C   UNL A   1      36.351  22.695  25.533  1.00  0.00     0.261 C 
BRANCH   3   4
ATOM      4  O   UNL A   1      35.196  23.193  24.836  1.00  0.00    -0.460 OA
BRANCH   4   5
ATOM      5  C   UNL A   1      34.010  22.645  25.165  1.00  0.00     0.338 C 
ATOM      6  O   UNL A   1      33.831  21.652  25.854  1.00  0.00    -0.246 OA
BRANCH   5   7
ATOM      7  C   UNL A   1      32.889  23.530  24.745  1.00  0.00     0.064 A 
ATOM      8  C   UNL A   1      31.766  25.673  25.213  1.00  0.00     0.071 A 
ATOM      9  C   UNL A   1      32.786  24.733  25.465  1.00  0.00     0.036 A 
ATOM     10  C   UNL A   1      30.787  25.376  24.259  1.00  0.00    -0.032 A 
ATOM     11  C   UNL A   1      30.925  24.180  23.519  1.00  0.00     0.009 A 
ATOM     12  C   UNL A   1      29.558  26.172  23.943  1.00  0.00     0.046 C 
ATOM     13  C   UNL A   1      31.989  23.278  23.701  1.00  0.00    -0.036 A 
ATOM     14  C   UNL A   1      32.061  22.090  22.783  1.00  0.00     0.045 C 
BRANCH   8  15
ATOM     15  S   UNL A   1      32.005  27.269  25.991  1.00  0.00     0.190 S 
ATOM     16  O   UNL A   1      33.427  27.308  26.292  1.00  0.00    -0.223 OA
ATOM     17  O   UNL A   1      31.081  27.325  27.116  1.00  0.00    -0.223 OA
BRANCH  15  18
ATOM     18  C   UNL A   1      31.583  28.650  24.976  1.00  0.00     0.199 C 
ATOM     19  C   UNL A   1      31.878  29.970  25.727  1.00  0.00     0.036 C 
BRANCH  18  20
ATOM     20  C   UNL A   1      32.116  28.667  23.563  1.00  0.00     0.238 C 
ATOM     21  C   UNL A   1      30.105  29.557  22.202  1.00  0.00     0.142 C 
ATOM     22  N   UNL A   1      31.458  29.126  22.473  1.00  0.00    -0.358 N 
ATOM     23  H   UNL A   1      32.037  29.180  21.678  1.00  0.00     0.163 HD
ATOM     24  O   UNL A   1      33.296  28.357  23.341  1.00  0.00    -0.274 OA
ENDBRANCH  18  20
ENDBRANCH  15  18
ENDBRANCH   8  15
ENDBRANCH   5   7
ENDBRANCH   4   5
ENDBRANCH   3   4
ENDBRANCH   2   3
ENDBRANCH   1   2
BRANCH   1  25
ATOM     25  C   UNL A   1      38.367  19.768  25.245  1.00  0.00     0.202 C 
BRANCH  25  26
ATOM     26  C   UNL A   1      39.412  20.661  25.925  1.00  0.00     0.261 C 
BRANCH  26  27
ATOM     27  O   UNL A   1      40.238  19.921  26.840  1.00  0.00    -0.460 OA
BRANCH  27  28
ATOM     28  C   UNL A   1      41.522  19.758  26.436  1.00  0.00     0.338 C 
ATOM     29  O   UNL A   1      41.994  18.795  25.856  1.00  0.00    -0.246 OA
BRANCH  28  30
ATOM     30  C   UNL A   1      42.278  21.009  26.642  1.00  0.00     0.060 A 
ATOM     31  C   UNL A   1      42.403  21.474  27.956  1.00  0.00     0.016 A 
ATOM     32  C   UNL A   1      42.796  21.748  25.575  1.00  0.00     0.016 A 
ATOM     33  C   UNL A   1      43.007  22.705  28.206  1.00  0.00     0.010 A 
ATOM     34  C   UNL A   1      43.396  22.986  25.827  1.00  0.00     0.010 A 
ATOM     35  C   UNL A   1      43.475  23.486  27.140  1.00  0.00    -0.014 A 
BRANCH  35  36
ATOM     36  C   UNL A   1      43.933  24.873  27.397  1.00  0.00     0.031 A 
ATOM     37  C   UNL A   1      45.378  25.223  27.171  1.00  0.00     0.074 A 
ATOM     38  C   UNL A   1      43.062  25.819  27.792  1.00  0.00     0.049 A 
ATOM     39  N   UNL A   1      45.984  26.372  27.327  1.00  0.00    -0.248 NA
ATOM     40  C   UNL A   1      46.256  24.136  26.709  1.00  0.00     0.031 C 
ATOM     41  C   UNL A   1      41.631  25.613  28.009  1.00  0.00     0.029 A 
ATOM     42  N   UNL A   1      43.260  27.146  28.081  1.00  0.00    -0.354 N 
ATOM     43  C   UNL A   1      47.314  26.147  26.988  1.00  0.00     0.074 A 
ATOM     44  C   UNL A   1      47.431  24.746  26.648  1.00  0.00     0.031 C 
ATOM     45  C   UNL A   1      41.078  26.774  28.400  1.00  0.00     0.029 A 
ATOM     46  C   UNL A   1      42.120  27.796  28.489  1.00  0.00     0.049 A 
ATOM     47  H   UNL A   1      44.135  27.590  28.002  1.00  0.00     0.167 HD
ATOM     48  C   UNL A   1      48.343  27.028  26.958  1.00  0.00     0.031 A 
ATOM     49  C   UNL A   1      41.939  29.066  28.902  1.00  0.00     0.031 A 
ATOM     50  C   UNL A   1      48.227  28.418  27.310  1.00  0.00     0.049 A 
ATOM     51  C   UNL A   1      43.111  30.012  28.923  1.00  0.00     0.074 A 
ATOM     52  C   UNL A   1      49.208  29.396  27.292  1.00  0.00     0.029 A 
ATOM     53  N   UNL A   1      47.065  29.029  27.757  1.00  0.00    -0.354 N 
ATOM     54  N   UNL A   1      44.354  29.791  28.570  1.00  0.00    -0.248 NA
ATOM     55  C   UNL A   1      42.850  31.380  29.391  1.00  0.00     0.031 C 
ATOM     56  C   UNL A   1      48.652  30.583  27.781  1.00  0.00     0.029 A 
ATOM     57  C   UNL A   1      47.311  30.361  28.047  1.00  0.00     0.049 A 
ATOM     58  H   UNL A   1      46.194  28.581  27.855  1.00  0.00     0.167 HD
ATOM     59  C   UNL A   1      45.020  30.999  28.751  1.00  0.00     0.074 A 
ATOM     60  C   UNL A   1      44.038  31.949  29.231  1.00  0.00     0.031 C 
ATOM     61  C   UNL A   1      46.326  31.294  28.534  1.00  0.00     0.031 A 
BRANCH  48  62
ATOM     62  C   UNL A   1      49.696  26.499  26.560  1.00  0.00    -0.014 A 
ATOM     63  C   UNL A   1      50.089  26.439  25.211  1.00  0.00     0.010 A 
ATOM     64  C   UNL A   1      50.598  26.081  27.555  1.00  0.00     0.010 A 
ATOM     65  C   UNL A   1      51.343  25.929  24.862  1.00  0.00     0.020 A 
ATOM     66  C   UNL A   1      51.862  25.594  27.212  1.00  0.00     0.020 A 
ATOM     67  C   UNL A   1      52.219  25.503  25.865  1.00  0.00     0.054 A 
BRANCH  67  68
ATOM     68  S   UNL A   1      53.843  24.852  25.385  1.00  0.00     0.124 S 
ATOM     69  O   UNL A   1      54.352  25.917  24.525  1.00  0.00    -0.237 OA
ATOM     70  O   UNL A   1      54.521  24.705  26.671  1.00  0.00    -0.237 OA
ATOM     71  O   UNL A   1      53.527  23.598  24.704  1.00  0.00    -0.744 OA
ENDBRANCH  67  68
ENDBRANCH  48  62
BRANCH  49  72
ATOM     72  C   UNL A   1      40.590  29.512  29.344  1.00  0.00    -0.014 A 
ATOM     73  C   UNL A   1      40.298  29.678  30.708  1.00  0.00     0.010 A 
ATOM     74  C   UNL A   1      39.592  29.791  28.391  1.00  0.00     0.010 A 
ATOM     75  C   UNL A   1      39.030  30.108  31.113  1.00  0.00     0.020 A 
ATOM     76  C   UNL A   1      38.333  30.246  28.790  1.00  0.00     0.020 A 
ATOM     77  C   UNL A   1      38.057  30.394  30.150  1.00  0.00     0.054 A 
BRANCH  77  78
ATOM     78  S   UNL A   1      36.442  31.017  30.693  1.00  0.00     0.124 S 
ATOM     79  O   UNL A   1      35.995  29.961  31.595  1.00  0.00    -0.237 OA
ATOM     80  O   UNL A   1      36.791  32.286  31.327  1.00  0.00    -0.237 OA
ATOM     81  O   UNL A   1      35.688  31.140  29.448  1.00  0.00    -0.744 OA
ENDBRANCH  77  78
ENDBRANCH  49  72
BRANCH  61  82
ATOM     82  C   UNL A   1      46.769  32.711  28.792  1.00  0.00    -0.014 A 
ATOM     83  C   UNL A   1      47.290  33.098  30.039  1.00  0.00     0.010 A 
ATOM     84  C   UNL A   1      46.709  33.658  27.752  1.00  0.00     0.010 A 
ATOM     85  C   UNL A   1      47.714  34.412  30.252  1.00  0.00     0.020 A 
ATOM     86  C   UNL A   1      47.156  34.966  27.952  1.00  0.00     0.020 A 
ATOM     87  C   UNL A   1      47.642  35.340  29.206  1.00  0.00     0.054 A 
BRANCH  87  88
ATOM     88  S   UNL A   1      48.232  37.030  29.495  1.00  0.00     0.124 S 
ATOM     89  O   UNL A   1      47.117  37.831  28.999  1.00  0.00    -0.237 OA
ATOM     90  O   UNL A   1      48.432  37.059  30.942  1.00  0.00    -0.237 OA
ATOM     91  O   UNL A   1      49.457  37.109  28.702  1.00  0.00    -0.744 OA
ENDBRANCH  87  88
ENDBRANCH  61  82
ENDBRANCH  35  36
ENDBRANCH  28  30
ENDBRANCH  27  28
ENDBRANCH  26  27
ENDBRANCH  25  26
ENDBRANCH   1  25
TORSDOF 20
ENDMDL
MODEL 3
REMARK VINA RESULT:      -9.7      6.137     11.217
REMARK SMILES CNC(=O)[C@H](C)S(=O)(=O)c1cc(C(=O)OCCOCCOC(=O)c2ccc(-c3c4nc(c(-c5ccc(S(=O)(=O)[O-])cc5)c5ccc([nH]5)c(-c5ccc(S(=O)(=O)[O-])cc5)c5nc(c(-c6ccc(S(=O)(=O)[O-])cc6)c6ccc3[nH]6)C=C5)C=C4)cc2)c(C)cc1C
REMARK SMILES IDX 18 1 17 2 16 3 15 4 13 5 14 6 12 7 10 8 11 9 87 10 86 11
REMARK SMILES IDX 88 12 84 13 85 14 7 15 8 16 9 17 5 18 6 19 3 20 1 21 2 22
REMARK SMILES IDX 4 24 19 25 20 26 21 27 22 28 23 29 24 30 25 31 83 32 26 33
REMARK SMILES IDX 82 34 27 35 28 36 29 37 76 38 30 39 81 40 75 41 77 42 31 43
REMARK SMILES IDX 80 44 74 45 73 46 32 48 62 49 43 50 61 51 44 52 47 53 60 54
REMARK SMILES IDX 78 55 45 56 46 57 59 59 79 60 48 61 33 62 34 63 42 64 35 65
REMARK SMILES IDX 41 66 36 67 37 68 38 69 39 70 40 71 63 72 64 73 72 74 65 75
REMARK SMILES IDX 71 76 66 77 67 78 68 79 69 80 70 81 49 82 50 83 58 84 51 85
REMARK SMILES IDX 57 86 52 87 53 88 54 89 55 90 56 91
REMARK H PARENT 2 23 77 47 47 58
REMARK Flexibility Score: inf
ROOT
ATOM      1  O   UNL A   1      38.602  22.146  26.256  1.00  0.00    -0.374 OA
ENDROOT
BRANCH   1   2
ATOM      2  C   UNL A   1      37.620  22.726  25.391  1.00  0.00     0.202 C 
BRANCH   2   3
ATOM      3  C   UNL A   1      36.697  23.743  26.066  1.00  0.00     0.261 C 
BRANCH   3   4
ATOM      4  O   UNL A   1      35.390  23.652  25.473  1.00  0.00    -0.460 OA
BRANCH   4   5
ATOM      5  C   UNL A   1      34.350  23.525  26.319  1.00  0.00     0.338 C 
ATOM      6  O   UNL A   1      34.383  23.065  27.450  1.00  0.00    -0.246 OA
BRANCH   5   7
ATOM      7  C   UNL A   1      33.147  24.215  25.778  1.00  0.00     0.064 A 
ATOM      8  C   UNL A   1      32.326  26.345  24.852  1.00  0.00     0.071 A 
ATOM      9  C   UNL A   1      33.364  25.541  25.364  1.00  0.00     0.036 A 
ATOM     10  C   UNL A   1      31.025  25.833  24.809  1.00  0.00    -0.032 A 
ATOM     11  C   UNL A   1      30.830  24.488  25.195  1.00  0.00     0.009 A 
ATOM     12  C   UNL A   1      29.774  26.565  24.430  1.00  0.00     0.046 C 
ATOM     13  C   UNL A   1      31.875  23.649  25.623  1.00  0.00    -0.036 A 
ATOM     14  C   UNL A   1      31.539  22.213  25.918  1.00  0.00     0.045 C 
BRANCH   8  15
ATOM     15  S   UNL A   1      32.867  27.866  24.075  1.00  0.00     0.190 S 
ATOM     16  O   UNL A   1      31.935  28.054  22.975  1.00  0.00    -0.223 OA
ATOM     17  O   UNL A   1      34.272  27.683  23.738  1.00  0.00    -0.223 OA
BRANCH  15  18
ATOM     18  C   UNL A   1      32.824  29.283  25.128  1.00  0.00     0.199 C 
ATOM     19  C   UNL A   1      31.412  29.915  25.106  1.00  0.00     0.036 C 
BRANCH  18  20
ATOM     20  C   UNL A   1      33.358  29.127  26.532  1.00  0.00     0.238 C 
ATOM     21  C   UNL A   1      31.354  28.088  27.794  1.00  0.00     0.142 C 
ATOM     22  N   UNL A   1      32.704  28.554  27.569  1.00  0.00    -0.358 N 
ATOM     23  H   UNL A   1      33.284  28.423  28.354  1.00  0.00     0.163 HD
ATOM     24  O   UNL A   1      34.536  29.421  26.784  1.00  0.00    -0.274 OA
ENDBRANCH  18  20
ENDBRANCH  15  18
ENDBRANCH   8  15
ENDBRANCH   5   7
ENDBRANCH   4   5
ENDBRANCH   3   4
ENDBRANCH   2   3
ENDBRANCH   1   2
BRANCH   1  25
ATOM     25  C   UNL A   1      39.355  23.045  27.070  1.00  0.00     0.202 C 
BRANCH  25  26
ATOM     26  C   UNL A   1      40.250  24.033  26.314  1.00  0.00     0.261 C 
BRANCH  26  27
ATOM     27  O   UNL A   1      39.707  25.365  26.321  1.00  0.00    -0.460 OA
BRANCH  27  28
ATOM     28  C   UNL A   1      40.632  26.352  26.427  1.00  0.00     0.338 C 
ATOM     29  O   UNL A   1      41.487  26.649  25.611  1.00  0.00    -0.246 OA
BRANCH  28  30
ATOM     30  C   UNL A   1      40.362  27.167  27.627  1.00  0.00     0.060 A 
ATOM     31  C   UNL A   1      40.946  28.438  27.684  1.00  0.00     0.016 A 
ATOM     32  C   UNL A   1      39.612  26.682  28.701  1.00  0.00     0.016 A 
ATOM     33  C   UNL A   1      40.822  29.212  28.836  1.00  0.00     0.010 A 
ATOM     34  C   UNL A   1      39.493  27.458  29.859  1.00  0.00     0.010 A 
ATOM     35  C   UNL A   1      40.125  28.711  29.945  1.00  0.00    -0.014 A 
BRANCH  35  36
ATOM     36  C   UNL A   1      40.167  29.454  31.228  1.00  0.00     0.031 A 
ATOM     37  C   UNL A   1      41.279  29.174  32.203  1.00  0.00     0.074 A 
ATOM     38  C   UNL A   1      39.246  30.393  31.506  1.00  0.00     0.049 A 
ATOM     39  N   UNL A   1      41.507  29.713  33.373  1.00  0.00    -0.248 NA
ATOM     40  C   UNL A   1      42.262  28.154  31.807  1.00  0.00     0.031 C 
ATOM     41  C   UNL A   1      38.143  30.781  30.628  1.00  0.00     0.029 A 
ATOM     42  N   UNL A   1      39.095  31.193  32.612  1.00  0.00    -0.354 N 
ATOM     43  C   UNL A   1      42.656  29.095  33.857  1.00  0.00     0.074 A 
ATOM     44  C   UNL A   1      43.058  28.121  32.867  1.00  0.00     0.031 C 
ATOM     45  C   UNL A   1      37.425  31.745  31.230  1.00  0.00     0.029 A 
ATOM     46  C   UNL A   1      37.999  32.020  32.547  1.00  0.00     0.049 A 
ATOM     47  H   UNL A   1      39.713  31.176  33.378  1.00  0.00     0.167 HD
ATOM     48  C   UNL A   1      43.317  29.323  35.016  1.00  0.00     0.031 A 
ATOM     49  C   UNL A   1      37.507  32.890  33.450  1.00  0.00     0.031 A 
ATOM     50  C   UNL A   1      42.907  30.282  36.007  1.00  0.00     0.049 A 
ATOM     51  C   UNL A   1      38.221  33.079  34.762  1.00  0.00     0.074 A 
ATOM     52  C   UNL A   1      43.523  30.600  37.206  1.00  0.00     0.029 A 
ATOM     53  N   UNL A   1      41.770  31.072  35.923  1.00  0.00    -0.354 N 
ATOM     54  N   UNL A   1      39.322  32.509  35.189  1.00  0.00    -0.248 NA
ATOM     55  C   UNL A   1      37.629  34.035  35.708  1.00  0.00     0.031 C 
ATOM     56  C   UNL A   1      42.728  31.539  37.871  1.00  0.00     0.029 A 
ATOM     57  C   UNL A   1      41.649  31.852  37.060  1.00  0.00     0.049 A 
ATOM     58  H   UNL A   1      41.141  31.075  35.165  1.00  0.00     0.167 HD
ATOM     59  C   UNL A   1      39.569  33.055  36.445  1.00  0.00     0.074 A 
ATOM     60  C   UNL A   1      38.509  34.009  36.701  1.00  0.00     0.031 C 
ATOM     61  C   UNL A   1      40.584  32.792  37.306  1.00  0.00     0.031 A 
BRANCH  48  62
ATOM     62  C   UNL A   1      44.540  28.487  35.291  1.00  0.00    -0.014 A 
ATOM     63  C   UNL A   1      44.530  27.476  36.268  1.00  0.00     0.010 A 
ATOM     64  C   UNL A   1      45.711  28.702  34.541  1.00  0.00     0.010 A 
ATOM     65  C   UNL A   1      45.681  26.724  36.519  1.00  0.00     0.020 A 
ATOM     66  C   UNL A   1      46.856  27.935  34.771  1.00  0.00     0.020 A 
ATOM     67  C   UNL A   1      46.839  26.963  35.773  1.00  0.00     0.054 A 
BRANCH  67  68
ATOM     68  S   UNL A   1      48.317  25.968  36.114  1.00  0.00     0.124 S 
ATOM     69  O   UNL A   1      48.908  26.684  37.242  1.00  0.00    -0.237 OA
ATOM     70  O   UNL A   1      47.756  24.656  36.427  1.00  0.00    -0.237 OA
ATOM     71  O   UNL A   1      49.076  26.035  34.866  1.00  0.00    -0.744 OA
ENDBRANCH  67  68
ENDBRANCH  48  62
BRANCH  49  72
ATOM     72  C   UNL A   1      36.257  33.640  33.147  1.00  0.00    -0.014 A 
ATOM     73  C   UNL A   1      36.309  34.943  32.625  1.00  0.00     0.010 A 
ATOM     74  C   UNL A   1      35.003  33.039  33.366  1.00  0.00     0.010 A 
ATOM     75  C   UNL A   1      35.130  35.635  32.333  1.00  0.00     0.020 A 
ATOM     76  C   UNL A   1      33.824  33.717  33.051  1.00  0.00     0.020 A 
ATOM     77  C   UNL A   1      33.894  35.016  32.544  1.00  0.00     0.054 A 
BRANCH  77  78
ATOM     78  S   UNL A   1      32.378  35.904  32.092  1.00  0.00     0.124 S 
ATOM     79  O   UNL A   1      32.551  37.174  32.790  1.00  0.00    -0.237 OA
ATOM     80  O   UNL A   1      32.470  35.964  30.636  1.00  0.00    -0.237 OA
ATOM     81  O   UNL A   1      31.314  35.046  32.606  1.00  0.00    -0.744 OA
ENDBRANCH  77  78
ENDBRANCH  49  72
BRANCH  61  82
ATOM     82  C   UNL A   1      40.613  33.564  38.600  1.00  0.00    -0.014 A 
ATOM     83  C   UNL A   1      41.254  34.812  38.690  1.00  0.00     0.010 A 
ATOM     84  C   UNL A   1      39.944  33.055  39.729  1.00  0.00     0.010 A 
ATOM     85  C   UNL A   1      41.253  35.522  39.894  1.00  0.00     0.020 A 
ATOM     86  C   UNL A   1      39.917  33.774  40.926  1.00  0.00     0.020 A 
ATOM     87  C   UNL A   1      40.586  34.997  41.006  1.00  0.00     0.054 A 
BRANCH  87  88
ATOM     88  S   UNL A   1      40.567  35.954  42.546  1.00  0.00     0.124 S 
ATOM     89  O   UNL A   1      39.140  36.206  42.731  1.00  0.00    -0.237 OA
ATOM     90  O   UNL A   1      41.171  35.033  43.505  1.00  0.00    -0.237 OA
ATOM     91  O   UNL A   1      41.372  37.133  42.231  1.00  0.00    -0.744 OA
ENDBRANCH  87  88
ENDBRANCH  61  82
ENDBRANCH  35  36
ENDBRANCH  28  30
ENDBRANCH  27  28
ENDBRANCH  26  27
ENDBRANCH  25  26
ENDBRANCH   1  25
TORSDOF 20
ENDMDL
