MODEL 1
REMARK VINA RESULT:      -9.7      0.000      0.000
REMARK SMILES CC(C)([NH2+]C[C@@H]1COc2ccccc21)C(=O)OCCOCCOC(=O)c1ccc(-c2c3nc(c(-c4ccc(S(=O)(=O)[O-])cc4)c4ccc([nH]4)c(-c4ccc(S(=O)(=O)[O-])cc4)c4nc(c(-c5ccc(S(=O)(=O)[O-])cc5)c5ccc2[nH]5)C=C4)C=C3)cc1
REMARK SMILES IDX 20 1 19 2 18 3 17 4 15 5 16 6 2 7 1 8 3 9 4 10 5 13 6 14
REMARK SMILES IDX 7 15 14 16 8 17 9 18 13 19 10 20 12 21 11 22 21 23 22 24
REMARK SMILES IDX 23 25 24 26 25 27 26 28 27 29 85 30 28 31 84 32 29 33 30 34
REMARK SMILES IDX 31 35 78 36 32 37 83 38 77 39 79 40 33 41 82 42 76 43 75 44
REMARK SMILES IDX 34 46 64 47 45 48 63 49 46 50 49 51 62 52 80 53 47 54 48 55
REMARK SMILES IDX 61 57 81 58 50 59 35 60 36 61 44 62 37 63 43 64 38 65 39 66
REMARK SMILES IDX 40 67 41 68 42 69 65 70 66 71 74 72 67 73 73 74 68 75 69 76
REMARK SMILES IDX 70 77 71 78 72 79 51 80 52 81 60 82 53 83 59 84 54 85 55 86
REMARK SMILES IDX 56 87 57 88 58 89
REMARK H PARENT 4 11 4 12 79 45 49 56
REMARK Flexibility Score: inf
ROOT
ATOM      1  O   UNL A   1      33.346  29.732  26.695  1.00  0.00    -0.374 OA
ENDROOT
BRANCH   1   2
ATOM      2  C   UNL A   1      32.692  28.649  27.358  1.00  0.00     0.202 C 
BRANCH   2   3
ATOM      3  C   UNL A   1      31.713  27.829  26.516  1.00  0.00     0.261 C 
BRANCH   3   4
ATOM      4  O   UNL A   1      32.076  26.440  26.523  1.00  0.00    -0.459 OA
BRANCH   4   5
ATOM      5  C   UNL A   1      31.076  25.572  26.244  1.00  0.00     0.367 C 
ATOM      6  O   UNL A   1      29.888  25.890  26.232  1.00  0.00    -0.245 OA
BRANCH   5   7
ATOM      7  C   UNL A   1      31.542  24.125  25.966  1.00  0.00     0.188 C 
ATOM      8  C   UNL A   1      30.714  23.229  26.924  1.00  0.00     0.092 C 
ATOM      9  C   UNL A   1      33.004  24.034  26.396  1.00  0.00     0.092 C 
BRANCH   7  10
ATOM     10  N   UNL A   1      31.251  23.505  24.646  1.00  0.00    -0.332 N 
ATOM     11  H   UNL A   1      30.501  24.068  24.244  1.00  0.00     0.347 HD
ATOM     12  H   UNL A   1      31.111  22.536  24.931  1.00  0.00     0.347 HD
BRANCH  10  13
ATOM     13  C   UNL A   1      32.212  23.316  23.565  1.00  0.00     0.273 C 
BRANCH  13  14
ATOM     14  C   UNL A   1      33.022  22.018  23.359  1.00  0.00     0.116 C 
ATOM     15  C   UNL A   1      32.618  20.787  24.180  1.00  0.00     0.244 C 
ATOM     16  C   UNL A   1      34.449  22.129  23.743  1.00  0.00     0.006 A 
ATOM     17  O   UNL A   1      33.661  20.460  25.133  1.00  0.00    -0.492 OA
ATOM     18  C   UNL A   1      34.728  21.236  24.761  1.00  0.00     0.123 A 
ATOM     19  C   UNL A   1      35.429  22.968  23.238  1.00  0.00     0.008 A 
ATOM     20  C   UNL A   1      35.965  21.199  25.370  1.00  0.00     0.047 A 
ATOM     21  C   UNL A   1      36.692  22.934  23.827  1.00  0.00     0.001 A 
ATOM     22  C   UNL A   1      36.954  22.067  24.900  1.00  0.00     0.004 A 
ENDBRANCH  13  14
ENDBRANCH  10  13
ENDBRANCH   7  10
ENDBRANCH   5   7
ENDBRANCH   4   5
ENDBRANCH   3   4
ENDBRANCH   2   3
ENDBRANCH   1   2
BRANCH   1  23
ATOM     23  C   UNL A   1      33.814  30.803  27.517  1.00  0.00     0.202 C 
BRANCH  23  24
ATOM     24  C   UNL A   1      32.929  32.051  27.593  1.00  0.00     0.261 C 
BRANCH  24  25
ATOM     25  O   UNL A   1      33.697  33.259  27.456  1.00  0.00    -0.460 OA
BRANCH  25  26
ATOM     26  C   UNL A   1      33.549  34.144  28.468  1.00  0.00     0.338 C 
ATOM     27  O   UNL A   1      32.592  34.879  28.673  1.00  0.00    -0.246 OA
BRANCH  26  28
ATOM     28  C   UNL A   1      34.643  33.971  29.440  1.00  0.00     0.060 A 
ATOM     29  C   UNL A   1      35.943  34.294  29.025  1.00  0.00     0.016 A 
ATOM     30  C   UNL A   1      34.414  33.440  30.711  1.00  0.00     0.016 A 
ATOM     31  C   UNL A   1      37.028  34.024  29.854  1.00  0.00     0.010 A 
ATOM     32  C   UNL A   1      35.505  33.162  31.537  1.00  0.00     0.010 A 
ATOM     33  C   UNL A   1      36.817  33.408  31.094  1.00  0.00    -0.014 A 
BRANCH  33  34
ATOM     34  C   UNL A   1      37.958  32.835  31.844  1.00  0.00     0.031 A 
ATOM     35  C   UNL A   1      38.663  31.638  31.261  1.00  0.00     0.074 A 
ATOM     36  C   UNL A   1      38.361  33.361  33.013  1.00  0.00     0.049 A 
ATOM     37  N   UNL A   1      39.593  30.886  31.788  1.00  0.00    -0.248 NA
ATOM     38  C   UNL A   1      38.256  31.231  29.905  1.00  0.00     0.031 C 
ATOM     39  C   UNL A   1      37.806  34.558  33.642  1.00  0.00     0.029 A 
ATOM     40  N   UNL A   1      39.333  32.942  33.887  1.00  0.00    -0.354 N 
ATOM     41  C   UNL A   1      39.873  29.911  30.836  1.00  0.00     0.074 A 
ATOM     42  C   UNL A   1      38.994  30.148  29.713  1.00  0.00     0.031 C 
ATOM     43  C   UNL A   1      38.438  34.769  34.811  1.00  0.00     0.029 A 
ATOM     44  C   UNL A   1      39.407  33.697  35.032  1.00  0.00     0.049 A 
ATOM     45  H   UNL A   1      39.922  32.172  33.710  1.00  0.00     0.167 HD
ATOM     46  C   UNL A   1      40.784  28.911  30.892  1.00  0.00     0.031 A 
ATOM     47  C   UNL A   1      40.151  33.521  36.143  1.00  0.00     0.031 A 
ATOM     48  C   UNL A   1      41.648  28.677  32.016  1.00  0.00     0.049 A 
ATOM     49  C   UNL A   1      41.088  32.342  36.222  1.00  0.00     0.074 A 
ATOM     50  C   UNL A   1      42.598  27.684  32.179  1.00  0.00     0.029 A 
ATOM     51  N   UNL A   1      41.671  29.447  33.169  1.00  0.00    -0.354 N 
ATOM     52  N   UNL A   1      41.333  31.419  35.322  1.00  0.00    -0.248 NA
ATOM     53  C   UNL A   1      41.853  32.183  37.468  1.00  0.00     0.031 C 
ATOM     54  C   UNL A   1      43.159  27.824  33.452  1.00  0.00     0.029 A 
ATOM     55  C   UNL A   1      42.609  28.944  34.053  1.00  0.00     0.049 A 
ATOM     56  H   UNL A   1      41.104  30.235  33.334  1.00  0.00     0.167 HD
ATOM     57  C   UNL A   1      42.315  30.600  35.875  1.00  0.00     0.074 A 
ATOM     58  C   UNL A   1      42.618  31.137  37.185  1.00  0.00     0.031 C 
ATOM     59  C   UNL A   1      42.917  29.509  35.343  1.00  0.00     0.031 A 
BRANCH  46  60
ATOM     60  C   UNL A   1      40.875  27.980  29.712  1.00  0.00    -0.014 A 
ATOM     61  C   UNL A   1      41.931  28.075  28.789  1.00  0.00     0.010 A 
ATOM     62  C   UNL A   1      39.916  26.962  29.553  1.00  0.00     0.010 A 
ATOM     63  C   UNL A   1      42.011  27.189  27.711  1.00  0.00     0.020 A 
ATOM     64  C   UNL A   1      40.009  26.056  28.493  1.00  0.00     0.020 A 
ATOM     65  C   UNL A   1      41.050  26.184  27.571  1.00  0.00     0.054 A 
BRANCH  65  66
ATOM     66  S   UNL A   1      41.200  25.025  26.184  1.00  0.00     0.124 S 
ATOM     67  O   UNL A   1      39.865  24.432  26.141  1.00  0.00    -0.237 OA
ATOM     68  O   UNL A   1      41.532  25.905  25.068  1.00  0.00    -0.237 OA
ATOM     69  O   UNL A   1      42.269  24.121  26.600  1.00  0.00    -0.744 OA
ENDBRANCH  65  66
ENDBRANCH  46  60
BRANCH  47  70
ATOM     70  C   UNL A   1      40.029  34.467  37.287  1.00  0.00    -0.014 A 
ATOM     71  C   UNL A   1      39.086  34.241  38.305  1.00  0.00     0.010 A 
ATOM     72  C   UNL A   1      40.836  35.619  37.349  1.00  0.00     0.010 A 
ATOM     73  C   UNL A   1      38.927  35.164  39.343  1.00  0.00     0.020 A 
ATOM     74  C   UNL A   1      40.703  36.527  38.403  1.00  0.00     0.020 A 
ATOM     75  C   UNL A   1      39.736  36.303  39.384  1.00  0.00     0.054 A 
BRANCH  75  76
ATOM     76  S   UNL A   1      39.524  37.477  40.751  1.00  0.00     0.124 S 
ATOM     77  O   UNL A   1      40.867  38.032  40.885  1.00  0.00    -0.237 OA
ATOM     78  O   UNL A   1      38.509  38.389  40.227  1.00  0.00    -0.237 OA
ATOM     79  O   UNL A   1      39.081  36.634  41.859  1.00  0.00    -0.744 OA
ENDBRANCH  75  76
ENDBRANCH  47  70
BRANCH  59  80
ATOM     80  C   UNL A   1      44.022  28.858  36.133  1.00  0.00    -0.014 A 
ATOM     81  C   UNL A   1      43.778  27.767  36.984  1.00  0.00     0.010 A 
ATOM     82  C   UNL A   1      45.346  29.299  35.947  1.00  0.00     0.010 A 
ATOM     83  C   UNL A   1      44.836  27.142  37.651  1.00  0.00     0.020 A 
ATOM     84  C   UNL A   1      46.409  28.660  36.589  1.00  0.00     0.020 A 
ATOM     85  C   UNL A   1      46.145  27.589  37.445  1.00  0.00     0.054 A 
BRANCH  85  86
ATOM     86  S   UNL A   1      47.507  26.717  38.268  1.00  0.00     0.124 S 
ATOM     87  O   UNL A   1      47.027  26.635  39.645  1.00  0.00    -0.237 OA
ATOM     88  O   UNL A   1      47.556  25.448  37.544  1.00  0.00    -0.237 OA
ATOM     89  O   UNL A   1      48.657  27.592  38.060  1.00  0.00    -0.744 OA
ENDBRANCH  85  86
ENDBRANCH  59  80
ENDBRANCH  33  34
ENDBRANCH  26  28
ENDBRANCH  25  26
ENDBRANCH  24  25
ENDBRANCH  23  24
ENDBRANCH   1  23
TORSDOF 20
ENDMDL
MODEL 2
REMARK VINA RESULT:      -9.6      4.940     11.937
REMARK SMILES CC(C)([NH2+]C[C@@H]1COc2ccccc21)C(=O)OCCOCCOC(=O)c1ccc(-c2c3nc(c(-c4ccc(S(=O)(=O)[O-])cc4)c4ccc([nH]4)c(-c4ccc(S(=O)(=O)[O-])cc4)c4nc(c(-c5ccc(S(=O)(=O)[O-])cc5)c5ccc2[nH]5)C=C4)C=C3)cc1
REMARK SMILES IDX 20 1 19 2 18 3 17 4 15 5 16 6 2 7 1 8 3 9 4 10 5 13 6 14
REMARK SMILES IDX 7 15 14 16 8 17 9 18 13 19 10 20 12 21 11 22 21 23 22 24
REMARK SMILES IDX 23 25 24 26 25 27 26 28 27 29 85 30 28 31 84 32 29 33 30 34
REMARK SMILES IDX 31 35 78 36 32 37 83 38 77 39 79 40 33 41 82 42 76 43 75 44
REMARK SMILES IDX 34 46 64 47 45 48 63 49 46 50 49 51 62 52 80 53 47 54 48 55
REMARK SMILES IDX 61 57 81 58 50 59 35 60 36 61 44 62 37 63 43 64 38 65 39 66
REMARK SMILES IDX 40 67 41 68 42 69 65 70 66 71 74 72 67 73 73 74 68 75 69 76
REMARK SMILES IDX 70 77 71 78 72 79 51 80 52 81 60 82 53 83 59 84 54 85 55 86
REMARK SMILES IDX 56 87 57 88 58 89
REMARK H PARENT 4 11 4 12 79 45 49 56
REMARK Flexibility Score: inf
ROOT
ATOM      1  O   UNL A   1      34.029  33.809  31.015  1.00  0.00    -0.374 OA
ENDROOT
BRANCH   1   2
ATOM      2  C   UNL A   1      35.266  33.727  31.724  1.00  0.00     0.202 C 
BRANCH   2   3
ATOM      3  C   UNL A   1      35.984  32.377  31.685  1.00  0.00     0.261 C 
BRANCH   3   4
ATOM      4  O   UNL A   1      36.449  32.011  32.993  1.00  0.00    -0.459 OA
BRANCH   4   5
ATOM      5  C   UNL A   1      37.793  31.941  33.138  1.00  0.00     0.367 C 
ATOM      6  O   UNL A   1      38.568  32.777  32.675  1.00  0.00    -0.245 OA
BRANCH   5   7
ATOM      7  C   UNL A   1      38.290  30.700  33.914  1.00  0.00     0.188 C 
ATOM      8  C   UNL A   1      39.798  30.953  34.180  1.00  0.00     0.092 C 
ATOM      9  C   UNL A   1      38.182  29.507  32.968  1.00  0.00     0.092 C 
BRANCH   7  10
ATOM     10  N   UNL A   1      37.779  30.445  35.287  1.00  0.00    -0.332 N 
ATOM     11  H   UNL A   1      37.763  29.429  35.383  1.00  0.00     0.347 HD
ATOM     12  H   UNL A   1      36.927  31.004  35.265  1.00  0.00     0.347 HD
BRANCH  10  13
ATOM     13  C   UNL A   1      38.378  30.940  36.521  1.00  0.00     0.273 C 
BRANCH  13  14
ATOM     14  C   UNL A   1      38.175  32.375  37.053  1.00  0.00     0.116 C 
ATOM     15  C   UNL A   1      37.292  33.322  36.233  1.00  0.00     0.244 C 
ATOM     16  C   UNL A   1      39.420  33.175  37.121  1.00  0.00     0.006 A 
ATOM     17  O   UNL A   1      38.095  34.391  35.672  1.00  0.00    -0.492 OA
ATOM     18  C   UNL A   1      39.307  34.282  36.301  1.00  0.00     0.123 A 
ATOM     19  C   UNL A   1      40.576  32.936  37.846  1.00  0.00     0.008 A 
ATOM     20  C   UNL A   1      40.364  35.147  36.107  1.00  0.00     0.047 A 
ATOM     21  C   UNL A   1      41.651  33.808  37.679  1.00  0.00     0.001 A 
ATOM     22  C   UNL A   1      41.552  34.899  36.800  1.00  0.00     0.004 A 
ENDBRANCH  13  14
ENDBRANCH  10  13
ENDBRANCH   7  10
ENDBRANCH   5   7
ENDBRANCH   4   5
ENDBRANCH   3   4
ENDBRANCH   2   3
ENDBRANCH   1   2
BRANCH   1  23
ATOM     23  C   UNL A   1      34.082  34.329  29.685  1.00  0.00     0.202 C 
BRANCH  23  24
ATOM     24  C   UNL A   1      33.944  33.318  28.543  1.00  0.00     0.261 C 
BRANCH  24  25
ATOM     25  O   UNL A   1      35.104  32.475  28.433  1.00  0.00    -0.460 OA
BRANCH  25  26
ATOM     26  C   UNL A   1      34.844  31.194  28.086  1.00  0.00     0.338 C 
ATOM     27  O   UNL A   1      33.817  30.759  27.580  1.00  0.00    -0.246 OA
BRANCH  26  28
ATOM     28  C   UNL A   1      36.069  30.386  28.222  1.00  0.00     0.060 A 
ATOM     29  C   UNL A   1      36.258  29.682  29.420  1.00  0.00     0.016 A 
ATOM     30  C   UNL A   1      37.047  30.369  27.226  1.00  0.00     0.016 A 
ATOM     31  C   UNL A   1      37.456  29.013  29.656  1.00  0.00     0.010 A 
ATOM     32  C   UNL A   1      38.252  29.705  27.468  1.00  0.00     0.010 A 
ATOM     33  C   UNL A   1      38.478  29.066  28.700  1.00  0.00    -0.014 A 
BRANCH  33  34
ATOM     34  C   UNL A   1      39.851  28.636  29.056  1.00  0.00     0.031 A 
ATOM     35  C   UNL A   1      40.750  29.627  29.747  1.00  0.00     0.074 A 
ATOM     36  C   UNL A   1      40.290  27.397  28.772  1.00  0.00     0.049 A 
ATOM     37  N   UNL A   1      42.021  29.530  30.037  1.00  0.00    -0.248 NA
ATOM     38  C   UNL A   1      40.133  30.899  30.159  1.00  0.00     0.031 C 
ATOM     39  C   UNL A   1      39.492  26.330  28.171  1.00  0.00     0.029 A 
ATOM     40  N   UNL A   1      41.529  26.834  28.948  1.00  0.00    -0.354 N 
ATOM     41  C   UNL A   1      42.359  30.731  30.651  1.00  0.00     0.074 A 
ATOM     42  C   UNL A   1      41.169  31.553  30.665  1.00  0.00     0.031 C 
ATOM     43  C   UNL A   1      40.269  25.243  28.013  1.00  0.00     0.029 A 
ATOM     44  C   UNL A   1      41.626  25.553  28.459  1.00  0.00     0.049 A 
ATOM     45  H   UNL A   1      42.278  27.303  29.382  1.00  0.00     0.167 HD
ATOM     46  C   UNL A   1      43.553  31.114  31.161  1.00  0.00     0.031 A 
ATOM     47  C   UNL A   1      42.696  24.740  28.356  1.00  0.00     0.031 A 
ATOM     48  C   UNL A   1      44.735  30.296  31.135  1.00  0.00     0.049 A 
ATOM     49  C   UNL A   1      44.039  25.227  28.843  1.00  0.00     0.074 A 
ATOM     50  C   UNL A   1      45.999  30.594  31.614  1.00  0.00     0.029 A 
ATOM     51  N   UNL A   1      44.798  29.016  30.605  1.00  0.00    -0.354 N 
ATOM     52  N   UNL A   1      44.349  26.370  29.408  1.00  0.00    -0.248 NA
ATOM     53  C   UNL A   1      45.177  24.310  28.680  1.00  0.00     0.031 C 
ATOM     54  C   UNL A   1      46.838  29.513  31.326  1.00  0.00     0.029 A 
ATOM     55  C   UNL A   1      46.081  28.516  30.733  1.00  0.00     0.049 A 
ATOM     56  H   UNL A   1      44.041  28.535  30.198  1.00  0.00     0.167 HD
ATOM     57  C   UNL A   1      45.706  26.288  29.711  1.00  0.00     0.074 A 
ATOM     58  C   UNL A   1      46.156  24.986  29.267  1.00  0.00     0.031 C 
ATOM     59  C   UNL A   1      46.505  27.205  30.310  1.00  0.00     0.031 A 
BRANCH  46  60
ATOM     60  C   UNL A   1      43.647  32.489  31.768  1.00  0.00    -0.014 A 
ATOM     61  C   UNL A   1      43.936  33.616  30.979  1.00  0.00     0.010 A 
ATOM     62  C   UNL A   1      43.393  32.663  33.142  1.00  0.00     0.010 A 
ATOM     63  C   UNL A   1      43.997  34.887  31.556  1.00  0.00     0.020 A 
ATOM     64  C   UNL A   1      43.425  33.936  33.717  1.00  0.00     0.020 A 
ATOM     65  C   UNL A   1      43.741  35.039  32.921  1.00  0.00     0.054 A 
BRANCH  65  66
ATOM     66  S   UNL A   1      43.791  36.706  33.635  1.00  0.00     0.124 S 
ATOM     67  O   UNL A   1      44.800  36.554  34.682  1.00  0.00    -0.237 OA
ATOM     68  O   UNL A   1      44.188  37.528  32.496  1.00  0.00    -0.237 OA
ATOM     69  O   UNL A   1      42.428  36.922  34.111  1.00  0.00    -0.744 OA
ENDBRANCH  65  66
ENDBRANCH  46  60
BRANCH  47  70
ATOM     70  C   UNL A   1      42.558  23.388  27.748  1.00  0.00    -0.014 A 
ATOM     71  C   UNL A   1      42.025  22.320  28.492  1.00  0.00     0.010 A 
ATOM     72  C   UNL A   1      42.988  23.152  26.429  1.00  0.00     0.010 A 
ATOM     73  C   UNL A   1      41.957  21.036  27.943  1.00  0.00     0.020 A 
ATOM     74  C   UNL A   1      42.891  21.877  25.864  1.00  0.00     0.020 A 
ATOM     75  C   UNL A   1      42.393  20.823  26.632  1.00  0.00     0.054 A 
BRANCH  75  76
ATOM     76  S   UNL A   1      42.278  19.152  25.935  1.00  0.00     0.124 S 
ATOM     77  O   UNL A   1      42.806  18.333  27.021  1.00  0.00    -0.237 OA
ATOM     78  O   UNL A   1      40.847  19.017  25.675  1.00  0.00    -0.237 OA
ATOM     79  O   UNL A   1      43.117  19.223  24.740  1.00  0.00    -0.744 OA
ENDBRANCH  75  76
ENDBRANCH  47  70
BRANCH  59  80
ATOM     80  C   UNL A   1      47.931  26.816  30.599  1.00  0.00    -0.014 A 
ATOM     81  C   UNL A   1      48.960  27.036  29.668  1.00  0.00     0.010 A 
ATOM     82  C   UNL A   1      48.254  26.297  31.868  1.00  0.00     0.010 A 
ATOM     83  C   UNL A   1      50.284  26.726  29.993  1.00  0.00     0.020 A 
ATOM     84  C   UNL A   1      49.578  26.013  32.207  1.00  0.00     0.020 A 
ATOM     85  C   UNL A   1      50.585  26.222  31.263  1.00  0.00     0.054 A 
BRANCH  85  86
ATOM     86  S   UNL A   1      52.319  25.893  31.684  1.00  0.00     0.124 S 
ATOM     87  O   UNL A   1      52.290  24.469  32.005  1.00  0.00    -0.237 OA
ATOM     88  O   UNL A   1      53.019  26.246  30.451  1.00  0.00    -0.237 OA
ATOM     89  O   UNL A   1      52.576  26.781  32.816  1.00  0.00    -0.744 OA
ENDBRANCH  85  86
ENDBRANCH  59  80
ENDBRANCH  33  34
ENDBRANCH  26  28
ENDBRANCH  25  26
ENDBRANCH  24  25
ENDBRANCH  23  24
ENDBRANCH   1  23
TORSDOF 20
ENDMDL
MODEL 3
REMARK VINA RESULT:      -9.6      6.496     11.032
REMARK SMILES CC(C)([NH2+]C[C@@H]1COc2ccccc21)C(=O)OCCOCCOC(=O)c1ccc(-c2c3nc(c(-c4ccc(S(=O)(=O)[O-])cc4)c4ccc([nH]4)c(-c4ccc(S(=O)(=O)[O-])cc4)c4nc(c(-c5ccc(S(=O)(=O)[O-])cc5)c5ccc2[nH]5)C=C4)C=C3)cc1
REMARK SMILES IDX 20 1 19 2 18 3 17 4 15 5 16 6 2 7 1 8 3 9 4 10 5 13 6 14
REMARK SMILES IDX 7 15 14 16 8 17 9 18 13 19 10 20 12 21 11 22 21 23 22 24
REMARK SMILES IDX 23 25 24 26 25 27 26 28 27 29 85 30 28 31 84 32 29 33 30 34
REMARK SMILES IDX 31 35 78 36 32 37 83 38 77 39 79 40 33 41 82 42 76 43 75 44
REMARK SMILES IDX 34 46 64 47 45 48 63 49 46 50 49 51 62 52 80 53 47 54 48 55
REMARK SMILES IDX 61 57 81 58 50 59 35 60 36 61 44 62 37 63 43 64 38 65 39 66
REMARK SMILES IDX 40 67 41 68 42 69 65 70 66 71 74 72 67 73 73 74 68 75 69 76
REMARK SMILES IDX 70 77 71 78 72 79 51 80 52 81 60 82 53 83 59 84 54 85 55 86
REMARK SMILES IDX 56 87 57 88 58 89
REMARK H PARENT 4 11 4 12 79 45 49 56
REMARK Flexibility Score: inf
ROOT
ATOM      1  O   UNL A   1      33.870  29.967  26.398  1.00  0.00    -0.374 OA
ENDROOT
BRANCH   1   2
ATOM      2  C   UNL A   1      34.048  28.643  26.904  1.00  0.00     0.202 C 
BRANCH   2   3
ATOM      3  C   UNL A   1      32.776  27.817  27.110  1.00  0.00     0.261 C 
BRANCH   3   4
ATOM      4  O   UNL A   1      32.394  27.162  25.891  1.00  0.00    -0.459 OA
BRANCH   4   5
ATOM      5  C   UNL A   1      32.795  25.875  25.768  1.00  0.00     0.367 C 
ATOM      6  O   UNL A   1      33.976  25.537  25.709  1.00  0.00    -0.245 OA
BRANCH   5   7
ATOM      7  C   UNL A   1      31.641  24.850  25.675  1.00  0.00     0.188 C 
ATOM      8  C   UNL A   1      30.336  25.687  25.733  1.00  0.00     0.092 C 
ATOM      9  C   UNL A   1      31.699  23.996  26.939  1.00  0.00     0.092 C 
BRANCH   7  10
ATOM     10  N   UNL A   1      31.450  24.078  24.419  1.00  0.00    -0.332 N 
ATOM     11  H   UNL A   1      30.915  23.251  24.690  1.00  0.00     0.347 HD
ATOM     12  H   UNL A   1      32.415  24.020  24.097  1.00  0.00     0.347 HD
BRANCH  10  13
ATOM     13  C   UNL A   1      30.805  24.573  23.208  1.00  0.00     0.273 C 
BRANCH  13  14
ATOM     14  C   UNL A   1      31.563  25.288  22.069  1.00  0.00     0.116 C 
ATOM     15  C   UNL A   1      32.950  24.754  21.688  1.00  0.00     0.244 C 
ATOM     16  C   UNL A   1      31.901  26.701  22.362  1.00  0.00     0.006 A 
ATOM     17  O   UNL A   1      33.969  25.725  22.035  1.00  0.00    -0.492 OA
ATOM     18  C   UNL A   1      33.274  26.864  22.346  1.00  0.00     0.123 A 
ATOM     19  C   UNL A   1      31.057  27.764  22.636  1.00  0.00     0.008 A 
ATOM     20  C   UNL A   1      33.861  28.067  22.681  1.00  0.00     0.047 A 
ATOM     21  C   UNL A   1      31.629  28.993  22.960  1.00  0.00     0.001 A 
ATOM     22  C   UNL A   1      33.025  29.139  22.999  1.00  0.00     0.004 A 
ENDBRANCH  13  14
ENDBRANCH  10  13
ENDBRANCH   7  10
ENDBRANCH   5   7
ENDBRANCH   4   5
ENDBRANCH   3   4
ENDBRANCH   2   3
ENDBRANCH   1   2
BRANCH   1  23
ATOM     23  C   UNL A   1      33.411  30.953  27.324  1.00  0.00     0.202 C 
BRANCH  23  24
ATOM     24  C   UNL A   1      34.485  31.736  28.086  1.00  0.00     0.261 C 
BRANCH  24  25
ATOM     25  O   UNL A   1      35.779  31.121  27.967  1.00  0.00    -0.460 OA
BRANCH  25  26
ATOM     26  C   UNL A   1      36.568  31.241  29.060  1.00  0.00     0.338 C 
ATOM     27  O   UNL A   1      36.297  31.816  30.106  1.00  0.00    -0.246 OA
BRANCH  26  28
ATOM     28  C   UNL A   1      37.767  30.399  28.899  1.00  0.00     0.060 A 
ATOM     29  C   UNL A   1      38.616  30.254  30.005  1.00  0.00     0.016 A 
ATOM     30  C   UNL A   1      38.091  29.817  27.672  1.00  0.00     0.016 A 
ATOM     31  C   UNL A   1      39.828  29.582  29.871  1.00  0.00     0.010 A 
ATOM     32  C   UNL A   1      39.311  29.152  27.538  1.00  0.00     0.010 A 
ATOM     33  C   UNL A   1      40.204  29.073  28.622  1.00  0.00    -0.014 A 
BRANCH  33  34
ATOM     34  C   UNL A   1      41.601  28.640  28.385  1.00  0.00     0.031 A 
ATOM     35  C   UNL A   1      42.684  29.686  28.411  1.00  0.00     0.074 A 
ATOM     36  C   UNL A   1      41.903  27.351  28.152  1.00  0.00     0.049 A 
ATOM     37  N   UNL A   1      43.950  29.576  28.105  1.00  0.00    -0.248 NA
ATOM     38  C   UNL A   1      42.281  31.039  28.831  1.00  0.00     0.031 C 
ATOM     39  C   UNL A   1      40.954  26.239  28.172  1.00  0.00     0.029 A 
ATOM     40  N   UNL A   1      43.103  26.764  27.841  1.00  0.00    -0.354 N 
ATOM     41  C   UNL A   1      44.491  30.845  28.282  1.00  0.00     0.074 A 
ATOM     42  C   UNL A   1      43.412  31.716  28.691  1.00  0.00     0.031 C 
ATOM     43  C   UNL A   1      41.607  25.103  27.870  1.00  0.00     0.029 A 
ATOM     44  C   UNL A   1      43.008  25.416  27.592  1.00  0.00     0.049 A 
ATOM     45  H   UNL A   1      43.952  27.261  27.801  1.00  0.00     0.167 HD
ATOM     46  C   UNL A   1      45.774  31.248  28.121  1.00  0.00     0.031 A 
ATOM     47  C   UNL A   1      43.941  24.544  27.157  1.00  0.00     0.031 A 
ATOM     48  C   UNL A   1      46.840  30.378  27.704  1.00  0.00     0.049 A 
ATOM     49  C   UNL A   1      45.341  25.037  26.890  1.00  0.00     0.074 A 
ATOM     50  C   UNL A   1      48.173  30.688  27.498  1.00  0.00     0.029 A 
ATOM     51  N   UNL A   1      46.696  29.026  27.433  1.00  0.00    -0.354 N 
ATOM     52  N   UNL A   1      45.837  26.242  27.046  1.00  0.00    -0.248 NA
ATOM     53  C   UNL A   1      46.310  24.050  26.390  1.00  0.00     0.031 C 
ATOM     54  C   UNL A   1      48.824  29.534  27.054  1.00  0.00     0.029 A 
ATOM     55  C   UNL A   1      47.912  28.490  27.049  1.00  0.00     0.049 A 
ATOM     56  H   UNL A   1      45.853  28.522  27.503  1.00  0.00     0.167 HD
ATOM     57  C   UNL A   1      47.186  26.144  26.711  1.00  0.00     0.074 A 
ATOM     58  C   UNL A   1      47.426  24.765  26.344  1.00  0.00     0.031 C 
ATOM     59  C   UNL A   1      48.140  27.107  26.714  1.00  0.00     0.031 A 
BRANCH  46  60
ATOM     60  C   UNL A   1      46.089  32.699  28.372  1.00  0.00    -0.014 A 
ATOM     61  C   UNL A   1      45.864  33.675  27.385  1.00  0.00     0.010 A 
ATOM     62  C   UNL A   1      46.572  33.098  29.633  1.00  0.00     0.010 A 
ATOM     63  C   UNL A   1      46.142  35.019  27.643  1.00  0.00     0.020 A 
ATOM     64  C   UNL A   1      46.824  34.446  29.904  1.00  0.00     0.020 A 
ATOM     65  C   UNL A   1      46.619  35.396  28.902  1.00  0.00     0.054 A 
BRANCH  65  66
ATOM     66  S   UNL A   1      46.936  37.154  29.220  1.00  0.00     0.124 S 
ATOM     67  O   UNL A   1      45.596  37.726  29.111  1.00  0.00    -0.237 OA
ATOM     68  O   UNL A   1      47.503  37.137  30.565  1.00  0.00    -0.237 OA
ATOM     69  O   UNL A   1      47.864  37.538  28.160  1.00  0.00    -0.744 OA
ENDBRANCH  65  66
ENDBRANCH  46  60
BRANCH  47  70
ATOM     70  C   UNL A   1      43.584  23.117  26.921  1.00  0.00    -0.014 A 
ATOM     71  C   UNL A   1      43.891  22.496  25.698  1.00  0.00     0.010 A 
ATOM     72  C   UNL A   1      42.908  22.378  27.910  1.00  0.00     0.010 A 
ATOM     73  C   UNL A   1      43.498  21.177  25.453  1.00  0.00     0.020 A 
ATOM     74  C   UNL A   1      42.541  21.049  27.681  1.00  0.00     0.020 A 
ATOM     75  C   UNL A   1      42.824  20.462  26.446  1.00  0.00     0.054 A 
BRANCH  75  76
ATOM     76  S   UNL A   1      42.339  18.747  26.112  1.00  0.00     0.124 S 
ATOM     77  O   UNL A   1      42.578  18.107  27.402  1.00  0.00    -0.237 OA
ATOM     78  O   UNL A   1      40.937  18.886  25.723  1.00  0.00    -0.237 OA
ATOM     79  O   UNL A   1      43.239  18.341  25.035  1.00  0.00    -0.744 OA
ENDBRANCH  75  76
ENDBRANCH  47  70
BRANCH  59  80
ATOM     80  C   UNL A   1      49.552  26.701  26.388  1.00  0.00    -0.014 A 
ATOM     81  C   UNL A   1      50.080  26.836  25.093  1.00  0.00     0.010 A 
ATOM     82  C   UNL A   1      50.393  26.255  27.427  1.00  0.00     0.010 A 
ATOM     83  C   UNL A   1      51.416  26.513  24.838  1.00  0.00     0.020 A 
ATOM     84  C   UNL A   1      51.735  25.960  27.183  1.00  0.00     0.020 A 
ATOM     85  C   UNL A   1      52.237  26.082  25.886  1.00  0.00     0.054 A 
BRANCH  85  86
ATOM     86  S   UNL A   1      53.984  25.737  25.542  1.00  0.00     0.124 S 
ATOM     87  O   UNL A   1      54.354  26.862  24.687  1.00  0.00    -0.237 OA
ATOM     88  O   UNL A   1      54.578  25.740  26.877  1.00  0.00    -0.237 OA
ATOM     89  O   UNL A   1      53.958  24.435  24.881  1.00  0.00    -0.744 OA
ENDBRANCH  85  86
ENDBRANCH  59  80
ENDBRANCH  33  34
ENDBRANCH  26  28
ENDBRANCH  25  26
ENDBRANCH  24  25
ENDBRANCH  23  24
ENDBRANCH   1  23
TORSDOF 20
ENDMDL
