MODEL 1
REMARK VINA RESULT:     -10.7      0.000      0.000
REMARK SMILES C[C@@H](C(=O)OCCOCCOC(=O)c1ccc(-c2c3nc(c(-c4ccc(S(=O)(=O)[O-])cc4)c4ccc([nH]4)c(-c4ccc(S(=O)(=O)[O-])cc4)c4nc(c(-c5ccc(S(=O)(=O)[O-])cc5)c5ccc2[nH]5)C=C4)C=C3)cc1)c1ccc2c3cc(Cl)ccc3n(C(=O)c3cocn3)c2c1
REMARK SMILES IDX 8 1 7 2 6 3 5 4 3 5 4 6 2 7 1 8 74 9 75 10 94 11 76 12 93 13
REMARK SMILES IDX 77 14 85 15 78 16 84 17 79 18 83 19 80 20 82 21 81 22 86 23
REMARK SMILES IDX 87 24 88 25 89 26 92 27 90 28 91 29 9 30 10 31 11 32 12 33
REMARK SMILES IDX 13 34 14 35 15 36 73 37 16 38 72 39 17 40 18 41 19 42 66 43
REMARK SMILES IDX 20 44 71 45 65 46 67 47 21 48 70 49 64 50 63 51 22 53 52 54
REMARK SMILES IDX 33 55 51 56 34 57 37 58 50 59 68 60 35 61 36 62 49 64 69 65
REMARK SMILES IDX 38 66 23 67 24 68 32 69 25 70 31 71 26 72 27 73 28 74 29 75
REMARK SMILES IDX 30 76 53 77 54 78 62 79 55 80 61 81 56 82 57 83 58 84 59 85
REMARK SMILES IDX 60 86 39 87 40 88 48 89 41 90 47 91 42 92 43 93 44 94 45 95
REMARK SMILES IDX 46 96
REMARK H PARENT 67 52 37 63
REMARK Flexibility Score: inf
ROOT
ATOM      1  O   UNL A   1      35.924  21.155  24.372  1.00  0.00    -0.374 OA
ENDROOT
BRANCH   1   2
ATOM      2  C   UNL A   1      35.047  20.220  25.000  1.00  0.00     0.202 C 
BRANCH   2   3
ATOM      3  C   UNL A   1      33.646  20.705  25.388  1.00  0.00     0.261 C 
BRANCH   3   4
ATOM      4  O   UNL A   1      32.863  21.021  24.221  1.00  0.00    -0.463 OA
BRANCH   4   5
ATOM      5  C   UNL A   1      32.054  22.111  24.334  1.00  0.00     0.313 C 
ATOM      6  O   UNL A   1      31.242  22.274  25.238  1.00  0.00    -0.252 OA
BRANCH   5   7
ATOM      7  C   UNL A   1      32.287  23.141  23.220  1.00  0.00     0.126 C 
ATOM      8  C   UNL A   1      33.240  22.712  22.102  1.00  0.00     0.025 C 
BRANCH   7   9
ATOM      9  C   UNL A   1      32.658  24.497  23.824  1.00  0.00    -0.032 A 
ATOM     10  C   UNL A   1      33.838  24.723  24.540  1.00  0.00     0.005 A 
ATOM     11  C   UNL A   1      31.714  25.529  23.737  1.00  0.00     0.032 A 
ATOM     12  C   UNL A   1      34.081  25.948  25.172  1.00  0.00     0.011 A 
ATOM     13  C   UNL A   1      31.945  26.752  24.397  1.00  0.00     0.058 A 
ATOM     14  C   UNL A   1      33.126  26.981  25.094  1.00  0.00     0.008 A 
ATOM     15  N   UNL A   1      31.147  27.897  24.485  1.00  0.00    -0.274 N 
ATOM     16  C   UNL A   1      33.055  28.295  25.631  1.00  0.00     0.009 A 
ATOM     17  C   UNL A   1      31.811  28.839  25.285  1.00  0.00     0.057 A 
ATOM     18  C   UNL A   1      33.948  29.041  26.434  1.00  0.00     0.031 A 
ATOM     19  C   UNL A   1      31.404  30.082  25.811  1.00  0.00     0.029 A 
ATOM     20  C   UNL A   1      33.556  30.286  26.917  1.00  0.00     0.041 A 
ATOM     21  C   UNL A   1      32.297  30.793  26.626  1.00  0.00     0.023 A 
ATOM     22  Cl  UNL A   1      34.635  31.184  27.914  1.00  0.00    -0.084 Cl
BRANCH  15  23
ATOM     23  C   UNL A   1      29.861  27.999  23.890  1.00  0.00     0.284 C 
ATOM     24  O   UNL A   1      29.069  27.102  24.173  1.00  0.00    -0.266 OA
BRANCH  23  25
ATOM     25  C   UNL A   1      29.452  29.026  22.936  1.00  0.00     0.167 A 
ATOM     26  C   UNL A   1      30.198  29.705  21.997  1.00  0.00     0.231 A 
ATOM     27  N   UNL A   1      28.114  29.354  22.748  1.00  0.00    -0.211 NA
ATOM     28  O   UNL A   1      29.351  30.445  21.223  1.00  0.00    -0.451 OA
ATOM     29  C   UNL A   1      28.117  30.166  21.721  1.00  0.00     0.308 A 
ENDBRANCH  23  25
ENDBRANCH  15  23
ENDBRANCH   7   9
ENDBRANCH   5   7
ENDBRANCH   4   5
ENDBRANCH   3   4
ENDBRANCH   2   3
ENDBRANCH   1   2
BRANCH   1  30
ATOM     30  C   UNL A   1      35.966  22.479  24.894  1.00  0.00     0.202 C 
BRANCH  30  31
ATOM     31  C   UNL A   1      36.998  22.789  25.989  1.00  0.00     0.261 C 
BRANCH  31  32
ATOM     32  O   UNL A   1      38.354  22.572  25.572  1.00  0.00    -0.460 OA
BRANCH  32  33
ATOM     33  C   UNL A   1      39.253  22.594  26.586  1.00  0.00     0.338 C 
ATOM     34  O   UNL A   1      39.918  21.653  27.005  1.00  0.00    -0.246 OA
BRANCH  33  35
ATOM     35  C   UNL A   1      39.487  23.977  27.029  1.00  0.00     0.060 A 
ATOM     36  C   UNL A   1      39.974  24.881  26.076  1.00  0.00     0.016 A 
ATOM     37  C   UNL A   1      39.314  24.365  28.360  1.00  0.00     0.016 A 
ATOM     38  C   UNL A   1      40.334  26.168  26.458  1.00  0.00     0.010 A 
ATOM     39  C   UNL A   1      39.691  25.656  28.744  1.00  0.00     0.010 A 
ATOM     40  C   UNL A   1      40.236  26.548  27.802  1.00  0.00    -0.014 A 
BRANCH  40  41
ATOM     41  C   UNL A   1      40.860  27.820  28.235  1.00  0.00     0.031 A 
ATOM     42  C   UNL A   1      42.351  27.977  28.110  1.00  0.00     0.074 A 
ATOM     43  C   UNL A   1      40.101  28.837  28.682  1.00  0.00     0.049 A 
ATOM     44  N   UNL A   1      43.105  28.997  28.428  1.00  0.00    -0.248 NA
ATOM     45  C   UNL A   1      43.089  26.833  27.550  1.00  0.00     0.031 C 
ATOM     46  C   UNL A   1      38.642  28.819  28.791  1.00  0.00     0.029 A 
ATOM     47  N   UNL A   1      40.456  30.087  29.123  1.00  0.00    -0.354 N 
ATOM     48  C   UNL A   1      44.405  28.614  28.120  1.00  0.00     0.074 A 
ATOM     49  C   UNL A   1      44.342  27.261  27.614  1.00  0.00     0.031 C 
ATOM     50  C   UNL A   1      38.227  30.005  29.269  1.00  0.00     0.029 A 
ATOM     51  C   UNL A   1      39.390  30.849  29.534  1.00  0.00     0.049 A 
ATOM     52  H   UNL A   1      41.388  30.406  29.142  1.00  0.00     0.167 HD
ATOM     53  C   UNL A   1      45.549  29.328  28.244  1.00  0.00     0.031 A 
ATOM     54  C   UNL A   1      39.359  32.081  30.080  1.00  0.00     0.031 A 
ATOM     55  C   UNL A   1      45.603  30.673  28.756  1.00  0.00     0.049 A 
ATOM     56  C   UNL A   1      40.654  32.825  30.282  1.00  0.00     0.074 A 
ATOM     57  C   UNL A   1      46.709  31.491  28.906  1.00  0.00     0.029 A 
ATOM     58  N   UNL A   1      44.508  31.392  29.210  1.00  0.00    -0.354 N 
ATOM     59  N   UNL A   1      41.874  32.460  29.966  1.00  0.00    -0.248 NA
ATOM     60  C   UNL A   1      40.565  34.152  30.907  1.00  0.00     0.031 C 
ATOM     61  C   UNL A   1      46.291  32.681  29.511  1.00  0.00     0.029 A 
ATOM     62  C   UNL A   1      44.915  32.632  29.671  1.00  0.00     0.049 A 
ATOM     63  H   UNL A   1      43.578  31.070  29.203  1.00  0.00     0.167 HD
ATOM     64  C   UNL A   1      42.694  33.525  30.325  1.00  0.00     0.074 A 
ATOM     65  C   UNL A   1      41.830  34.551  30.870  1.00  0.00     0.031 C 
ATOM     66  C   UNL A   1      44.041  33.643  30.211  1.00  0.00     0.031 A 
BRANCH  53  67
ATOM     67  C   UNL A   1      46.841  28.655  27.863  1.00  0.00    -0.014 A 
ATOM     68  C   UNL A   1      47.582  27.906  28.795  1.00  0.00     0.010 A 
ATOM     69  C   UNL A   1      47.301  28.741  26.536  1.00  0.00     0.010 A 
ATOM     70  C   UNL A   1      48.777  27.284  28.414  1.00  0.00     0.020 A 
ATOM     71  C   UNL A   1      48.477  28.097  26.144  1.00  0.00     0.020 A 
ATOM     72  C   UNL A   1      49.216  27.386  27.091  1.00  0.00     0.054 A 
BRANCH  72  73
ATOM     73  S   UNL A   1      50.753  26.547  26.618  1.00  0.00     0.124 S 
ATOM     74  O   UNL A   1      51.747  27.597  26.828  1.00  0.00    -0.237 OA
ATOM     75  O   UNL A   1      50.811  25.430  27.558  1.00  0.00    -0.237 OA
ATOM     76  O   UNL A   1      50.531  26.172  25.223  1.00  0.00    -0.744 OA
ENDBRANCH  72  73
ENDBRANCH  53  67
BRANCH  54  77
ATOM     77  C   UNL A   1      38.060  32.680  30.493  1.00  0.00    -0.014 A 
ATOM     78  C   UNL A   1      37.303  33.449  29.593  1.00  0.00     0.010 A 
ATOM     79  C   UNL A   1      37.575  32.485  31.800  1.00  0.00     0.010 A 
ATOM     80  C   UNL A   1      36.095  34.027  29.995  1.00  0.00     0.020 A 
ATOM     81  C   UNL A   1      36.353  33.034  32.197  1.00  0.00     0.020 A 
ATOM     82  C   UNL A   1      35.626  33.813  31.295  1.00  0.00     0.054 A 
BRANCH  82  83
ATOM     83  S   UNL A   1      34.033  34.533  31.780  1.00  0.00     0.124 S 
ATOM     84  O   UNL A   1      33.319  34.573  30.509  1.00  0.00    -0.237 OA
ATOM     85  O   UNL A   1      33.537  33.568  32.757  1.00  0.00    -0.237 OA
ATOM     86  O   UNL A   1      34.401  35.835  32.333  1.00  0.00    -0.744 OA
ENDBRANCH  82  83
ENDBRANCH  54  77
BRANCH  66  87
ATOM     87  C   UNL A   1      44.663  34.945  30.647  1.00  0.00    -0.014 A 
ATOM     88  C   UNL A   1      44.750  36.044  29.775  1.00  0.00     0.010 A 
ATOM     89  C   UNL A   1      45.114  35.085  31.973  1.00  0.00     0.010 A 
ATOM     90  C   UNL A   1      45.309  37.248  30.211  1.00  0.00     0.020 A 
ATOM     91  C   UNL A   1      45.643  36.297  32.423  1.00  0.00     0.020 A 
ATOM     92  C   UNL A   1      45.751  37.367  31.533  1.00  0.00     0.054 A 
BRANCH  92  93
ATOM     93  S   UNL A   1      46.431  38.955  32.088  1.00  0.00     0.124 S 
ATOM     94  O   UNL A   1      46.946  39.516  30.842  1.00  0.00    -0.237 OA
ATOM     95  O   UNL A   1      45.260  39.628  32.642  1.00  0.00    -0.237 OA
ATOM     96  O   UNL A   1      47.446  38.575  33.067  1.00  0.00    -0.744 OA
ENDBRANCH  92  93
ENDBRANCH  66  87
ENDBRANCH  40  41
ENDBRANCH  33  35
ENDBRANCH  32  33
ENDBRANCH  31  32
ENDBRANCH  30  31
ENDBRANCH   1  30
TORSDOF 20
ENDMDL
MODEL 2
REMARK VINA RESULT:     -10.5      2.296      3.401
REMARK SMILES C[C@@H](C(=O)OCCOCCOC(=O)c1ccc(-c2c3nc(c(-c4ccc(S(=O)(=O)[O-])cc4)c4ccc([nH]4)c(-c4ccc(S(=O)(=O)[O-])cc4)c4nc(c(-c5ccc(S(=O)(=O)[O-])cc5)c5ccc2[nH]5)C=C4)C=C3)cc1)c1ccc2c3cc(Cl)ccc3n(C(=O)c3cocn3)c2c1
REMARK SMILES IDX 8 1 7 2 6 3 5 4 3 5 4 6 2 7 1 8 74 9 75 10 94 11 76 12 93 13
REMARK SMILES IDX 77 14 85 15 78 16 84 17 79 18 83 19 80 20 82 21 81 22 86 23
REMARK SMILES IDX 87 24 88 25 89 26 92 27 90 28 91 29 9 30 10 31 11 32 12 33
REMARK SMILES IDX 13 34 14 35 15 36 73 37 16 38 72 39 17 40 18 41 19 42 66 43
REMARK SMILES IDX 20 44 71 45 65 46 67 47 21 48 70 49 64 50 63 51 22 53 52 54
REMARK SMILES IDX 33 55 51 56 34 57 37 58 50 59 68 60 35 61 36 62 49 64 69 65
REMARK SMILES IDX 38 66 23 67 24 68 32 69 25 70 31 71 26 72 27 73 28 74 29 75
REMARK SMILES IDX 30 76 53 77 54 78 62 79 55 80 61 81 56 82 57 83 58 84 59 85
REMARK SMILES IDX 60 86 39 87 40 88 48 89 41 90 47 91 42 92 43 93 44 94 45 95
REMARK SMILES IDX 46 96
REMARK H PARENT 67 52 37 63
REMARK Flexibility Score: inf
ROOT
ATOM      1  O   UNL A   1      37.474  21.217  24.629  1.00  0.00    -0.374 OA
ENDROOT
BRANCH   1   2
ATOM      2  C   UNL A   1      36.204  20.687  25.011  1.00  0.00     0.202 C 
BRANCH   2   3
ATOM      3  C   UNL A   1      34.953  21.486  24.629  1.00  0.00     0.261 C 
BRANCH   3   4
ATOM      4  O   UNL A   1      35.214  22.362  23.516  1.00  0.00    -0.463 OA
BRANCH   4   5
ATOM      5  C   UNL A   1      34.124  22.984  22.990  1.00  0.00     0.313 C 
ATOM      6  O   UNL A   1      33.985  23.234  21.797  1.00  0.00    -0.252 OA
BRANCH   5   7
ATOM      7  C   UNL A   1      33.060  23.314  24.045  1.00  0.00     0.126 C 
ATOM      8  C   UNL A   1      31.613  23.006  23.655  1.00  0.00     0.025 C 
BRANCH   7   9
ATOM      9  C   UNL A   1      33.243  24.748  24.547  1.00  0.00    -0.032 A 
ATOM     10  C   UNL A   1      34.327  25.157  25.329  1.00  0.00     0.005 A 
ATOM     11  C   UNL A   1      32.212  25.664  24.292  1.00  0.00     0.032 A 
ATOM     12  C   UNL A   1      34.393  26.450  25.861  1.00  0.00     0.011 A 
ATOM     13  C   UNL A   1      32.264  26.956  24.851  1.00  0.00     0.058 A 
ATOM     14  C   UNL A   1      33.351  27.366  25.614  1.00  0.00     0.008 A 
ATOM     15  N   UNL A   1      31.352  28.014  24.770  1.00  0.00    -0.274 N 
ATOM     16  C   UNL A   1      33.105  28.706  26.019  1.00  0.00     0.009 A 
ATOM     17  C   UNL A   1      31.848  29.085  25.528  1.00  0.00     0.057 A 
ATOM     18  C   UNL A   1      33.847  29.607  26.816  1.00  0.00     0.031 A 
ATOM     19  C   UNL A   1      31.277  30.317  25.903  1.00  0.00     0.029 A 
ATOM     20  C   UNL A   1      33.294  30.841  27.149  1.00  0.00     0.041 A 
ATOM     21  C   UNL A   1      32.021  31.185  26.716  1.00  0.00     0.023 A 
ATOM     22  Cl  UNL A   1      34.188  31.929  28.140  1.00  0.00    -0.084 Cl
BRANCH  15  23
ATOM     23  C   UNL A   1      30.119  27.928  24.070  1.00  0.00     0.284 C 
ATOM     24  O   UNL A   1      29.430  26.941  24.320  1.00  0.00    -0.266 OA
BRANCH  23  25
ATOM     25  C   UNL A   1      29.662  28.867  23.049  1.00  0.00     0.167 A 
ATOM     26  C   UNL A   1      30.391  29.647  22.179  1.00  0.00     0.231 A 
ATOM     27  N   UNL A   1      28.318  28.975  22.709  1.00  0.00    -0.211 NA
ATOM     28  O   UNL A   1      29.529  30.234  21.297  1.00  0.00    -0.451 OA
ATOM     29  C   UNL A   1      28.307  29.767  21.666  1.00  0.00     0.308 A 
ENDBRANCH  23  25
ENDBRANCH  15  23
ENDBRANCH   7   9
ENDBRANCH   5   7
ENDBRANCH   4   5
ENDBRANCH   3   4
ENDBRANCH   2   3
ENDBRANCH   1   2
BRANCH   1  30
ATOM     30  C   UNL A   1      38.122  22.101  25.537  1.00  0.00     0.202 C 
BRANCH  30  31
ATOM     31  C   UNL A   1      39.249  21.534  26.414  1.00  0.00     0.261 C 
BRANCH  31  32
ATOM     32  O   UNL A   1      40.120  20.635  25.713  1.00  0.00    -0.460 OA
BRANCH  32  33
ATOM     33  C   UNL A   1      41.259  20.336  26.383  1.00  0.00     0.338 C 
ATOM     34  O   UNL A   1      41.665  19.221  26.691  1.00  0.00    -0.246 OA
BRANCH  33  35
ATOM     35  C   UNL A   1      42.085  21.543  26.547  1.00  0.00     0.060 A 
ATOM     36  C   UNL A   1      42.547  21.832  27.838  1.00  0.00     0.016 A 
ATOM     37  C   UNL A   1      42.337  22.414  25.486  1.00  0.00     0.016 A 
ATOM     38  C   UNL A   1      43.225  23.020  28.084  1.00  0.00     0.010 A 
ATOM     39  C   UNL A   1      43.008  23.615  25.739  1.00  0.00     0.010 A 
ATOM     40  C   UNL A   1      43.420  23.938  27.046  1.00  0.00    -0.014 A 
BRANCH  40  41
ATOM     41  C   UNL A   1      43.909  25.298  27.372  1.00  0.00     0.031 A 
ATOM     42  C   UNL A   1      45.320  25.669  27.002  1.00  0.00     0.074 A 
ATOM     43  C   UNL A   1      43.090  26.202  27.939  1.00  0.00     0.049 A 
ATOM     44  N   UNL A   1      45.955  26.796  27.193  1.00  0.00    -0.248 NA
ATOM     45  C   UNL A   1      46.119  24.633  26.327  1.00  0.00     0.031 C 
ATOM     46  C   UNL A   1      41.689  25.973  28.287  1.00  0.00     0.029 A 
ATOM     47  N   UNL A   1      43.323  27.501  28.316  1.00  0.00    -0.354 N 
ATOM     48  C   UNL A   1      47.230  26.601  26.674  1.00  0.00     0.074 A 
ATOM     49  C   UNL A   1      47.287  25.242  26.185  1.00  0.00     0.031 C 
ATOM     50  C   UNL A   1      41.185  27.096  28.828  1.00  0.00     0.029 A 
ATOM     51  C   UNL A   1      42.237  28.108  28.898  1.00  0.00     0.049 A 
ATOM     52  H   UNL A   1      44.187  27.954  28.182  1.00  0.00     0.167 HD
ATOM     53  C   UNL A   1      48.260  27.479  26.609  1.00  0.00     0.031 A 
ATOM     54  C   UNL A   1      42.113  29.334  29.443  1.00  0.00     0.031 A 
ATOM     55  C   UNL A   1      48.195  28.828  27.106  1.00  0.00     0.049 A 
ATOM     56  C   UNL A   1      43.297  30.265  29.429  1.00  0.00     0.074 A 
ATOM     57  C   UNL A   1      49.177  29.804  27.072  1.00  0.00     0.029 A 
ATOM     58  N   UNL A   1      47.095  29.390  27.735  1.00  0.00    -0.354 N 
ATOM     59  N   UNL A   1      44.490  30.075  28.916  1.00  0.00    -0.248 NA
ATOM     60  C   UNL A   1      43.115  31.579  30.062  1.00  0.00     0.031 C 
ATOM     61  C   UNL A   1      48.691  30.933  27.739  1.00  0.00     0.029 A 
ATOM     62  C   UNL A   1      47.382  30.686  28.124  1.00  0.00     0.049 A 
ATOM     63  H   UNL A   1      46.235  28.934  27.881  1.00  0.00     0.167 HD
ATOM     64  C   UNL A   1      45.190  31.258  29.137  1.00  0.00     0.074 A 
ATOM     65  C   UNL A   1      44.283  32.158  29.817  1.00  0.00     0.031 C 
ATOM     66  C   UNL A   1      46.468  31.571  28.802  1.00  0.00     0.031 A 
BRANCH  53  67
ATOM     67  C   UNL A   1      49.558  26.994  26.019  1.00  0.00    -0.014 A 
ATOM     68  C   UNL A   1      49.946  27.338  24.712  1.00  0.00     0.010 A 
ATOM     69  C   UNL A   1      50.424  26.211  26.805  1.00  0.00     0.010 A 
ATOM     70  C   UNL A   1      51.160  26.879  24.190  1.00  0.00     0.020 A 
ATOM     71  C   UNL A   1      51.651  25.775  26.299  1.00  0.00     0.020 A 
ATOM     72  C   UNL A   1      52.004  26.100  24.988  1.00  0.00     0.054 A 
BRANCH  72  73
ATOM     73  S   UNL A   1      53.586  25.542  24.295  1.00  0.00     0.124 S 
ATOM     74  O   UNL A   1      53.608  24.136  24.691  1.00  0.00    -0.237 OA
ATOM     75  O   UNL A   1      53.414  25.790  22.866  1.00  0.00    -0.237 OA
ATOM     76  O   UNL A   1      54.574  26.389  24.958  1.00  0.00    -0.744 OA
ENDBRANCH  72  73
ENDBRANCH  53  67
BRANCH  54  77
ATOM     77  C   UNL A   1      40.824  29.746  30.066  1.00  0.00    -0.014 A 
ATOM     78  C   UNL A   1      39.813  30.348  29.297  1.00  0.00     0.010 A 
ATOM     79  C   UNL A   1      40.604  29.538  31.440  1.00  0.00     0.010 A 
ATOM     80  C   UNL A   1      38.614  30.751  29.894  1.00  0.00     0.020 A 
ATOM     81  C   UNL A   1      39.396  29.911  32.035  1.00  0.00     0.020 A 
ATOM     82  C   UNL A   1      38.412  30.527  31.259  1.00  0.00     0.054 A 
BRANCH  82  83
ATOM     83  S   UNL A   1      36.831  31.017  32.001  1.00  0.00     0.124 S 
ATOM     84  O   UNL A   1      36.021  29.819  31.806  1.00  0.00    -0.237 OA
ATOM     85  O   UNL A   1      37.209  31.309  33.381  1.00  0.00    -0.237 OA
ATOM     86  O   UNL A   1      36.428  32.180  31.214  1.00  0.00    -0.744 OA
ENDBRANCH  82  83
ENDBRANCH  54  77
BRANCH  66  87
ATOM     87  C   UNL A   1      46.952  32.959  29.130  1.00  0.00    -0.014 A 
ATOM     88  C   UNL A   1      47.593  33.243  30.348  1.00  0.00     0.010 A 
ATOM     89  C   UNL A   1      46.812  33.983  28.175  1.00  0.00     0.010 A 
ATOM     90  C   UNL A   1      48.055  34.534  30.619  1.00  0.00     0.020 A 
ATOM     91  C   UNL A   1      47.302  35.267  28.427  1.00  0.00     0.020 A 
ATOM     92  C   UNL A   1      47.907  35.538  29.656  1.00  0.00     0.054 A 
BRANCH  92  93
ATOM     93  S   UNL A   1      48.555  37.194  30.013  1.00  0.00     0.124 S 
ATOM     94  O   UNL A   1      47.346  38.010  29.964  1.00  0.00    -0.237 OA
ATOM     95  O   UNL A   1      49.147  37.026  31.338  1.00  0.00    -0.237 OA
ATOM     96  O   UNL A   1      49.513  37.432  28.936  1.00  0.00    -0.744 OA
ENDBRANCH  92  93
ENDBRANCH  66  87
ENDBRANCH  40  41
ENDBRANCH  33  35
ENDBRANCH  32  33
ENDBRANCH  31  32
ENDBRANCH  30  31
ENDBRANCH   1  30
TORSDOF 20
ENDMDL
MODEL 3
REMARK VINA RESULT:     -10.4      2.798      8.848
REMARK SMILES C[C@@H](C(=O)OCCOCCOC(=O)c1ccc(-c2c3nc(c(-c4ccc(S(=O)(=O)[O-])cc4)c4ccc([nH]4)c(-c4ccc(S(=O)(=O)[O-])cc4)c4nc(c(-c5ccc(S(=O)(=O)[O-])cc5)c5ccc2[nH]5)C=C4)C=C3)cc1)c1ccc2c3cc(Cl)ccc3n(C(=O)c3cocn3)c2c1
REMARK SMILES IDX 8 1 7 2 6 3 5 4 3 5 4 6 2 7 1 8 74 9 75 10 94 11 76 12 93 13
REMARK SMILES IDX 77 14 85 15 78 16 84 17 79 18 83 19 80 20 82 21 81 22 86 23
REMARK SMILES IDX 87 24 88 25 89 26 92 27 90 28 91 29 9 30 10 31 11 32 12 33
REMARK SMILES IDX 13 34 14 35 15 36 73 37 16 38 72 39 17 40 18 41 19 42 66 43
REMARK SMILES IDX 20 44 71 45 65 46 67 47 21 48 70 49 64 50 63 51 22 53 52 54
REMARK SMILES IDX 33 55 51 56 34 57 37 58 50 59 68 60 35 61 36 62 49 64 69 65
REMARK SMILES IDX 38 66 23 67 24 68 32 69 25 70 31 71 26 72 27 73 28 74 29 75
REMARK SMILES IDX 30 76 53 77 54 78 62 79 55 80 61 81 56 82 57 83 58 84 59 85
REMARK SMILES IDX 60 86 39 87 40 88 48 89 41 90 47 91 42 92 43 93 44 94 45 95
REMARK SMILES IDX 46 96
REMARK H PARENT 67 52 37 63
REMARK Flexibility Score: inf
ROOT
ATOM      1  O   UNL A   1      39.047  22.275  26.190  1.00  0.00    -0.374 OA
ENDROOT
BRANCH   1   2
ATOM      2  C   UNL A   1      37.980  23.221  26.110  1.00  0.00     0.202 C 
BRANCH   2   3
ATOM      3  C   UNL A   1      37.052  23.149  24.893  1.00  0.00     0.261 C 
BRANCH   3   4
ATOM      4  O   UNL A   1      35.740  23.653  25.207  1.00  0.00    -0.463 OA
BRANCH   4   5
ATOM      5  C   UNL A   1      34.842  23.630  24.184  1.00  0.00     0.313 C 
ATOM      6  O   UNL A   1      35.137  23.800  23.006  1.00  0.00    -0.252 OA
BRANCH   5   7
ATOM      7  C   UNL A   1      33.412  23.336  24.656  1.00  0.00     0.126 C 
ATOM      8  C   UNL A   1      32.860  21.955  24.296  1.00  0.00     0.025 C 
BRANCH   7   9
ATOM      9  C   UNL A   1      32.474  24.471  24.241  1.00  0.00    -0.032 A 
ATOM     10  C   UNL A   1      31.785  24.494  23.025  1.00  0.00     0.005 A 
ATOM     11  C   UNL A   1      32.391  25.589  25.083  1.00  0.00     0.032 A 
ATOM     12  C   UNL A   1      31.029  25.607  22.638  1.00  0.00     0.011 A 
ATOM     13  C   UNL A   1      31.654  26.720  24.682  1.00  0.00     0.058 A 
ATOM     14  C   UNL A   1      30.956  26.734  23.480  1.00  0.00     0.008 A 
ATOM     15  N   UNL A   1      31.459  27.947  25.325  1.00  0.00    -0.274 N 
ATOM     16  C   UNL A   1      30.317  28.000  23.373  1.00  0.00     0.009 A 
ATOM     17  C   UNL A   1      30.668  28.759  24.498  1.00  0.00     0.057 A 
ATOM     18  C   UNL A   1      29.505  28.570  22.367  1.00  0.00     0.031 A 
ATOM     19  C   UNL A   1      30.297  30.116  24.587  1.00  0.00     0.029 A 
ATOM     20  C   UNL A   1      29.107  29.899  22.481  1.00  0.00     0.041 A 
ATOM     21  C   UNL A   1      29.511  30.668  23.564  1.00  0.00     0.023 A 
ATOM     22  Cl  UNL A   1      28.137  30.601  21.244  1.00  0.00    -0.084 Cl
BRANCH  15  23
ATOM     23  C   UNL A   1      32.044  28.273  26.578  1.00  0.00     0.284 C 
ATOM     24  O   UNL A   1      31.456  27.846  27.569  1.00  0.00    -0.266 OA
BRANCH  23  25
ATOM     25  C   UNL A   1      33.222  29.116  26.764  1.00  0.00     0.167 A 
ATOM     26  C   UNL A   1      33.309  30.475  26.975  1.00  0.00     0.231 A 
ATOM     27  N   UNL A   1      34.491  28.570  26.914  1.00  0.00    -0.211 NA
ATOM     28  O   UNL A   1      34.608  30.787  27.261  1.00  0.00    -0.451 OA
ATOM     29  C   UNL A   1      35.252  29.590  27.225  1.00  0.00     0.308 A 
ENDBRANCH  23  25
ENDBRANCH  15  23
ENDBRANCH   7   9
ENDBRANCH   5   7
ENDBRANCH   4   5
ENDBRANCH   3   4
ENDBRANCH   2   3
ENDBRANCH   1   2
BRANCH   1  30
ATOM     30  C   UNL A   1      38.800  20.956  25.717  1.00  0.00     0.202 C 
BRANCH  30  31
ATOM     31  C   UNL A   1      39.786  19.849  26.121  1.00  0.00     0.261 C 
BRANCH  31  32
ATOM     32  O   UNL A   1      41.024  19.896  25.397  1.00  0.00    -0.460 OA
BRANCH  32  33
ATOM     33  C   UNL A   1      42.122  19.968  26.187  1.00  0.00     0.338 C 
ATOM     34  O   UNL A   1      42.903  19.061  26.452  1.00  0.00    -0.246 OA
BRANCH  33  35
ATOM     35  C   UNL A   1      42.389  21.366  26.561  1.00  0.00     0.060 A 
ATOM     36  C   UNL A   1      42.448  22.307  25.525  1.00  0.00     0.016 A 
ATOM     37  C   UNL A   1      42.655  21.737  27.881  1.00  0.00     0.016 A 
ATOM     38  C   UNL A   1      42.819  23.618  25.797  1.00  0.00     0.010 A 
ATOM     39  C   UNL A   1      43.041  23.055  28.149  1.00  0.00     0.010 A 
ATOM     40  C   UNL A   1      43.160  23.989  27.103  1.00  0.00    -0.014 A 
BRANCH  40  41
ATOM     41  C   UNL A   1      43.796  25.307  27.332  1.00  0.00     0.031 A 
ATOM     42  C   UNL A   1      42.977  26.409  27.949  1.00  0.00     0.074 A 
ATOM     43  C   UNL A   1      45.096  25.500  27.045  1.00  0.00     0.049 A 
ATOM     44  N   UNL A   1      43.325  27.636  28.236  1.00  0.00    -0.248 NA
ATOM     45  C   UNL A   1      41.582  26.083  28.287  1.00  0.00     0.031 C 
ATOM     46  C   UNL A   1      46.001  24.488  26.500  1.00  0.00     0.029 A 
ATOM     47  N   UNL A   1      45.881  26.617  27.180  1.00  0.00    -0.354 N 
ATOM     48  C   UNL A   1      42.191  28.232  28.776  1.00  0.00     0.074 A 
ATOM     49  C   UNL A   1      41.138  27.242  28.753  1.00  0.00     0.031 C 
ATOM     50  C   UNL A   1      47.220  25.033  26.347  1.00  0.00     0.029 A 
ATOM     51  C   UNL A   1      47.172  26.437  26.747  1.00  0.00     0.049 A 
ATOM     52  H   UNL A   1      45.550  27.467  27.552  1.00  0.00     0.167 HD
ATOM     53  C   UNL A   1      42.043  29.492  29.251  1.00  0.00     0.031 A 
ATOM     54  C   UNL A   1      48.193  27.313  26.664  1.00  0.00     0.031 A 
ATOM     55  C   UNL A   1      43.096  30.473  29.263  1.00  0.00     0.049 A 
ATOM     56  C   UNL A   1      47.980  28.732  27.126  1.00  0.00     0.074 A 
ATOM     57  C   UNL A   1      43.054  31.772  29.740  1.00  0.00     0.029 A 
ATOM     58  N   UNL A   1      44.375  30.269  28.768  1.00  0.00    -0.354 N 
ATOM     59  N   UNL A   1      46.909  29.275  27.655  1.00  0.00    -0.248 NA
ATOM     60  C   UNL A   1      49.117  29.652  26.987  1.00  0.00     0.031 C 
ATOM     61  C   UNL A   1      44.289  32.373  29.473  1.00  0.00     0.029 A 
ATOM     62  C   UNL A   1      45.122  31.427  28.897  1.00  0.00     0.049 A 
ATOM     63  H   UNL A   1      44.704  29.425  28.384  1.00  0.00     0.167 HD
ATOM     64  C   UNL A   1      47.255  30.593  27.940  1.00  0.00     0.074 A 
ATOM     65  C   UNL A   1      48.635  30.758  27.538  1.00  0.00     0.031 C 
ATOM     66  C   UNL A   1      46.497  31.576  28.490  1.00  0.00     0.031 A 
BRANCH  53  67
ATOM     67  C   UNL A   1      40.682  29.895  29.756  1.00  0.00    -0.014 A 
ATOM     68  C   UNL A   1      39.741  30.517  28.916  1.00  0.00     0.010 A 
ATOM     69  C   UNL A   1      40.326  29.608  31.087  1.00  0.00     0.010 A 
ATOM     70  C   UNL A   1      38.482  30.876  29.408  1.00  0.00     0.020 A 
ATOM     71  C   UNL A   1      39.059  29.938  31.574  1.00  0.00     0.020 A 
ATOM     72  C   UNL A   1      38.150  30.584  30.735  1.00  0.00     0.054 A 
BRANCH  72  73
ATOM     73  S   UNL A   1      36.499  31.035  31.338  1.00  0.00     0.124 S 
ATOM     74  O   UNL A   1      35.928  31.709  30.175  1.00  0.00    -0.237 OA
ATOM     75  O   UNL A   1      35.913  29.738  31.664  1.00  0.00    -0.237 OA
ATOM     76  O   UNL A   1      36.772  31.899  32.484  1.00  0.00    -0.744 OA
ENDBRANCH  72  73
ENDBRANCH  53  67
BRANCH  54  77
ATOM     77  C   UNL A   1      49.503  26.881  26.103  1.00  0.00    -0.014 A 
ATOM     78  C   UNL A   1      49.817  27.107  24.752  1.00  0.00     0.010 A 
ATOM     79  C   UNL A   1      50.445  26.233  26.923  1.00  0.00     0.010 A 
ATOM     80  C   UNL A   1      51.041  26.679  24.228  1.00  0.00     0.020 A 
ATOM     81  C   UNL A   1      51.681  25.831  26.412  1.00  0.00     0.020 A 
ATOM     82  C   UNL A   1      51.966  26.046  25.062  1.00  0.00     0.054 A 
BRANCH  82  83
ATOM     83  S   UNL A   1      53.566  25.540  24.370  1.00  0.00     0.124 S 
ATOM     84  O   UNL A   1      54.501  26.336  25.158  1.00  0.00    -0.237 OA
ATOM     85  O   UNL A   1      53.580  24.103  24.630  1.00  0.00    -0.237 OA
ATOM     86  O   UNL A   1      53.462  25.910  22.961  1.00  0.00    -0.744 OA
ENDBRANCH  82  83
ENDBRANCH  54  77
BRANCH  66  87
ATOM     87  C   UNL A   1      47.156  32.910  28.727  1.00  0.00    -0.014 A 
ATOM     88  C   UNL A   1      47.865  33.178  29.911  1.00  0.00     0.010 A 
ATOM     89  C   UNL A   1      47.112  33.891  27.719  1.00  0.00     0.010 A 
ATOM     90  C   UNL A   1      48.489  34.414  30.096  1.00  0.00     0.020 A 
ATOM     91  C   UNL A   1      47.761  35.116  27.886  1.00  0.00     0.020 A 
ATOM     92  C   UNL A   1      48.433  35.376  29.081  1.00  0.00     0.054 A 
BRANCH  92  93
ATOM     93  S   UNL A   1      49.288  36.956  29.327  1.00  0.00     0.124 S 
ATOM     94  O   UNL A   1      48.581  37.508  30.480  1.00  0.00    -0.237 OA
ATOM     95  O   UNL A   1      50.666  36.539  29.577  1.00  0.00    -0.237 OA
ATOM     96  O   UNL A   1      49.078  37.666  28.068  1.00  0.00    -0.744 OA
ENDBRANCH  92  93
ENDBRANCH  66  87
ENDBRANCH  40  41
ENDBRANCH  33  35
ENDBRANCH  32  33
ENDBRANCH  31  32
ENDBRANCH  30  31
ENDBRANCH   1  30
TORSDOF 20
ENDMDL
