MODEL 1
REMARK VINA RESULT:      -9.6      0.000      0.000
REMARK SMILES CC[NH2+][C@]1(C(=O)OCCOCCOC(=O)c2ccc(-c3c4nc(c(-c5ccc(S(=O)(=O)[O-])cc5)c5ccc([nH]5)c(-c5ccc(S(=O)(=O)[O-])cc5)c5nc(c(-c6ccc(S(=O)(=O)[O-])cc6)c6ccc3[nH]6)C=C5)C=C4)cc2)CCC[C@H]1CC[N@H+]1CCC[C@@H](CC)C1
REMARK SMILES IDX 9 1 8 2 7 3 5 4 6 5 4 6 76 7 79 8 77 9 78 10 3 11 2 14 1 15
REMARK SMILES IDX 80 16 81 17 82 18 83 19 89 20 84 22 86 23 85 24 87 25 88 26
REMARK SMILES IDX 10 27 11 28 12 29 13 30 14 31 15 32 16 33 17 34 75 35 18 36
REMARK SMILES IDX 74 37 19 38 20 39 21 40 68 41 22 42 73 43 67 44 69 45 23 46
REMARK SMILES IDX 72 47 66 48 65 49 24 51 54 52 35 53 53 54 36 55 39 56 52 57
REMARK SMILES IDX 70 58 37 59 38 60 51 62 71 63 40 64 25 65 26 66 34 67 27 68
REMARK SMILES IDX 33 69 28 70 29 71 30 72 31 73 32 74 55 75 56 76 64 77 57 78
REMARK SMILES IDX 63 79 58 80 59 81 60 82 61 83 62 84 41 85 42 86 50 87 43 88
REMARK SMILES IDX 49 89 44 90 45 91 46 92 47 93 48 94
REMARK H PARENT 3 12 3 13 82 21 69 50 39 61
REMARK Flexibility Score: inf
ROOT
ATOM      1  C   UNL A   1      32.384  29.544  26.427  1.00  0.00     0.202 C 
ENDROOT
BRANCH   1   2
ATOM      2  C   UNL A   1      33.630  28.649  26.344  1.00  0.00     0.261 C 
BRANCH   2   3
ATOM      3  O   UNL A   1      33.442  27.465  25.544  1.00  0.00    -0.459 OA
BRANCH   3   4
ATOM      4  C   UNL A   1      33.625  27.682  24.217  1.00  0.00     0.368 C 
ATOM      5  O   UNL A   1      34.476  28.457  23.800  1.00  0.00    -0.245 OA
BRANCH   4   6
ATOM      6  C   UNL A   1      32.763  26.820  23.288  1.00  0.00     0.197 C 
ATOM      7  C   UNL A   1      33.201  26.934  21.812  1.00  0.00     0.081 C 
ATOM      8  C   UNL A   1      32.925  25.294  23.558  1.00  0.00     0.068 C 
ATOM      9  C   UNL A   1      32.608  25.713  21.126  1.00  0.00     0.008 C 
ATOM     10  C   UNL A   1      32.495  24.645  22.215  1.00  0.00     0.011 C 
BRANCH   6  11
ATOM     11  N   UNL A   1      31.326  27.280  23.355  1.00  0.00    -0.332 N 
ATOM     12  H   UNL A   1      30.760  26.633  22.806  1.00  0.00     0.347 HD
ATOM     13  H   UNL A   1      31.078  27.297  24.344  1.00  0.00     0.347 HD
BRANCH  11  14
ATOM     14  C   UNL A   1      31.087  28.637  22.848  1.00  0.00     0.257 C 
ATOM     15  C   UNL A   1      29.599  28.864  22.620  1.00  0.00     0.071 C 
ENDBRANCH  11  14
ENDBRANCH   6  11
BRANCH   8  16
ATOM     16  C   UNL A   1      34.330  24.765  23.978  1.00  0.00     0.072 C 
BRANCH  16  17
ATOM     17  C   UNL A   1      34.792  23.370  23.464  1.00  0.00     0.262 C 
BRANCH  17  18
ATOM     18  N   UNL A   1      34.550  22.269  24.404  1.00  0.00    -0.335 N 
ATOM     19  C   UNL A   1      34.323  22.718  25.778  1.00  0.00     0.262 C 
ATOM     20  C   UNL A   1      33.446  21.380  23.974  1.00  0.00     0.265 C 
ATOM     21  H   UNL A   1      35.416  21.731  24.394  1.00  0.00     0.348 HD
ATOM     22  C   UNL A   1      34.237  21.521  26.735  1.00  0.00     0.062 C 
ATOM     23  C   UNL A   1      33.506  20.085  24.808  1.00  0.00     0.044 C 
ATOM     24  C   UNL A   1      33.237  20.462  26.270  1.00  0.00     0.015 C 
BRANCH  23  25
ATOM     25  C   UNL A   1      32.526  19.001  24.322  1.00  0.00     0.006 C 
ATOM     26  C   UNL A   1      33.176  18.001  23.370  1.00  0.00     0.004 C 
ENDBRANCH  23  25
ENDBRANCH  17  18
ENDBRANCH  16  17
ENDBRANCH   8  16
ENDBRANCH   4   6
ENDBRANCH   3   4
ENDBRANCH   2   3
ENDBRANCH   1   2
BRANCH   1  27
ATOM     27  O   UNL A   1      32.422  30.735  27.220  1.00  0.00    -0.374 OA
BRANCH  27  28
ATOM     28  C   UNL A   1      31.600  31.830  26.815  1.00  0.00     0.202 C 
BRANCH  28  29
ATOM     29  C   UNL A   1      32.087  33.253  27.069  1.00  0.00     0.261 C 
BRANCH  29  30
ATOM     30  O   UNL A   1      33.301  33.258  27.815  1.00  0.00    -0.460 OA
BRANCH  30  31
ATOM     31  C   UNL A   1      33.389  34.317  28.646  1.00  0.00     0.338 C 
ATOM     32  O   UNL A   1      32.589  35.237  28.764  1.00  0.00    -0.246 OA
BRANCH  31  33
ATOM     33  C   UNL A   1      34.517  34.119  29.562  1.00  0.00     0.060 A 
ATOM     34  C   UNL A   1      35.794  34.270  29.012  1.00  0.00     0.016 A 
ATOM     35  C   UNL A   1      34.339  33.776  30.906  1.00  0.00     0.016 A 
ATOM     36  C   UNL A   1      36.904  33.957  29.773  1.00  0.00     0.010 A 
ATOM     37  C   UNL A   1      35.459  33.460  31.672  1.00  0.00     0.010 A 
ATOM     38  C   UNL A   1      36.731  33.480  31.079  1.00  0.00    -0.014 A 
BRANCH  38  39
ATOM     39  C   UNL A   1      37.874  32.793  31.706  1.00  0.00     0.031 A 
ATOM     40  C   UNL A   1      38.369  33.307  33.029  1.00  0.00     0.074 A 
ATOM     41  C   UNL A   1      38.354  31.662  31.164  1.00  0.00     0.049 A 
ATOM     42  N   UNL A   1      39.270  32.798  33.827  1.00  0.00    -0.248 NA
ATOM     43  C   UNL A   1      37.765  34.556  33.525  1.00  0.00     0.031 C 
ATOM     44  C   UNL A   1      37.890  31.067  29.910  1.00  0.00     0.029 A 
ATOM     45  N   UNL A   1      39.313  30.800  31.616  1.00  0.00    -0.354 N 
ATOM     46  C   UNL A   1      39.340  33.663  34.913  1.00  0.00     0.074 A 
ATOM     47  C   UNL A   1      38.424  34.749  34.656  1.00  0.00     0.031 C 
ATOM     48  C   UNL A   1      38.558  29.919  29.703  1.00  0.00     0.029 A 
ATOM     49  C   UNL A   1      39.509  29.720  30.792  1.00  0.00     0.049 A 
ATOM     50  H   UNL A   1      39.816  30.941  32.451  1.00  0.00     0.167 HD
ATOM     51  C   UNL A   1      40.096  33.552  36.030  1.00  0.00     0.031 A 
ATOM     52  C   UNL A   1      40.365  28.689  30.911  1.00  0.00     0.031 A 
ATOM     53  C   UNL A   1      41.011  32.466  36.258  1.00  0.00     0.049 A 
ATOM     54  C   UNL A   1      41.237  28.618  32.136  1.00  0.00     0.074 A 
ATOM     55  C   UNL A   1      41.830  32.243  37.350  1.00  0.00     0.029 A 
ATOM     56  N   UNL A   1      41.230  31.421  35.371  1.00  0.00    -0.354 N 
ATOM     57  N   UNL A   1      41.286  29.435  33.163  1.00  0.00    -0.248 NA
ATOM     58  C   UNL A   1      42.155  27.477  32.225  1.00  0.00     0.031 C 
ATOM     59  C   UNL A   1      42.591  31.098  37.094  1.00  0.00     0.029 A 
ATOM     60  C   UNL A   1      42.192  30.564  35.878  1.00  0.00     0.049 A 
ATOM     61  H   UNL A   1      40.769  31.305  34.510  1.00  0.00     0.167 HD
ATOM     62  C   UNL A   1      42.222  28.893  34.035  1.00  0.00     0.074 A 
ATOM     63  C   UNL A   1      42.693  27.666  33.422  1.00  0.00     0.031 C 
ATOM     64  C   UNL A   1      42.653  29.358  35.235  1.00  0.00     0.031 A 
BRANCH  51  65
ATOM     65  C   UNL A   1      39.995  34.651  37.056  1.00  0.00    -0.014 A 
ATOM     66  C   UNL A   1      40.744  35.837  36.942  1.00  0.00     0.010 A 
ATOM     67  C   UNL A   1      39.114  34.504  38.143  1.00  0.00     0.010 A 
ATOM     68  C   UNL A   1      40.639  36.838  37.913  1.00  0.00     0.020 A 
ATOM     69  C   UNL A   1      38.983  35.515  39.099  1.00  0.00     0.020 A 
ATOM     70  C   UNL A   1      39.757  36.671  38.985  1.00  0.00     0.054 A 
BRANCH  70  71
ATOM     71  S   UNL A   1      39.616  37.999  40.212  1.00  0.00     0.124 S 
ATOM     72  O   UNL A   1      39.209  37.265  41.407  1.00  0.00    -0.237 OA
ATOM     73  O   UNL A   1      40.967  38.550  40.243  1.00  0.00    -0.237 OA
ATOM     74  O   UNL A   1      38.597  38.884  39.650  1.00  0.00    -0.744 OA
ENDBRANCH  70  71
ENDBRANCH  51  65
BRANCH  52  75
ATOM     75  C   UNL A   1      40.436  27.658  29.841  1.00  0.00    -0.014 A 
ATOM     76  C   UNL A   1      41.522  27.607  28.951  1.00  0.00     0.010 A 
ATOM     77  C   UNL A   1      39.409  26.702  29.722  1.00  0.00     0.010 A 
ATOM     78  C   UNL A   1      41.571  26.631  27.951  1.00  0.00     0.020 A 
ATOM     79  C   UNL A   1      39.470  25.706  28.745  1.00  0.00     0.020 A 
ATOM     80  C   UNL A   1      40.546  25.684  27.856  1.00  0.00     0.054 A 
BRANCH  80  81
ATOM     81  S   UNL A   1      40.655  24.397  26.583  1.00  0.00     0.124 S 
ATOM     82  O   UNL A   1      39.393  24.568  25.870  1.00  0.00    -0.237 OA
ATOM     83  O   UNL A   1      41.857  24.784  25.847  1.00  0.00    -0.237 OA
ATOM     84  O   UNL A   1      40.777  23.162  27.354  1.00  0.00    -0.744 OA
ENDBRANCH  80  81
ENDBRANCH  52  75
BRANCH  64  85
ATOM     85  C   UNL A   1      43.662  28.516  35.970  1.00  0.00    -0.014 A 
ATOM     86  C   UNL A   1      45.035  28.818  35.934  1.00  0.00     0.010 A 
ATOM     87  C   UNL A   1      43.220  27.411  36.722  1.00  0.00     0.010 A 
ATOM     88  C   UNL A   1      45.954  27.993  36.587  1.00  0.00     0.020 A 
ATOM     89  C   UNL A   1      44.133  26.608  37.408  1.00  0.00     0.020 A 
ATOM     90  C   UNL A   1      45.497  26.890  37.314  1.00  0.00     0.054 A 
BRANCH  90  91
ATOM     91  S   UNL A   1      46.710  25.834  38.152  1.00  0.00     0.124 S 
ATOM     92  O   UNL A   1      47.973  26.424  37.718  1.00  0.00    -0.237 OA
ATOM     93  O   UNL A   1      46.379  26.024  39.562  1.00  0.00    -0.237 OA
ATOM     94  O   UNL A   1      46.431  24.500  37.625  1.00  0.00    -0.744 OA
ENDBRANCH  90  91
ENDBRANCH  64  85
ENDBRANCH  38  39
ENDBRANCH  31  33
ENDBRANCH  30  31
ENDBRANCH  29  30
ENDBRANCH  28  29
ENDBRANCH  27  28
ENDBRANCH   1  27
TORSDOF 23
ENDMDL
MODEL 2
REMARK VINA RESULT:      -9.5      6.592     10.537
REMARK SMILES CC[NH2+][C@]1(C(=O)OCCOCCOC(=O)c2ccc(-c3c4nc(c(-c5ccc(S(=O)(=O)[O-])cc5)c5ccc([nH]5)c(-c5ccc(S(=O)(=O)[O-])cc5)c5nc(c(-c6ccc(S(=O)(=O)[O-])cc6)c6ccc3[nH]6)C=C5)C=C4)cc2)CCC[C@H]1CC[N@H+]1CCC[C@@H](CC)C1
REMARK SMILES IDX 9 1 8 2 7 3 5 4 6 5 4 6 76 7 79 8 77 9 78 10 3 11 2 14 1 15
REMARK SMILES IDX 80 16 81 17 82 18 83 19 89 20 84 22 86 23 85 24 87 25 88 26
REMARK SMILES IDX 10 27 11 28 12 29 13 30 14 31 15 32 16 33 17 34 75 35 18 36
REMARK SMILES IDX 74 37 19 38 20 39 21 40 68 41 22 42 73 43 67 44 69 45 23 46
REMARK SMILES IDX 72 47 66 48 65 49 24 51 54 52 35 53 53 54 36 55 39 56 52 57
REMARK SMILES IDX 70 58 37 59 38 60 51 62 71 63 40 64 25 65 26 66 34 67 27 68
REMARK SMILES IDX 33 69 28 70 29 71 30 72 31 73 32 74 55 75 56 76 64 77 57 78
REMARK SMILES IDX 63 79 58 80 59 81 60 82 61 83 62 84 41 85 42 86 50 87 43 88
REMARK SMILES IDX 49 89 44 90 45 91 46 92 47 93 48 94
REMARK H PARENT 3 12 3 13 82 21 69 50 39 61
REMARK Flexibility Score: inf
ROOT
ATOM      1  C   UNL A   1      37.083  21.981  24.329  1.00  0.00     0.202 C 
ENDROOT
BRANCH   1   2
ATOM      2  C   UNL A   1      36.570  23.026  23.326  1.00  0.00     0.261 C 
BRANCH   2   3
ATOM      3  O   UNL A   1      35.572  23.912  23.871  1.00  0.00    -0.459 OA
BRANCH   3   4
ATOM      4  C   UNL A   1      34.365  23.794  23.264  1.00  0.00     0.368 C 
ATOM      5  O   UNL A   1      34.249  23.317  22.142  1.00  0.00    -0.245 OA
BRANCH   4   6
ATOM      6  C   UNL A   1      33.160  24.210  24.116  1.00  0.00     0.197 C 
ATOM      7  C   UNL A   1      31.817  23.838  23.451  1.00  0.00     0.081 C 
ATOM      8  C   UNL A   1      33.080  23.434  25.466  1.00  0.00     0.068 C 
ATOM      9  C   UNL A   1      30.795  23.863  24.577  1.00  0.00     0.008 C 
ATOM     10  C   UNL A   1      31.579  23.539  25.849  1.00  0.00     0.011 C 
BRANCH   6  11
ATOM     11  N   UNL A   1      33.158  25.709  24.298  1.00  0.00    -0.332 N 
ATOM     12  H   UNL A   1      32.670  25.922  25.167  1.00  0.00     0.347 HD
ATOM     13  H   UNL A   1      34.136  25.997  24.302  1.00  0.00     0.347 HD
BRANCH  11  14
ATOM     14  C   UNL A   1      32.512  26.463  23.216  1.00  0.00     0.257 C 
ATOM     15  C   UNL A   1      31.597  27.536  23.789  1.00  0.00     0.071 C 
ENDBRANCH  11  14
ENDBRANCH   6  11
BRANCH   8  16
ATOM     16  C   UNL A   1      33.531  21.942  25.486  1.00  0.00     0.072 C 
BRANCH  16  17
ATOM     17  C   UNL A   1      32.512  20.855  25.935  1.00  0.00     0.262 C 
BRANCH  17  18
ATOM     18  N   UNL A   1      32.337  19.756  24.979  1.00  0.00    -0.335 N 
ATOM     19  C   UNL A   1      32.531  20.162  23.586  1.00  0.00     0.262 C 
ATOM     20  C   UNL A   1      33.192  18.586  25.287  1.00  0.00     0.265 C 
ATOM     21  H   UNL A   1      31.362  19.478  25.086  1.00  0.00     0.348 HD
ATOM     22  C   UNL A   1      32.180  19.015  22.630  1.00  0.00     0.062 C 
ATOM     23  C   UNL A   1      32.686  17.381  24.470  1.00  0.00     0.044 C 
ATOM     24  C   UNL A   1      32.892  17.708  22.985  1.00  0.00     0.015 C 
BRANCH  23  25
ATOM     25  C   UNL A   1      33.375  16.056  24.848  1.00  0.00     0.006 C 
ATOM     26  C   UNL A   1      32.492  15.158  25.711  1.00  0.00     0.004 C 
ENDBRANCH  23  25
ENDBRANCH  17  18
ENDBRANCH  16  17
ENDBRANCH   8  16
ENDBRANCH   4   6
ENDBRANCH   3   4
ENDBRANCH   2   3
ENDBRANCH   1   2
BRANCH   1  27
ATOM     27  O   UNL A   1      37.389  22.379  25.669  1.00  0.00    -0.374 OA
BRANCH  27  28
ATOM     28  C   UNL A   1      38.748  22.288  26.097  1.00  0.00     0.202 C 
BRANCH  28  29
ATOM     29  C   UNL A   1      39.440  20.928  26.077  1.00  0.00     0.261 C 
BRANCH  29  30
ATOM     30  O   UNL A   1      40.207  20.722  27.260  1.00  0.00    -0.460 OA
BRANCH  30  31
ATOM     31  C   UNL A   1      41.433  20.223  26.996  1.00  0.00     0.338 C 
ATOM     32  O   UNL A   1      41.714  19.073  26.685  1.00  0.00    -0.246 OA
BRANCH  31  33
ATOM     33  C   UNL A   1      42.400  21.324  26.943  1.00  0.00     0.060 A 
ATOM     34  C   UNL A   1      42.753  21.898  28.168  1.00  0.00     0.016 A 
ATOM     35  C   UNL A   1      42.931  21.796  25.738  1.00  0.00     0.016 A 
ATOM     36  C   UNL A   1      43.543  23.031  28.186  1.00  0.00     0.010 A 
ATOM     37  C   UNL A   1      43.728  22.939  25.758  1.00  0.00     0.010 A 
ATOM     38  C   UNL A   1      43.968  23.593  26.976  1.00  0.00    -0.014 A 
BRANCH  38  39
ATOM     39  C   UNL A   1      44.456  24.984  27.010  1.00  0.00     0.031 A 
ATOM     40  C   UNL A   1      43.492  26.062  27.418  1.00  0.00     0.074 A 
ATOM     41  C   UNL A   1      45.759  25.239  26.812  1.00  0.00     0.049 A 
ATOM     42  N   UNL A   1      43.718  27.330  27.641  1.00  0.00    -0.248 NA
ATOM     43  C   UNL A   1      42.087  25.661  27.609  1.00  0.00     0.031 C 
ATOM     44  C   UNL A   1      46.771  24.240  26.466  1.00  0.00     0.029 A 
ATOM     45  N   UNL A   1      46.456  26.412  26.906  1.00  0.00    -0.354 N 
ATOM     46  C   UNL A   1      42.488  27.873  27.996  1.00  0.00     0.074 A 
ATOM     47  C   UNL A   1      41.512  26.812  27.919  1.00  0.00     0.031 C 
ATOM     48  C   UNL A   1      47.969  24.844  26.395  1.00  0.00     0.029 A 
ATOM     49  C   UNL A   1      47.799  26.268  26.662  1.00  0.00     0.049 A 
ATOM     50  H   UNL A   1      46.036  27.274  27.126  1.00  0.00     0.167 HD
ATOM     51  C   UNL A   1      42.204  29.144  28.362  1.00  0.00     0.031 A 
ATOM     52  C   UNL A   1      48.777  27.192  26.657  1.00  0.00     0.031 A 
ATOM     53  C   UNL A   1      43.192  30.188  28.419  1.00  0.00     0.049 A 
ATOM     54  C   UNL A   1      48.425  28.612  27.011  1.00  0.00     0.074 A 
ATOM     55  C   UNL A   1      43.026  31.514  28.776  1.00  0.00     0.029 A 
ATOM     56  N   UNL A   1      44.534  30.021  28.103  1.00  0.00    -0.354 N 
ATOM     57  N   UNL A   1      47.261  29.112  27.357  1.00  0.00    -0.248 NA
ATOM     58  C   UNL A   1      49.522  29.587  26.993  1.00  0.00     0.031 C 
ATOM     59  C   UNL A   1      44.254  32.162  28.615  1.00  0.00     0.029 A 
ATOM     60  C   UNL A   1      45.203  31.226  28.231  1.00  0.00     0.049 A 
ATOM     61  H   UNL A   1      44.948  29.172  27.831  1.00  0.00     0.167 HD
ATOM     62  C   UNL A   1      47.490  30.457  27.624  1.00  0.00     0.074 A 
ATOM     63  C   UNL A   1      48.909  30.681  27.422  1.00  0.00     0.031 C 
ATOM     64  C   UNL A   1      46.614  31.421  28.006  1.00  0.00     0.031 A 
BRANCH  51  65
ATOM     65  C   UNL A   1      40.770  29.477  28.680  1.00  0.00    -0.014 A 
ATOM     66  C   UNL A   1      40.383  29.935  29.953  1.00  0.00     0.010 A 
ATOM     67  C   UNL A   1      39.792  29.352  27.675  1.00  0.00     0.010 A 
ATOM     68  C   UNL A   1      39.043  30.229  30.224  1.00  0.00     0.020 A 
ATOM     69  C   UNL A   1      38.457  29.674  27.934  1.00  0.00     0.020 A 
ATOM     70  C   UNL A   1      38.088  30.098  29.212  1.00  0.00     0.054 A 
BRANCH  70  71
ATOM     71  S   UNL A   1      36.363  30.516  29.581  1.00  0.00     0.124 S 
ATOM     72  O   UNL A   1      36.480  31.889  30.065  1.00  0.00    -0.237 OA
ATOM     73  O   UNL A   1      35.712  30.361  28.284  1.00  0.00    -0.237 OA
ATOM     74  O   UNL A   1      35.975  29.533  30.591  1.00  0.00    -0.744 OA
ENDBRANCH  70  71
ENDBRANCH  51  65
BRANCH  52  75
ATOM     75  C   UNL A   1      50.166  26.799  26.297  1.00  0.00    -0.014 A 
ATOM     76  C   UNL A   1      51.091  26.413  27.282  1.00  0.00     0.010 A 
ATOM     77  C   UNL A   1      50.564  26.792  24.947  1.00  0.00     0.010 A 
ATOM     78  C   UNL A   1      52.392  26.047  26.925  1.00  0.00     0.020 A 
ATOM     79  C   UNL A   1      51.853  26.395  24.583  1.00  0.00     0.020 A 
ATOM     80  C   UNL A   1      52.764  26.037  25.577  1.00  0.00     0.054 A 
BRANCH  80  81
ATOM     81  S   UNL A   1      54.442  25.511  25.133  1.00  0.00     0.124 S 
ATOM     82  O   UNL A   1      55.218  25.968  26.282  1.00  0.00    -0.237 OA
ATOM     83  O   UNL A   1      54.293  24.063  25.004  1.00  0.00    -0.237 OA
ATOM     84  O   UNL A   1      54.702  26.216  23.880  1.00  0.00    -0.744 OA
ENDBRANCH  80  81
ENDBRANCH  52  75
BRANCH  64  85
ATOM     85  C   UNL A   1      47.179  32.794  28.257  1.00  0.00    -0.014 A 
ATOM     86  C   UNL A   1      47.653  33.172  29.526  1.00  0.00     0.010 A 
ATOM     87  C   UNL A   1      47.248  33.715  27.195  1.00  0.00     0.010 A 
ATOM     88  C   UNL A   1      48.129  34.467  29.743  1.00  0.00     0.020 A 
ATOM     89  C   UNL A   1      47.759  34.998  27.400  1.00  0.00     0.020 A 
ATOM     90  C   UNL A   1      48.172  35.374  28.679  1.00  0.00     0.054 A 
BRANCH  90  91
ATOM     91  S   UNL A   1      48.793  37.049  28.986  1.00  0.00     0.124 S 
ATOM     92  O   UNL A   1      48.509  37.220  30.408  1.00  0.00    -0.237 OA
ATOM     93  O   UNL A   1      50.207  36.935  28.636  1.00  0.00    -0.237 OA
ATOM     94  O   UNL A   1      47.999  37.883  28.087  1.00  0.00    -0.744 OA
ENDBRANCH  90  91
ENDBRANCH  64  85
ENDBRANCH  38  39
ENDBRANCH  31  33
ENDBRANCH  30  31
ENDBRANCH  29  30
ENDBRANCH  28  29
ENDBRANCH  27  28
ENDBRANCH   1  27
TORSDOF 23
ENDMDL
MODEL 3
REMARK VINA RESULT:      -9.3      2.045      8.710
REMARK SMILES CC[NH2+][C@]1(C(=O)OCCOCCOC(=O)c2ccc(-c3c4nc(c(-c5ccc(S(=O)(=O)[O-])cc5)c5ccc([nH]5)c(-c5ccc(S(=O)(=O)[O-])cc5)c5nc(c(-c6ccc(S(=O)(=O)[O-])cc6)c6ccc3[nH]6)C=C5)C=C4)cc2)CCC[C@H]1CC[N@H+]1CCC[C@@H](CC)C1
REMARK SMILES IDX 9 1 8 2 7 3 5 4 6 5 4 6 76 7 79 8 77 9 78 10 3 11 2 14 1 15
REMARK SMILES IDX 80 16 81 17 82 18 83 19 89 20 84 22 86 23 85 24 87 25 88 26
REMARK SMILES IDX 10 27 11 28 12 29 13 30 14 31 15 32 16 33 17 34 75 35 18 36
REMARK SMILES IDX 74 37 19 38 20 39 21 40 68 41 22 42 73 43 67 44 69 45 23 46
REMARK SMILES IDX 72 47 66 48 65 49 24 51 54 52 35 53 53 54 36 55 39 56 52 57
REMARK SMILES IDX 70 58 37 59 38 60 51 62 71 63 40 64 25 65 26 66 34 67 27 68
REMARK SMILES IDX 33 69 28 70 29 71 30 72 31 73 32 74 55 75 56 76 64 77 57 78
REMARK SMILES IDX 63 79 58 80 59 81 60 82 61 83 62 84 41 85 42 86 50 87 43 88
REMARK SMILES IDX 49 89 44 90 45 91 46 92 47 93 48 94
REMARK H PARENT 3 12 3 13 82 21 69 50 39 61
REMARK Flexibility Score: inf
ROOT
ATOM      1  C   UNL A   1      37.239  21.651  25.224  1.00  0.00     0.202 C 
ENDROOT
BRANCH   1   2
ATOM      2  C   UNL A   1      36.652  23.071  25.262  1.00  0.00     0.261 C 
BRANCH   2   3
ATOM      3  O   UNL A   1      35.507  23.248  24.406  1.00  0.00    -0.459 OA
BRANCH   3   4
ATOM      4  C   UNL A   1      34.355  23.461  25.091  1.00  0.00     0.368 C 
ATOM      5  O   UNL A   1      34.350  23.681  26.295  1.00  0.00    -0.245 OA
BRANCH   4   6
ATOM      6  C   UNL A   1      33.083  23.502  24.236  1.00  0.00     0.197 C 
ATOM      7  C   UNL A   1      31.830  23.850  25.069  1.00  0.00     0.081 C 
ATOM      8  C   UNL A   1      33.102  24.651  23.183  1.00  0.00     0.068 C 
ATOM      9  C   UNL A   1      30.796  24.315  24.056  1.00  0.00     0.008 C 
ATOM     10  C   UNL A   1      31.596  24.888  22.887  1.00  0.00     0.011 C 
BRANCH   6  11
ATOM     11  N   UNL A   1      32.838  22.145  23.622  1.00  0.00    -0.332 N 
ATOM     12  H   UNL A   1      31.863  22.102  23.328  1.00  0.00     0.347 HD
ATOM     13  H   UNL A   1      33.499  22.058  22.850  1.00  0.00     0.347 HD
BRANCH  11  14
ATOM     14  C   UNL A   1      33.096  21.007  24.513  1.00  0.00     0.257 C 
ATOM     15  C   UNL A   1      32.836  19.695  23.787  1.00  0.00     0.071 C 
ENDBRANCH  11  14
ENDBRANCH   6  11
BRANCH   8  16
ATOM     16  C   UNL A   1      33.784  25.998  23.573  1.00  0.00     0.072 C 
BRANCH  16  17
ATOM     17  C   UNL A   1      32.955  27.311  23.492  1.00  0.00     0.262 C 
BRANCH  17  18
ATOM     18  N   UNL A   1      32.736  27.970  24.785  1.00  0.00    -0.335 N 
ATOM     19  C   UNL A   1      31.840  27.225  25.671  1.00  0.00     0.262 C 
ATOM     20  C   UNL A   1      34.000  28.282  25.491  1.00  0.00     0.265 C 
ATOM     21  H   UNL A   1      32.276  28.848  24.549  1.00  0.00     0.348 HD
ATOM     22  C   UNL A   1      31.525  28.037  26.934  1.00  0.00     0.062 C 
ATOM     23  C   UNL A   1      33.692  29.272  26.633  1.00  0.00     0.044 C 
ATOM     24  C   UNL A   1      32.782  28.552  27.637  1.00  0.00     0.015 C 
BRANCH  23  25
ATOM     25  C   UNL A   1      34.955  29.821  27.321  1.00  0.00     0.006 C 
ATOM     26  C   UNL A   1      34.783  31.256  27.812  1.00  0.00     0.004 C 
ENDBRANCH  23  25
ENDBRANCH  17  18
ENDBRANCH  16  17
ENDBRANCH   8  16
ENDBRANCH   4   6
ENDBRANCH   3   4
ENDBRANCH   2   3
ENDBRANCH   1   2
BRANCH   1  27
ATOM     27  O   UNL A   1      38.374  21.335  26.038  1.00  0.00    -0.374 OA
BRANCH  27  28
ATOM     28  C   UNL A   1      39.603  22.004  25.754  1.00  0.00     0.202 C 
BRANCH  28  29
ATOM     29  C   UNL A   1      40.599  22.233  26.887  1.00  0.00     0.261 C 
BRANCH  29  30
ATOM     30  O   UNL A   1      40.318  23.444  27.584  1.00  0.00    -0.460 OA
BRANCH  30  31
ATOM     31  C   UNL A   1      41.038  24.485  27.116  1.00  0.00     0.338 C 
ATOM     32  O   UNL A   1      41.729  24.515  26.105  1.00  0.00    -0.246 OA
BRANCH  31  33
ATOM     33  C   UNL A   1      40.723  25.681  27.903  1.00  0.00     0.060 A 
ATOM     34  C   UNL A   1      41.654  26.723  27.845  1.00  0.00     0.016 A 
ATOM     35  C   UNL A   1      39.569  25.778  28.689  1.00  0.00     0.016 A 
ATOM     36  C   UNL A   1      41.500  27.819  28.671  1.00  0.00     0.010 A 
ATOM     37  C   UNL A   1      39.415  26.885  29.521  1.00  0.00     0.010 A 
ATOM     38  C   UNL A   1      40.420  27.864  29.563  1.00  0.00    -0.014 A 
BRANCH  38  39
ATOM     39  C   UNL A   1      40.502  28.824  30.678  1.00  0.00     0.031 A 
ATOM     40  C   UNL A   1      39.486  29.930  30.735  1.00  0.00     0.074 A 
ATOM     41  C   UNL A   1      41.376  28.616  31.676  1.00  0.00     0.049 A 
ATOM     42  N   UNL A   1      39.279  30.812  31.677  1.00  0.00    -0.248 NA
ATOM     43  C   UNL A   1      38.576  30.058  29.583  1.00  0.00     0.031 C 
ATOM     44  C   UNL A   1      42.358  27.532  31.723  1.00  0.00     0.029 A 
ATOM     45  N   UNL A   1      41.555  29.289  32.852  1.00  0.00    -0.354 N 
ATOM     46  C   UNL A   1      38.221  31.596  31.230  1.00  0.00     0.074 A 
ATOM     47  C   UNL A   1      37.855  31.116  29.919  1.00  0.00     0.031 C 
ATOM     48  C   UNL A   1      43.027  27.604  32.886  1.00  0.00     0.029 A 
ATOM     49  C   UNL A   1      42.539  28.751  33.644  1.00  0.00     0.049 A 
ATOM     50  H   UNL A   1      41.030  30.082  33.105  1.00  0.00     0.167 HD
ATOM     51  C   UNL A   1      37.606  32.620  31.866  1.00  0.00     0.031 A 
ATOM     52  C   UNL A   1      42.989  29.150  34.847  1.00  0.00     0.031 A 
ATOM     53  C   UNL A   1      37.997  33.090  33.168  1.00  0.00     0.049 A 
ATOM     54  C   UNL A   1      42.326  30.328  35.509  1.00  0.00     0.074 A 
ATOM     55  C   UNL A   1      37.450  34.117  33.914  1.00  0.00     0.029 A 
ATOM     56  N   UNL A   1      39.041  32.562  33.915  1.00  0.00    -0.354 N 
ATOM     57  N   UNL A   1      41.318  31.054  35.083  1.00  0.00    -0.248 NA
ATOM     58  C   UNL A   1      42.849  30.728  36.820  1.00  0.00     0.031 C 
ATOM     59  C   UNL A   1      38.203  34.251  35.084  1.00  0.00     0.029 A 
ATOM     60  C   UNL A   1      39.173  33.259  35.103  1.00  0.00     0.049 A 
ATOM     61  H   UNL A   1      39.603  31.802  33.641  1.00  0.00     0.167 HD
ATOM     62  C   UNL A   1      41.068  31.981  36.086  1.00  0.00     0.074 A 
ATOM     63  C   UNL A   1      42.016  31.705  37.148  1.00  0.00     0.031 C 
ATOM     64  C   UNL A   1      40.139  32.970  36.134  1.00  0.00     0.031 A 
BRANCH  51  65
ATOM     65  C   UNL A   1      36.486  33.321  31.141  1.00  0.00    -0.014 A 
ATOM     66  C   UNL A   1      35.199  33.430  31.701  1.00  0.00     0.010 A 
ATOM     67  C   UNL A   1      36.734  33.905  29.885  1.00  0.00     0.010 A 
ATOM     68  C   UNL A   1      34.176  34.079  31.003  1.00  0.00     0.020 A 
ATOM     69  C   UNL A   1      35.721  34.581  29.199  1.00  0.00     0.020 A 
ATOM     70  C   UNL A   1      34.444  34.652  29.757  1.00  0.00     0.054 A 
BRANCH  70  71
ATOM     71  S   UNL A   1      33.106  35.515  28.888  1.00  0.00     0.124 S 
ATOM     72  O   UNL A   1      32.256  35.949  29.994  1.00  0.00    -0.237 OA
ATOM     73  O   UNL A   1      33.816  36.581  28.187  1.00  0.00    -0.237 OA
ATOM     74  O   UNL A   1      32.528  34.485  28.027  1.00  0.00    -0.744 OA
ENDBRANCH  70  71
ENDBRANCH  51  65
BRANCH  52  75
ATOM     75  C   UNL A   1      44.124  28.432  35.488  1.00  0.00    -0.014 A 
ATOM     76  C   UNL A   1      43.904  27.324  36.325  1.00  0.00     0.010 A 
ATOM     77  C   UNL A   1      45.446  28.851  35.242  1.00  0.00     0.010 A 
ATOM     78  C   UNL A   1      44.984  26.663  36.919  1.00  0.00     0.020 A 
ATOM     79  C   UNL A   1      46.528  28.172  35.807  1.00  0.00     0.020 A 
ATOM     80  C   UNL A   1      46.289  27.088  36.653  1.00  0.00     0.054 A 
BRANCH  80  81
ATOM     81  S   UNL A   1      47.675  26.185  37.394  1.00  0.00     0.124 S 
ATOM     82  O   UNL A   1      48.195  25.437  36.253  1.00  0.00    -0.237 OA
ATOM     83  O   UNL A   1      48.527  27.265  37.887  1.00  0.00    -0.237 OA
ATOM     84  O   UNL A   1      47.042  25.379  38.435  1.00  0.00    -0.744 OA
ENDBRANCH  80  81
ENDBRANCH  52  75
BRANCH  64  85
ATOM     85  C   UNL A   1      40.089  33.799  37.390  1.00  0.00    -0.014 A 
ATOM     86  C   UNL A   1      39.238  33.464  38.458  1.00  0.00     0.010 A 
ATOM     87  C   UNL A   1      40.924  34.926  37.504  1.00  0.00     0.010 A 
ATOM     88  C   UNL A   1      39.179  34.276  39.593  1.00  0.00     0.020 A 
ATOM     89  C   UNL A   1      40.895  35.718  38.653  1.00  0.00     0.020 A 
ATOM     90  C   UNL A   1      40.003  35.403  39.679  1.00  0.00     0.054 A 
BRANCH  90  91
ATOM     91  S   UNL A   1      39.906  36.442  41.162  1.00  0.00     0.124 S 
ATOM     92  O   UNL A   1      41.195  37.126  41.135  1.00  0.00    -0.237 OA
ATOM     93  O   UNL A   1      38.742  37.282  40.888  1.00  0.00    -0.237 OA
ATOM     94  O   UNL A   1      39.733  35.481  42.248  1.00  0.00    -0.744 OA
ENDBRANCH  90  91
ENDBRANCH  64  85
ENDBRANCH  38  39
ENDBRANCH  31  33
ENDBRANCH  30  31
ENDBRANCH  29  30
ENDBRANCH  28  29
ENDBRANCH  27  28
ENDBRANCH   1  27
TORSDOF 23
ENDMDL
