MODEL 1
REMARK VINA RESULT:     -10.6      0.000      0.000
REMARK SMILES CCn1ccc([C@@H](C)NC(=O)[C@H](C)n2ccc(C(=O)OCCOCCOC(=O)c3ccc(-c4c5nc(c(-c6ccc(S(=O)(=O)[O-])cc6)c6ccc([nH]6)c(-c6ccc(S(=O)(=O)[O-])cc6)c6nc(c(-c7ccc(S(=O)(=O)[O-])cc7)c7ccc4[nH]7)C=C6)C=C5)cc3)n2)n1
REMARK SMILES IDX 22 1 21 2 20 3 18 4 19 5 17 6 14 7 15 8 89 9 16 10 12 11
REMARK SMILES IDX 13 12 10 13 9 14 11 16 7 17 8 18 6 19 3 20 4 21 90 22 5 23
REMARK SMILES IDX 2 24 1 25 23 26 24 27 25 28 26 29 27 30 28 31 29 32 30 33
REMARK SMILES IDX 88 34 31 35 87 36 32 37 33 38 34 39 81 40 35 41 86 42 80 43
REMARK SMILES IDX 82 44 36 45 85 46 79 47 78 48 37 50 67 51 48 52 66 53 49 54
REMARK SMILES IDX 52 55 65 56 83 57 50 58 51 59 64 61 84 62 53 63 38 64 39 65
REMARK SMILES IDX 47 66 40 67 46 68 41 69 42 70 43 71 44 72 45 73 68 74 69 75
REMARK SMILES IDX 77 76 70 77 76 78 71 79 72 80 73 81 74 82 75 83 54 84 55 85
REMARK SMILES IDX 63 86 56 87 62 88 57 89 58 90 59 91 60 92 61 93
REMARK H PARENT 9 15 82 49 52 60
REMARK Flexibility Score: inf
ROOT
ATOM      1  C   UNL A   1      36.708  21.247  24.361  1.00  0.00     0.202 C 
ENDROOT
BRANCH   1   2
ATOM      2  C   UNL A   1      36.859  22.677  23.830  1.00  0.00     0.261 C 
BRANCH   2   3
ATOM      3  O   UNL A   1      35.729  23.524  24.085  1.00  0.00    -0.458 OA
BRANCH   3   4
ATOM      4  C   UNL A   1      35.574  23.891  25.395  1.00  0.00     0.358 C 
ATOM      5  O   UNL A   1      36.505  24.183  26.141  1.00  0.00    -0.244 OA
BRANCH   4   6
ATOM      6  C   UNL A   1      34.176  24.083  25.807  1.00  0.00     0.170 A 
ATOM      7  N   UNL A   1      32.210  24.884  26.094  1.00  0.00    -0.260 N 
ATOM      8  C   UNL A   1      32.171  23.633  26.647  1.00  0.00     0.110 A 
ATOM      9  N   UNL A   1      33.430  25.181  25.574  1.00  0.00    -0.165 NA
ATOM     10  C   UNL A   1      33.425  23.104  26.505  1.00  0.00     0.057 A 
BRANCH   7  11
ATOM     11  C   UNL A   1      31.093  25.805  25.889  1.00  0.00     0.193 C 
ATOM     12  C   UNL A   1      29.704  25.295  26.295  1.00  0.00     0.044 C 
BRANCH  11  13
ATOM     13  C   UNL A   1      31.351  27.212  26.413  1.00  0.00     0.245 C 
ATOM     14  N   UNL A   1      31.855  28.219  25.653  1.00  0.00    -0.346 N 
ATOM     15  H   UNL A   1      32.096  29.027  26.163  1.00  0.00     0.164 HD
ATOM     16  O   UNL A   1      31.211  27.457  27.618  1.00  0.00    -0.273 OA
BRANCH  14  17
ATOM     17  C   UNL A   1      32.103  28.322  24.220  1.00  0.00     0.130 C 
ATOM     18  C   UNL A   1      33.443  29.001  23.954  1.00  0.00     0.038 C 
BRANCH  17  19
ATOM     19  C   UNL A   1      30.956  29.062  23.579  1.00  0.00     0.084 A 
ATOM     20  N   UNL A   1      29.403  30.498  23.347  1.00  0.00    -0.273 N 
ATOM     21  C   UNL A   1      29.380  29.775  22.190  1.00  0.00     0.109 A 
ATOM     22  N   UNL A   1      30.360  30.090  24.207  1.00  0.00    -0.176 NA
ATOM     23  C   UNL A   1      30.359  28.821  22.315  1.00  0.00     0.047 A 
BRANCH  20  24
ATOM     24  C   UNL A   1      28.650  31.702  23.636  1.00  0.00     0.141 C 
ATOM     25  C   UNL A   1      28.619  32.739  22.531  1.00  0.00     0.029 C 
ENDBRANCH  20  24
ENDBRANCH  17  19
ENDBRANCH  14  17
ENDBRANCH  11  13
ENDBRANCH   7  11
ENDBRANCH   4   6
ENDBRANCH   3   4
ENDBRANCH   2   3
ENDBRANCH   1   2
BRANCH   1  26
ATOM     26  O   UNL A   1      37.782  20.666  25.096  1.00  0.00    -0.374 OA
BRANCH  26  27
ATOM     27  C   UNL A   1      38.761  21.508  25.690  1.00  0.00     0.202 C 
BRANCH  27  28
ATOM     28  C   UNL A   1      40.034  20.896  26.249  1.00  0.00     0.261 C 
BRANCH  28  29
ATOM     29  O   UNL A   1      40.862  21.802  26.943  1.00  0.00    -0.460 OA
BRANCH  29  30
ATOM     30  C   UNL A   1      41.885  22.236  26.174  1.00  0.00     0.338 C 
ATOM     31  O   UNL A   1      42.591  21.563  25.442  1.00  0.00    -0.246 OA
BRANCH  30  32
ATOM     32  C   UNL A   1      42.166  23.621  26.539  1.00  0.00     0.060 A 
ATOM     33  C   UNL A   1      42.926  23.813  27.693  1.00  0.00     0.016 A 
ATOM     34  C   UNL A   1      41.445  24.660  25.927  1.00  0.00     0.016 A 
ATOM     35  C   UNL A   1      42.835  25.024  28.332  1.00  0.00     0.010 A 
ATOM     36  C   UNL A   1      41.335  25.861  26.579  1.00  0.00     0.010 A 
ATOM     37  C   UNL A   1      41.983  26.000  27.802  1.00  0.00    -0.014 A 
BRANCH  37  38
ATOM     38  C   UNL A   1      41.869  27.237  28.527  1.00  0.00     0.031 A 
ATOM     39  C   UNL A   1      43.037  28.119  28.346  1.00  0.00     0.074 A 
ATOM     40  C   UNL A   1      40.762  27.580  29.203  1.00  0.00     0.049 A 
ATOM     41  N   UNL A   1      43.963  28.387  29.203  1.00  0.00    -0.248 NA
ATOM     42  C   UNL A   1      43.307  28.601  26.982  1.00  0.00     0.031 C 
ATOM     43  C   UNL A   1      39.441  26.951  29.169  1.00  0.00     0.029 A 
ATOM     44  N   UNL A   1      40.571  28.672  29.980  1.00  0.00    -0.354 N 
ATOM     45  C   UNL A   1      44.829  29.249  28.545  1.00  0.00     0.074 A 
ATOM     46  C   UNL A   1      44.501  29.165  27.144  1.00  0.00     0.031 C 
ATOM     47  C   UNL A   1      38.538  27.812  29.693  1.00  0.00     0.029 A 
ATOM     48  C   UNL A   1      39.242  28.977  30.208  1.00  0.00     0.049 A 
ATOM     49  H   UNL A   1      41.314  29.203  30.349  1.00  0.00     0.167 HD
ATOM     50  C   UNL A   1      45.567  30.173  29.217  1.00  0.00     0.031 A 
ATOM     51  C   UNL A   1      38.775  30.161  30.678  1.00  0.00     0.031 A 
ATOM     52  C   UNL A   1      45.614  29.901  30.630  1.00  0.00     0.049 A 
ATOM     53  C   UNL A   1      39.917  30.856  31.335  1.00  0.00     0.074 A 
ATOM     54  C   UNL A   1      46.055  28.840  31.396  1.00  0.00     0.029 A 
ATOM     55  N   UNL A   1      44.773  30.631  31.439  1.00  0.00    -0.354 N 
ATOM     56  N   UNL A   1      40.503  30.416  32.415  1.00  0.00    -0.248 NA
ATOM     57  C   UNL A   1      40.706  31.789  30.543  1.00  0.00     0.031 C 
ATOM     58  C   UNL A   1      45.107  28.728  32.455  1.00  0.00     0.029 A 
ATOM     59  C   UNL A   1      44.173  29.756  32.310  1.00  0.00     0.049 A 
ATOM     60  H   UNL A   1      44.629  31.605  31.401  1.00  0.00     0.167 HD
ATOM     61  C   UNL A   1      41.856  30.673  32.225  1.00  0.00     0.074 A 
ATOM     62  C   UNL A   1      41.907  31.607  31.102  1.00  0.00     0.031 C 
ATOM     63  C   UNL A   1      42.819  29.898  32.809  1.00  0.00     0.031 A 
BRANCH  50  64
ATOM     64  C   UNL A   1      45.887  31.526  28.640  1.00  0.00    -0.014 A 
ATOM     65  C   UNL A   1      44.996  32.592  28.861  1.00  0.00     0.010 A 
ATOM     66  C   UNL A   1      46.893  31.722  27.668  1.00  0.00     0.010 A 
ATOM     67  C   UNL A   1      45.074  33.767  28.101  1.00  0.00     0.020 A 
ATOM     68  C   UNL A   1      47.010  32.905  26.942  1.00  0.00     0.020 A 
ATOM     69  C   UNL A   1      46.074  33.907  27.137  1.00  0.00     0.054 A 
BRANCH  69  70
ATOM     70  S   UNL A   1      46.097  35.373  26.080  1.00  0.00     0.124 S 
ATOM     71  O   UNL A   1      47.017  36.245  26.802  1.00  0.00    -0.237 OA
ATOM     72  O   UNL A   1      46.590  34.834  24.816  1.00  0.00    -0.237 OA
ATOM     73  O   UNL A   1      44.701  35.806  26.065  1.00  0.00    -0.744 OA
ENDBRANCH  69  70
ENDBRANCH  50  64
BRANCH  51  74
ATOM     74  C   UNL A   1      37.540  30.856  30.238  1.00  0.00    -0.014 A 
ATOM     75  C   UNL A   1      36.546  31.226  31.161  1.00  0.00     0.010 A 
ATOM     76  C   UNL A   1      37.455  31.392  28.934  1.00  0.00     0.010 A 
ATOM     77  C   UNL A   1      35.538  32.138  30.807  1.00  0.00     0.020 A 
ATOM     78  C   UNL A   1      36.448  32.291  28.571  1.00  0.00     0.020 A 
ATOM     79  C   UNL A   1      35.505  32.678  29.518  1.00  0.00     0.054 A 
BRANCH  79  80
ATOM     80  S   UNL A   1      34.301  33.979  29.118  1.00  0.00     0.124 S 
ATOM     81  O   UNL A   1      35.156  35.040  28.593  1.00  0.00    -0.237 OA
ATOM     82  O   UNL A   1      33.436  33.321  28.142  1.00  0.00    -0.237 OA
ATOM     83  O   UNL A   1      33.671  34.271  30.404  1.00  0.00    -0.744 OA
ENDBRANCH  79  80
ENDBRANCH  51  74
BRANCH  63  84
ATOM     84  C   UNL A   1      42.403  28.926  33.892  1.00  0.00    -0.014 A 
ATOM     85  C   UNL A   1      41.839  27.661  33.632  1.00  0.00     0.010 A 
ATOM     86  C   UNL A   1      42.751  29.241  35.219  1.00  0.00     0.010 A 
ATOM     87  C   UNL A   1      41.605  26.751  34.674  1.00  0.00     0.020 A 
ATOM     88  C   UNL A   1      42.537  28.332  36.258  1.00  0.00     0.020 A 
ATOM     89  C   UNL A   1      41.958  27.094  35.983  1.00  0.00     0.054 A 
BRANCH  89  90
ATOM     90  S   UNL A   1      41.701  25.893  37.320  1.00  0.00     0.124 S 
ATOM     91  O   UNL A   1      41.916  24.616  36.646  1.00  0.00    -0.237 OA
ATOM     92  O   UNL A   1      42.721  26.268  38.297  1.00  0.00    -0.237 OA
ATOM     93  O   UNL A   1      40.324  26.139  37.750  1.00  0.00    -0.744 OA
ENDBRANCH  89  90
ENDBRANCH  63  84
ENDBRANCH  37  38
ENDBRANCH  30  32
ENDBRANCH  29  30
ENDBRANCH  28  29
ENDBRANCH  27  28
ENDBRANCH  26  27
ENDBRANCH   1  26
TORSDOF 22
ENDMDL
MODEL 2
REMARK VINA RESULT:     -10.1      1.480      2.578
REMARK SMILES CCn1ccc([C@@H](C)NC(=O)[C@H](C)n2ccc(C(=O)OCCOCCOC(=O)c3ccc(-c4c5nc(c(-c6ccc(S(=O)(=O)[O-])cc6)c6ccc([nH]6)c(-c6ccc(S(=O)(=O)[O-])cc6)c6nc(c(-c7ccc(S(=O)(=O)[O-])cc7)c7ccc4[nH]7)C=C6)C=C5)cc3)n2)n1
REMARK SMILES IDX 22 1 21 2 20 3 18 4 19 5 17 6 14 7 15 8 89 9 16 10 12 11
REMARK SMILES IDX 13 12 10 13 9 14 11 16 7 17 8 18 6 19 3 20 4 21 90 22 5 23
REMARK SMILES IDX 2 24 1 25 23 26 24 27 25 28 26 29 27 30 28 31 29 32 30 33
REMARK SMILES IDX 88 34 31 35 87 36 32 37 33 38 34 39 81 40 35 41 86 42 80 43
REMARK SMILES IDX 82 44 36 45 85 46 79 47 78 48 37 50 67 51 48 52 66 53 49 54
REMARK SMILES IDX 52 55 65 56 83 57 50 58 51 59 64 61 84 62 53 63 38 64 39 65
REMARK SMILES IDX 47 66 40 67 46 68 41 69 42 70 43 71 44 72 45 73 68 74 69 75
REMARK SMILES IDX 77 76 70 77 76 78 71 79 72 80 73 81 74 82 75 83 54 84 55 85
REMARK SMILES IDX 63 86 56 87 62 88 57 89 58 90 59 91 60 92 61 93
REMARK H PARENT 9 15 82 49 52 60
REMARK Flexibility Score: inf
ROOT
ATOM      1  C   UNL A   1      37.096  21.127  24.937  1.00  0.00     0.202 C 
ENDROOT
BRANCH   1   2
ATOM      2  C   UNL A   1      35.654  21.549  24.630  1.00  0.00     0.261 C 
BRANCH   2   3
ATOM      3  O   UNL A   1      35.544  22.708  23.791  1.00  0.00    -0.458 OA
BRANCH   3   4
ATOM      4  C   UNL A   1      35.010  23.809  24.405  1.00  0.00     0.358 C 
ATOM      5  O   UNL A   1      35.356  24.214  25.511  1.00  0.00    -0.244 OA
BRANCH   4   6
ATOM      6  C   UNL A   1      34.098  24.590  23.557  1.00  0.00     0.170 A 
ATOM      7  N   UNL A   1      33.042  26.196  22.610  1.00  0.00    -0.260 N 
ATOM      8  C   UNL A   1      32.619  25.062  21.970  1.00  0.00     0.110 A 
ATOM      9  N   UNL A   1      33.947  25.929  23.588  1.00  0.00    -0.165 NA
ATOM     10  C   UNL A   1      33.257  24.013  22.574  1.00  0.00     0.057 A 
BRANCH   7  11
ATOM     11  C   UNL A   1      32.744  27.583  22.258  1.00  0.00     0.193 C 
ATOM     12  C   UNL A   1      31.260  27.972  22.211  1.00  0.00     0.044 C 
BRANCH  11  13
ATOM     13  C   UNL A   1      33.568  28.605  23.030  1.00  0.00     0.245 C 
ATOM     14  N   UNL A   1      33.097  29.306  24.095  1.00  0.00    -0.346 N 
ATOM     15  H   UNL A   1      33.696  30.025  24.401  1.00  0.00     0.164 HD
ATOM     16  O   UNL A   1      34.694  28.922  22.626  1.00  0.00    -0.273 OA
BRANCH  14  17
ATOM     17  C   UNL A   1      31.867  29.185  24.868  1.00  0.00     0.130 C 
ATOM     18  C   UNL A   1      31.716  30.362  25.827  1.00  0.00     0.038 C 
BRANCH  17  19
ATOM     19  C   UNL A   1      31.873  27.862  25.591  1.00  0.00     0.084 A 
ATOM     20  N   UNL A   1      31.209  25.938  26.215  1.00  0.00    -0.273 N 
ATOM     21  C   UNL A   1      32.407  26.111  26.845  1.00  0.00     0.109 A 
ATOM     22  N   UNL A   1      30.864  26.987  25.437  1.00  0.00    -0.176 NA
ATOM     23  C   UNL A   1      32.855  27.357  26.480  1.00  0.00     0.047 A 
BRANCH  20  24
ATOM     24  C   UNL A   1      30.412  24.728  26.176  1.00  0.00     0.141 C 
ATOM     25  C   UNL A   1      31.068  23.531  25.517  1.00  0.00     0.029 C 
ENDBRANCH  20  24
ENDBRANCH  17  19
ENDBRANCH  14  17
ENDBRANCH  11  13
ENDBRANCH   7  11
ENDBRANCH   4   6
ENDBRANCH   3   4
ENDBRANCH   2   3
ENDBRANCH   1   2
BRANCH   1  26
ATOM     26  O   UNL A   1      37.860  21.901  25.859  1.00  0.00    -0.374 OA
BRANCH  26  27
ATOM     27  C   UNL A   1      39.263  21.702  25.947  1.00  0.00     0.202 C 
BRANCH  27  28
ATOM     28  C   UNL A   1      40.081  22.552  26.905  1.00  0.00     0.261 C 
BRANCH  28  29
ATOM     29  O   UNL A   1      41.462  22.268  26.904  1.00  0.00    -0.460 OA
BRANCH  29  30
ATOM     30  C   UNL A   1      42.100  22.881  25.883  1.00  0.00     0.338 C 
ATOM     31  O   UNL A   1      42.639  22.349  24.928  1.00  0.00    -0.246 OA
BRANCH  30  32
ATOM     32  C   UNL A   1      42.247  24.292  26.229  1.00  0.00     0.060 A 
ATOM     33  C   UNL A   1      43.126  24.584  27.271  1.00  0.00     0.016 A 
ATOM     34  C   UNL A   1      41.320  25.227  25.736  1.00  0.00     0.016 A 
ATOM     35  C   UNL A   1      42.968  25.775  27.935  1.00  0.00     0.010 A 
ATOM     36  C   UNL A   1      41.146  26.404  26.415  1.00  0.00     0.010 A 
ATOM     37  C   UNL A   1      41.932  26.630  27.541  1.00  0.00    -0.014 A 
BRANCH  37  38
ATOM     38  C   UNL A   1      41.759  27.843  28.294  1.00  0.00     0.031 A 
ATOM     39  C   UNL A   1      42.880  28.787  28.127  1.00  0.00     0.074 A 
ATOM     40  C   UNL A   1      40.640  28.114  28.982  1.00  0.00     0.049 A 
ATOM     41  N   UNL A   1      43.795  29.083  28.986  1.00  0.00    -0.248 NA
ATOM     42  C   UNL A   1      43.117  29.313  26.773  1.00  0.00     0.031 C 
ATOM     43  C   UNL A   1      39.352  27.420  28.940  1.00  0.00     0.029 A 
ATOM     44  N   UNL A   1      40.398  29.179  29.783  1.00  0.00    -0.354 N 
ATOM     45  C   UNL A   1      44.613  30.002  28.344  1.00  0.00     0.074 A 
ATOM     46  C   UNL A   1      44.283  29.933  26.943  1.00  0.00     0.031 C 
ATOM     47  C   UNL A   1      38.410  28.222  29.487  1.00  0.00     0.029 A 
ATOM     48  C   UNL A   1      39.056  29.410  30.024  1.00  0.00     0.049 A 
ATOM     49  H   UNL A   1      41.114  29.738  30.161  1.00  0.00     0.167 HD
ATOM     50  C   UNL A   1      45.307  30.948  29.033  1.00  0.00     0.031 A 
ATOM     51  C   UNL A   1      38.532  30.558  30.522  1.00  0.00     0.031 A 
ATOM     52  C   UNL A   1      45.375  30.648  30.439  1.00  0.00     0.049 A 
ATOM     53  C   UNL A   1      39.641  31.296  31.190  1.00  0.00     0.074 A 
ATOM     54  C   UNL A   1      45.874  29.594  31.180  1.00  0.00     0.029 A 
ATOM     55  N   UNL A   1      44.503  31.316  31.268  1.00  0.00    -0.354 N 
ATOM     56  N   UNL A   1      40.254  30.863  32.257  1.00  0.00    -0.248 NA
ATOM     57  C   UNL A   1      40.377  32.285  30.415  1.00  0.00     0.031 C 
ATOM     58  C   UNL A   1      44.938  29.411  32.240  1.00  0.00     0.029 A 
ATOM     59  C   UNL A   1      43.952  30.393  32.122  1.00  0.00     0.049 A 
ATOM     60  H   UNL A   1      44.309  32.282  31.252  1.00  0.00     0.167 HD
ATOM     61  C   UNL A   1      41.591  31.193  32.067  1.00  0.00     0.074 A 
ATOM     62  C   UNL A   1      41.588  32.152  30.965  1.00  0.00     0.031 C 
ATOM     63  C   UNL A   1      42.596  30.454  32.629  1.00  0.00     0.031 A 
BRANCH  50  64
ATOM     64  C   UNL A   1      45.554  32.328  28.484  1.00  0.00    -0.014 A 
ATOM     65  C   UNL A   1      46.854  32.864  28.540  1.00  0.00     0.010 A 
ATOM     66  C   UNL A   1      44.506  33.218  28.160  1.00  0.00     0.010 A 
ATOM     67  C   UNL A   1      47.079  34.233  28.343  1.00  0.00     0.020 A 
ATOM     68  C   UNL A   1      44.725  34.571  27.913  1.00  0.00     0.020 A 
ATOM     69  C   UNL A   1      46.008  35.078  28.045  1.00  0.00     0.054 A 
BRANCH  69  70
ATOM     70  S   UNL A   1      46.286  36.859  27.909  1.00  0.00     0.124 S 
ATOM     71  O   UNL A   1      45.030  37.395  28.425  1.00  0.00    -0.237 OA
ATOM     72  O   UNL A   1      47.458  37.055  28.756  1.00  0.00    -0.237 OA
ATOM     73  O   UNL A   1      46.515  37.061  26.479  1.00  0.00    -0.744 OA
ENDBRANCH  69  70
ENDBRANCH  50  64
BRANCH  51  74
ATOM     74  C   UNL A   1      37.261  31.199  30.103  1.00  0.00    -0.014 A 
ATOM     75  C   UNL A   1      36.324  31.644  31.052  1.00  0.00     0.010 A 
ATOM     76  C   UNL A   1      37.083  31.612  28.764  1.00  0.00     0.010 A 
ATOM     77  C   UNL A   1      35.281  32.511  30.683  1.00  0.00     0.020 A 
ATOM     78  C   UNL A   1      36.042  32.464  28.387  1.00  0.00     0.020 A 
ATOM     79  C   UNL A   1      35.157  32.929  29.355  1.00  0.00     0.054 A 
BRANCH  79  80
ATOM     80  S   UNL A   1      33.910  34.177  28.917  1.00  0.00     0.124 S 
ATOM     81  O   UNL A   1      33.054  33.445  27.989  1.00  0.00    -0.237 OA
ATOM     82  O   UNL A   1      33.315  34.497  30.211  1.00  0.00    -0.237 OA
ATOM     83  O   UNL A   1      34.698  35.252  28.317  1.00  0.00    -0.744 OA
ENDBRANCH  79  80
ENDBRANCH  51  74
BRANCH  63  84
ATOM     84  C   UNL A   1      42.236  29.439  33.693  1.00  0.00    -0.014 A 
ATOM     85  C   UNL A   1      41.722  28.159  33.408  1.00  0.00     0.010 A 
ATOM     86  C   UNL A   1      42.587  29.736  35.023  1.00  0.00     0.010 A 
ATOM     87  C   UNL A   1      41.540  27.213  34.429  1.00  0.00     0.020 A 
ATOM     88  C   UNL A   1      42.426  28.793  36.041  1.00  0.00     0.020 A 
ATOM     89  C   UNL A   1      41.895  27.538  35.742  1.00  0.00     0.054 A 
BRANCH  89  90
ATOM     90  S   UNL A   1      41.707  26.295  37.051  1.00  0.00     0.124 S 
ATOM     91  O   UNL A   1      42.861  26.556  37.906  1.00  0.00    -0.237 OA
ATOM     92  O   UNL A   1      40.406  26.625  37.630  1.00  0.00    -0.237 OA
ATOM     93  O   UNL A   1      41.748  25.022  36.331  1.00  0.00    -0.744 OA
ENDBRANCH  89  90
ENDBRANCH  63  84
ENDBRANCH  37  38
ENDBRANCH  30  32
ENDBRANCH  29  30
ENDBRANCH  28  29
ENDBRANCH  27  28
ENDBRANCH  26  27
ENDBRANCH   1  26
TORSDOF 22
ENDMDL
MODEL 3
REMARK VINA RESULT:      -9.8      4.679     12.350
REMARK SMILES CCn1ccc([C@@H](C)NC(=O)[C@H](C)n2ccc(C(=O)OCCOCCOC(=O)c3ccc(-c4c5nc(c(-c6ccc(S(=O)(=O)[O-])cc6)c6ccc([nH]6)c(-c6ccc(S(=O)(=O)[O-])cc6)c6nc(c(-c7ccc(S(=O)(=O)[O-])cc7)c7ccc4[nH]7)C=C6)C=C5)cc3)n2)n1
REMARK SMILES IDX 22 1 21 2 20 3 18 4 19 5 17 6 14 7 15 8 89 9 16 10 12 11
REMARK SMILES IDX 13 12 10 13 9 14 11 16 7 17 8 18 6 19 3 20 4 21 90 22 5 23
REMARK SMILES IDX 2 24 1 25 23 26 24 27 25 28 26 29 27 30 28 31 29 32 30 33
REMARK SMILES IDX 88 34 31 35 87 36 32 37 33 38 34 39 81 40 35 41 86 42 80 43
REMARK SMILES IDX 82 44 36 45 85 46 79 47 78 48 37 50 67 51 48 52 66 53 49 54
REMARK SMILES IDX 52 55 65 56 83 57 50 58 51 59 64 61 84 62 53 63 38 64 39 65
REMARK SMILES IDX 47 66 40 67 46 68 41 69 42 70 43 71 44 72 45 73 68 74 69 75
REMARK SMILES IDX 77 76 70 77 76 78 71 79 72 80 73 81 74 82 75 83 54 84 55 85
REMARK SMILES IDX 63 86 56 87 62 88 57 89 58 90 59 91 60 92 61 93
REMARK H PARENT 9 15 82 49 52 60
REMARK Flexibility Score: inf
ROOT
ATOM      1  C   UNL A   1      34.727  33.773  31.825  1.00  0.00     0.202 C 
ENDROOT
BRANCH   1   2
ATOM      2  C   UNL A   1      36.257  33.873  31.852  1.00  0.00     0.261 C 
BRANCH   2   3
ATOM      3  O   UNL A   1      36.844  33.602  33.133  1.00  0.00    -0.458 OA
BRANCH   3   4
ATOM      4  C   UNL A   1      36.938  32.273  33.448  1.00  0.00     0.358 C 
ATOM      5  O   UNL A   1      36.661  31.362  32.673  1.00  0.00    -0.244 OA
BRANCH   4   6
ATOM      6  C   UNL A   1      37.573  32.004  34.746  1.00  0.00     0.170 A 
ATOM      7  N   UNL A   1      38.008  31.919  36.842  1.00  0.00    -0.260 N 
ATOM      8  C   UNL A   1      38.972  31.152  36.245  1.00  0.00     0.110 A 
ATOM      9  N   UNL A   1      37.141  32.451  35.942  1.00  0.00    -0.165 NA
ATOM     10  C   UNL A   1      38.737  31.210  34.898  1.00  0.00     0.057 A 
BRANCH   7  11
ATOM     11  C   UNL A   1      37.755  32.079  38.273  1.00  0.00     0.193 C 
ATOM     12  C   UNL A   1      36.982  33.336  38.694  1.00  0.00     0.044 C 
BRANCH  11  13
ATOM     13  C   UNL A   1      37.204  30.828  38.945  1.00  0.00     0.245 C 
ATOM     14  N   UNL A   1      37.342  30.560  40.270  1.00  0.00    -0.346 N 
ATOM     15  H   UNL A   1      37.057  29.654  40.530  1.00  0.00     0.164 HD
ATOM     16  O   UNL A   1      36.695  29.933  38.259  1.00  0.00    -0.273 OA
BRANCH  14  17
ATOM     17  C   UNL A   1      37.834  31.370  41.377  1.00  0.00     0.130 C 
ATOM     18  C   UNL A   1      38.722  30.540  42.298  1.00  0.00     0.038 C 
BRANCH  17  19
ATOM     19  C   UNL A   1      36.657  31.963  42.109  1.00  0.00     0.084 A 
ATOM     20  N   UNL A   1      35.586  33.073  43.576  1.00  0.00    -0.273 N 
ATOM     21  C   UNL A   1      34.623  32.578  42.747  1.00  0.00     0.109 A 
ATOM     22  N   UNL A   1      36.836  32.720  43.205  1.00  0.00    -0.176 NA
ATOM     23  C   UNL A   1      35.280  31.836  41.796  1.00  0.00     0.047 A 
BRANCH  20  24
ATOM     24  C   UNL A   1      35.403  34.027  44.652  1.00  0.00     0.141 C 
ATOM     25  C   UNL A   1      36.047  33.658  45.973  1.00  0.00     0.029 C 
ENDBRANCH  20  24
ENDBRANCH  17  19
ENDBRANCH  14  17
ENDBRANCH  11  13
ENDBRANCH   7  11
ENDBRANCH   4   6
ENDBRANCH   3   4
ENDBRANCH   2   3
ENDBRANCH   1   2
BRANCH   1  26
ATOM     26  O   UNL A   1      34.078  33.456  30.596  1.00  0.00    -0.374 OA
BRANCH  26  27
ATOM     27  C   UNL A   1      34.199  34.340  29.491  1.00  0.00     0.202 C 
BRANCH  27  28
ATOM     28  C   UNL A   1      34.177  33.780  28.079  1.00  0.00     0.261 C 
BRANCH  28  29
ATOM     29  O   UNL A   1      35.320  33.031  27.730  1.00  0.00    -0.460 OA
BRANCH  29  30
ATOM     30  C   UNL A   1      35.054  31.707  27.674  1.00  0.00     0.338 C 
ATOM     31  O   UNL A   1      34.018  31.181  27.306  1.00  0.00    -0.246 OA
BRANCH  30  32
ATOM     32  C   UNL A   1      36.138  31.003  28.354  1.00  0.00     0.060 A 
ATOM     33  C   UNL A   1      37.112  31.801  28.953  1.00  0.00     0.016 A 
ATOM     34  C   UNL A   1      36.318  29.627  28.131  1.00  0.00     0.016 A 
ATOM     35  C   UNL A   1      38.346  31.247  29.187  1.00  0.00     0.010 A 
ATOM     36  C   UNL A   1      37.558  29.082  28.342  1.00  0.00     0.010 A 
ATOM     37  C   UNL A   1      38.567  29.918  28.808  1.00  0.00    -0.014 A 
BRANCH  37  38
ATOM     38  C   UNL A   1      39.887  29.386  29.018  1.00  0.00     0.031 A 
ATOM     39  C   UNL A   1      40.253  29.301  30.444  1.00  0.00     0.074 A 
ATOM     40  C   UNL A   1      40.647  28.921  28.015  1.00  0.00     0.049 A 
ATOM     41  N   UNL A   1      41.090  30.039  31.088  1.00  0.00    -0.248 NA
ATOM     42  C   UNL A   1      39.441  28.413  31.291  1.00  0.00     0.031 C 
ATOM     43  C   UNL A   1      40.260  28.644  26.630  1.00  0.00     0.029 A 
ATOM     44  N   UNL A   1      41.923  28.474  28.081  1.00  0.00    -0.354 N 
ATOM     45  C   UNL A   1      41.065  29.566  32.393  1.00  0.00     0.074 A 
ATOM     46  C   UNL A   1      39.893  28.734  32.501  1.00  0.00     0.031 C 
ATOM     47  C   UNL A   1      41.204  27.855  26.067  1.00  0.00     0.029 A 
ATOM     48  C   UNL A   1      42.303  27.690  27.007  1.00  0.00     0.049 A 
ATOM     49  H   UNL A   1      42.527  28.688  28.828  1.00  0.00     0.167 HD
ATOM     50  C   UNL A   1      42.146  29.665  33.211  1.00  0.00     0.031 A 
ATOM     51  C   UNL A   1      43.390  26.880  26.970  1.00  0.00     0.031 A 
ATOM     52  C   UNL A   1      43.120  30.599  32.708  1.00  0.00     0.049 A 
ATOM     53  C   UNL A   1      44.320  27.338  28.040  1.00  0.00     0.074 A 
ATOM     54  C   UNL A   1      43.099  31.945  32.403  1.00  0.00     0.029 A 
ATOM     55  N   UNL A   1      44.214  30.077  32.057  1.00  0.00    -0.354 N 
ATOM     56  N   UNL A   1      44.919  28.497  28.027  1.00  0.00    -0.248 NA
ATOM     57  C   UNL A   1      44.228  26.707  29.350  1.00  0.00     0.031 C 
ATOM     58  C   UNL A   1      43.894  32.070  31.226  1.00  0.00     0.029 A 
ATOM     59  C   UNL A   1      44.400  30.807  30.910  1.00  0.00     0.049 A 
ATOM     60  H   UNL A   1      44.764  29.318  32.359  1.00  0.00     0.167 HD
ATOM     61  C   UNL A   1      44.904  28.930  29.348  1.00  0.00     0.074 A 
ATOM     62  C   UNL A   1      44.556  27.744  30.128  1.00  0.00     0.031 C 
ATOM     63  C   UNL A   1      44.900  30.260  29.663  1.00  0.00     0.031 A 
BRANCH  50  64
ATOM     64  C   UNL A   1      42.484  28.612  34.234  1.00  0.00    -0.014 A 
ATOM     65  C   UNL A   1      42.361  28.921  35.601  1.00  0.00     0.010 A 
ATOM     66  C   UNL A   1      43.170  27.423  33.904  1.00  0.00     0.010 A 
ATOM     67  C   UNL A   1      42.951  28.111  36.580  1.00  0.00     0.020 A 
ATOM     68  C   UNL A   1      43.717  26.583  34.872  1.00  0.00     0.020 A 
ATOM     69  C   UNL A   1      43.637  26.954  36.204  1.00  0.00     0.054 A 
BRANCH  69  70
ATOM     70  S   UNL A   1      44.496  25.978  37.459  1.00  0.00     0.124 S 
ATOM     71  O   UNL A   1      44.109  24.619  37.094  1.00  0.00    -0.237 OA
ATOM     72  O   UNL A   1      45.893  26.327  37.221  1.00  0.00    -0.237 OA
ATOM     73  O   UNL A   1      43.941  26.473  38.717  1.00  0.00    -0.744 OA
ENDBRANCH  69  70
ENDBRANCH  50  64
BRANCH  51  74
ATOM     74  C   UNL A   1      43.464  25.536  26.344  1.00  0.00    -0.014 A 
ATOM     75  C   UNL A   1      44.267  25.304  25.214  1.00  0.00     0.010 A 
ATOM     76  C   UNL A   1      42.944  24.411  27.020  1.00  0.00     0.010 A 
ATOM     77  C   UNL A   1      44.579  23.995  24.808  1.00  0.00     0.020 A 
ATOM     78  C   UNL A   1      43.240  23.106  26.615  1.00  0.00     0.020 A 
ATOM     79  C   UNL A   1      44.076  22.904  25.522  1.00  0.00     0.054 A 
BRANCH  79  80
ATOM     80  S   UNL A   1      44.616  21.222  25.093  1.00  0.00     0.124 S 
ATOM     81  O   UNL A   1      44.527  21.231  23.636  1.00  0.00    -0.237 OA
ATOM     82  O   UNL A   1      45.967  21.172  25.646  1.00  0.00    -0.237 OA
ATOM     83  O   UNL A   1      43.641  20.367  25.767  1.00  0.00    -0.744 OA
ENDBRANCH  79  80
ENDBRANCH  51  74
BRANCH  63  84
ATOM     84  C   UNL A   1      45.198  31.262  28.568  1.00  0.00    -0.014 A 
ATOM     85  C   UNL A   1      44.249  31.681  27.615  1.00  0.00     0.010 A 
ATOM     86  C   UNL A   1      46.438  31.925  28.610  1.00  0.00     0.010 A 
ATOM     87  C   UNL A   1      44.544  32.715  26.712  1.00  0.00     0.020 A 
ATOM     88  C   UNL A   1      46.732  32.967  27.728  1.00  0.00     0.020 A 
ATOM     89  C   UNL A   1      45.787  33.352  26.777  1.00  0.00     0.054 A 
BRANCH  89  90
ATOM     90  S   UNL A   1      46.145  34.724  25.642  1.00  0.00     0.124 S 
ATOM     91  O   UNL A   1      47.558  34.523  25.336  1.00  0.00    -0.237 OA
ATOM     92  O   UNL A   1      45.221  34.481  24.535  1.00  0.00    -0.237 OA
ATOM     93  O   UNL A   1      45.848  35.917  26.434  1.00  0.00    -0.744 OA
ENDBRANCH  89  90
ENDBRANCH  63  84
ENDBRANCH  37  38
ENDBRANCH  30  32
ENDBRANCH  29  30
ENDBRANCH  28  29
ENDBRANCH  27  28
ENDBRANCH  26  27
ENDBRANCH   1  26
TORSDOF 22
ENDMDL
