MODEL 1
REMARK VINA RESULT:     -10.5      0.000      0.000
REMARK SMILES CCc1cc(/C=C/C(=O)OCCOCCOC(=O)c2ccc(-c3c4nc(c(-c5ccc(S(=O)(=O)[O-])cc5)c5ccc([nH]5)c(-c5ccc(S(=O)(=O)[O-])cc5)c5nc(c(-c6ccc(S(=O)(=O)[O-])cc6)c6ccc3[nH]6)C=C5)C=C4)cc2)cc(C(=O)c2ccccc2)c1
REMARK SMILES IDX 13 1 12 2 11 3 10 4 8 5 9 6 7 7 6 8 5 9 3 10 4 11 89 12
REMARK SMILES IDX 80 13 79 14 2 15 1 16 81 17 82 18 83 19 84 20 88 21 85 22
REMARK SMILES IDX 87 23 86 24 14 25 15 26 16 27 17 28 18 29 19 30 20 31 78 32
REMARK SMILES IDX 21 33 77 34 22 35 23 36 24 37 71 38 25 39 76 40 70 41 72 42
REMARK SMILES IDX 26 43 75 44 69 45 68 46 27 48 57 49 38 50 56 51 39 52 42 53
REMARK SMILES IDX 55 54 73 55 40 56 41 57 54 59 74 60 43 61 28 62 29 63 37 64
REMARK SMILES IDX 30 65 36 66 31 67 32 68 33 69 34 70 35 71 58 72 59 73 67 74
REMARK SMILES IDX 60 75 66 76 61 77 62 78 63 79 64 80 65 81 44 82 45 83 53 84
REMARK SMILES IDX 46 85 52 86 47 87 48 88 49 89 50 90 51 91
REMARK H PARENT 72 47 42 58
REMARK Flexibility Score: inf
ROOT
ATOM      1  O   UNL A   1      36.370  22.865  25.067  1.00  0.00    -0.374 OA
ENDROOT
BRANCH   1   2
ATOM      2  C   UNL A   1      35.287  21.990  25.389  1.00  0.00     0.202 C 
BRANCH   2   3
ATOM      3  C   UNL A   1      33.898  22.509  25.010  1.00  0.00     0.261 C 
BRANCH   3   4
ATOM      4  O   UNL A   1      32.876  21.822  25.756  1.00  0.00    -0.460 OA
BRANCH   4   5
ATOM      5  C   UNL A   1      31.655  22.402  25.738  1.00  0.00     0.330 C 
ATOM      6  O   UNL A   1      30.586  21.866  25.993  1.00  0.00    -0.247 OA
BRANCH   5   7
ATOM      7  C   UNL A   1      31.729  23.854  25.478  1.00  0.00     0.094 C 
ATOM      8  C   UNL A   1      31.107  24.830  26.162  1.00  0.00     0.015 C 
BRANCH   8   9
ATOM      9  C   UNL A   1      31.197  26.247  25.763  1.00  0.00    -0.024 A 
ATOM     10  C   UNL A   1      31.840  28.557  26.252  1.00  0.00    -0.047 A 
ATOM     11  C   UNL A   1      31.794  27.203  26.603  1.00  0.00     0.011 A 
ATOM     12  C   UNL A   1      31.296  28.955  25.026  1.00  0.00     0.016 A 
ATOM     13  C   UNL A   1      30.775  28.012  24.132  1.00  0.00     0.023 A 
ATOM     14  C   UNL A   1      30.721  26.659  24.511  1.00  0.00     0.020 A 
BRANCH  10  15
ATOM     15  C   UNL A   1      32.464  29.573  27.175  1.00  0.00     0.032 C 
ATOM     16  C   UNL A   1      33.981  29.450  27.219  1.00  0.00     0.009 C 
ENDBRANCH  10  15
BRANCH  13  17
ATOM     17  C   UNL A   1      30.226  28.413  22.802  1.00  0.00     0.193 C 
ATOM     18  O   UNL A   1      30.454  27.729  21.809  1.00  0.00    -0.289 OA
BRANCH  17  19
ATOM     19  C   UNL A   1      29.356  29.606  22.649  1.00  0.00     0.022 A 
ATOM     20  C   UNL A   1      28.313  29.785  23.563  1.00  0.00     0.012 A 
ATOM     21  C   UNL A   1      29.562  30.539  21.627  1.00  0.00     0.012 A 
ATOM     22  C   UNL A   1      27.511  30.925  23.488  1.00  0.00     0.001 A 
ATOM     23  C   UNL A   1      28.762  31.682  21.559  1.00  0.00     0.001 A 
ATOM     24  C   UNL A   1      27.744  31.878  22.495  1.00  0.00     0.000 A 
ENDBRANCH  17  19
ENDBRANCH  13  17
ENDBRANCH   8   9
ENDBRANCH   5   7
ENDBRANCH   4   5
ENDBRANCH   3   4
ENDBRANCH   2   3
ENDBRANCH   1   2
BRANCH   1  25
ATOM     25  C   UNL A   1      36.942  23.596  26.154  1.00  0.00     0.202 C 
BRANCH  25  26
ATOM     26  C   UNL A   1      38.398  24.039  25.959  1.00  0.00     0.261 C 
BRANCH  26  27
ATOM     27  O   UNL A   1      38.972  24.533  27.183  1.00  0.00    -0.460 OA
BRANCH  27  28
ATOM     28  C   UNL A   1      39.829  25.571  27.037  1.00  0.00     0.338 C 
ATOM     29  O   UNL A   1      40.544  25.806  26.072  1.00  0.00    -0.246 OA
BRANCH  28  30
ATOM     30  C   UNL A   1      39.662  26.522  28.153  1.00  0.00     0.060 A 
ATOM     31  C   UNL A   1      40.321  27.756  28.055  1.00  0.00     0.016 A 
ATOM     32  C   UNL A   1      38.923  26.204  29.294  1.00  0.00     0.016 A 
ATOM     33  C   UNL A   1      40.281  28.656  29.119  1.00  0.00     0.010 A 
ATOM     34  C   UNL A   1      38.890  27.107  30.364  1.00  0.00     0.010 A 
ATOM     35  C   UNL A   1      39.596  28.322  30.294  1.00  0.00    -0.014 A 
BRANCH  35  36
ATOM     36  C   UNL A   1      39.729  29.185  31.493  1.00  0.00     0.031 A 
ATOM     37  C   UNL A   1      40.876  28.953  32.439  1.00  0.00     0.074 A 
ATOM     38  C   UNL A   1      38.854  30.181  31.724  1.00  0.00     0.049 A 
ATOM     39  N   UNL A   1      41.172  29.576  33.550  1.00  0.00    -0.248 NA
ATOM     40  C   UNL A   1      41.814  27.875  32.083  1.00  0.00     0.031 C 
ATOM     41  C   UNL A   1      37.726  30.533  30.864  1.00  0.00     0.029 A 
ATOM     42  N   UNL A   1      38.781  31.079  32.760  1.00  0.00    -0.354 N 
ATOM     43  C   UNL A   1      42.324  28.963  34.031  1.00  0.00     0.074 A 
ATOM     44  C   UNL A   1      42.658  27.903  33.105  1.00  0.00     0.031 C 
ATOM     45  C   UNL A   1      37.067  31.569  31.411  1.00  0.00     0.029 A 
ATOM     46  C   UNL A   1      37.708  31.934  32.674  1.00  0.00     0.049 A 
ATOM     47  H   UNL A   1      39.435  31.108  33.495  1.00  0.00     0.167 HD
ATOM     48  C   UNL A   1      43.042  29.260  35.140  1.00  0.00     0.031 A 
ATOM     49  C   UNL A   1      37.281  32.887  33.524  1.00  0.00     0.031 A 
ATOM     50  C   UNL A   1      42.700  30.306  36.069  1.00  0.00     0.049 A 
ATOM     51  C   UNL A   1      38.055  33.153  34.787  1.00  0.00     0.074 A 
ATOM     52  C   UNL A   1      43.375  30.692  37.214  1.00  0.00     0.029 A 
ATOM     53  N   UNL A   1      41.587  31.124  35.964  1.00  0.00    -0.354 N 
ATOM     54  N   UNL A   1      39.157  32.583  35.215  1.00  0.00    -0.248 NA
ATOM     55  C   UNL A   1      37.533  34.199  35.680  1.00  0.00     0.031 C 
ATOM     56  C   UNL A   1      42.639  31.711  37.830  1.00  0.00     0.029 A 
ATOM     57  C   UNL A   1      41.539  31.999  37.037  1.00  0.00     0.049 A 
ATOM     58  H   UNL A   1      40.927  31.091  35.233  1.00  0.00     0.167 HD
ATOM     59  C   UNL A   1      39.474  33.219  36.411  1.00  0.00     0.074 A 
ATOM     60  C   UNL A   1      38.455  34.224  36.634  1.00  0.00     0.031 C 
ATOM     61  C   UNL A   1      40.517  32.993  37.247  1.00  0.00     0.031 A 
BRANCH  48  62
ATOM     62  C   UNL A   1      44.254  28.415  35.428  1.00  0.00    -0.014 A 
ATOM     63  C   UNL A   1      45.529  28.787  34.966  1.00  0.00     0.010 A 
ATOM     64  C   UNL A   1      44.119  27.246  36.200  1.00  0.00     0.010 A 
ATOM     65  C   UNL A   1      46.640  27.984  35.237  1.00  0.00     0.020 A 
ATOM     66  C   UNL A   1      45.233  26.454  36.495  1.00  0.00     0.020 A 
ATOM     67  C   UNL A   1      46.484  26.820  35.995  1.00  0.00     0.054 A 
BRANCH  67  68
ATOM     68  S   UNL A   1      47.946  25.805  36.345  1.00  0.00     0.124 S 
ATOM     69  O   UNL A   1      47.788  24.711  35.389  1.00  0.00    -0.237 OA
ATOM     70  O   UNL A   1      49.048  26.722  36.072  1.00  0.00    -0.237 OA
ATOM     71  O   UNL A   1      47.783  25.432  37.748  1.00  0.00    -0.744 OA
ENDBRANCH  67  68
ENDBRANCH  48  62
BRANCH  49  72
ATOM     72  C   UNL A   1      36.043  33.656  33.214  1.00  0.00    -0.014 A 
ATOM     73  C   UNL A   1      34.775  33.115  33.492  1.00  0.00     0.010 A 
ATOM     74  C   UNL A   1      36.130  34.939  32.645  1.00  0.00     0.010 A 
ATOM     75  C   UNL A   1      33.616  33.839  33.192  1.00  0.00     0.020 A 
ATOM     76  C   UNL A   1      34.975  35.676  32.368  1.00  0.00     0.020 A 
ATOM     77  C   UNL A   1      33.725  35.116  32.635  1.00  0.00     0.054 A 
BRANCH  77  78
ATOM     78  S   UNL A   1      32.209  36.061  32.309  1.00  0.00     0.124 S 
ATOM     79  O   UNL A   1      32.366  37.204  33.204  1.00  0.00    -0.237 OA
ATOM     80  O   UNL A   1      32.321  36.354  30.882  1.00  0.00    -0.237 OA
ATOM     81  O   UNL A   1      31.142  35.128  32.663  1.00  0.00    -0.744 OA
ENDBRANCH  77  78
ENDBRANCH  49  72
BRANCH  61  82
ATOM     82  C   UNL A   1      40.636  33.870  38.466  1.00  0.00    -0.014 A 
ATOM     83  C   UNL A   1      39.840  33.651  39.604  1.00  0.00     0.010 A 
ATOM     84  C   UNL A   1      41.602  34.893  38.492  1.00  0.00     0.010 A 
ATOM     85  C   UNL A   1      39.989  34.458  40.736  1.00  0.00     0.020 A 
ATOM     86  C   UNL A   1      41.771  35.685  39.631  1.00  0.00     0.020 A 
ATOM     87  C   UNL A   1      40.953  35.471  40.742  1.00  0.00     0.054 A 
BRANCH  87  88
ATOM     88  S   UNL A   1      41.159  36.476  42.239  1.00  0.00     0.124 S 
ATOM     89  O   UNL A   1      39.975  37.329  42.196  1.00  0.00    -0.237 OA
ATOM     90  O   UNL A   1      41.172  35.472  43.301  1.00  0.00    -0.237 OA
ATOM     91  O   UNL A   1      42.431  37.161  42.024  1.00  0.00    -0.744 OA
ENDBRANCH  87  88
ENDBRANCH  61  82
ENDBRANCH  35  36
ENDBRANCH  28  30
ENDBRANCH  27  28
ENDBRANCH  26  27
ENDBRANCH  25  26
ENDBRANCH   1  25
TORSDOF 21
ENDMDL
MODEL 2
REMARK VINA RESULT:     -10.4      1.863      2.823
REMARK SMILES CCc1cc(/C=C/C(=O)OCCOCCOC(=O)c2ccc(-c3c4nc(c(-c5ccc(S(=O)(=O)[O-])cc5)c5ccc([nH]5)c(-c5ccc(S(=O)(=O)[O-])cc5)c5nc(c(-c6ccc(S(=O)(=O)[O-])cc6)c6ccc3[nH]6)C=C5)C=C4)cc2)cc(C(=O)c2ccccc2)c1
REMARK SMILES IDX 13 1 12 2 11 3 10 4 8 5 9 6 7 7 6 8 5 9 3 10 4 11 89 12
REMARK SMILES IDX 80 13 79 14 2 15 1 16 81 17 82 18 83 19 84 20 88 21 85 22
REMARK SMILES IDX 87 23 86 24 14 25 15 26 16 27 17 28 18 29 19 30 20 31 78 32
REMARK SMILES IDX 21 33 77 34 22 35 23 36 24 37 71 38 25 39 76 40 70 41 72 42
REMARK SMILES IDX 26 43 75 44 69 45 68 46 27 48 57 49 38 50 56 51 39 52 42 53
REMARK SMILES IDX 55 54 73 55 40 56 41 57 54 59 74 60 43 61 28 62 29 63 37 64
REMARK SMILES IDX 30 65 36 66 31 67 32 68 33 69 34 70 35 71 58 72 59 73 67 74
REMARK SMILES IDX 60 75 66 76 61 77 62 78 63 79 64 80 65 81 44 82 45 83 53 84
REMARK SMILES IDX 46 85 52 86 47 87 48 88 49 89 50 90 51 91
REMARK H PARENT 72 47 42 58
REMARK Flexibility Score: inf
ROOT
ATOM      1  O   UNL A   1      37.126  22.269  25.173  1.00  0.00    -0.374 OA
ENDROOT
BRANCH   1   2
ATOM      2  C   UNL A   1      36.211  21.186  25.355  1.00  0.00     0.202 C 
BRANCH   2   3
ATOM      3  C   UNL A   1      34.780  21.457  24.883  1.00  0.00     0.261 C 
BRANCH   3   4
ATOM      4  O   UNL A   1      33.850  21.323  25.973  1.00  0.00    -0.460 OA
BRANCH   4   5
ATOM      5  C   UNL A   1      33.994  22.221  26.973  1.00  0.00     0.330 C 
ATOM      6  O   UNL A   1      34.223  21.976  28.149  1.00  0.00    -0.247 OA
BRANCH   5   7
ATOM      7  C   UNL A   1      33.964  23.614  26.484  1.00  0.00     0.094 C 
ATOM      8  C   UNL A   1      32.896  24.286  26.021  1.00  0.00     0.015 C 
BRANCH   8   9
ATOM      9  C   UNL A   1      33.002  25.657  25.489  1.00  0.00    -0.024 A 
ATOM     10  C   UNL A   1      33.351  27.190  23.614  1.00  0.00    -0.047 A 
ATOM     11  C   UNL A   1      33.201  25.893  24.118  1.00  0.00     0.011 A 
ATOM     12  C   UNL A   1      33.278  28.270  24.499  1.00  0.00     0.016 A 
ATOM     13  C   UNL A   1      32.994  28.069  25.855  1.00  0.00     0.023 A 
ATOM     14  C   UNL A   1      32.865  26.759  26.346  1.00  0.00     0.020 A 
BRANCH  10  15
ATOM     15  C   UNL A   1      33.586  27.423  22.142  1.00  0.00     0.032 C 
ATOM     16  C   UNL A   1      32.750  26.492  21.275  1.00  0.00     0.009 C 
ENDBRANCH  10  15
BRANCH  13  17
ATOM     17  C   UNL A   1      32.873  29.214  26.808  1.00  0.00     0.193 C 
ATOM     18  O   UNL A   1      31.780  29.508  27.283  1.00  0.00    -0.289 OA
BRANCH  17  19
ATOM     19  C   UNL A   1      34.061  29.987  27.245  1.00  0.00     0.022 A 
ATOM     20  C   UNL A   1      35.300  29.339  27.270  1.00  0.00     0.012 A 
ATOM     21  C   UNL A   1      33.964  31.331  27.623  1.00  0.00     0.012 A 
ATOM     22  C   UNL A   1      36.449  30.050  27.619  1.00  0.00     0.001 A 
ATOM     23  C   UNL A   1      35.118  32.040  27.966  1.00  0.00     0.001 A 
ATOM     24  C   UNL A   1      36.359  31.402  27.954  1.00  0.00     0.000 A 
ENDBRANCH  17  19
ENDBRANCH  13  17
ENDBRANCH   8   9
ENDBRANCH   5   7
ENDBRANCH   4   5
ENDBRANCH   3   4
ENDBRANCH   2   3
ENDBRANCH   1   2
BRANCH   1  25
ATOM     25  C   UNL A   1      37.618  22.892  26.362  1.00  0.00     0.202 C 
BRANCH  25  26
ATOM     26  C   UNL A   1      38.672  23.985  26.147  1.00  0.00     0.261 C 
BRANCH  26  27
ATOM     27  O   UNL A   1      39.096  24.567  27.394  1.00  0.00    -0.460 OA
BRANCH  27  28
ATOM     28  C   UNL A   1      39.999  25.570  27.282  1.00  0.00     0.338 C 
ATOM     29  O   UNL A   1      40.771  25.766  26.353  1.00  0.00    -0.246 OA
BRANCH  28  30
ATOM     30  C   UNL A   1      39.810  26.542  28.376  1.00  0.00     0.060 A 
ATOM     31  C   UNL A   1      40.493  27.762  28.284  1.00  0.00     0.016 A 
ATOM     32  C   UNL A   1      39.025  26.254  29.496  1.00  0.00     0.016 A 
ATOM     33  C   UNL A   1      40.432  28.679  29.331  1.00  0.00     0.010 A 
ATOM     34  C   UNL A   1      38.970  27.174  30.549  1.00  0.00     0.010 A 
ATOM     35  C   UNL A   1      39.700  28.376  30.486  1.00  0.00    -0.014 A 
BRANCH  35  36
ATOM     36  C   UNL A   1      39.806  29.256  31.676  1.00  0.00     0.031 A 
ATOM     37  C   UNL A   1      40.942  29.048  32.641  1.00  0.00     0.074 A 
ATOM     38  C   UNL A   1      38.918  30.245  31.881  1.00  0.00     0.049 A 
ATOM     39  N   UNL A   1      41.215  29.688  33.748  1.00  0.00    -0.248 NA
ATOM     40  C   UNL A   1      41.897  27.976  32.312  1.00  0.00     0.031 C 
ATOM     41  C   UNL A   1      37.798  30.573  31.000  1.00  0.00     0.029 A 
ATOM     42  N   UNL A   1      38.820  31.154  32.904  1.00  0.00    -0.354 N 
ATOM     43  C   UNL A   1      42.366  29.094  34.254  1.00  0.00     0.074 A 
ATOM     44  C   UNL A   1      42.725  28.026  33.346  1.00  0.00     0.031 C 
ATOM     45  C   UNL A   1      37.120  31.609  31.525  1.00  0.00     0.029 A 
ATOM     46  C   UNL A   1      37.739  31.996  32.792  1.00  0.00     0.049 A 
ATOM     47  H   UNL A   1      39.463  31.201  33.649  1.00  0.00     0.167 HD
ATOM     48  C   UNL A   1      43.065  29.413  35.369  1.00  0.00     0.031 A 
ATOM     49  C   UNL A   1      37.289  32.956  33.624  1.00  0.00     0.031 A 
ATOM     50  C   UNL A   1      42.698  30.466  36.279  1.00  0.00     0.049 A 
ATOM     51  C   UNL A   1      38.042  33.246  34.895  1.00  0.00     0.074 A 
ATOM     52  C   UNL A   1      43.352  30.874  37.430  1.00  0.00     0.029 A 
ATOM     53  N   UNL A   1      41.578  31.271  36.148  1.00  0.00    -0.354 N 
ATOM     54  N   UNL A   1      39.144  32.693  35.345  1.00  0.00    -0.248 NA
ATOM     55  C   UNL A   1      37.496  34.297  35.766  1.00  0.00     0.031 C 
ATOM     56  C   UNL A   1      42.596  31.893  38.022  1.00  0.00     0.029 A 
ATOM     57  C   UNL A   1      41.505  32.158  37.209  1.00  0.00     0.049 A 
ATOM     58  H   UNL A   1      40.929  31.221  35.408  1.00  0.00     0.167 HD
ATOM     59  C   UNL A   1      39.436  33.348  36.538  1.00  0.00     0.074 A 
ATOM     60  C   UNL A   1      38.403  34.344  36.733  1.00  0.00     0.031 C 
ATOM     61  C   UNL A   1      40.470  33.144  37.392  1.00  0.00     0.031 A 
BRANCH  48  62
ATOM     62  C   UNL A   1      44.282  28.584  35.686  1.00  0.00    -0.014 A 
ATOM     63  C   UNL A   1      45.578  29.108  35.537  1.00  0.00     0.010 A 
ATOM     64  C   UNL A   1      44.123  27.272  36.168  1.00  0.00     0.010 A 
ATOM     65  C   UNL A   1      46.695  28.320  35.828  1.00  0.00     0.020 A 
ATOM     66  C   UNL A   1      45.238  26.490  36.485  1.00  0.00     0.020 A 
ATOM     67  C   UNL A   1      46.518  27.014  36.295  1.00  0.00     0.054 A 
BRANCH  67  68
ATOM     68  S   UNL A   1      47.985  26.019  36.680  1.00  0.00     0.124 S 
ATOM     69  O   UNL A   1      47.686  24.765  35.993  1.00  0.00    -0.237 OA
ATOM     70  O   UNL A   1      49.069  26.807  36.102  1.00  0.00    -0.237 OA
ATOM     71  O   UNL A   1      47.982  25.944  38.139  1.00  0.00    -0.744 OA
ENDBRANCH  67  68
ENDBRANCH  48  62
BRANCH  49  72
ATOM     72  C   UNL A   1      36.048  33.707  33.286  1.00  0.00    -0.014 A 
ATOM     73  C   UNL A   1      34.782  33.144  33.526  1.00  0.00     0.010 A 
ATOM     74  C   UNL A   1      36.129  34.995  32.728  1.00  0.00     0.010 A 
ATOM     75  C   UNL A   1      33.620  33.852  33.201  1.00  0.00     0.020 A 
ATOM     76  C   UNL A   1      34.970  35.716  32.426  1.00  0.00     0.020 A 
ATOM     77  C   UNL A   1      33.722  35.134  32.655  1.00  0.00     0.054 A 
BRANCH  77  78
ATOM     78  S   UNL A   1      32.201  36.057  32.296  1.00  0.00     0.124 S 
ATOM     79  O   UNL A   1      32.423  36.482  30.916  1.00  0.00    -0.237 OA
ATOM     80  O   UNL A   1      31.165  35.045  32.488  1.00  0.00    -0.237 OA
ATOM     81  O   UNL A   1      32.207  37.127  33.291  1.00  0.00    -0.744 OA
ENDBRANCH  77  78
ENDBRANCH  49  72
BRANCH  61  82
ATOM     82  C   UNL A   1      40.561  34.038  38.600  1.00  0.00    -0.014 A 
ATOM     83  C   UNL A   1      40.024  33.647  39.840  1.00  0.00     0.010 A 
ATOM     84  C   UNL A   1      41.247  35.262  38.507  1.00  0.00     0.010 A 
ATOM     85  C   UNL A   1      40.148  34.479  40.957  1.00  0.00     0.020 A 
ATOM     86  C   UNL A   1      41.395  36.085  39.627  1.00  0.00     0.020 A 
ATOM     87  C   UNL A   1      40.832  35.693  40.843  1.00  0.00     0.054 A 
BRANCH  87  88
ATOM     88  S   UNL A   1      41.019  36.735  42.317  1.00  0.00     0.124 S 
ATOM     89  O   UNL A   1      41.278  35.745  43.358  1.00  0.00    -0.237 OA
ATOM     90  O   UNL A   1      42.152  37.589  41.966  1.00  0.00    -0.237 OA
ATOM     91  O   UNL A   1      39.736  37.426  42.418  1.00  0.00    -0.744 OA
ENDBRANCH  87  88
ENDBRANCH  61  82
ENDBRANCH  35  36
ENDBRANCH  28  30
ENDBRANCH  27  28
ENDBRANCH  26  27
ENDBRANCH  25  26
ENDBRANCH   1  25
TORSDOF 21
ENDMDL
MODEL 3
REMARK VINA RESULT:     -10.1      6.720     13.668
REMARK SMILES CCc1cc(/C=C/C(=O)OCCOCCOC(=O)c2ccc(-c3c4nc(c(-c5ccc(S(=O)(=O)[O-])cc5)c5ccc([nH]5)c(-c5ccc(S(=O)(=O)[O-])cc5)c5nc(c(-c6ccc(S(=O)(=O)[O-])cc6)c6ccc3[nH]6)C=C5)C=C4)cc2)cc(C(=O)c2ccccc2)c1
REMARK SMILES IDX 13 1 12 2 11 3 10 4 8 5 9 6 7 7 6 8 5 9 3 10 4 11 89 12
REMARK SMILES IDX 80 13 79 14 2 15 1 16 81 17 82 18 83 19 84 20 88 21 85 22
REMARK SMILES IDX 87 23 86 24 14 25 15 26 16 27 17 28 18 29 19 30 20 31 78 32
REMARK SMILES IDX 21 33 77 34 22 35 23 36 24 37 71 38 25 39 76 40 70 41 72 42
REMARK SMILES IDX 26 43 75 44 69 45 68 46 27 48 57 49 38 50 56 51 39 52 42 53
REMARK SMILES IDX 55 54 73 55 40 56 41 57 54 59 74 60 43 61 28 62 29 63 37 64
REMARK SMILES IDX 30 65 36 66 31 67 32 68 33 69 34 70 35 71 58 72 59 73 67 74
REMARK SMILES IDX 60 75 66 76 61 77 62 78 63 79 64 80 65 81 44 82 45 83 53 84
REMARK SMILES IDX 46 85 52 86 47 87 48 88 49 89 50 90 51 91
REMARK H PARENT 72 47 42 58
REMARK Flexibility Score: inf
ROOT
ATOM      1  O   UNL A   1      33.984  34.333  32.512  1.00  0.00    -0.374 OA
ENDROOT
BRANCH   1   2
ATOM      2  C   UNL A   1      33.585  35.059  31.347  1.00  0.00     0.202 C 
BRANCH   2   3
ATOM      3  C   UNL A   1      34.694  35.301  30.320  1.00  0.00     0.261 C 
BRANCH   3   4
ATOM      4  O   UNL A   1      34.376  34.669  29.067  1.00  0.00    -0.460 OA
BRANCH   4   5
ATOM      5  C   UNL A   1      35.366  33.925  28.525  1.00  0.00     0.330 C 
ATOM      6  O   UNL A   1      35.256  33.105  27.624  1.00  0.00    -0.247 OA
BRANCH   5   7
ATOM      7  C   UNL A   1      36.695  34.284  29.061  1.00  0.00     0.094 C 
ATOM      8  C   UNL A   1      37.836  33.587  28.929  1.00  0.00     0.015 C 
BRANCH   8   9
ATOM      9  C   UNL A   1      39.093  34.009  29.574  1.00  0.00    -0.024 A 
ATOM     10  C   UNL A   1      41.322  35.009  29.438  1.00  0.00    -0.047 A 
ATOM     11  C   UNL A   1      40.107  34.649  28.842  1.00  0.00     0.011 A 
ATOM     12  C   UNL A   1      41.513  34.740  30.796  1.00  0.00     0.016 A 
ATOM     13  C   UNL A   1      40.486  34.184  31.569  1.00  0.00     0.023 A 
ATOM     14  C   UNL A   1      39.280  33.812  30.949  1.00  0.00     0.020 A 
BRANCH  10  15
ATOM     15  C   UNL A   1      42.409  35.675  28.631  1.00  0.00     0.032 C 
ATOM     16  C   UNL A   1      42.095  37.138  28.347  1.00  0.00     0.009 C 
ENDBRANCH  10  15
BRANCH  13  17
ATOM     17  C   UNL A   1      40.657  33.926  33.031  1.00  0.00     0.193 C 
ATOM     18  O   UNL A   1      41.472  34.575  33.680  1.00  0.00    -0.289 OA
BRANCH  17  19
ATOM     19  C   UNL A   1      39.823  32.928  33.745  1.00  0.00     0.022 A 
ATOM     20  C   UNL A   1      38.621  33.358  34.316  1.00  0.00     0.012 A 
ATOM     21  C   UNL A   1      40.212  31.588  33.852  1.00  0.00     0.012 A 
ATOM     22  C   UNL A   1      37.782  32.437  34.944  1.00  0.00     0.001 A 
ATOM     23  C   UNL A   1      39.366  30.669  34.477  1.00  0.00     0.001 A 
ATOM     24  C   UNL A   1      38.149  31.092  35.013  1.00  0.00     0.000 A 
ENDBRANCH  17  19
ENDBRANCH  13  17
ENDBRANCH   8   9
ENDBRANCH   5   7
ENDBRANCH   4   5
ENDBRANCH   3   4
ENDBRANCH   2   3
ENDBRANCH   1   2
BRANCH   1  25
ATOM     25  C   UNL A   1      35.288  33.749  32.480  1.00  0.00     0.202 C 
BRANCH  25  26
ATOM     26  C   UNL A   1      35.327  32.216  32.496  1.00  0.00     0.261 C 
BRANCH  26  27
ATOM     27  O   UNL A   1      36.478  31.706  31.798  1.00  0.00    -0.460 OA
BRANCH  27  28
ATOM     28  C   UNL A   1      36.204  31.018  30.664  1.00  0.00     0.338 C 
ATOM     29  O   UNL A   1      35.157  31.032  30.028  1.00  0.00    -0.246 OA
BRANCH  28  30
ATOM     30  C   UNL A   1      37.426  30.358  30.167  1.00  0.00     0.060 A 
ATOM     31  C   UNL A   1      38.376  29.957  31.116  1.00  0.00     0.016 A 
ATOM     32  C   UNL A   1      37.670  30.178  28.803  1.00  0.00     0.016 A 
ATOM     33  C   UNL A   1      39.593  29.417  30.703  1.00  0.00     0.010 A 
ATOM     34  C   UNL A   1      38.896  29.641  28.391  1.00  0.00     0.010 A 
ATOM     35  C   UNL A   1      39.875  29.289  29.338  1.00  0.00    -0.014 A 
BRANCH  35  36
ATOM     36  C   UNL A   1      41.242  28.912  28.902  1.00  0.00     0.031 A 
ATOM     37  C   UNL A   1      42.320  29.962  28.884  1.00  0.00     0.074 A 
ATOM     38  C   UNL A   1      41.527  27.645  28.551  1.00  0.00     0.049 A 
ATOM     39  N   UNL A   1      43.574  29.856  28.525  1.00  0.00    -0.248 NA
ATOM     40  C   UNL A   1      41.933  31.311  29.332  1.00  0.00     0.031 C 
ATOM     41  C   UNL A   1      40.582  26.530  28.564  1.00  0.00     0.029 A 
ATOM     42  N   UNL A   1      42.701  27.086  28.111  1.00  0.00    -0.354 N 
ATOM     43  C   UNL A   1      44.124  31.121  28.694  1.00  0.00     0.074 A 
ATOM     44  C   UNL A   1      43.062  31.985  29.164  1.00  0.00     0.031 C 
ATOM     45  C   UNL A   1      41.212  25.419  28.144  1.00  0.00     0.029 A 
ATOM     46  C   UNL A   1      42.595  25.751  27.804  1.00  0.00     0.049 A 
ATOM     47  H   UNL A   1      43.540  27.594  28.023  1.00  0.00     0.167 HD
ATOM     48  C   UNL A   1      45.399  31.527  28.484  1.00  0.00     0.031 A 
ATOM     49  C   UNL A   1      43.502  24.898  27.290  1.00  0.00     0.031 A 
ATOM     50  C   UNL A   1      46.451  30.669  28.003  1.00  0.00     0.049 A 
ATOM     51  C   UNL A   1      44.896  25.387  26.998  1.00  0.00     0.074 A 
ATOM     52  C   UNL A   1      47.779  30.985  27.772  1.00  0.00     0.029 A 
ATOM     53  N   UNL A   1      46.293  29.333  27.671  1.00  0.00    -0.354 N 
ATOM     54  N   UNL A   1      45.407  26.581  27.188  1.00  0.00    -0.248 NA
ATOM     55  C   UNL A   1      45.838  24.413  26.428  1.00  0.00     0.031 C 
ATOM     56  C   UNL A   1      48.412  29.851  27.250  1.00  0.00     0.029 A 
ATOM     57  C   UNL A   1      47.493  28.815  27.213  1.00  0.00     0.049 A 
ATOM     58  H   UNL A   1      45.452  28.826  27.750  1.00  0.00     0.167 HD
ATOM     59  C   UNL A   1      46.737  26.492  26.788  1.00  0.00     0.074 A 
ATOM     60  C   UNL A   1      46.953  25.126  26.355  1.00  0.00     0.031 C 
ATOM     61  C   UNL A   1      47.693  27.453  26.783  1.00  0.00     0.031 A 
BRANCH  48  62
ATOM     62  C   UNL A   1      45.717  32.975  28.741  1.00  0.00    -0.014 A 
ATOM     63  C   UNL A   1      46.091  33.423  30.021  1.00  0.00     0.010 A 
ATOM     64  C   UNL A   1      45.670  33.897  27.679  1.00  0.00     0.010 A 
ATOM     65  C   UNL A   1      46.375  34.774  30.242  1.00  0.00     0.020 A 
ATOM     66  C   UNL A   1      45.979  35.244  27.891  1.00  0.00     0.020 A 
ATOM     67  C   UNL A   1      46.312  35.676  29.176  1.00  0.00     0.054 A 
BRANCH  67  68
ATOM     68  S   UNL A   1      46.700  37.421  29.487  1.00  0.00     0.124 S 
ATOM     69  O   UNL A   1      48.145  37.375  29.694  1.00  0.00    -0.237 OA
ATOM     70  O   UNL A   1      46.264  38.073  28.255  1.00  0.00    -0.237 OA
ATOM     71  O   UNL A   1      45.912  37.747  30.673  1.00  0.00    -0.744 OA
ENDBRANCH  67  68
ENDBRANCH  48  62
BRANCH  49  72
ATOM     72  C   UNL A   1      43.116  23.488  27.004  1.00  0.00    -0.014 A 
ATOM     73  C   UNL A   1      42.841  23.073  25.689  1.00  0.00     0.010 A 
ATOM     74  C   UNL A   1      43.026  22.552  28.050  1.00  0.00     0.010 A 
ATOM     75  C   UNL A   1      42.472  21.749  25.428  1.00  0.00     0.020 A 
ATOM     76  C   UNL A   1      42.683  21.222  27.789  1.00  0.00     0.020 A 
ATOM     77  C   UNL A   1      42.398  20.832  26.480  1.00  0.00     0.054 A 
BRANCH  77  78
ATOM     78  S   UNL A   1      41.974  19.106  26.109  1.00  0.00     0.124 S 
ATOM     79  O   UNL A   1      42.272  18.443  27.375  1.00  0.00    -0.237 OA
ATOM     80  O   UNL A   1      40.559  19.198  25.759  1.00  0.00    -0.237 OA
ATOM     81  O   UNL A   1      42.861  18.768  24.998  1.00  0.00    -0.744 OA
ENDBRANCH  77  78
ENDBRANCH  49  72
BRANCH  61  82
ATOM     82  C   UNL A   1      49.074  27.060  26.329  1.00  0.00    -0.014 A 
ATOM     83  C   UNL A   1      50.024  26.551  27.234  1.00  0.00     0.010 A 
ATOM     84  C   UNL A   1      49.406  27.146  24.964  1.00  0.00     0.010 A 
ATOM     85  C   UNL A   1      51.289  26.163  26.784  1.00  0.00     0.020 A 
ATOM     86  C   UNL A   1      50.661  26.734  24.508  1.00  0.00     0.020 A 
ATOM     87  C   UNL A   1      51.600  26.258  25.424  1.00  0.00     0.054 A 
BRANCH  87  88
ATOM     88  S   UNL A   1      53.233  25.706  24.859  1.00  0.00     0.124 S 
ATOM     89  O   UNL A   1      54.128  26.555  25.640  1.00  0.00    -0.237 OA
ATOM     90  O   UNL A   1      53.237  24.290  25.219  1.00  0.00    -0.237 OA
ATOM     91  O   UNL A   1      53.212  25.975  23.423  1.00  0.00    -0.744 OA
ENDBRANCH  87  88
ENDBRANCH  61  82
ENDBRANCH  35  36
ENDBRANCH  28  30
ENDBRANCH  27  28
ENDBRANCH  26  27
ENDBRANCH  25  26
ENDBRANCH   1  25
TORSDOF 21
ENDMDL
