MODEL 1
REMARK VINA RESULT:      -8.8      0.000      0.000
REMARK SMILES CCSc1cccc(-c2ccc([C@@H](C)C(=O)OCCOCCOC(=O)c3ccc(-c4c5nc(c(-c6ccc(S(=O)(=O)[O-])cc6)c6ccc([nH]6)c(-c6ccc(S(=O)(=O)[O-])cc6)c6nc(c(-c7ccc(S(=O)(=O)[O-])cc7)c7ccc4[nH]7)C=C6)C=C5)cc3)cc2)c1
REMARK SMILES IDX 19 1 18 2 17 3 15 4 16 5 13 6 14 7 12 8 9 9 10 10 87 11
REMARK SMILES IDX 11 12 86 13 8 14 4 15 5 16 88 17 6 18 7 19 3 20 2 21 1 22
REMARK SMILES IDX 20 23 21 24 22 25 23 26 24 27 25 28 26 29 27 30 85 31 28 32
REMARK SMILES IDX 84 33 29 34 30 35 31 36 78 37 32 38 83 39 77 40 79 41 33 42
REMARK SMILES IDX 82 43 76 44 75 45 34 47 64 48 45 49 63 50 46 51 49 52 62 53
REMARK SMILES IDX 80 54 47 55 48 56 61 58 81 59 50 60 35 61 36 62 44 63 37 64
REMARK SMILES IDX 43 65 38 66 39 67 40 68 41 69 42 70 65 71 66 72 74 73 67 74
REMARK SMILES IDX 73 75 68 76 69 77 70 78 71 79 72 80 51 81 52 82 60 83 53 84
REMARK SMILES IDX 59 85 54 86 55 87 56 88 57 89 58 90
REMARK H PARENT 79 46 49 57
REMARK Flexibility Score: inf
ROOT
ATOM      1  C   UNL A   1      33.044  36.115  29.752  1.00  0.00     0.202 C 
ENDROOT
BRANCH   1   2
ATOM      2  C   UNL A   1      32.910  35.708  31.222  1.00  0.00     0.261 C 
BRANCH   2   3
ATOM      3  O   UNL A   1      34.197  35.505  31.831  1.00  0.00    -0.463 OA
BRANCH   3   4
ATOM      4  C   UNL A   1      34.432  34.266  32.335  1.00  0.00     0.313 C 
ATOM      5  O   UNL A   1      34.091  33.895  33.456  1.00  0.00    -0.252 OA
BRANCH   4   6
ATOM      6  C   UNL A   1      35.204  33.356  31.393  1.00  0.00     0.126 C 
ATOM      7  C   UNL A   1      35.200  31.935  31.953  1.00  0.00     0.025 C 
BRANCH   6   8
ATOM      8  C   UNL A   1      36.599  33.799  30.963  1.00  0.00    -0.034 A 
ATOM      9  C   UNL A   1      39.284  34.355  30.166  1.00  0.00    -0.018 A 
ATOM     10  C   UNL A   1      38.821  34.667  31.456  1.00  0.00     0.009 A 
ATOM     11  C   UNL A   1      38.359  33.821  29.260  1.00  0.00     0.009 A 
ATOM     12  C   UNL A   1      37.505  34.391  31.851  1.00  0.00     0.005 A 
ATOM     13  C   UNL A   1      37.039  33.547  29.651  1.00  0.00     0.005 A 
BRANCH   9  14
ATOM     14  C   UNL A   1      40.710  34.514  29.821  1.00  0.00    -0.017 A 
ATOM     15  C   UNL A   1      42.511  35.441  28.441  1.00  0.00     0.008 A 
ATOM     16  C   UNL A   1      43.456  34.844  29.278  1.00  0.00     0.015 A 
ATOM     17  C   UNL A   1      41.143  35.283  28.725  1.00  0.00     0.023 A 
ATOM     18  C   UNL A   1      43.048  34.050  30.347  1.00  0.00     0.002 A 
ATOM     19  C   UNL A   1      41.690  33.886  30.609  1.00  0.00     0.009 A 
BRANCH  15  20
ATOM     20  S   UNL A   1      43.024  36.503  27.100  1.00  0.00    -0.126 SA
BRANCH  20  21
ATOM     21  C   UNL A   1      44.832  36.602  27.359  1.00  0.00     0.071 C 
ATOM     22  C   UNL A   1      45.642  35.741  26.403  1.00  0.00     0.016 C 
ENDBRANCH  20  21
ENDBRANCH  15  20
ENDBRANCH   9  14
ENDBRANCH   6   8
ENDBRANCH   4   6
ENDBRANCH   3   4
ENDBRANCH   2   3
ENDBRANCH   1   2
BRANCH   1  23
ATOM     23  O   UNL A   1      32.650  35.141  28.786  1.00  0.00    -0.374 OA
BRANCH  23  24
ATOM     24  C   UNL A   1      33.691  34.402  28.145  1.00  0.00     0.202 C 
BRANCH  24  25
ATOM     25  C   UNL A   1      33.478  32.890  28.003  1.00  0.00     0.261 C 
BRANCH  25  26
ATOM     26  O   UNL A   1      34.642  32.215  27.494  1.00  0.00    -0.460 OA
BRANCH  26  27
ATOM     27  C   UNL A   1      34.589  30.863  27.536  1.00  0.00     0.338 C 
ATOM     28  O   UNL A   1      33.713  30.142  27.075  1.00  0.00    -0.246 OA
BRANCH  27  29
ATOM     29  C   UNL A   1      35.861  30.332  28.059  1.00  0.00     0.060 A 
ATOM     30  C   UNL A   1      35.827  29.661  29.289  1.00  0.00     0.016 A 
ATOM     31  C   UNL A   1      37.070  30.528  27.390  1.00  0.00     0.016 A 
ATOM     32  C   UNL A   1      37.009  29.203  29.868  1.00  0.00     0.010 A 
ATOM     33  C   UNL A   1      38.257  30.079  27.981  1.00  0.00     0.010 A 
ATOM     34  C   UNL A   1      38.236  29.433  29.230  1.00  0.00    -0.014 A 
BRANCH  34  35
ATOM     35  C   UNL A   1      39.504  29.077  29.912  1.00  0.00     0.031 A 
ATOM     36  C   UNL A   1      39.937  29.859  31.122  1.00  0.00     0.074 A 
ATOM     37  C   UNL A   1      40.259  28.060  29.460  1.00  0.00     0.049 A 
ATOM     38  N   UNL A   1      41.034  29.751  31.825  1.00  0.00    -0.248 NA
ATOM     39  C   UNL A   1      39.010  30.896  31.603  1.00  0.00     0.031 C 
ATOM     40  C   UNL A   1      39.923  27.196  28.327  1.00  0.00     0.029 A 
ATOM     41  N   UNL A   1      41.473  27.588  29.893  1.00  0.00    -0.354 N 
ATOM     42  C   UNL A   1      40.938  30.710  32.825  1.00  0.00     0.074 A 
ATOM     43  C   UNL A   1      39.683  31.404  32.627  1.00  0.00     0.031 C 
ATOM     44  C   UNL A   1      40.917  26.310  28.145  1.00  0.00     0.029 A 
ATOM     45  C   UNL A   1      41.975  26.568  29.121  1.00  0.00     0.049 A 
ATOM     46  H   UNL A   1      41.940  27.948  30.681  1.00  0.00     0.167 HD
ATOM     47  C   UNL A   1      41.816  30.987  33.820  1.00  0.00     0.031 A 
ATOM     48  C   UNL A   1      43.164  25.935  29.172  1.00  0.00     0.031 A 
ATOM     49  C   UNL A   1      43.069  30.306  34.005  1.00  0.00     0.049 A 
ATOM     50  C   UNL A   1      44.164  26.327  30.227  1.00  0.00     0.074 A 
ATOM     51  C   UNL A   1      44.014  30.499  34.998  1.00  0.00     0.029 A 
ATOM     52  N   UNL A   1      43.562  29.312  33.173  1.00  0.00    -0.354 N 
ATOM     53  N   UNL A   1      44.045  27.214  31.186  1.00  0.00    -0.248 NA
ATOM     54  C   UNL A   1      45.462  25.634  30.205  1.00  0.00     0.031 C 
ATOM     55  C   UNL A   1      45.106  29.666  34.730  1.00  0.00     0.029 A 
ATOM     56  C   UNL A   1      44.816  28.912  33.605  1.00  0.00     0.049 A 
ATOM     57  H   UNL A   1      43.090  28.945  32.391  1.00  0.00     0.167 HD
ATOM     58  C   UNL A   1      45.245  27.175  31.890  1.00  0.00     0.074 A 
ATOM     59  C   UNL A   1      46.069  26.165  31.259  1.00  0.00     0.031 C 
ATOM     60  C   UNL A   1      45.629  27.910  32.962  1.00  0.00     0.031 A 
BRANCH  47  61
ATOM     61  C   UNL A   1      41.469  32.106  34.766  1.00  0.00    -0.014 A 
ATOM     62  C   UNL A   1      40.867  31.848  36.011  1.00  0.00     0.010 A 
ATOM     63  C   UNL A   1      41.798  33.430  34.425  1.00  0.00     0.010 A 
ATOM     64  C   UNL A   1      40.573  32.899  36.884  1.00  0.00     0.020 A 
ATOM     65  C   UNL A   1      41.528  34.481  35.306  1.00  0.00     0.020 A 
ATOM     66  C   UNL A   1      40.904  34.210  36.524  1.00  0.00     0.054 A 
BRANCH  66  67
ATOM     67  S   UNL A   1      40.537  35.551  37.689  1.00  0.00     0.124 S 
ATOM     68  O   UNL A   1      39.511  34.944  38.534  1.00  0.00    -0.237 OA
ATOM     69  O   UNL A   1      41.828  35.777  38.335  1.00  0.00    -0.237 OA
ATOM     70  O   UNL A   1      40.073  36.639  36.833  1.00  0.00    -0.744 OA
ENDBRANCH  66  67
ENDBRANCH  47  61
BRANCH  48  71
ATOM     71  C   UNL A   1      43.495  24.894  28.161  1.00  0.00    -0.014 A 
ATOM     72  C   UNL A   1      44.205  25.223  26.994  1.00  0.00     0.010 A 
ATOM     73  C   UNL A   1      43.099  23.559  28.367  1.00  0.00     0.010 A 
ATOM     74  C   UNL A   1      44.501  24.239  26.045  1.00  0.00     0.020 A 
ATOM     75  C   UNL A   1      43.416  22.568  27.434  1.00  0.00     0.020 A 
ATOM     76  C   UNL A   1      44.107  22.917  26.274  1.00  0.00     0.054 A 
BRANCH  76  77
ATOM     77  S   UNL A   1      44.549  21.646  25.056  1.00  0.00     0.124 S 
ATOM     78  O   UNL A   1      44.382  22.362  23.796  1.00  0.00    -0.237 OA
ATOM     79  O   UNL A   1      45.926  21.323  25.424  1.00  0.00    -0.237 OA
ATOM     80  O   UNL A   1      43.580  20.582  25.307  1.00  0.00    -0.744 OA
ENDBRANCH  76  77
ENDBRANCH  48  71
BRANCH  60  81
ATOM     81  C   UNL A   1      46.998  27.649  33.535  1.00  0.00    -0.014 A 
ATOM     82  C   UNL A   1      48.134  28.294  33.017  1.00  0.00     0.010 A 
ATOM     83  C   UNL A   1      47.138  26.804  34.651  1.00  0.00     0.010 A 
ATOM     84  C   UNL A   1      49.389  28.086  33.595  1.00  0.00     0.020 A 
ATOM     85  C   UNL A   1      48.387  26.614  35.248  1.00  0.00     0.020 A 
ATOM     86  C   UNL A   1      49.507  27.250  34.709  1.00  0.00     0.054 A 
BRANCH  86  87
ATOM     87  S   UNL A   1      51.138  27.046  35.479  1.00  0.00     0.124 S 
ATOM     88  O   UNL A   1      51.959  26.631  34.346  1.00  0.00    -0.237 OA
ATOM     89  O   UNL A   1      51.415  28.383  36.000  1.00  0.00    -0.237 OA
ATOM     90  O   UNL A   1      50.915  26.021  36.496  1.00  0.00    -0.744 OA
ENDBRANCH  86  87
ENDBRANCH  60  81
ENDBRANCH  34  35
ENDBRANCH  27  29
ENDBRANCH  26  27
ENDBRANCH  25  26
ENDBRANCH  24  25
ENDBRANCH  23  24
ENDBRANCH   1  23
TORSDOF 21
ENDMDL
MODEL 2
REMARK VINA RESULT:      -8.6      1.036      8.210
REMARK SMILES CCSc1cccc(-c2ccc([C@@H](C)C(=O)OCCOCCOC(=O)c3ccc(-c4c5nc(c(-c6ccc(S(=O)(=O)[O-])cc6)c6ccc([nH]6)c(-c6ccc(S(=O)(=O)[O-])cc6)c6nc(c(-c7ccc(S(=O)(=O)[O-])cc7)c7ccc4[nH]7)C=C6)C=C5)cc3)cc2)c1
REMARK SMILES IDX 19 1 18 2 17 3 15 4 16 5 13 6 14 7 12 8 9 9 10 10 87 11
REMARK SMILES IDX 11 12 86 13 8 14 4 15 5 16 88 17 6 18 7 19 3 20 2 21 1 22
REMARK SMILES IDX 20 23 21 24 22 25 23 26 24 27 25 28 26 29 27 30 85 31 28 32
REMARK SMILES IDX 84 33 29 34 30 35 31 36 78 37 32 38 83 39 77 40 79 41 33 42
REMARK SMILES IDX 82 43 76 44 75 45 34 47 64 48 45 49 63 50 46 51 49 52 62 53
REMARK SMILES IDX 80 54 47 55 48 56 61 58 81 59 50 60 35 61 36 62 44 63 37 64
REMARK SMILES IDX 43 65 38 66 39 67 40 68 41 69 42 70 65 71 66 72 74 73 67 74
REMARK SMILES IDX 73 75 68 76 69 77 70 78 71 79 72 80 51 81 52 82 60 83 53 84
REMARK SMILES IDX 59 85 54 86 55 87 56 88 57 89 58 90
REMARK H PARENT 79 46 49 57
REMARK Flexibility Score: inf
ROOT
ATOM      1  C   UNL A   1      33.139  35.789  30.241  1.00  0.00     0.202 C 
ENDROOT
BRANCH   1   2
ATOM      2  C   UNL A   1      33.069  35.505  31.745  1.00  0.00     0.261 C 
BRANCH   2   3
ATOM      3  O   UNL A   1      34.378  35.496  32.340  1.00  0.00    -0.463 OA
BRANCH   3   4
ATOM      4  C   UNL A   1      34.808  34.301  32.820  1.00  0.00     0.313 C 
ATOM      5  O   UNL A   1      34.751  33.963  34.000  1.00  0.00    -0.252 OA
BRANCH   4   6
ATOM      6  C   UNL A   1      35.418  33.398  31.759  1.00  0.00     0.126 C 
ATOM      7  C   UNL A   1      35.434  31.959  32.274  1.00  0.00     0.025 C 
BRANCH   6   8
ATOM      8  C   UNL A   1      36.761  33.809  31.164  1.00  0.00    -0.034 A 
ATOM      9  C   UNL A   1      39.355  34.309  30.081  1.00  0.00    -0.018 A 
ATOM     10  C   UNL A   1      38.997  34.754  31.366  1.00  0.00     0.009 A 
ATOM     11  C   UNL A   1      38.369  33.666  29.322  1.00  0.00     0.009 A 
ATOM     12  C   UNL A   1      37.726  34.507  31.901  1.00  0.00     0.005 A 
ATOM     13  C   UNL A   1      37.094  33.419  29.854  1.00  0.00     0.005 A 
BRANCH   9  14
ATOM     14  C   UNL A   1      40.743  34.447  29.598  1.00  0.00    -0.017 A 
ATOM     15  C   UNL A   1      43.076  33.705  29.479  1.00  0.00     0.008 A 
ATOM     16  C   UNL A   1      43.349  34.721  28.560  1.00  0.00     0.015 A 
ATOM     17  C   UNL A   1      41.771  33.566  29.983  1.00  0.00     0.023 A 
ATOM     18  C   UNL A   1      42.356  35.625  28.193  1.00  0.00     0.002 A 
ATOM     19  C   UNL A   1      41.069  35.489  28.712  1.00  0.00     0.009 A 
BRANCH  15  20
ATOM     20  S   UNL A   1      44.329  32.510  29.915  1.00  0.00    -0.126 SA
BRANCH  20  21
ATOM     21  C   UNL A   1      45.064  33.254  31.416  1.00  0.00     0.071 C 
ATOM     22  C   UNL A   1      44.967  32.376  32.653  1.00  0.00     0.016 C 
ENDBRANCH  20  21
ENDBRANCH  15  20
ENDBRANCH   9  14
ENDBRANCH   6   8
ENDBRANCH   4   6
ENDBRANCH   3   4
ENDBRANCH   2   3
ENDBRANCH   1   2
BRANCH   1  23
ATOM     23  O   UNL A   1      32.714  34.736  29.377  1.00  0.00    -0.374 OA
BRANCH  23  24
ATOM     24  C   UNL A   1      33.688  34.190  28.487  1.00  0.00     0.202 C 
BRANCH  24  25
ATOM     25  C   UNL A   1      33.471  32.742  28.029  1.00  0.00     0.261 C 
BRANCH  25  26
ATOM     26  O   UNL A   1      34.677  32.135  27.535  1.00  0.00    -0.460 OA
BRANCH  26  27
ATOM     27  C   UNL A   1      34.692  30.781  27.557  1.00  0.00     0.338 C 
ATOM     28  O   UNL A   1      33.878  30.024  27.044  1.00  0.00    -0.246 OA
BRANCH  27  29
ATOM     29  C   UNL A   1      35.962  30.307  28.136  1.00  0.00     0.060 A 
ATOM     30  C   UNL A   1      35.918  29.729  29.412  1.00  0.00     0.016 A 
ATOM     31  C   UNL A   1      37.179  30.468  27.471  1.00  0.00     0.016 A 
ATOM     32  C   UNL A   1      37.098  29.331  30.039  1.00  0.00     0.010 A 
ATOM     33  C   UNL A   1      38.363  30.080  28.109  1.00  0.00     0.010 A 
ATOM     34  C   UNL A   1      38.331  29.529  29.403  1.00  0.00    -0.014 A 
BRANCH  34  35
ATOM     35  C   UNL A   1      39.593  29.241  30.127  1.00  0.00     0.031 A 
ATOM     36  C   UNL A   1      40.495  28.145  29.630  1.00  0.00     0.074 A 
ATOM     37  C   UNL A   1      39.933  29.956  31.214  1.00  0.00     0.049 A 
ATOM     38  N   UNL A   1      41.607  27.694  30.150  1.00  0.00    -0.248 NA
ATOM     39  C   UNL A   1      40.092  27.472  28.385  1.00  0.00     0.031 C 
ATOM     40  C   UNL A   1      39.167  31.075  31.764  1.00  0.00     0.029 A 
ATOM     41  N   UNL A   1      41.009  29.839  32.059  1.00  0.00    -0.354 N 
ATOM     42  C   UNL A   1      42.035  26.678  29.303  1.00  0.00     0.074 A 
ATOM     43  C   UNL A   1      41.052  26.567  28.246  1.00  0.00     0.031 C 
ATOM     44  C   UNL A   1      39.790  31.530  32.865  1.00  0.00     0.029 A 
ATOM     45  C   UNL A   1      40.975  30.712  33.119  1.00  0.00     0.049 A 
ATOM     46  H   UNL A   1      41.736  29.190  31.918  1.00  0.00     0.167 HD
ATOM     47  C   UNL A   1      43.146  25.909  29.397  1.00  0.00     0.031 A 
ATOM     48  C   UNL A   1      41.786  30.821  34.190  1.00  0.00     0.031 A 
ATOM     49  C   UNL A   1      44.113  26.012  30.458  1.00  0.00     0.049 A 
ATOM     50  C   UNL A   1      42.962  29.889  34.323  1.00  0.00     0.074 A 
ATOM     51  C   UNL A   1      45.284  25.292  30.626  1.00  0.00     0.029 A 
ATOM     52  N   UNL A   1      44.017  26.875  31.537  1.00  0.00    -0.354 N 
ATOM     53  N   UNL A   1      43.371  28.955  33.498  1.00  0.00    -0.248 NA
ATOM     54  C   UNL A   1      43.784  30.023  35.536  1.00  0.00     0.031 C 
ATOM     55  C   UNL A   1      45.863  25.678  31.840  1.00  0.00     0.029 A 
ATOM     56  C   UNL A   1      45.084  26.679  32.398  1.00  0.00     0.049 A 
ATOM     57  H   UNL A   1      43.296  27.532  31.673  1.00  0.00     0.167 HD
ATOM     58  C   UNL A   1      44.506  28.402  34.083  1.00  0.00     0.074 A 
ATOM     59  C   UNL A   1      44.730  29.117  35.322  1.00  0.00     0.031 C 
ATOM     60  C   UNL A   1      45.291  27.392  33.633  1.00  0.00     0.031 A 
BRANCH  47  61
ATOM     61  C   UNL A   1      43.357  24.855  28.343  1.00  0.00    -0.014 A 
ATOM     62  C   UNL A   1      44.194  25.088  27.237  1.00  0.00     0.010 A 
ATOM     63  C   UNL A   1      42.750  23.595  28.491  1.00  0.00     0.010 A 
ATOM     64  C   UNL A   1      44.394  24.088  26.280  1.00  0.00     0.020 A 
ATOM     65  C   UNL A   1      42.968  22.585  27.549  1.00  0.00     0.020 A 
ATOM     66  C   UNL A   1      43.777  22.843  26.442  1.00  0.00     0.054 A 
BRANCH  66  67
ATOM     67  S   UNL A   1      44.078  21.555  25.201  1.00  0.00     0.124 S 
ATOM     68  O   UNL A   1      45.483  21.231  25.436  1.00  0.00    -0.237 OA
ATOM     69  O   UNL A   1      43.123  20.516  25.578  1.00  0.00    -0.237 OA
ATOM     70  O   UNL A   1      43.798  22.222  23.932  1.00  0.00    -0.744 OA
ENDBRANCH  66  67
ENDBRANCH  47  61
BRANCH  48  71
ATOM     71  C   UNL A   1      41.487  31.822  35.250  1.00  0.00    -0.014 A 
ATOM     72  C   UNL A   1      42.207  33.027  35.325  1.00  0.00     0.010 A 
ATOM     73  C   UNL A   1      40.472  31.571  36.192  1.00  0.00     0.010 A 
ATOM     74  C   UNL A   1      41.926  33.956  36.332  1.00  0.00     0.020 A 
ATOM     75  C   UNL A   1      40.170  32.509  37.183  1.00  0.00     0.020 A 
ATOM     76  C   UNL A   1      40.906  33.692  37.253  1.00  0.00     0.054 A 
BRANCH  76  77
ATOM     77  S   UNL A   1      40.521  34.935  38.518  1.00  0.00     0.124 S 
ATOM     78  O   UNL A   1      39.609  34.206  39.391  1.00  0.00    -0.237 OA
ATOM     79  O   UNL A   1      41.838  35.231  39.080  1.00  0.00    -0.237 OA
ATOM     80  O   UNL A   1      39.922  36.025  37.751  1.00  0.00    -0.744 OA
ENDBRANCH  76  77
ENDBRANCH  48  71
BRANCH  60  81
ATOM     81  C   UNL A   1      46.475  27.000  34.477  1.00  0.00    -0.014 A 
ATOM     82  C   UNL A   1      47.716  27.641  34.325  1.00  0.00     0.010 A 
ATOM     83  C   UNL A   1      46.323  26.029  35.485  1.00  0.00     0.010 A 
ATOM     84  C   UNL A   1      48.791  27.306  35.154  1.00  0.00     0.020 A 
ATOM     85  C   UNL A   1      47.387  25.710  36.332  1.00  0.00     0.020 A 
ATOM     86  C   UNL A   1      48.618  26.345  36.156  1.00  0.00     0.054 A 
BRANCH  86  87
ATOM     87  S   UNL A   1      50.010  25.975  37.259  1.00  0.00     0.124 S 
ATOM     88  O   UNL A   1      50.855  27.153  37.089  1.00  0.00    -0.237 OA
ATOM     89  O   UNL A   1      49.361  25.849  38.562  1.00  0.00    -0.237 OA
ATOM     90  O   UNL A   1      50.558  24.732  36.720  1.00  0.00    -0.744 OA
ENDBRANCH  86  87
ENDBRANCH  60  81
ENDBRANCH  34  35
ENDBRANCH  27  29
ENDBRANCH  26  27
ENDBRANCH  25  26
ENDBRANCH  24  25
ENDBRANCH  23  24
ENDBRANCH   1  23
TORSDOF 21
ENDMDL
MODEL 3
REMARK VINA RESULT:      -7.7      4.631     10.737
REMARK SMILES CCSc1cccc(-c2ccc([C@@H](C)C(=O)OCCOCCOC(=O)c3ccc(-c4c5nc(c(-c6ccc(S(=O)(=O)[O-])cc6)c6ccc([nH]6)c(-c6ccc(S(=O)(=O)[O-])cc6)c6nc(c(-c7ccc(S(=O)(=O)[O-])cc7)c7ccc4[nH]7)C=C6)C=C5)cc3)cc2)c1
REMARK SMILES IDX 19 1 18 2 17 3 15 4 16 5 13 6 14 7 12 8 9 9 10 10 87 11
REMARK SMILES IDX 11 12 86 13 8 14 4 15 5 16 88 17 6 18 7 19 3 20 2 21 1 22
REMARK SMILES IDX 20 23 21 24 22 25 23 26 24 27 25 28 26 29 27 30 85 31 28 32
REMARK SMILES IDX 84 33 29 34 30 35 31 36 78 37 32 38 83 39 77 40 79 41 33 42
REMARK SMILES IDX 82 43 76 44 75 45 34 47 64 48 45 49 63 50 46 51 49 52 62 53
REMARK SMILES IDX 80 54 47 55 48 56 61 58 81 59 50 60 35 61 36 62 44 63 37 64
REMARK SMILES IDX 43 65 38 66 39 67 40 68 41 69 42 70 65 71 66 72 74 73 67 74
REMARK SMILES IDX 73 75 68 76 69 77 70 78 71 79 72 80 51 81 52 82 60 83 53 84
REMARK SMILES IDX 59 85 54 86 55 87 56 88 57 89 58 90
REMARK H PARENT 79 46 49 57
REMARK Flexibility Score: inf
ROOT
ATOM      1  C   UNL A   1      35.043  22.889  23.024  1.00  0.00     0.202 C 
ENDROOT
BRANCH   1   2
ATOM      2  C   UNL A   1      33.784  22.545  23.824  1.00  0.00     0.261 C 
BRANCH   2   3
ATOM      3  O   UNL A   1      33.330  23.667  24.600  1.00  0.00    -0.463 OA
BRANCH   3   4
ATOM      4  C   UNL A   1      32.002  23.701  24.882  1.00  0.00     0.313 C 
ATOM      5  O   UNL A   1      31.126  23.212  24.172  1.00  0.00    -0.252 OA
BRANCH   4   6
ATOM      6  C   UNL A   1      31.666  24.443  26.167  1.00  0.00     0.126 C 
ATOM      7  C   UNL A   1      30.163  24.344  26.425  1.00  0.00     0.025 C 
BRANCH   6   8
ATOM      8  C   UNL A   1      32.181  25.871  26.316  1.00  0.00    -0.034 A 
ATOM      9  C   UNL A   1      33.314  28.447  26.803  1.00  0.00    -0.018 A 
ATOM     10  C   UNL A   1      32.002  28.134  27.199  1.00  0.00     0.009 A 
ATOM     11  C   UNL A   1      34.027  27.467  26.099  1.00  0.00     0.009 A 
ATOM     12  C   UNL A   1      31.445  26.870  26.965  1.00  0.00     0.005 A 
ATOM     13  C   UNL A   1      33.471  26.201  25.860  1.00  0.00     0.005 A 
BRANCH   9  14
ATOM     14  C   UNL A   1      33.932  29.729  27.192  1.00  0.00    -0.017 A 
ATOM     15  C   UNL A   1      33.811  32.129  27.676  1.00  0.00     0.008 A 
ATOM     16  C   UNL A   1      35.162  32.121  28.032  1.00  0.00     0.015 A 
ATOM     17  C   UNL A   1      33.201  30.929  27.270  1.00  0.00     0.023 A 
ATOM     18  C   UNL A   1      35.911  30.953  27.929  1.00  0.00     0.002 A 
ATOM     19  C   UNL A   1      35.300  29.773  27.509  1.00  0.00     0.009 A 
BRANCH  15  20
ATOM     20  S   UNL A   1      32.830  33.610  27.856  1.00  0.00    -0.126 SA
BRANCH  20  21
ATOM     21  C   UNL A   1      33.766  34.539  29.123  1.00  0.00     0.071 C 
ATOM     22  C   UNL A   1      34.638  35.649  28.558  1.00  0.00     0.016 C 
ENDBRANCH  20  21
ENDBRANCH  15  20
ENDBRANCH   9  14
ENDBRANCH   6   8
ENDBRANCH   4   6
ENDBRANCH   3   4
ENDBRANCH   2   3
ENDBRANCH   1   2
BRANCH   1  23
ATOM     23  O   UNL A   1      36.292  22.659  23.676  1.00  0.00    -0.374 OA
BRANCH  23  24
ATOM     24  C   UNL A   1      36.384  21.510  24.519  1.00  0.00     0.202 C 
BRANCH  24  25
ATOM     25  C   UNL A   1      37.755  21.217  25.141  1.00  0.00     0.261 C 
BRANCH  25  26
ATOM     26  O   UNL A   1      38.355  22.385  25.726  1.00  0.00    -0.460 OA
BRANCH  26  27
ATOM     27  C   UNL A   1      39.517  22.169  26.386  1.00  0.00     0.338 C 
ATOM     28  O   UNL A   1      40.185  21.142  26.390  1.00  0.00    -0.246 OA
BRANCH  27  29
ATOM     29  C   UNL A   1      39.999  23.432  26.973  1.00  0.00     0.060 A 
ATOM     30  C   UNL A   1      39.594  24.628  26.364  1.00  0.00     0.016 A 
ATOM     31  C   UNL A   1      40.869  23.451  28.065  1.00  0.00     0.016 A 
ATOM     32  C   UNL A   1      40.079  25.848  26.830  1.00  0.00     0.010 A 
ATOM     33  C   UNL A   1      41.364  24.677  28.522  1.00  0.00     0.010 A 
ATOM     34  C   UNL A   1      40.989  25.879  27.895  1.00  0.00    -0.014 A 
BRANCH  34  35
ATOM     35  C   UNL A   1      41.616  27.162  28.297  1.00  0.00     0.031 A 
ATOM     36  C   UNL A   1      43.093  27.357  28.094  1.00  0.00     0.074 A 
ATOM     37  C   UNL A   1      40.871  28.147  28.831  1.00  0.00     0.049 A 
ATOM     38  N   UNL A   1      43.845  28.373  28.431  1.00  0.00    -0.248 NA
ATOM     39  C   UNL A   1      43.817  26.266  27.423  1.00  0.00     0.031 C 
ATOM     40  C   UNL A   1      39.423  28.097  29.033  1.00  0.00     0.029 A 
ATOM     41  N   UNL A   1      41.235  29.379  29.314  1.00  0.00    -0.354 N 
ATOM     42  C   UNL A   1      45.132  28.043  28.023  1.00  0.00     0.074 A 
ATOM     43  C   UNL A   1      45.062  26.724  27.430  1.00  0.00     0.031 C 
ATOM     44  C   UNL A   1      39.025  29.243  29.614  1.00  0.00     0.029 A 
ATOM     45  C   UNL A   1      40.192  30.087  29.859  1.00  0.00     0.049 A 
ATOM     46  H   UNL A   1      42.157  29.723  29.274  1.00  0.00     0.167 HD
ATOM     47  C   UNL A   1      46.268  28.773  28.131  1.00  0.00     0.031 A 
ATOM     48  C   UNL A   1      40.181  31.266  30.513  1.00  0.00     0.031 A 
ATOM     49  C   UNL A   1      46.336  30.077  28.734  1.00  0.00     0.049 A 
ATOM     50  C   UNL A   1      41.473  32.016  30.706  1.00  0.00     0.074 A 
ATOM     51  C   UNL A   1      47.438  30.905  28.868  1.00  0.00     0.029 A 
ATOM     52  N   UNL A   1      45.267  30.738  29.318  1.00  0.00    -0.354 N 
ATOM     53  N   UNL A   1      42.676  31.705  30.286  1.00  0.00    -0.248 NA
ATOM     54  C   UNL A   1      41.406  33.273  31.467  1.00  0.00     0.031 C 
ATOM     55  C   UNL A   1      47.047  32.039  29.588  1.00  0.00     0.029 A 
ATOM     56  C   UNL A   1      45.689  31.944  29.851  1.00  0.00     0.049 A 
ATOM     57  H   UNL A   1      44.342  30.400  29.349  1.00  0.00     0.167 HD
ATOM     58  C   UNL A   1      43.506  32.735  30.717  1.00  0.00     0.074 A 
ATOM     59  C   UNL A   1      42.666  33.687  31.414  1.00  0.00     0.031 C 
ATOM     60  C   UNL A   1      44.844  32.879  30.550  1.00  0.00     0.031 A 
BRANCH  47  61
ATOM     61  C   UNL A   1      47.544  28.159  27.619  1.00  0.00    -0.014 A 
ATOM     62  C   UNL A   1      47.935  28.302  26.276  1.00  0.00     0.010 A 
ATOM     63  C   UNL A   1      48.389  27.472  28.510  1.00  0.00     0.010 A 
ATOM     64  C   UNL A   1      49.135  27.743  25.826  1.00  0.00     0.020 A 
ATOM     65  C   UNL A   1      49.601  26.933  28.069  1.00  0.00     0.020 A 
ATOM     66  C   UNL A   1      49.959  27.060  26.726  1.00  0.00     0.054 A 
BRANCH  66  67
ATOM     67  S   UNL A   1      51.523  26.369  26.122  1.00  0.00     0.124 S 
ATOM     68  O   UNL A   1      52.482  27.397  26.521  1.00  0.00    -0.237 OA
ATOM     69  O   UNL A   1      51.619  25.106  26.849  1.00  0.00    -0.237 OA
ATOM     70  O   UNL A   1      51.314  26.241  24.682  1.00  0.00    -0.744 OA
ENDBRANCH  66  67
ENDBRANCH  47  61
BRANCH  48  71
ATOM     71  C   UNL A   1      38.907  31.792  31.075  1.00  0.00    -0.014 A 
ATOM     72  C   UNL A   1      38.428  31.341  32.317  1.00  0.00     0.010 A 
ATOM     73  C   UNL A   1      38.166  32.755  30.364  1.00  0.00     0.010 A 
ATOM     74  C   UNL A   1      37.223  31.833  32.830  1.00  0.00     0.020 A 
ATOM     75  C   UNL A   1      36.976  33.268  30.887  1.00  0.00     0.020 A 
ATOM     76  C   UNL A   1      36.507  32.796  32.113  1.00  0.00     0.054 A 
BRANCH  76  77
ATOM     77  S   UNL A   1      34.975  33.462  32.824  1.00  0.00     0.124 S 
ATOM     78  O   UNL A   1      33.958  32.654  32.161  1.00  0.00    -0.237 OA
ATOM     79  O   UNL A   1      35.155  33.208  34.252  1.00  0.00    -0.237 OA
ATOM     80  O   UNL A   1      35.007  34.871  32.442  1.00  0.00    -0.744 OA
ENDBRANCH  76  77
ENDBRANCH  48  71
BRANCH  60  81
ATOM     81  C   UNL A   1      45.490  34.114  31.121  1.00  0.00    -0.014 A 
ATOM     82  C   UNL A   1      45.579  35.298  30.369  1.00  0.00     0.010 A 
ATOM     83  C   UNL A   1      45.948  34.111  32.452  1.00  0.00     0.010 A 
ATOM     84  C   UNL A   1      46.129  36.453  30.932  1.00  0.00     0.020 A 
ATOM     85  C   UNL A   1      46.474  35.271  33.026  1.00  0.00     0.020 A 
ATOM     86  C   UNL A   1      46.570  36.433  32.259  1.00  0.00     0.054 A 
BRANCH  86  87
ATOM     87  S   UNL A   1      47.222  37.963  32.985  1.00  0.00     0.124 S 
ATOM     88  O   UNL A   1      46.820  37.832  34.382  1.00  0.00    -0.237 OA
ATOM     89  O   UNL A   1      48.657  37.851  32.730  1.00  0.00    -0.237 OA
ATOM     90  O   UNL A   1      46.543  39.019  32.237  1.00  0.00    -0.744 OA
ENDBRANCH  86  87
ENDBRANCH  60  81
ENDBRANCH  34  35
ENDBRANCH  27  29
ENDBRANCH  26  27
ENDBRANCH  25  26
ENDBRANCH  24  25
ENDBRANCH  23  24
ENDBRANCH   1  23
TORSDOF 21
ENDMDL
