MODEL 1
REMARK VINA RESULT:     -11.6      0.000      0.000
REMARK SMILES COc1ccc2c(c1)c(CC(=O)OCCOCCOC(=O)c1ccc(-c3c4nc(c(-c5ccc(S(=O)(=O)[O-])cc5)c5ccc([nH]5)c(-c5ccc(S(=O)(=O)[O-])cc5)c5nc(c(-c6ccc(S(=O)(=O)[O-])cc6)c6ccc3[nH]6)C=C5)C=C4)cc1)c(C(F)(F)F)n2C(=O)c1ccc(Cl)cc1
REMARK SMILES IDX 16 1 15 2 14 3 13 4 11 5 12 6 10 7 9 8 3 9 4 10 8 11 5 12
REMARK SMILES IDX 7 13 6 14 87 15 82 16 2 17 1 18 88 19 89 20 90 21 91 22
REMARK SMILES IDX 96 23 92 24 95 25 93 26 94 27 83 28 84 29 85 30 86 31 17 32
REMARK SMILES IDX 18 33 19 34 20 35 21 36 22 37 23 38 81 39 24 40 80 41 25 42
REMARK SMILES IDX 26 43 27 44 74 45 28 46 79 47 73 48 75 49 29 50 78 51 72 52
REMARK SMILES IDX 71 53 30 55 60 56 41 57 59 58 42 59 45 60 58 61 76 62 43 63
REMARK SMILES IDX 44 64 57 66 77 67 46 68 31 69 32 70 40 71 33 72 39 73 34 74
REMARK SMILES IDX 35 75 36 76 37 77 38 78 61 79 62 80 70 81 63 82 69 83 64 84
REMARK SMILES IDX 65 85 66 86 67 87 68 88 47 89 48 90 56 91 49 92 55 93 50 94
REMARK SMILES IDX 51 95 52 96 53 97 54 98
REMARK H PARENT 75 54 45 65
REMARK Flexibility Score: inf
ROOT
ATOM      1  O   UNL A   1      40.881  20.838  26.646  1.00  0.00    -0.374 OA
ENDROOT
BRANCH   1   2
ATOM      2  C   UNL A   1      40.263  22.006  27.170  1.00  0.00     0.202 C 
BRANCH   2   3
ATOM      3  C   UNL A   1      38.908  22.505  26.636  1.00  0.00     0.261 C 
BRANCH   3   4
ATOM      4  O   UNL A   1      38.710  22.378  25.216  1.00  0.00    -0.463 OA
BRANCH   4   5
ATOM      5  C   UNL A   1      37.823  21.408  24.869  1.00  0.00     0.310 C 
ATOM      6  O   UNL A   1      37.989  20.209  25.082  1.00  0.00    -0.252 OA
BRANCH   5   7
ATOM      7  C   UNL A   1      36.573  21.893  24.169  1.00  0.00     0.161 C 
BRANCH   7   8
ATOM      8  C   UNL A   1      35.226  21.731  24.840  1.00  0.00     0.002 A 
ATOM      9  C   UNL A   1      33.770  18.194  24.720  1.00  0.00     0.119 A 
ATOM     10  C   UNL A   1      32.594  18.492  25.380  1.00  0.00     0.048 A 
ATOM     11  C   UNL A   1      34.663  19.226  24.423  1.00  0.00     0.057 A 
ATOM     12  C   UNL A   1      32.301  19.811  25.747  1.00  0.00     0.031 A 
ATOM     13  C   UNL A   1      34.444  20.545  24.888  1.00  0.00     0.008 A 
ATOM     14  C   UNL A   1      33.244  20.843  25.539  1.00  0.00     0.057 A 
ATOM     15  N   UNL A   1      33.218  22.232  25.796  1.00  0.00    -0.271 N 
ATOM     16  C   UNL A   1      34.459  22.753  25.403  1.00  0.00     0.135 A 
BRANCH   9  17
ATOM     17  O   UNL A   1      34.215  16.941  24.403  1.00  0.00    -0.497 OA
ATOM     18  C   UNL A   1      34.284  16.603  23.024  1.00  0.00     0.278 C 
ENDBRANCH   9  17
BRANCH  15  19
ATOM     19  C   UNL A   1      32.081  22.961  26.257  1.00  0.00     0.262 C 
ATOM     20  O   UNL A   1      31.756  22.850  27.434  1.00  0.00    -0.268 OA
BRANCH  19  21
ATOM     21  C   UNL A   1      31.326  23.975  25.491  1.00  0.00     0.040 A 
ATOM     22  C   UNL A   1      30.987  23.790  24.146  1.00  0.00     0.015 A 
ATOM     23  C   UNL A   1      30.982  25.160  26.155  1.00  0.00     0.015 A 
ATOM     24  C   UNL A   1      30.387  24.842  23.441  1.00  0.00     0.021 A 
ATOM     25  C   UNL A   1      30.375  26.201  25.450  1.00  0.00     0.021 A 
ATOM     26  C   UNL A   1      30.100  26.045  24.091  1.00  0.00     0.041 A 
ATOM     27  Cl  UNL A   1      29.427  27.359  23.208  1.00  0.00    -0.084 Cl
ENDBRANCH  19  21
ENDBRANCH  15  19
BRANCH  16  28
ATOM     28  C   UNL A   1      34.893  24.186  25.498  1.00  0.00     0.432 C 
ATOM     29  F   UNL A   1      34.477  24.854  24.387  1.00  0.00    -0.165 F 
ATOM     30  F   UNL A   1      34.277  24.788  26.551  1.00  0.00    -0.165 F 
ATOM     31  F   UNL A   1      36.210  24.440  25.593  1.00  0.00    -0.165 F 
ENDBRANCH  16  28
ENDBRANCH   7   8
ENDBRANCH   5   7
ENDBRANCH   4   5
ENDBRANCH   3   4
ENDBRANCH   2   3
ENDBRANCH   1   2
BRANCH   1  32
ATOM     32  C   UNL A   1      42.298  20.740  26.749  1.00  0.00     0.202 C 
BRANCH  32  33
ATOM     33  C   UNL A   1      43.190  21.310  25.630  1.00  0.00     0.261 C 
BRANCH  33  34
ATOM     34  O   UNL A   1      42.638  22.481  25.031  1.00  0.00    -0.460 OA
BRANCH  34  35
ATOM     35  C   UNL A   1      43.466  23.564  25.064  1.00  0.00     0.338 C 
ATOM     36  O   UNL A   1      44.341  23.858  24.287  1.00  0.00    -0.246 OA
BRANCH  35  37
ATOM     37  C   UNL A   1      42.789  24.488  25.991  1.00  0.00     0.060 A 
ATOM     38  C   UNL A   1      41.947  25.485  25.492  1.00  0.00     0.016 A 
ATOM     39  C   UNL A   1      43.332  24.555  27.284  1.00  0.00     0.016 A 
ATOM     40  C   UNL A   1      41.724  26.611  26.270  1.00  0.00     0.010 A 
ATOM     41  C   UNL A   1      43.130  25.698  28.044  1.00  0.00     0.010 A 
ATOM     42  C   UNL A   1      42.356  26.738  27.520  1.00  0.00    -0.014 A 
BRANCH  42  43
ATOM     43  C   UNL A   1      41.950  27.855  28.373  1.00  0.00     0.031 A 
ATOM     44  C   UNL A   1      42.955  28.954  28.341  1.00  0.00     0.074 A 
ATOM     45  C   UNL A   1      40.757  28.003  28.985  1.00  0.00     0.049 A 
ATOM     46  N   UNL A   1      43.631  29.452  29.323  1.00  0.00    -0.248 NA
ATOM     47  C   UNL A   1      43.376  29.435  27.011  1.00  0.00     0.031 C 
ATOM     48  C   UNL A   1      39.565  27.160  28.874  1.00  0.00     0.029 A 
ATOM     49  N   UNL A   1      40.322  29.035  29.766  1.00  0.00    -0.354 N 
ATOM     50  C   UNL A   1      44.438  30.435  28.758  1.00  0.00     0.074 A 
ATOM     51  C   UNL A   1      44.373  30.255  27.332  1.00  0.00     0.031 C 
ATOM     52  C   UNL A   1      38.492  27.836  29.349  1.00  0.00     0.029 A 
ATOM     53  C   UNL A   1      38.940  29.095  29.920  1.00  0.00     0.049 A 
ATOM     54  H   UNL A   1      40.934  29.683  30.184  1.00  0.00     0.167 HD
ATOM     55  C   UNL A   1      44.935  31.475  29.480  1.00  0.00     0.031 A 
ATOM     56  C   UNL A   1      38.218  30.139  30.406  1.00  0.00     0.031 A 
ATOM     57  C   UNL A   1      44.925  31.205  30.890  1.00  0.00     0.049 A 
ATOM     58  C   UNL A   1      39.146  30.990  31.187  1.00  0.00     0.074 A 
ATOM     59  C   UNL A   1      45.538  30.264  31.694  1.00  0.00     0.029 A 
ATOM     60  N   UNL A   1      43.892  31.725  31.630  1.00  0.00    -0.354 N 
ATOM     61  N   UNL A   1      39.724  30.610  32.291  1.00  0.00    -0.248 NA
ATOM     62  C   UNL A   1      39.766  32.116  30.509  1.00  0.00     0.031 C 
ATOM     63  C   UNL A   1      44.564  29.932  32.675  1.00  0.00     0.029 A 
ATOM     64  C   UNL A   1      43.439  30.732  32.461  1.00  0.00     0.049 A 
ATOM     65  H   UNL A   1      43.540  32.643  31.572  1.00  0.00     0.167 HD
ATOM     66  C   UNL A   1      40.999  31.151  32.224  1.00  0.00     0.074 A 
ATOM     67  C   UNL A   1      40.936  32.139  31.149  1.00  0.00     0.031 C 
ATOM     68  C   UNL A   1      42.054  30.560  32.857  1.00  0.00     0.031 A 
BRANCH  55  69
ATOM     69  C   UNL A   1      45.102  32.856  28.901  1.00  0.00    -0.014 A 
ATOM     70  C   UNL A   1      44.006  33.677  28.557  1.00  0.00     0.010 A 
ATOM     71  C   UNL A   1      46.371  33.463  28.913  1.00  0.00     0.010 A 
ATOM     72  C   UNL A   1      44.159  35.016  28.206  1.00  0.00     0.020 A 
ATOM     73  C   UNL A   1      46.532  34.824  28.610  1.00  0.00     0.020 A 
ATOM     74  C   UNL A   1      45.423  35.587  28.246  1.00  0.00     0.054 A 
BRANCH  74  75
ATOM     75  S   UNL A   1      45.561  37.353  27.885  1.00  0.00     0.124 S 
ATOM     76  O   UNL A   1      45.323  37.944  29.199  1.00  0.00    -0.237 OA
ATOM     77  O   UNL A   1      46.928  37.463  27.383  1.00  0.00    -0.237 OA
ATOM     78  O   UNL A   1      44.512  37.583  26.896  1.00  0.00    -0.744 OA
ENDBRANCH  74  75
ENDBRANCH  55  69
BRANCH  56  79
ATOM     79  C   UNL A   1      36.936  30.686  29.876  1.00  0.00    -0.014 A 
ATOM     80  C   UNL A   1      36.817  30.978  28.502  1.00  0.00     0.010 A 
ATOM     81  C   UNL A   1      35.968  31.232  30.746  1.00  0.00     0.010 A 
ATOM     82  C   UNL A   1      35.830  31.849  28.024  1.00  0.00     0.020 A 
ATOM     83  C   UNL A   1      34.974  32.109  30.272  1.00  0.00     0.020 A 
ATOM     84  C   UNL A   1      34.938  32.441  28.917  1.00  0.00     0.054 A 
BRANCH  84  85
ATOM     85  S   UNL A   1      33.809  33.717  28.284  1.00  0.00     0.124 S 
ATOM     86  O   UNL A   1      34.703  34.539  27.474  1.00  0.00    -0.237 OA
ATOM     87  O   UNL A   1      32.832  32.930  27.534  1.00  0.00    -0.237 OA
ATOM     88  O   UNL A   1      33.293  34.356  29.492  1.00  0.00    -0.744 OA
ENDBRANCH  84  85
ENDBRANCH  56  79
BRANCH  68  89
ATOM     89  C   UNL A   1      41.791  29.456  33.862  1.00  0.00    -0.014 A 
ATOM     90  C   UNL A   1      41.987  29.768  35.220  1.00  0.00     0.010 A 
ATOM     91  C   UNL A   1      41.582  28.107  33.510  1.00  0.00     0.010 A 
ATOM     92  C   UNL A   1      42.035  28.767  36.191  1.00  0.00     0.020 A 
ATOM     93  C   UNL A   1      41.599  27.096  34.487  1.00  0.00     0.020 A 
ATOM     94  C   UNL A   1      41.858  27.434  35.818  1.00  0.00     0.054 A 
BRANCH  94  95
ATOM     95  S   UNL A   1      42.018  26.164  37.105  1.00  0.00     0.124 S 
ATOM     96  O   UNL A   1      40.646  26.047  37.595  1.00  0.00    -0.237 OA
ATOM     97  O   UNL A   1      42.512  25.009  36.357  1.00  0.00    -0.237 OA
ATOM     98  O   UNL A   1      42.969  26.738  38.053  1.00  0.00    -0.744 OA
ENDBRANCH  94  95
ENDBRANCH  68  89
ENDBRANCH  42  43
ENDBRANCH  35  37
ENDBRANCH  34  35
ENDBRANCH  33  34
ENDBRANCH  32  33
ENDBRANCH   1  32
TORSDOF 22
ENDMDL
MODEL 2
REMARK VINA RESULT:     -11.1      1.887      2.573
REMARK SMILES COc1ccc2c(c1)c(CC(=O)OCCOCCOC(=O)c1ccc(-c3c4nc(c(-c5ccc(S(=O)(=O)[O-])cc5)c5ccc([nH]5)c(-c5ccc(S(=O)(=O)[O-])cc5)c5nc(c(-c6ccc(S(=O)(=O)[O-])cc6)c6ccc3[nH]6)C=C5)C=C4)cc1)c(C(F)(F)F)n2C(=O)c1ccc(Cl)cc1
REMARK SMILES IDX 16 1 15 2 14 3 13 4 11 5 12 6 10 7 9 8 3 9 4 10 8 11 5 12
REMARK SMILES IDX 7 13 6 14 87 15 82 16 2 17 1 18 88 19 89 20 90 21 91 22
REMARK SMILES IDX 96 23 92 24 95 25 93 26 94 27 83 28 84 29 85 30 86 31 17 32
REMARK SMILES IDX 18 33 19 34 20 35 21 36 22 37 23 38 81 39 24 40 80 41 25 42
REMARK SMILES IDX 26 43 27 44 74 45 28 46 79 47 73 48 75 49 29 50 78 51 72 52
REMARK SMILES IDX 71 53 30 55 60 56 41 57 59 58 42 59 45 60 58 61 76 62 43 63
REMARK SMILES IDX 44 64 57 66 77 67 46 68 31 69 32 70 40 71 33 72 39 73 34 74
REMARK SMILES IDX 35 75 36 76 37 77 38 78 61 79 62 80 70 81 63 82 69 83 64 84
REMARK SMILES IDX 65 85 66 86 67 87 68 88 47 89 48 90 56 91 49 92 55 93 50 94
REMARK SMILES IDX 51 95 52 96 53 97 54 98
REMARK H PARENT 75 54 45 65
REMARK Flexibility Score: inf
ROOT
ATOM      1  O   UNL A   1      40.468  20.846  27.881  1.00  0.00    -0.374 OA
ENDROOT
BRANCH   1   2
ATOM      2  C   UNL A   1      40.382  22.195  27.441  1.00  0.00     0.202 C 
BRANCH   2   3
ATOM      3  C   UNL A   1      39.104  22.745  26.783  1.00  0.00     0.261 C 
BRANCH   3   4
ATOM      4  O   UNL A   1      38.951  22.462  25.381  1.00  0.00    -0.463 OA
BRANCH   4   5
ATOM      5  C   UNL A   1      38.021  21.506  25.111  1.00  0.00     0.310 C 
ATOM      6  O   UNL A   1      38.131  20.325  25.429  1.00  0.00    -0.252 OA
BRANCH   5   7
ATOM      7  C   UNL A   1      36.800  21.984  24.359  1.00  0.00     0.161 C 
BRANCH   7   8
ATOM      8  C   UNL A   1      35.425  21.805  24.967  1.00  0.00     0.002 A 
ATOM      9  C   UNL A   1      33.996  18.262  24.726  1.00  0.00     0.119 A 
ATOM     10  C   UNL A   1      32.791  18.545  25.339  1.00  0.00     0.048 A 
ATOM     11  C   UNL A   1      34.895  19.304  24.486  1.00  0.00     0.057 A 
ATOM     12  C   UNL A   1      32.475  19.856  25.714  1.00  0.00     0.031 A 
ATOM     13  C   UNL A   1      34.649  20.614  24.962  1.00  0.00     0.008 A 
ATOM     14  C   UNL A   1      33.420  20.895  25.564  1.00  0.00     0.057 A 
ATOM     15  N   UNL A   1      33.375  22.280  25.842  1.00  0.00    -0.271 N 
ATOM     16  C   UNL A   1      34.629  22.813  25.512  1.00  0.00     0.135 A 
BRANCH   9  17
ATOM     17  O   UNL A   1      34.462  17.017  24.410  1.00  0.00    -0.497 OA
ATOM     18  C   UNL A   1      34.222  16.549  23.089  1.00  0.00     0.278 C 
ENDBRANCH   9  17
BRANCH  15  19
ATOM     19  C   UNL A   1      32.215  22.996  26.264  1.00  0.00     0.262 C 
ATOM     20  O   UNL A   1      31.865  22.899  27.436  1.00  0.00    -0.268 OA
BRANCH  19  21
ATOM     21  C   UNL A   1      31.460  23.983  25.465  1.00  0.00     0.040 A 
ATOM     22  C   UNL A   1      31.158  23.771  24.114  1.00  0.00     0.015 A 
ATOM     23  C   UNL A   1      31.076  25.171  26.100  1.00  0.00     0.015 A 
ATOM     24  C   UNL A   1      30.556  24.800  23.378  1.00  0.00     0.021 A 
ATOM     25  C   UNL A   1      30.467  26.189  25.365  1.00  0.00     0.021 A 
ATOM     26  C   UNL A   1      30.230  26.007  24.002  1.00  0.00     0.041 A 
ATOM     27  Cl  UNL A   1      29.554  27.294  23.082  1.00  0.00    -0.084 Cl
ENDBRANCH  19  21
ENDBRANCH  15  19
BRANCH  16  28
ATOM     28  C   UNL A   1      35.050  24.247  25.650  1.00  0.00     0.432 C 
ATOM     29  F   UNL A   1      36.329  24.294  26.114  1.00  0.00    -0.165 F 
ATOM     30  F   UNL A   1      35.073  24.843  24.427  1.00  0.00    -0.165 F 
ATOM     31  F   UNL A   1      34.343  25.035  26.479  1.00  0.00    -0.165 F 
ENDBRANCH  16  28
ENDBRANCH   7   8
ENDBRANCH   5   7
ENDBRANCH   4   5
ENDBRANCH   3   4
ENDBRANCH   2   3
ENDBRANCH   1   2
BRANCH   1  32
ATOM     32  C   UNL A   1      41.653  20.123  27.562  1.00  0.00     0.202 C 
BRANCH  32  33
ATOM     33  C   UNL A   1      41.985  19.803  26.093  1.00  0.00     0.261 C 
BRANCH  33  34
ATOM     34  O   UNL A   1      42.297  20.970  25.334  1.00  0.00    -0.460 OA
BRANCH  34  35
ATOM     35  C   UNL A   1      43.634  21.183  25.167  1.00  0.00     0.338 C 
ATOM     36  O   UNL A   1      44.401  20.587  24.451  1.00  0.00    -0.246 OA
BRANCH  35  37
ATOM     37  C   UNL A   1      43.839  22.536  25.715  1.00  0.00     0.060 A 
ATOM     38  C   UNL A   1      44.473  22.701  26.949  1.00  0.00     0.016 A 
ATOM     39  C   UNL A   1      43.043  23.546  25.150  1.00  0.00     0.016 A 
ATOM     40  C   UNL A   1      44.227  23.862  27.667  1.00  0.00     0.010 A 
ATOM     41  C   UNL A   1      42.776  24.690  25.888  1.00  0.00     0.010 A 
ATOM     42  C   UNL A   1      43.341  24.828  27.160  1.00  0.00    -0.014 A 
BRANCH  42  43
ATOM     43  C   UNL A   1      43.255  26.105  27.868  1.00  0.00     0.031 A 
ATOM     44  C   UNL A   1      44.494  26.911  27.685  1.00  0.00     0.074 A 
ATOM     45  C   UNL A   1      42.161  26.614  28.471  1.00  0.00     0.049 A 
ATOM     46  N   UNL A   1      45.312  27.341  28.588  1.00  0.00    -0.248 NA
ATOM     47  C   UNL A   1      44.963  27.111  26.300  1.00  0.00     0.031 C 
ATOM     48  C   UNL A   1      40.797  26.083  28.482  1.00  0.00     0.029 A 
ATOM     49  N   UNL A   1      42.023  27.808  29.119  1.00  0.00    -0.354 N 
ATOM     50  C   UNL A   1      46.309  28.020  27.893  1.00  0.00     0.074 A 
ATOM     51  C   UNL A   1      46.141  27.692  26.502  1.00  0.00     0.031 C 
ATOM     52  C   UNL A   1      39.940  27.054  28.880  1.00  0.00     0.029 A 
ATOM     53  C   UNL A   1      40.704  28.224  29.281  1.00  0.00     0.049 A 
ATOM     54  H   UNL A   1      42.792  28.331  29.445  1.00  0.00     0.167 HD
ATOM     55  C   UNL A   1      47.074  28.986  28.471  1.00  0.00     0.031 A 
ATOM     56  C   UNL A   1      40.279  29.464  29.640  1.00  0.00     0.031 A 
ATOM     57  C   UNL A   1      47.059  28.897  29.904  1.00  0.00     0.049 A 
ATOM     58  C   UNL A   1      41.419  30.148  30.295  1.00  0.00     0.074 A 
ATOM     59  C   UNL A   1      47.459  27.939  30.813  1.00  0.00     0.029 A 
ATOM     60  N   UNL A   1      46.215  29.740  30.584  1.00  0.00    -0.354 N 
ATOM     61  N   UNL A   1      41.933  29.773  31.431  1.00  0.00    -0.248 NA
ATOM     62  C   UNL A   1      42.263  30.997  29.472  1.00  0.00     0.031 C 
ATOM     63  C   UNL A   1      46.476  27.976  31.841  1.00  0.00     0.029 A 
ATOM     64  C   UNL A   1      45.571  28.997  31.540  1.00  0.00     0.049 A 
ATOM     65  H   UNL A   1      46.094  30.703  30.415  1.00  0.00     0.167 HD
ATOM     66  C   UNL A   1      43.297  29.971  31.281  1.00  0.00     0.074 A 
ATOM     67  C   UNL A   1      43.430  30.809  30.090  1.00  0.00     0.031 C 
ATOM     68  C   UNL A   1      44.204  29.219  31.971  1.00  0.00     0.031 A 
BRANCH  55  69
ATOM     69  C   UNL A   1      47.546  30.203  27.719  1.00  0.00    -0.014 A 
ATOM     70  C   UNL A   1      46.671  31.233  27.308  1.00  0.00     0.010 A 
ATOM     71  C   UNL A   1      48.925  30.463  27.618  1.00  0.00     0.010 A 
ATOM     72  C   UNL A   1      47.133  32.440  26.788  1.00  0.00     0.020 A 
ATOM     73  C   UNL A   1      49.402  31.694  27.143  1.00  0.00     0.020 A 
ATOM     74  C   UNL A   1      48.500  32.669  26.719  1.00  0.00     0.054 A 
BRANCH  74  75
ATOM     75  S   UNL A   1      49.053  34.288  26.137  1.00  0.00     0.124 S 
ATOM     76  O   UNL A   1      50.427  34.005  25.732  1.00  0.00    -0.237 OA
ATOM     77  O   UNL A   1      48.119  34.565  25.049  1.00  0.00    -0.237 OA
ATOM     78  O   UNL A   1      48.911  35.141  27.313  1.00  0.00    -0.744 OA
ENDBRANCH  74  75
ENDBRANCH  55  69
BRANCH  56  79
ATOM     79  C   UNL A   1      39.146  30.241  29.059  1.00  0.00    -0.014 A 
ATOM     80  C   UNL A   1      38.692  31.406  29.710  1.00  0.00     0.010 A 
ATOM     81  C   UNL A   1      38.305  29.670  28.081  1.00  0.00     0.010 A 
ATOM     82  C   UNL A   1      37.417  31.930  29.464  1.00  0.00     0.020 A 
ATOM     83  C   UNL A   1      37.021  30.192  27.828  1.00  0.00     0.020 A 
ATOM     84  C   UNL A   1      36.573  31.297  28.552  1.00  0.00     0.054 A 
BRANCH  84  85
ATOM     85  S   UNL A   1      34.861  31.889  28.414  1.00  0.00     0.124 S 
ATOM     86  O   UNL A   1      34.176  30.718  27.875  1.00  0.00    -0.237 OA
ATOM     87  O   UNL A   1      34.530  32.225  29.797  1.00  0.00    -0.237 OA
ATOM     88  O   UNL A   1      34.959  33.030  27.507  1.00  0.00    -0.744 OA
ENDBRANCH  84  85
ENDBRANCH  56  79
BRANCH  68  89
ATOM     89  C   UNL A   1      43.724  28.343  33.111  1.00  0.00    -0.014 A 
ATOM     90  C   UNL A   1      43.633  28.940  34.382  1.00  0.00     0.010 A 
ATOM     91  C   UNL A   1      43.580  26.943  33.019  1.00  0.00     0.010 A 
ATOM     92  C   UNL A   1      43.465  28.169  35.532  1.00  0.00     0.020 A 
ATOM     93  C   UNL A   1      43.382  26.163  34.171  1.00  0.00     0.020 A 
ATOM     94  C   UNL A   1      43.358  26.781  35.423  1.00  0.00     0.054 A 
BRANCH  94  95
ATOM     95  S   UNL A   1      43.231  25.818  36.955  1.00  0.00     0.124 S 
ATOM     96  O   UNL A   1      44.121  24.690  36.686  1.00  0.00    -0.237 OA
ATOM     97  O   UNL A   1      43.707  26.758  37.968  1.00  0.00    -0.237 OA
ATOM     98  O   UNL A   1      41.812  25.480  37.046  1.00  0.00    -0.744 OA
ENDBRANCH  94  95
ENDBRANCH  68  89
ENDBRANCH  42  43
ENDBRANCH  35  37
ENDBRANCH  34  35
ENDBRANCH  33  34
ENDBRANCH  32  33
ENDBRANCH   1  32
TORSDOF 22
ENDMDL
MODEL 3
REMARK VINA RESULT:     -11.1      2.767      9.625
REMARK SMILES COc1ccc2c(c1)c(CC(=O)OCCOCCOC(=O)c1ccc(-c3c4nc(c(-c5ccc(S(=O)(=O)[O-])cc5)c5ccc([nH]5)c(-c5ccc(S(=O)(=O)[O-])cc5)c5nc(c(-c6ccc(S(=O)(=O)[O-])cc6)c6ccc3[nH]6)C=C5)C=C4)cc1)c(C(F)(F)F)n2C(=O)c1ccc(Cl)cc1
REMARK SMILES IDX 16 1 15 2 14 3 13 4 11 5 12 6 10 7 9 8 3 9 4 10 8 11 5 12
REMARK SMILES IDX 7 13 6 14 87 15 82 16 2 17 1 18 88 19 89 20 90 21 91 22
REMARK SMILES IDX 96 23 92 24 95 25 93 26 94 27 83 28 84 29 85 30 86 31 17 32
REMARK SMILES IDX 18 33 19 34 20 35 21 36 22 37 23 38 81 39 24 40 80 41 25 42
REMARK SMILES IDX 26 43 27 44 74 45 28 46 79 47 73 48 75 49 29 50 78 51 72 52
REMARK SMILES IDX 71 53 30 55 60 56 41 57 59 58 42 59 45 60 58 61 76 62 43 63
REMARK SMILES IDX 44 64 57 66 77 67 46 68 31 69 32 70 40 71 33 72 39 73 34 74
REMARK SMILES IDX 35 75 36 76 37 77 38 78 61 79 62 80 70 81 63 82 69 83 64 84
REMARK SMILES IDX 65 85 66 86 67 87 68 88 47 89 48 90 56 91 49 92 55 93 50 94
REMARK SMILES IDX 51 95 52 96 53 97 54 98
REMARK H PARENT 75 54 45 65
REMARK Flexibility Score: inf
ROOT
ATOM      1  O   UNL A   1      35.416  33.520  28.421  1.00  0.00    -0.374 OA
ENDROOT
BRANCH   1   2
ATOM      2  C   UNL A   1      35.323  32.130  28.137  1.00  0.00     0.202 C 
BRANCH   2   3
ATOM      3  C   UNL A   1      33.986  31.480  27.736  1.00  0.00     0.261 C 
BRANCH   3   4
ATOM      4  O   UNL A   1      34.037  30.595  26.603  1.00  0.00    -0.463 OA
BRANCH   4   5
ATOM      5  C   UNL A   1      32.822  30.346  26.044  1.00  0.00     0.310 C 
ATOM      6  O   UNL A   1      31.758  30.782  26.478  1.00  0.00    -0.252 OA
BRANCH   5   7
ATOM      7  C   UNL A   1      32.842  29.461  24.818  1.00  0.00     0.161 C 
BRANCH   7   8
ATOM      8  C   UNL A   1      31.879  28.298  24.715  1.00  0.00     0.002 A 
ATOM      9  C   UNL A   1      28.579  29.077  22.938  1.00  0.00     0.119 A 
ATOM     10  C   UNL A   1      28.027  27.820  23.090  1.00  0.00     0.048 A 
ATOM     11  C   UNL A   1      29.820  29.348  23.521  1.00  0.00     0.057 A 
ATOM     12  C   UNL A   1      28.700  26.831  23.818  1.00  0.00     0.031 A 
ATOM     13  C   UNL A   1      30.571  28.331  24.159  1.00  0.00     0.008 A 
ATOM     14  C   UNL A   1      29.997  27.068  24.324  1.00  0.00     0.057 A 
ATOM     15  N   UNL A   1      30.890  26.277  25.081  1.00  0.00    -0.271 N 
ATOM     16  C   UNL A   1      32.057  27.031  25.273  1.00  0.00     0.135 A 
BRANCH   9  17
ATOM     17  O   UNL A   1      28.073  30.087  22.170  1.00  0.00    -0.497 OA
ATOM     18  C   UNL A   1      28.988  31.068  21.699  1.00  0.00     0.278 C 
ENDBRANCH   9  17
BRANCH  15  19
ATOM     19  C   UNL A   1      30.586  25.000  25.639  1.00  0.00     0.262 C 
ATOM     20  O   UNL A   1      29.793  24.945  26.574  1.00  0.00    -0.268 OA
BRANCH  19  21
ATOM     21  C   UNL A   1      31.013  23.690  25.103  1.00  0.00     0.040 A 
ATOM     22  C   UNL A   1      31.053  22.538  25.899  1.00  0.00     0.015 A 
ATOM     23  C   UNL A   1      31.413  23.640  23.761  1.00  0.00     0.015 A 
ATOM     24  C   UNL A   1      31.591  21.359  25.369  1.00  0.00     0.021 A 
ATOM     25  C   UNL A   1      31.938  22.459  23.235  1.00  0.00     0.021 A 
ATOM     26  C   UNL A   1      32.046  21.330  24.047  1.00  0.00     0.041 A 
ATOM     27  Cl  UNL A   1      32.769  19.901  23.419  1.00  0.00    -0.084 Cl
ENDBRANCH  19  21
ENDBRANCH  15  19
BRANCH  16  28
ATOM     28  C   UNL A   1      33.287  26.595  26.014  1.00  0.00     0.432 C 
ATOM     29  F   UNL A   1      34.359  26.659  25.177  1.00  0.00    -0.165 F 
ATOM     30  F   UNL A   1      33.550  27.462  27.027  1.00  0.00    -0.165 F 
ATOM     31  F   UNL A   1      33.308  25.350  26.521  1.00  0.00    -0.165 F 
ENDBRANCH  16  28
ENDBRANCH   7   8
ENDBRANCH   5   7
ENDBRANCH   4   5
ENDBRANCH   3   4
ENDBRANCH   2   3
ENDBRANCH   1   2
BRANCH   1  32
ATOM     32  C   UNL A   1      34.289  34.146  29.026  1.00  0.00     0.202 C 
BRANCH  32  33
ATOM     33  C   UNL A   1      34.152  34.164  30.559  1.00  0.00     0.261 C 
BRANCH  33  34
ATOM     34  O   UNL A   1      34.487  32.911  31.154  1.00  0.00    -0.460 OA
BRANCH  34  35
ATOM     35  C   UNL A   1      34.983  33.013  32.421  1.00  0.00     0.338 C 
ATOM     36  O   UNL A   1      34.407  33.368  33.421  1.00  0.00    -0.246 OA
BRANCH  35  37
ATOM     37  C   UNL A   1      36.217  32.209  32.375  1.00  0.00     0.060 A 
ATOM     38  C   UNL A   1      37.462  32.837  32.456  1.00  0.00     0.016 A 
ATOM     39  C   UNL A   1      36.074  30.909  31.865  1.00  0.00     0.016 A 
ATOM     40  C   UNL A   1      38.567  32.183  31.931  1.00  0.00     0.010 A 
ATOM     41  C   UNL A   1      37.177  30.274  31.312  1.00  0.00     0.010 A 
ATOM     42  C   UNL A   1      38.413  30.928  31.315  1.00  0.00    -0.014 A 
BRANCH  42  43
ATOM     43  C   UNL A   1      39.628  30.207  30.939  1.00  0.00     0.031 A 
ATOM     44  C   UNL A   1      40.480  29.921  32.127  1.00  0.00     0.074 A 
ATOM     45  C   UNL A   1      39.908  29.687  29.725  1.00  0.00     0.049 A 
ATOM     46  N   UNL A   1      41.694  30.299  32.354  1.00  0.00    -0.248 NA
ATOM     47  C   UNL A   1      39.822  29.275  33.280  1.00  0.00     0.031 C 
ATOM     48  C   UNL A   1      39.050  29.625  28.542  1.00  0.00     0.029 A 
ATOM     49  N   UNL A   1      41.011  28.985  29.333  1.00  0.00    -0.354 N 
ATOM     50  C   UNL A   1      42.015  29.785  33.608  1.00  0.00     0.074 A 
ATOM     51  C   UNL A   1      40.784  29.330  34.196  1.00  0.00     0.031 C 
ATOM     52  C   UNL A   1      39.557  28.724  27.667  1.00  0.00     0.029 A 
ATOM     53  C   UNL A   1      40.838  28.250  28.164  1.00  0.00     0.049 A 
ATOM     54  H   UNL A   1      41.859  28.997  29.835  1.00  0.00     0.167 HD
ATOM     55  C   UNL A   1      43.299  29.560  33.997  1.00  0.00     0.031 A 
ATOM     56  C   UNL A   1      41.650  27.270  27.688  1.00  0.00     0.031 A 
ATOM     57  C   UNL A   1      44.239  30.304  33.207  1.00  0.00     0.049 A 
ATOM     58  C   UNL A   1      42.973  27.443  28.334  1.00  0.00     0.074 A 
ATOM     59  C   UNL A   1      44.467  31.648  32.995  1.00  0.00     0.029 A 
ATOM     60  N   UNL A   1      44.871  29.643  32.183  1.00  0.00    -0.354 N 
ATOM     61  N   UNL A   1      43.750  28.468  28.131  1.00  0.00    -0.248 NA
ATOM     62  C   UNL A   1      43.244  26.677  29.539  1.00  0.00     0.031 C 
ATOM     63  C   UNL A   1      44.807  31.749  31.618  1.00  0.00     0.029 A 
ATOM     64  C   UNL A   1      44.837  30.459  31.081  1.00  0.00     0.049 A 
ATOM     65  H   UNL A   1      45.275  28.746  32.231  1.00  0.00     0.167 HD
ATOM     66  C   UNL A   1      44.314  28.731  29.370  1.00  0.00     0.074 A 
ATOM     67  C   UNL A   1      44.034  27.543  30.174  1.00  0.00     0.031 C 
ATOM     68  C   UNL A   1      44.716  29.990  29.714  1.00  0.00     0.031 A 
BRANCH  55  69
ATOM     69  C   UNL A   1      43.687  28.397  34.873  1.00  0.00    -0.014 A 
ATOM     70  C   UNL A   1      43.931  27.104  34.361  1.00  0.00     0.010 A 
ATOM     71  C   UNL A   1      44.057  28.631  36.210  1.00  0.00     0.010 A 
ATOM     72  C   UNL A   1      44.474  26.084  35.139  1.00  0.00     0.020 A 
ATOM     73  C   UNL A   1      44.651  27.625  36.989  1.00  0.00     0.020 A 
ATOM     74  C   UNL A   1      44.843  26.355  36.449  1.00  0.00     0.054 A 
BRANCH  74  75
ATOM     75  S   UNL A   1      45.641  25.032  37.389  1.00  0.00     0.124 S 
ATOM     76  O   UNL A   1      44.491  24.254  37.842  1.00  0.00    -0.237 OA
ATOM     77  O   UNL A   1      46.477  24.391  36.377  1.00  0.00    -0.237 OA
ATOM     78  O   UNL A   1      46.365  25.747  38.436  1.00  0.00    -0.744 OA
ENDBRANCH  74  75
ENDBRANCH  55  69
BRANCH  56  79
ATOM     79  C   UNL A   1      41.249  25.961  27.097  1.00  0.00    -0.014 A 
ATOM     80  C   UNL A   1      40.117  25.287  27.597  1.00  0.00     0.010 A 
ATOM     81  C   UNL A   1      42.148  25.224  26.297  1.00  0.00     0.010 A 
ATOM     82  C   UNL A   1      39.932  23.915  27.385  1.00  0.00     0.020 A 
ATOM     83  C   UNL A   1      41.968  23.844  26.081  1.00  0.00     0.020 A 
ATOM     84  C   UNL A   1      40.880  23.192  26.661  1.00  0.00     0.054 A 
BRANCH  84  85
ATOM     85  S   UNL A   1      40.706  21.385  26.585  1.00  0.00     0.124 S 
ATOM     86  O   UNL A   1      39.385  21.232  25.981  1.00  0.00    -0.237 OA
ATOM     87  O   UNL A   1      41.830  20.995  25.737  1.00  0.00    -0.237 OA
ATOM     88  O   UNL A   1      40.809  20.966  27.980  1.00  0.00    -0.744 OA
ENDBRANCH  84  85
ENDBRANCH  56  79
BRANCH  68  89
ATOM     89  C   UNL A   1      44.798  31.059  28.643  1.00  0.00    -0.014 A 
ATOM     90  C   UNL A   1      46.049  31.259  28.033  1.00  0.00     0.010 A 
ATOM     91  C   UNL A   1      43.773  31.993  28.386  1.00  0.00     0.010 A 
ATOM     92  C   UNL A   1      46.296  32.382  27.241  1.00  0.00     0.020 A 
ATOM     93  C   UNL A   1      44.006  33.111  27.566  1.00  0.00     0.020 A 
ATOM     94  C   UNL A   1      45.278  33.312  27.026  1.00  0.00     0.054 A 
BRANCH  94  95
ATOM     95  S   UNL A   1      45.677  34.798  26.064  1.00  0.00     0.124 S 
ATOM     96  O   UNL A   1      47.103  34.967  26.333  1.00  0.00    -0.237 OA
ATOM     97  O   UNL A   1      45.345  34.396  24.697  1.00  0.00    -0.237 OA
ATOM     98  O   UNL A   1      44.812  35.830  26.630  1.00  0.00    -0.744 OA
ENDBRANCH  94  95
ENDBRANCH  68  89
ENDBRANCH  42  43
ENDBRANCH  35  37
ENDBRANCH  34  35
ENDBRANCH  33  34
ENDBRANCH  32  33
ENDBRANCH   1  32
TORSDOF 22
ENDMDL
