MODEL 1
REMARK VINA RESULT:     -10.7      0.000      0.000
REMARK SMILES CC(C)Cc1cc2c(cc1Cl)C=C(C(=O)OCCOCCOC(=O)c1ccc(-c3c4nc(c(-c5ccc(S(=O)(=O)[O-])cc5)c5ccc([nH]5)c(-c5ccc(S(=O)(=O)[O-])cc5)c5nc(c(-c6ccc(S(=O)(=O)[O-])cc6)c6ccc3[nH]6)C=C5)C=C4)cc1)[C@@H](C(F)(F)F)O2
REMARK SMILES IDX 20 1 19 2 18 3 17 4 16 5 14 6 15 7 13 8 5 9 6 10 10 11 7 12
REMARK SMILES IDX 9 13 11 14 8 15 90 16 12 17 85 18 4 19 2 20 1 21 3 22 86 23
REMARK SMILES IDX 87 24 88 25 89 26 21 27 22 28 23 29 24 30 25 31 26 32 84 33
REMARK SMILES IDX 27 34 83 35 28 36 29 37 30 38 77 39 31 40 82 41 76 42 78 43
REMARK SMILES IDX 32 44 81 45 75 46 74 47 33 49 63 50 44 51 62 52 45 53 48 54
REMARK SMILES IDX 61 55 79 56 46 57 47 58 60 60 80 61 49 62 34 63 35 64 43 65
REMARK SMILES IDX 36 66 42 67 37 68 38 69 39 70 40 71 41 72 64 73 65 74 73 75
REMARK SMILES IDX 66 76 72 77 67 78 68 79 69 80 70 81 71 82 50 83 51 84 59 85
REMARK SMILES IDX 52 86 58 87 53 88 54 89 55 90 56 91 57 92
REMARK H PARENT 78 48 48 59
REMARK Flexibility Score: inf
ROOT
ATOM      1  C   UNL A   1      34.048  30.804  27.901  1.00  0.00     0.202 C 
ENDROOT
BRANCH   1   2
ATOM      2  O   UNL A   1      33.581  30.339  26.637  1.00  0.00    -0.374 OA
BRANCH   2   3
ATOM      3  C   UNL A   1      32.476  29.437  26.609  1.00  0.00     0.202 C 
BRANCH   3   4
ATOM      4  C   UNL A   1      32.341  28.511  25.396  1.00  0.00     0.261 C 
BRANCH   4   5
ATOM      5  O   UNL A   1      33.368  27.508  25.365  1.00  0.00    -0.460 OA
BRANCH   5   6
ATOM      6  C   UNL A   1      33.458  26.841  24.192  1.00  0.00     0.338 C 
ATOM      7  O   UNL A   1      33.707  27.316  23.095  1.00  0.00    -0.246 OA
BRANCH   6   8
ATOM      8  C   UNL A   1      33.356  25.389  24.431  1.00  0.00     0.087 C 
ATOM      9  C   UNL A   1      34.477  20.506  24.677  1.00  0.00    -0.025 A 
ATOM     10  C   UNL A   1      33.276  21.242  24.680  1.00  0.00     0.052 A 
ATOM     11  C   UNL A   1      35.693  21.207  24.706  1.00  0.00     0.045 A 
ATOM     12  C   UNL A   1      33.289  22.637  24.684  1.00  0.00     0.128 A 
ATOM     13  C   UNL A   1      35.705  22.602  24.726  1.00  0.00     0.032 A 
ATOM     14  Cl  UNL A   1      37.223  20.404  24.680  1.00  0.00    -0.084 Cl
ATOM     15  C   UNL A   1      34.505  23.316  24.695  1.00  0.00     0.019 A 
ATOM     16  O   UNL A   1      32.075  23.262  24.686  1.00  0.00    -0.475 OA
ATOM     17  C   UNL A   1      34.525  24.760  24.602  1.00  0.00     0.027 C 
ATOM     18  C   UNL A   1      32.020  24.697  24.433  1.00  0.00     0.316 C 
BRANCH   9  19
ATOM     19  C   UNL A   1      34.408  18.995  24.654  1.00  0.00     0.040 C 
BRANCH  19  20
ATOM     20  C   UNL A   1      33.006  18.444  24.327  1.00  0.00    -0.013 C 
ATOM     21  C   UNL A   1      32.980  17.687  22.999  1.00  0.00     0.008 C 
ATOM     22  C   UNL A   1      32.534  17.530  25.459  1.00  0.00     0.008 C 
ENDBRANCH  19  20
ENDBRANCH   9  19
BRANCH  18  23
ATOM     23  C   UNL A   1      31.236  24.937  23.135  1.00  0.00     0.430 C 
ATOM     24  F   UNL A   1      30.258  24.014  22.976  1.00  0.00    -0.167 F 
ATOM     25  F   UNL A   1      30.637  26.150  23.129  1.00  0.00    -0.167 F 
ATOM     26  F   UNL A   1      32.038  24.874  22.047  1.00  0.00    -0.167 F 
ENDBRANCH  18  23
ENDBRANCH   6   8
ENDBRANCH   5   6
ENDBRANCH   4   5
ENDBRANCH   3   4
ENDBRANCH   2   3
ENDBRANCH   1   2
BRANCH   1  27
ATOM     27  C   UNL A   1      35.560  30.870  28.149  1.00  0.00     0.261 C 
BRANCH  27  28
ATOM     28  O   UNL A   1      36.186  29.579  28.191  1.00  0.00    -0.460 OA
BRANCH  28  29
ATOM     29  C   UNL A   1      37.034  29.394  29.234  1.00  0.00     0.338 C 
ATOM     30  O   UNL A   1      36.738  29.323  30.418  1.00  0.00    -0.246 OA
BRANCH  29  31
ATOM     31  C   UNL A   1      38.385  29.093  28.724  1.00  0.00     0.060 A 
ATOM     32  C   UNL A   1      38.705  29.267  27.377  1.00  0.00     0.016 A 
ATOM     33  C   UNL A   1      39.357  28.660  29.635  1.00  0.00     0.016 A 
ATOM     34  C   UNL A   1      40.013  29.026  26.950  1.00  0.00     0.010 A 
ATOM     35  C   UNL A   1      40.666  28.431  29.208  1.00  0.00     0.010 A 
ATOM     36  C   UNL A   1      41.008  28.627  27.864  1.00  0.00    -0.014 A 
BRANCH  36  37
ATOM     37  C   UNL A   1      42.420  28.527  27.416  1.00  0.00     0.031 A 
ATOM     38  C   UNL A   1      43.369  29.679  27.555  1.00  0.00     0.074 A 
ATOM     39  C   UNL A   1      42.847  27.359  26.893  1.00  0.00     0.049 A 
ATOM     40  N   UNL A   1      44.661  29.702  27.347  1.00  0.00    -0.248 NA
ATOM     41  C   UNL A   1      42.806  30.971  27.977  1.00  0.00     0.031 C 
ATOM     42  C   UNL A   1      42.001  26.185  26.675  1.00  0.00     0.029 A 
ATOM     43  N   UNL A   1      44.092  26.954  26.479  1.00  0.00    -0.354 N 
ATOM     44  C   UNL A   1      45.071  30.997  27.637  1.00  0.00     0.074 A 
ATOM     45  C   UNL A   1      43.882  31.748  27.976  1.00  0.00     0.031 C 
ATOM     46  C   UNL A   1      42.760  25.176  26.225  1.00  0.00     0.029 A 
ATOM     47  C   UNL A   1      44.140  25.636  26.085  1.00  0.00     0.049 A 
ATOM     48  H   UNL A   1      44.876  27.550  26.465  1.00  0.00     0.167 HD
ATOM     49  C   UNL A   1      46.329  31.498  27.647  1.00  0.00     0.031 A 
ATOM     50  C   UNL A   1      45.174  24.872  25.679  1.00  0.00     0.031 A 
ATOM     51  C   UNL A   1      47.502  30.738  27.290  1.00  0.00     0.049 A 
ATOM     52  C   UNL A   1      46.559  25.462  25.669  1.00  0.00     0.074 A 
ATOM     53  C   UNL A   1      48.822  31.154  27.298  1.00  0.00     0.029 A 
ATOM     54  N   UNL A   1      47.503  29.419  26.861  1.00  0.00    -0.354 N 
ATOM     55  N   UNL A   1      46.940  26.666  26.026  1.00  0.00    -0.248 NA
ATOM     56  C   UNL A   1      47.656  24.590  25.228  1.00  0.00     0.031 C 
ATOM     57  C   UNL A   1      49.610  30.117  26.798  1.00  0.00     0.029 A 
ATOM     58  C   UNL A   1      48.797  29.018  26.574  1.00  0.00     0.049 A 
ATOM     59  H   UNL A   1      46.703  28.852  26.774  1.00  0.00     0.167 HD
ATOM     60  C   UNL A   1      48.324  26.683  25.889  1.00  0.00     0.074 A 
ATOM     61  C   UNL A   1      48.714  25.367  25.426  1.00  0.00     0.031 C 
ATOM     62  C   UNL A   1      49.187  27.700  26.129  1.00  0.00     0.031 A 
BRANCH  49  63
ATOM     63  C   UNL A   1      46.529  32.929  28.082  1.00  0.00    -0.014 A 
ATOM     64  C   UNL A   1      46.579  33.959  27.122  1.00  0.00     0.010 A 
ATOM     65  C   UNL A   1      46.818  33.237  29.425  1.00  0.00     0.010 A 
ATOM     66  C   UNL A   1      46.957  35.253  27.487  1.00  0.00     0.020 A 
ATOM     67  C   UNL A   1      47.164  34.538  29.800  1.00  0.00     0.020 A 
ATOM     68  C   UNL A   1      47.258  35.532  28.823  1.00  0.00     0.054 A 
BRANCH  68  69
ATOM     69  S   UNL A   1      47.796  37.206  29.268  1.00  0.00     0.124 S 
ATOM     70  O   UNL A   1      49.245  37.118  29.106  1.00  0.00    -0.237 OA
ATOM     71  O   UNL A   1      47.100  38.034  28.286  1.00  0.00    -0.237 OA
ATOM     72  O   UNL A   1      47.330  37.362  30.644  1.00  0.00    -0.744 OA
ENDBRANCH  68  69
ENDBRANCH  49  63
BRANCH  50  73
ATOM     73  C   UNL A   1      44.929  23.445  25.326  1.00  0.00    -0.014 A 
ATOM     74  C   UNL A   1      44.981  22.446  26.319  1.00  0.00     0.010 A 
ATOM     75  C   UNL A   1      44.733  23.061  23.988  1.00  0.00     0.010 A 
ATOM     76  C   UNL A   1      44.908  21.094  25.973  1.00  0.00     0.020 A 
ATOM     77  C   UNL A   1      44.620  21.710  23.642  1.00  0.00     0.020 A 
ATOM     78  C   UNL A   1      44.740  20.735  24.633  1.00  0.00     0.054 A 
BRANCH  78  79
ATOM     79  S   UNL A   1      44.713  18.973  24.205  1.00  0.00     0.124 S 
ATOM     80  O   UNL A   1      44.555  19.019  22.753  1.00  0.00    -0.237 OA
ATOM     81  O   UNL A   1      46.014  18.510  24.681  1.00  0.00    -0.237 OA
ATOM     82  O   UNL A   1      43.563  18.457  24.942  1.00  0.00    -0.744 OA
ENDBRANCH  78  79
ENDBRANCH  50  73
BRANCH  62  83
ATOM     83  C   UNL A   1      50.665  27.457  25.930  1.00  0.00    -0.014 A 
ATOM     84  C   UNL A   1      51.226  27.624  24.649  1.00  0.00     0.010 A 
ATOM     85  C   UNL A   1      51.462  26.921  26.956  1.00  0.00     0.010 A 
ATOM     86  C   UNL A   1      52.533  27.212  24.383  1.00  0.00     0.020 A 
ATOM     87  C   UNL A   1      52.785  26.542  26.704  1.00  0.00     0.020 A 
ATOM     88  C   UNL A   1      53.302  26.661  25.410  1.00  0.00     0.054 A 
BRANCH  88  89
ATOM     89  S   UNL A   1      54.977  26.079  25.031  1.00  0.00     0.124 S 
ATOM     90  O   UNL A   1      55.748  26.613  26.151  1.00  0.00    -0.237 OA
ATOM     91  O   UNL A   1      54.815  24.627  25.013  1.00  0.00    -0.237 OA
ATOM     92  O   UNL A   1      55.265  26.683  23.733  1.00  0.00    -0.744 OA
ENDBRANCH  88  89
ENDBRANCH  62  83
ENDBRANCH  36  37
ENDBRANCH  29  31
ENDBRANCH  28  29
ENDBRANCH  27  28
ENDBRANCH   1  27
TORSDOF 20
ENDMDL
MODEL 2
REMARK VINA RESULT:     -10.5      4.543     10.676
REMARK SMILES CC(C)Cc1cc2c(cc1Cl)C=C(C(=O)OCCOCCOC(=O)c1ccc(-c3c4nc(c(-c5ccc(S(=O)(=O)[O-])cc5)c5ccc([nH]5)c(-c5ccc(S(=O)(=O)[O-])cc5)c5nc(c(-c6ccc(S(=O)(=O)[O-])cc6)c6ccc3[nH]6)C=C5)C=C4)cc1)[C@@H](C(F)(F)F)O2
REMARK SMILES IDX 20 1 19 2 18 3 17 4 16 5 14 6 15 7 13 8 5 9 6 10 10 11 7 12
REMARK SMILES IDX 9 13 11 14 8 15 90 16 12 17 85 18 4 19 2 20 1 21 3 22 86 23
REMARK SMILES IDX 87 24 88 25 89 26 21 27 22 28 23 29 24 30 25 31 26 32 84 33
REMARK SMILES IDX 27 34 83 35 28 36 29 37 30 38 77 39 31 40 82 41 76 42 78 43
REMARK SMILES IDX 32 44 81 45 75 46 74 47 33 49 63 50 44 51 62 52 45 53 48 54
REMARK SMILES IDX 61 55 79 56 46 57 47 58 60 60 80 61 49 62 34 63 35 64 43 65
REMARK SMILES IDX 36 66 42 67 37 68 38 69 39 70 40 71 41 72 64 73 65 74 73 75
REMARK SMILES IDX 66 76 72 77 67 78 68 79 69 80 70 81 71 82 50 83 51 84 59 85
REMARK SMILES IDX 52 86 58 87 53 88 54 89 55 90 56 91 57 92
REMARK H PARENT 78 48 48 59
REMARK Flexibility Score: inf
ROOT
ATOM      1  C   UNL A   1      35.973  22.174  26.086  1.00  0.00     0.202 C 
ENDROOT
BRANCH   1   2
ATOM      2  O   UNL A   1      35.266  21.503  25.046  1.00  0.00    -0.374 OA
BRANCH   2   3
ATOM      3  C   UNL A   1      33.901  21.152  25.266  1.00  0.00     0.202 C 
BRANCH   3   4
ATOM      4  C   UNL A   1      33.097  21.998  26.259  1.00  0.00     0.261 C 
BRANCH   4   5
ATOM      5  O   UNL A   1      32.821  23.311  25.751  1.00  0.00    -0.460 OA
BRANCH   5   6
ATOM      6  C   UNL A   1      31.771  23.369  24.900  1.00  0.00     0.338 C 
ATOM      7  O   UNL A   1      31.008  22.459  24.613  1.00  0.00    -0.246 OA
BRANCH   6   8
ATOM      8  C   UNL A   1      31.564  24.758  24.450  1.00  0.00     0.087 C 
ATOM      9  C   UNL A   1      29.403  28.930  22.696  1.00  0.00    -0.025 A 
ATOM     10  C   UNL A   1      30.735  28.490  22.821  1.00  0.00     0.052 A 
ATOM     11  C   UNL A   1      28.379  28.136  23.237  1.00  0.00     0.045 A 
ATOM     12  C   UNL A   1      31.034  27.277  23.444  1.00  0.00     0.128 A 
ATOM     13  C   UNL A   1      28.681  26.932  23.874  1.00  0.00     0.032 A 
ATOM     14  Cl  UNL A   1      26.711  28.571  23.118  1.00  0.00    -0.084 Cl
ATOM     15  C   UNL A   1      30.004  26.494  23.960  1.00  0.00     0.019 A 
ATOM     16  O   UNL A   1      32.353  26.935  23.517  1.00  0.00    -0.475 OA
ATOM     17  C   UNL A   1      30.301  25.193  24.521  1.00  0.00     0.027 C 
ATOM     18  C   UNL A   1      32.708  25.578  23.920  1.00  0.00     0.316 C 
BRANCH   9  19
ATOM     19  C   UNL A   1      29.131  30.243  21.995  1.00  0.00     0.040 C 
BRANCH  19  20
ATOM     20  C   UNL A   1      28.543  31.328  22.918  1.00  0.00    -0.013 C 
ATOM     21  C   UNL A   1      29.410  31.562  24.157  1.00  0.00     0.008 C 
ATOM     22  C   UNL A   1      28.380  32.635  22.140  1.00  0.00     0.008 C 
ENDBRANCH  19  20
ENDBRANCH   9  19
BRANCH  18  23
ATOM     23  C   UNL A   1      33.427  24.891  22.750  1.00  0.00     0.430 C 
ATOM     24  F   UNL A   1      33.950  25.800  21.894  1.00  0.00    -0.167 F 
ATOM     25  F   UNL A   1      34.452  24.118  23.178  1.00  0.00    -0.167 F 
ATOM     26  F   UNL A   1      32.588  24.099  22.043  1.00  0.00    -0.167 F 
ENDBRANCH  18  23
ENDBRANCH   6   8
ENDBRANCH   5   6
ENDBRANCH   4   5
ENDBRANCH   3   4
ENDBRANCH   2   3
ENDBRANCH   1   2
BRANCH   1  27
ATOM     27  C   UNL A   1      36.857  23.373  25.722  1.00  0.00     0.261 C 
BRANCH  27  28
ATOM     28  O   UNL A   1      38.172  22.998  25.286  1.00  0.00    -0.460 OA
BRANCH  28  29
ATOM     29  C   UNL A   1      39.077  22.837  26.284  1.00  0.00     0.338 C 
ATOM     30  O   UNL A   1      39.709  21.823  26.546  1.00  0.00    -0.246 OA
BRANCH  29  31
ATOM     31  C   UNL A   1      39.349  24.140  26.919  1.00  0.00     0.060 A 
ATOM     32  C   UNL A   1      38.938  24.407  28.225  1.00  0.00     0.016 A 
ATOM     33  C   UNL A   1      40.066  25.097  26.189  1.00  0.00     0.016 A 
ATOM     34  C   UNL A   1      39.270  25.633  28.807  1.00  0.00     0.010 A 
ATOM     35  C   UNL A   1      40.405  26.316  26.776  1.00  0.00     0.010 A 
ATOM     36  C   UNL A   1      40.023  26.588  28.097  1.00  0.00    -0.014 A 
BRANCH  36  37
ATOM     37  C   UNL A   1      40.493  27.816  28.787  1.00  0.00     0.031 A 
ATOM     38  C   UNL A   1      41.914  27.962  29.244  1.00  0.00     0.074 A 
ATOM     39  C   UNL A   1      39.615  28.821  28.981  1.00  0.00     0.049 A 
ATOM     40  N   UNL A   1      42.510  29.020  29.728  1.00  0.00    -0.248 NA
ATOM     41  C   UNL A   1      42.777  26.774  29.154  1.00  0.00     0.031 C 
ATOM     42  C   UNL A   1      38.199  28.772  28.612  1.00  0.00     0.029 A 
ATOM     43  N   UNL A   1      39.780  30.079  29.504  1.00  0.00    -0.354 N 
ATOM     44  C   UNL A   1      43.823  28.640  29.974  1.00  0.00     0.074 A 
ATOM     45  C   UNL A   1      43.921  27.234  29.646  1.00  0.00     0.031 C 
ATOM     46  C   UNL A   1      37.640  29.965  28.864  1.00  0.00     0.029 A 
ATOM     47  C   UNL A   1      38.643  30.853  29.447  1.00  0.00     0.049 A 
ATOM     48  H   UNL A   1      40.630  30.398  29.884  1.00  0.00     0.167 HD
ATOM     49  C   UNL A   1      44.854  29.404  30.407  1.00  0.00     0.031 A 
ATOM     50  C   UNL A   1      38.429  32.137  29.799  1.00  0.00     0.031 A 
ATOM     51  C   UNL A   1      44.734  30.801  30.746  1.00  0.00     0.049 A 
ATOM     52  C   UNL A   1      39.585  32.958  30.306  1.00  0.00     0.074 A 
ATOM     53  C   UNL A   1      45.730  31.665  31.166  1.00  0.00     0.029 A 
ATOM     54  N   UNL A   1      43.559  31.537  30.710  1.00  0.00    -0.354 N 
ATOM     55  N   UNL A   1      40.840  32.603  30.455  1.00  0.00    -0.248 NA
ATOM     56  C   UNL A   1      39.307  34.354  30.669  1.00  0.00     0.031 C 
ATOM     57  C   UNL A   1      45.146  32.896  31.461  1.00  0.00     0.029 A 
ATOM     58  C   UNL A   1      43.802  32.834  31.129  1.00  0.00     0.049 A 
ATOM     59  H   UNL A   1      42.681  31.189  30.429  1.00  0.00     0.167 HD
ATOM     60  C   UNL A   1      41.507  33.743  30.892  1.00  0.00     0.074 A 
ATOM     61  C   UNL A   1      40.521  34.800  30.975  1.00  0.00     0.031 C 
ATOM     62  C   UNL A   1      42.820  33.892  31.194  1.00  0.00     0.031 A 
BRANCH  49  63
ATOM     63  C   UNL A   1      46.220  28.773  30.518  1.00  0.00    -0.014 A 
ATOM     64  C   UNL A   1      46.729  28.409  31.779  1.00  0.00     0.010 A 
ATOM     65  C   UNL A   1      47.061  28.680  29.393  1.00  0.00     0.010 A 
ATOM     66  C   UNL A   1      48.060  28.008  31.920  1.00  0.00     0.020 A 
ATOM     67  C   UNL A   1      48.383  28.246  29.524  1.00  0.00     0.020 A 
ATOM     68  C   UNL A   1      48.882  27.940  30.792  1.00  0.00     0.054 A 
BRANCH  68  69
ATOM     69  S   UNL A   1      50.621  27.467  31.004  1.00  0.00     0.124 S 
ATOM     70  O   UNL A   1      50.531  26.017  31.147  1.00  0.00    -0.237 OA
ATOM     71  O   UNL A   1      51.231  27.943  29.765  1.00  0.00    -0.237 OA
ATOM     72  O   UNL A   1      51.028  28.189  32.207  1.00  0.00    -0.744 OA
ENDBRANCH  68  69
ENDBRANCH  49  63
BRANCH  50  73
ATOM     73  C   UNL A   1      37.075  32.729  29.604  1.00  0.00    -0.014 A 
ATOM     74  C   UNL A   1      36.684  33.211  28.339  1.00  0.00     0.010 A 
ATOM     75  C   UNL A   1      36.204  32.900  30.693  1.00  0.00     0.010 A 
ATOM     76  C   UNL A   1      35.482  33.906  28.183  1.00  0.00     0.020 A 
ATOM     77  C   UNL A   1      34.982  33.562  30.534  1.00  0.00     0.020 A 
ATOM     78  C   UNL A   1      34.644  34.088  29.285  1.00  0.00     0.054 A 
BRANCH  78  79
ATOM     79  S   UNL A   1      33.121  35.049  29.068  1.00  0.00     0.124 S 
ATOM     80  O   UNL A   1      33.642  36.340  28.625  1.00  0.00    -0.237 OA
ATOM     81  O   UNL A   1      32.402  34.280  28.056  1.00  0.00    -0.237 OA
ATOM     82  O   UNL A   1      32.518  35.043  30.398  1.00  0.00    -0.744 OA
ENDBRANCH  78  79
ENDBRANCH  50  73
BRANCH  62  83
ATOM     83  C   UNL A   1      43.314  35.255  31.624  1.00  0.00    -0.014 A 
ATOM     84  C   UNL A   1      43.150  35.656  32.963  1.00  0.00     0.010 A 
ATOM     85  C   UNL A   1      43.790  36.188  30.687  1.00  0.00     0.010 A 
ATOM     86  C   UNL A   1      43.402  36.975  33.349  1.00  0.00     0.020 A 
ATOM     87  C   UNL A   1      44.079  37.500  31.076  1.00  0.00     0.020 A 
ATOM     88  C   UNL A   1      43.853  37.893  32.399  1.00  0.00     0.054 A 
BRANCH  88  89
ATOM     89  S   UNL A   1      44.120  39.614  32.906  1.00  0.00     0.124 S 
ATOM     90  O   UNL A   1      45.311  39.507  33.743  1.00  0.00    -0.237 OA
ATOM     91  O   UNL A   1      44.306  40.299  31.629  1.00  0.00    -0.237 OA
ATOM     92  O   UNL A   1      42.890  39.958  33.614  1.00  0.00    -0.744 OA
ENDBRANCH  88  89
ENDBRANCH  62  83
ENDBRANCH  36  37
ENDBRANCH  29  31
ENDBRANCH  28  29
ENDBRANCH  27  28
ENDBRANCH   1  27
TORSDOF 20
ENDMDL
MODEL 3
REMARK VINA RESULT:     -10.5      4.417     10.471
REMARK SMILES CC(C)Cc1cc2c(cc1Cl)C=C(C(=O)OCCOCCOC(=O)c1ccc(-c3c4nc(c(-c5ccc(S(=O)(=O)[O-])cc5)c5ccc([nH]5)c(-c5ccc(S(=O)(=O)[O-])cc5)c5nc(c(-c6ccc(S(=O)(=O)[O-])cc6)c6ccc3[nH]6)C=C5)C=C4)cc1)[C@@H](C(F)(F)F)O2
REMARK SMILES IDX 20 1 19 2 18 3 17 4 16 5 14 6 15 7 13 8 5 9 6 10 10 11 7 12
REMARK SMILES IDX 9 13 11 14 8 15 90 16 12 17 85 18 4 19 2 20 1 21 3 22 86 23
REMARK SMILES IDX 87 24 88 25 89 26 21 27 22 28 23 29 24 30 25 31 26 32 84 33
REMARK SMILES IDX 27 34 83 35 28 36 29 37 30 38 77 39 31 40 82 41 76 42 78 43
REMARK SMILES IDX 32 44 81 45 75 46 74 47 33 49 63 50 44 51 62 52 45 53 48 54
REMARK SMILES IDX 61 55 79 56 46 57 47 58 60 60 80 61 49 62 34 63 35 64 43 65
REMARK SMILES IDX 36 66 42 67 37 68 38 69 39 70 40 71 41 72 64 73 65 74 73 75
REMARK SMILES IDX 66 76 72 77 67 78 68 79 69 80 70 81 71 82 50 83 51 84 59 85
REMARK SMILES IDX 52 86 58 87 53 88 54 89 55 90 56 91 57 92
REMARK H PARENT 78 48 48 59
REMARK Flexibility Score: inf
ROOT
ATOM      1  C   UNL A   1      35.887  22.107  25.792  1.00  0.00     0.202 C 
ENDROOT
BRANCH   1   2
ATOM      2  O   UNL A   1      36.334  20.901  25.176  1.00  0.00    -0.374 OA
BRANCH   2   3
ATOM      3  C   UNL A   1      35.381  19.871  24.922  1.00  0.00     0.202 C 
BRANCH   3   4
ATOM      4  C   UNL A   1      33.928  20.288  24.671  1.00  0.00     0.261 C 
BRANCH   4   5
ATOM      5  O   UNL A   1      33.836  21.424  23.798  1.00  0.00    -0.460 OA
BRANCH   5   6
ATOM      6  C   UNL A   1      32.599  21.640  23.296  1.00  0.00     0.338 C 
ATOM      7  O   UNL A   1      31.853  20.810  22.800  1.00  0.00    -0.246 OA
BRANCH   6   8
ATOM      8  C   UNL A   1      32.185  23.031  23.560  1.00  0.00     0.087 C 
ATOM      9  C   UNL A   1      32.298  28.014  24.124  1.00  0.00    -0.025 A 
ATOM     10  C   UNL A   1      31.424  26.994  24.550  1.00  0.00     0.052 A 
ATOM     11  C   UNL A   1      33.356  27.675  23.265  1.00  0.00     0.045 A 
ATOM     12  C   UNL A   1      31.619  25.671  24.154  1.00  0.00     0.128 A 
ATOM     13  C   UNL A   1      33.539  26.354  22.857  1.00  0.00     0.032 A 
ATOM     14  Cl  UNL A   1      34.498  28.843  22.701  1.00  0.00    -0.084 Cl
ATOM     15  C   UNL A   1      32.685  25.350  23.316  1.00  0.00     0.019 A 
ATOM     16  O   UNL A   1      30.721  24.753  24.619  1.00  0.00    -0.475 OA
ATOM     17  C   UNL A   1      32.946  23.967  22.980  1.00  0.00     0.027 C 
ATOM     18  C   UNL A   1      31.014  23.334  24.455  1.00  0.00     0.316 C 
BRANCH   9  19
ATOM     19  C   UNL A   1      32.053  29.429  24.597  1.00  0.00     0.040 C 
BRANCH  19  20
ATOM     20  C   UNL A   1      32.256  29.620  26.113  1.00  0.00    -0.013 C 
ATOM     21  C   UNL A   1      33.733  29.568  26.507  1.00  0.00     0.008 C 
ATOM     22  C   UNL A   1      31.644  30.951  26.552  1.00  0.00     0.008 C 
ENDBRANCH  19  20
ENDBRANCH   9  19
BRANCH  18  23
ATOM     23  C   UNL A   1      31.160  22.698  25.844  1.00  0.00     0.430 C 
ATOM     24  F   UNL A   1      30.761  21.404  25.835  1.00  0.00    -0.167 F 
ATOM     25  F   UNL A   1      32.445  22.710  26.267  1.00  0.00    -0.167 F 
ATOM     26  F   UNL A   1      30.420  23.347  26.772  1.00  0.00    -0.167 F 
ENDBRANCH  18  23
ENDBRANCH   6   8
ENDBRANCH   5   6
ENDBRANCH   4   5
ENDBRANCH   3   4
ENDBRANCH   2   3
ENDBRANCH   1   2
BRANCH   1  27
ATOM     27  C   UNL A   1      36.810  23.331  25.770  1.00  0.00     0.261 C 
BRANCH  27  28
ATOM     28  O   UNL A   1      38.142  23.032  25.327  1.00  0.00    -0.460 OA
BRANCH  28  29
ATOM     29  C   UNL A   1      39.050  22.880  26.323  1.00  0.00     0.338 C 
ATOM     30  O   UNL A   1      39.681  21.868  26.593  1.00  0.00    -0.246 OA
BRANCH  29  31
ATOM     31  C   UNL A   1      39.327  24.189  26.943  1.00  0.00     0.060 A 
ATOM     32  C   UNL A   1      38.939  24.464  28.254  1.00  0.00     0.016 A 
ATOM     33  C   UNL A   1      40.025  25.144  26.193  1.00  0.00     0.016 A 
ATOM     34  C   UNL A   1      39.275  25.696  28.821  1.00  0.00     0.010 A 
ATOM     35  C   UNL A   1      40.370  26.369  26.765  1.00  0.00     0.010 A 
ATOM     36  C   UNL A   1      40.010  26.649  28.090  1.00  0.00    -0.014 A 
BRANCH  36  37
ATOM     37  C   UNL A   1      40.486  27.885  28.763  1.00  0.00     0.031 A 
ATOM     38  C   UNL A   1      41.914  28.041  29.193  1.00  0.00     0.074 A 
ATOM     39  C   UNL A   1      39.606  28.886  28.966  1.00  0.00     0.049 A 
ATOM     40  N   UNL A   1      42.514  29.106  29.658  1.00  0.00    -0.248 NA
ATOM     41  C   UNL A   1      42.782  26.857  29.095  1.00  0.00     0.031 C 
ATOM     42  C   UNL A   1      38.184  28.828  28.623  1.00  0.00     0.029 A 
ATOM     43  N   UNL A   1      39.775  30.149  29.477  1.00  0.00    -0.354 N 
ATOM     44  C   UNL A   1      43.833  28.734  29.882  1.00  0.00     0.074 A 
ATOM     45  C   UNL A   1      43.933  27.326  29.562  1.00  0.00     0.031 C 
ATOM     46  C   UNL A   1      37.624  30.019  28.877  1.00  0.00     0.029 A 
ATOM     47  C   UNL A   1      38.633  30.917  29.435  1.00  0.00     0.049 A 
ATOM     48  H   UNL A   1      40.630  30.475  29.839  1.00  0.00     0.167 HD
ATOM     49  C   UNL A   1      44.868  29.508  30.290  1.00  0.00     0.031 A 
ATOM     50  C   UNL A   1      38.418  32.202  29.782  1.00  0.00     0.031 A 
ATOM     51  C   UNL A   1      44.746  30.906  30.621  1.00  0.00     0.049 A 
ATOM     52  C   UNL A   1      39.579  33.033  30.261  1.00  0.00     0.074 A 
ATOM     53  C   UNL A   1      45.746  31.778  31.016  1.00  0.00     0.029 A 
ATOM     54  N   UNL A   1      43.567  31.636  30.601  1.00  0.00    -0.354 N 
ATOM     55  N   UNL A   1      40.838  32.686  30.389  1.00  0.00    -0.248 NA
ATOM     56  C   UNL A   1      39.301  34.430  30.619  1.00  0.00     0.031 C 
ATOM     57  C   UNL A   1      45.160  33.009  31.312  1.00  0.00     0.029 A 
ATOM     58  C   UNL A   1      43.811  32.937  31.006  1.00  0.00     0.049 A 
ATOM     59  H   UNL A   1      42.686  31.281  30.339  1.00  0.00     0.167 HD
ATOM     60  C   UNL A   1      41.507  33.832  30.806  1.00  0.00     0.074 A 
ATOM     61  C   UNL A   1      40.517  34.884  30.899  1.00  0.00     0.031 C 
ATOM     62  C   UNL A   1      42.825  33.991  31.082  1.00  0.00     0.031 A 
BRANCH  49  63
ATOM     63  C   UNL A   1      46.239  28.884  30.380  1.00  0.00    -0.014 A 
ATOM     64  C   UNL A   1      46.704  28.376  31.608  1.00  0.00     0.010 A 
ATOM     65  C   UNL A   1      47.125  28.938  29.287  1.00  0.00     0.010 A 
ATOM     66  C   UNL A   1      48.035  27.977  31.754  1.00  0.00     0.020 A 
ATOM     67  C   UNL A   1      48.448  28.508  29.420  1.00  0.00     0.020 A 
ATOM     68  C   UNL A   1      48.902  28.057  30.661  1.00  0.00     0.054 A 
BRANCH  68  69
ATOM     69  S   UNL A   1      50.639  27.583  30.885  1.00  0.00     0.124 S 
ATOM     70  O   UNL A   1      51.114  28.589  31.830  1.00  0.00    -0.237 OA
ATOM     71  O   UNL A   1      50.531  26.224  31.410  1.00  0.00    -0.237 OA
ATOM     72  O   UNL A   1      51.196  27.678  29.538  1.00  0.00    -0.744 OA
ENDBRANCH  68  69
ENDBRANCH  49  63
BRANCH  50  73
ATOM     73  C   UNL A   1      37.058  32.786  29.607  1.00  0.00    -0.014 A 
ATOM     74  C   UNL A   1      36.597  33.148  28.326  1.00  0.00     0.010 A 
ATOM     75  C   UNL A   1      36.251  33.069  30.723  1.00  0.00     0.010 A 
ATOM     76  C   UNL A   1      35.391  33.836  28.172  1.00  0.00     0.020 A 
ATOM     77  C   UNL A   1      35.024  33.723  30.570  1.00  0.00     0.020 A 
ATOM     78  C   UNL A   1      34.618  34.131  29.298  1.00  0.00     0.054 A 
BRANCH  78  79
ATOM     79  S   UNL A   1      33.089  35.081  29.076  1.00  0.00     0.124 S 
ATOM     80  O   UNL A   1      33.605  36.391  28.684  1.00  0.00    -0.237 OA
ATOM     81  O   UNL A   1      32.401  34.336  28.025  1.00  0.00    -0.237 OA
ATOM     82  O   UNL A   1      32.456  35.027  30.391  1.00  0.00    -0.744 OA
ENDBRANCH  78  79
ENDBRANCH  50  73
BRANCH  62  83
ATOM     83  C   UNL A   1      43.319  35.359  31.492  1.00  0.00    -0.014 A 
ATOM     84  C   UNL A   1      43.154  35.780  32.826  1.00  0.00     0.010 A 
ATOM     85  C   UNL A   1      43.797  36.278  30.543  1.00  0.00     0.010 A 
ATOM     86  C   UNL A   1      43.407  37.104  33.192  1.00  0.00     0.020 A 
ATOM     87  C   UNL A   1      44.087  37.595  30.913  1.00  0.00     0.020 A 
ATOM     88  C   UNL A   1      43.860  38.008  32.230  1.00  0.00     0.054 A 
BRANCH  88  89
ATOM     89  S   UNL A   1      44.127  39.736  32.712  1.00  0.00     0.124 S 
ATOM     90  O   UNL A   1      45.392  39.660  33.438  1.00  0.00    -0.237 OA
ATOM     91  O   UNL A   1      44.180  40.423  31.424  1.00  0.00    -0.237 OA
ATOM     92  O   UNL A   1      42.958  40.049  33.530  1.00  0.00    -0.744 OA
ENDBRANCH  88  89
ENDBRANCH  62  83
ENDBRANCH  36  37
ENDBRANCH  29  31
ENDBRANCH  28  29
ENDBRANCH  27  28
ENDBRANCH   1  27
TORSDOF 20
ENDMDL
