MODEL 1
REMARK VINA RESULT:      -8.2      0.000      0.000
REMARK SMILES COc1ccc(C(=O)c2ccccc2)cc1[C@@H](C)C(=O)OCCOCCOC(=O)c1ccc(-c2c3nc(c(-c4ccc(S(=O)(=O)[O-])cc4)c4ccc([nH]4)c(-c4ccc(S(=O)(=O)[O-])cc4)c4nc(c(-c5ccc(S(=O)(=O)[O-])cc5)c5ccc2[nH]5)C=C4)C=C3)cc1
REMARK SMILES IDX 24 1 23 2 22 3 21 4 19 5 20 6 17 7 18 8 16 9 3 10 4 11 5 12
REMARK SMILES IDX 15 13 6 14 2 15 1 16 7 17 8 18 9 19 10 20 14 21 11 22 13 23
REMARK SMILES IDX 12 24 25 25 26 26 27 27 28 28 29 29 30 30 31 31 89 32 32 33
REMARK SMILES IDX 88 34 33 35 34 36 35 37 82 38 36 39 87 40 81 41 83 42 37 43
REMARK SMILES IDX 86 44 80 45 79 46 38 48 68 49 49 50 67 51 50 52 53 53 66 54
REMARK SMILES IDX 84 55 51 56 52 57 65 59 85 60 54 61 39 62 40 63 48 64 41 65
REMARK SMILES IDX 47 66 42 67 43 68 44 69 45 70 46 71 69 72 70 73 78 74 71 75
REMARK SMILES IDX 77 76 72 77 73 78 74 79 75 80 76 81 55 82 56 83 64 84 57 85
REMARK SMILES IDX 63 86 58 87 59 88 60 89 61 90 62 91
REMARK H PARENT 83 47 53 58
REMARK Flexibility Score: inf
ROOT
ATOM      1  O   UNL A   1      35.392  35.705  33.181  1.00  0.00    -0.374 OA
ENDROOT
BRANCH   1   2
ATOM      2  C   UNL A   1      34.553  36.114  32.100  1.00  0.00     0.202 C 
BRANCH   2   3
ATOM      3  C   UNL A   1      33.430  35.136  31.743  1.00  0.00     0.261 C 
BRANCH   3   4
ATOM      4  O   UNL A   1      33.662  34.540  30.451  1.00  0.00    -0.463 OA
BRANCH   4   5
ATOM      5  C   UNL A   1      34.412  33.409  30.424  1.00  0.00     0.313 C 
ATOM      6  O   UNL A   1      34.332  32.500  31.245  1.00  0.00    -0.252 OA
BRANCH   5   7
ATOM      7  C   UNL A   1      35.420  33.385  29.284  1.00  0.00     0.130 C 
ATOM      8  C   UNL A   1      35.004  34.375  28.197  1.00  0.00     0.025 C 
BRANCH   7   9
ATOM      9  C   UNL A   1      35.765  32.019  28.693  1.00  0.00     0.009 A 
ATOM     10  C   UNL A   1      34.832  31.284  27.944  1.00  0.00     0.122 A 
ATOM     11  C   UNL A   1      35.103  29.974  27.542  1.00  0.00     0.047 A 
ATOM     12  C   UNL A   1      36.307  29.365  27.901  1.00  0.00     0.016 A 
ATOM     13  C   UNL A   1      37.001  31.402  28.985  1.00  0.00     0.020 A 
ATOM     14  C   UNL A   1      37.258  30.064  28.654  1.00  0.00     0.023 A 
BRANCH  10  15
ATOM     15  O   UNL A   1      33.570  31.753  27.696  1.00  0.00    -0.496 OA
ATOM     16  C   UNL A   1      32.752  30.785  27.041  1.00  0.00     0.278 C 
ENDBRANCH  10  15
BRANCH  14  17
ATOM     17  C   UNL A   1      38.494  29.333  29.076  1.00  0.00     0.193 C 
ATOM     18  O   UNL A   1      38.837  29.398  30.256  1.00  0.00    -0.289 OA
BRANCH  17  19
ATOM     19  C   UNL A   1      39.311  28.501  28.147  1.00  0.00     0.022 A 
ATOM     20  C   UNL A   1      40.036  29.166  27.151  1.00  0.00     0.012 A 
ATOM     21  C   UNL A   1      39.392  27.107  28.222  1.00  0.00     0.012 A 
ATOM     22  C   UNL A   1      40.931  28.470  26.338  1.00  0.00     0.001 A 
ATOM     23  C   UNL A   1      40.294  26.410  27.415  1.00  0.00     0.001 A 
ATOM     24  C   UNL A   1      41.082  27.096  26.491  1.00  0.00     0.000 A 
ENDBRANCH  17  19
ENDBRANCH  14  17
ENDBRANCH   7   9
ENDBRANCH   5   7
ENDBRANCH   4   5
ENDBRANCH   3   4
ENDBRANCH   2   3
ENDBRANCH   1   2
BRANCH   1  25
ATOM     25  C   UNL A   1      34.824  34.782  34.110  1.00  0.00     0.202 C 
BRANCH  25  26
ATOM     26  C   UNL A   1      35.542  33.435  34.252  1.00  0.00     0.261 C 
BRANCH  26  27
ATOM     27  O   UNL A   1      36.965  33.561  34.112  1.00  0.00    -0.460 OA
BRANCH  27  28
ATOM     28  C   UNL A   1      37.658  32.433  34.392  1.00  0.00     0.338 C 
ATOM     29  O   UNL A   1      37.372  31.582  35.227  1.00  0.00    -0.246 OA
BRANCH  28  30
ATOM     30  C   UNL A   1      38.757  32.254  33.426  1.00  0.00     0.060 A 
ATOM     31  C   UNL A   1      39.970  31.740  33.904  1.00  0.00     0.016 A 
ATOM     32  C   UNL A   1      38.638  32.655  32.096  1.00  0.00     0.016 A 
ATOM     33  C   UNL A   1      41.088  31.684  33.072  1.00  0.00     0.010 A 
ATOM     34  C   UNL A   1      39.764  32.605  31.269  1.00  0.00     0.010 A 
ATOM     35  C   UNL A   1      41.005  32.154  31.755  1.00  0.00    -0.014 A 
BRANCH  35  36
ATOM     36  C   UNL A   1      42.241  32.356  30.951  1.00  0.00     0.031 A 
ATOM     37  C   UNL A   1      42.896  33.716  30.963  1.00  0.00     0.074 A 
ATOM     38  C   UNL A   1      42.788  31.357  30.233  1.00  0.00     0.049 A 
ATOM     39  N   UNL A   1      43.965  34.129  30.330  1.00  0.00    -0.248 NA
ATOM     40  C   UNL A   1      42.246  34.754  31.779  1.00  0.00     0.031 C 
ATOM     41  C   UNL A   1      42.264  29.995  30.125  1.00  0.00     0.029 A 
ATOM     42  N   UNL A   1      43.919  31.340  29.451  1.00  0.00    -0.354 N 
ATOM     43  C   UNL A   1      44.098  35.475  30.656  1.00  0.00     0.074 A 
ATOM     44  C   UNL A   1      42.970  35.823  31.490  1.00  0.00     0.031 C 
ATOM     45  C   UNL A   1      43.076  29.274  29.330  1.00  0.00     0.029 A 
ATOM     46  C   UNL A   1      44.168  30.123  28.861  1.00  0.00     0.049 A 
ATOM     47  H   UNL A   1      44.496  32.127  29.326  1.00  0.00     0.167 HD
ATOM     48  C   UNL A   1      45.083  36.343  30.323  1.00  0.00     0.031 A 
ATOM     49  C   UNL A   1      45.167  29.737  28.042  1.00  0.00     0.031 A 
ATOM     50  C   UNL A   1      46.226  35.997  29.523  1.00  0.00     0.049 A 
ATOM     51  C   UNL A   1      46.260  30.714  27.690  1.00  0.00     0.074 A 
ATOM     52  C   UNL A   1      47.300  36.793  29.166  1.00  0.00     0.029 A 
ATOM     53  N   UNL A   1      46.449  34.748  28.967  1.00  0.00    -0.354 N 
ATOM     54  N   UNL A   1      46.390  31.972  28.043  1.00  0.00    -0.248 NA
ATOM     55  C   UNL A   1      47.358  30.208  26.852  1.00  0.00     0.031 C 
ATOM     56  C   UNL A   1      48.161  36.031  28.368  1.00  0.00     0.029 A 
ATOM     57  C   UNL A   1      47.645  34.749  28.270  1.00  0.00     0.049 A 
ATOM     58  H   UNL A   1      45.846  33.975  29.054  1.00  0.00     0.167 HD
ATOM     59  C   UNL A   1      47.605  32.391  27.509  1.00  0.00     0.074 A 
ATOM     60  C   UNL A   1      48.172  31.254  26.814  1.00  0.00     0.031 C 
ATOM     61  C   UNL A   1      48.204  33.605  27.596  1.00  0.00     0.031 A 
BRANCH  48  62
ATOM     62  C   UNL A   1      44.956  37.753  30.835  1.00  0.00    -0.014 A 
ATOM     63  C   UNL A   1      45.548  38.138  32.054  1.00  0.00     0.010 A 
ATOM     64  C   UNL A   1      44.237  38.706  30.093  1.00  0.00     0.010 A 
ATOM     65  C   UNL A   1      45.373  39.433  32.548  1.00  0.00     0.020 A 
ATOM     66  C   UNL A   1      44.087  40.012  30.570  1.00  0.00     0.020 A 
ATOM     67  C   UNL A   1      44.636  40.360  31.806  1.00  0.00     0.054 A 
BRANCH  67  68
ATOM     68  S   UNL A   1      44.427  42.035  32.467  1.00  0.00     0.124 S 
ATOM     69  O   UNL A   1      44.477  42.845  31.253  1.00  0.00    -0.237 OA
ATOM     70  O   UNL A   1      43.122  41.963  33.119  1.00  0.00    -0.237 OA
ATOM     71  O   UNL A   1      45.563  42.195  33.371  1.00  0.00    -0.744 OA
ENDBRANCH  67  68
ENDBRANCH  48  62
BRANCH  49  72
ATOM     72  C   UNL A   1      45.208  28.343  27.518  1.00  0.00    -0.014 A 
ATOM     73  C   UNL A   1      44.695  28.042  26.244  1.00  0.00     0.010 A 
ATOM     74  C   UNL A   1      45.746  27.305  28.301  1.00  0.00     0.010 A 
ATOM     75  C   UNL A   1      44.695  26.727  25.771  1.00  0.00     0.020 A 
ATOM     76  C   UNL A   1      45.771  25.992  27.821  1.00  0.00     0.020 A 
ATOM     77  C   UNL A   1      45.233  25.709  26.564  1.00  0.00     0.054 A 
BRANCH  77  78
ATOM     78  S   UNL A   1      45.263  24.015  25.912  1.00  0.00     0.124 S 
ATOM     79  O   UNL A   1      46.674  23.666  26.039  1.00  0.00    -0.237 OA
ATOM     80  O   UNL A   1      44.353  23.314  26.814  1.00  0.00    -0.237 OA
ATOM     81  O   UNL A   1      44.776  24.168  24.543  1.00  0.00    -0.744 OA
ENDBRANCH  77  78
ENDBRANCH  49  72
BRANCH  61  82
ATOM     82  C   UNL A   1      49.573  33.751  26.986  1.00  0.00    -0.014 A 
ATOM     83  C   UNL A   1      50.735  33.378  27.682  1.00  0.00     0.010 A 
ATOM     84  C   UNL A   1      49.689  34.242  25.671  1.00  0.00     0.010 A 
ATOM     85  C   UNL A   1      51.993  33.537  27.091  1.00  0.00     0.020 A 
ATOM     86  C   UNL A   1      50.941  34.377  25.067  1.00  0.00     0.020 A 
ATOM     87  C   UNL A   1      52.088  34.042  25.790  1.00  0.00     0.054 A 
BRANCH  87  88
ATOM     88  S   UNL A   1      53.727  34.226  25.037  1.00  0.00     0.124 S 
ATOM     89  O   UNL A   1      54.599  33.678  26.072  1.00  0.00    -0.237 OA
ATOM     90  O   UNL A   1      53.616  33.425  23.821  1.00  0.00    -0.237 OA
ATOM     91  O   UNL A   1      53.848  35.666  24.816  1.00  0.00    -0.744 OA
ENDBRANCH  87  88
ENDBRANCH  61  82
ENDBRANCH  35  36
ENDBRANCH  28  30
ENDBRANCH  27  28
ENDBRANCH  26  27
ENDBRANCH  25  26
ENDBRANCH   1  25
TORSDOF 21
ENDMDL
MODEL 2
REMARK VINA RESULT:      -8.1      3.245      5.684
REMARK SMILES COc1ccc(C(=O)c2ccccc2)cc1[C@@H](C)C(=O)OCCOCCOC(=O)c1ccc(-c2c3nc(c(-c4ccc(S(=O)(=O)[O-])cc4)c4ccc([nH]4)c(-c4ccc(S(=O)(=O)[O-])cc4)c4nc(c(-c5ccc(S(=O)(=O)[O-])cc5)c5ccc2[nH]5)C=C4)C=C3)cc1
REMARK SMILES IDX 24 1 23 2 22 3 21 4 19 5 20 6 17 7 18 8 16 9 3 10 4 11 5 12
REMARK SMILES IDX 15 13 6 14 2 15 1 16 7 17 8 18 9 19 10 20 14 21 11 22 13 23
REMARK SMILES IDX 12 24 25 25 26 26 27 27 28 28 29 29 30 30 31 31 89 32 32 33
REMARK SMILES IDX 88 34 33 35 34 36 35 37 82 38 36 39 87 40 81 41 83 42 37 43
REMARK SMILES IDX 86 44 80 45 79 46 38 48 68 49 49 50 67 51 50 52 53 53 66 54
REMARK SMILES IDX 84 55 51 56 52 57 65 59 85 60 54 61 39 62 40 63 48 64 41 65
REMARK SMILES IDX 47 66 42 67 43 68 44 69 45 70 46 71 69 72 70 73 78 74 71 75
REMARK SMILES IDX 77 76 72 77 73 78 74 79 75 80 76 81 55 82 56 83 64 84 57 85
REMARK SMILES IDX 63 86 58 87 59 88 60 89 61 90 62 91
REMARK H PARENT 83 47 53 58
REMARK Flexibility Score: inf
ROOT
ATOM      1  O   UNL A   1      38.027  32.336  33.457  1.00  0.00    -0.374 OA
ENDROOT
BRANCH   1   2
ATOM      2  C   UNL A   1      37.208  32.938  34.461  1.00  0.00     0.202 C 
BRANCH   2   3
ATOM      3  C   UNL A   1      37.088  34.462  34.373  1.00  0.00     0.261 C 
BRANCH   3   4
ATOM      4  O   UNL A   1      36.257  34.847  33.260  1.00  0.00    -0.463 OA
BRANCH   4   5
ATOM      5  C   UNL A   1      35.001  35.272  33.551  1.00  0.00     0.313 C 
ATOM      6  O   UNL A   1      34.735  36.154  34.362  1.00  0.00    -0.252 OA
BRANCH   5   7
ATOM      7  C   UNL A   1      33.920  34.510  32.798  1.00  0.00     0.130 C 
ATOM      8  C   UNL A   1      34.011  33.019  33.119  1.00  0.00     0.025 C 
BRANCH   7   9
ATOM      9  C   UNL A   1      33.821  34.754  31.293  1.00  0.00     0.009 A 
ATOM     10  C   UNL A   1      33.055  35.805  30.767  1.00  0.00     0.122 A 
ATOM     11  C   UNL A   1      32.846  35.926  29.391  1.00  0.00     0.047 A 
ATOM     12  C   UNL A   1      33.383  34.981  28.514  1.00  0.00     0.016 A 
ATOM     13  C   UNL A   1      34.409  33.851  30.380  1.00  0.00     0.020 A 
ATOM     14  C   UNL A   1      34.146  33.914  29.004  1.00  0.00     0.023 A 
BRANCH  10  15
ATOM     15  O   UNL A   1      32.364  36.672  31.570  1.00  0.00    -0.496 OA
ATOM     16  C   UNL A   1      31.429  35.999  32.414  1.00  0.00     0.278 C 
ENDBRANCH  10  15
BRANCH  14  17
ATOM     17  C   UNL A   1      34.628  32.889  28.025  1.00  0.00     0.193 C 
ATOM     18  O   UNL A   1      35.797  32.949  27.645  1.00  0.00    -0.289 OA
BRANCH  17  19
ATOM     19  C   UNL A   1      33.775  31.779  27.513  1.00  0.00     0.022 A 
ATOM     20  C   UNL A   1      34.354  30.509  27.417  1.00  0.00     0.012 A 
ATOM     21  C   UNL A   1      32.439  31.942  27.130  1.00  0.00     0.012 A 
ATOM     22  C   UNL A   1      33.580  29.397  27.083  1.00  0.00     0.001 A 
ATOM     23  C   UNL A   1      31.661  30.828  26.804  1.00  0.00     0.001 A 
ATOM     24  C   UNL A   1      32.226  29.554  26.806  1.00  0.00     0.000 A 
ENDBRANCH  17  19
ENDBRANCH  14  17
ENDBRANCH   7   9
ENDBRANCH   5   7
ENDBRANCH   4   5
ENDBRANCH   3   4
ENDBRANCH   2   3
ENDBRANCH   1   2
BRANCH   1  25
ATOM     25  C   UNL A   1      37.605  32.511  32.105  1.00  0.00     0.202 C 
BRANCH  25  26
ATOM     26  C   UNL A   1      36.790  31.365  31.495  1.00  0.00     0.261 C 
BRANCH  26  27
ATOM     27  O   UNL A   1      37.566  30.167  31.346  1.00  0.00    -0.460 OA
BRANCH  27  28
ATOM     28  C   UNL A   1      37.291  29.457  30.227  1.00  0.00     0.338 C 
ATOM     29  O   UNL A   1      36.194  29.311  29.699  1.00  0.00    -0.246 OA
BRANCH  28  30
ATOM     30  C   UNL A   1      38.539  28.991  29.597  1.00  0.00     0.060 A 
ATOM     31  C   UNL A   1      39.494  28.373  30.416  1.00  0.00     0.016 A 
ATOM     32  C   UNL A   1      38.812  29.222  28.249  1.00  0.00     0.016 A 
ATOM     33  C   UNL A   1      40.750  28.043  29.908  1.00  0.00     0.010 A 
ATOM     34  C   UNL A   1      40.076  28.895  27.747  1.00  0.00     0.010 A 
ATOM     35  C   UNL A   1      41.067  28.338  28.576  1.00  0.00    -0.014 A 
BRANCH  35  36
ATOM     36  C   UNL A   1      42.473  28.247  28.101  1.00  0.00     0.031 A 
ATOM     37  C   UNL A   1      43.374  29.445  28.275  1.00  0.00     0.074 A 
ATOM     38  C   UNL A   1      42.958  27.123  27.538  1.00  0.00     0.049 A 
ATOM     39  N   UNL A   1      44.626  29.602  27.925  1.00  0.00    -0.248 NA
ATOM     40  C   UNL A   1      42.777  30.633  28.907  1.00  0.00     0.031 C 
ATOM     41  C   UNL A   1      42.205  25.891  27.303  1.00  0.00     0.029 A 
ATOM     42  N   UNL A   1      44.215  26.839  27.059  1.00  0.00    -0.354 N 
ATOM     43  C   UNL A   1      44.952  30.909  28.274  1.00  0.00     0.074 A 
ATOM     44  C   UNL A   1      43.755  31.518  28.806  1.00  0.00     0.031 C 
ATOM     45  C   UNL A   1      43.016  24.982  26.732  1.00  0.00     0.029 A 
ATOM     46  C   UNL A   1      44.341  25.569  26.547  1.00  0.00     0.049 A 
ATOM     47  H   UNL A   1      44.956  27.487  27.080  1.00  0.00     0.167 HD
ATOM     48  C   UNL A   1      46.147  31.542  28.195  1.00  0.00     0.031 A 
ATOM     49  C   UNL A   1      45.406  24.949  25.998  1.00  0.00     0.031 A 
ATOM     50  C   UNL A   1      47.352  30.934  27.700  1.00  0.00     0.049 A 
ATOM     51  C   UNL A   1      46.729  25.667  25.927  1.00  0.00     0.074 A 
ATOM     52  C   UNL A   1      48.621  31.479  27.619  1.00  0.00     0.029 A 
ATOM     53  N   UNL A   1      47.438  29.640  27.214  1.00  0.00    -0.354 N 
ATOM     54  N   UNL A   1      47.028  26.889  26.302  1.00  0.00    -0.248 NA
ATOM     55  C   UNL A   1      47.867  24.909  25.385  1.00  0.00     0.031 C 
ATOM     56  C   UNL A   1      49.471  30.519  27.056  1.00  0.00     0.029 A 
ATOM     57  C   UNL A   1      48.739  29.365  26.833  1.00  0.00     0.049 A 
ATOM     58  H   UNL A   1      46.685  29.009  27.151  1.00  0.00     0.167 HD
ATOM     59  C   UNL A   1      48.396  27.028  26.084  1.00  0.00     0.074 A 
ATOM     60  C   UNL A   1      48.865  25.767  25.549  1.00  0.00     0.031 C 
ATOM     61  C   UNL A   1      49.195  28.099  26.317  1.00  0.00     0.031 A 
BRANCH  48  62
ATOM     62  C   UNL A   1      46.196  32.973  28.662  1.00  0.00    -0.014 A 
ATOM     63  C   UNL A   1      46.972  33.346  29.776  1.00  0.00     0.010 A 
ATOM     64  C   UNL A   1      45.458  33.958  27.981  1.00  0.00     0.010 A 
ATOM     65  C   UNL A   1      46.962  34.665  30.235  1.00  0.00     0.020 A 
ATOM     66  C   UNL A   1      45.471  35.285  28.420  1.00  0.00     0.020 A 
ATOM     67  C   UNL A   1      46.205  35.625  29.559  1.00  0.00     0.054 A 
BRANCH  67  68
ATOM     68  S   UNL A   1      46.212  37.332  30.173  1.00  0.00     0.124 S 
ATOM     69  O   UNL A   1      47.641  37.632  30.206  1.00  0.00    -0.237 OA
ATOM     70  O   UNL A   1      45.445  38.044  29.155  1.00  0.00    -0.237 OA
ATOM     71  O   UNL A   1      45.566  37.232  31.479  1.00  0.00    -0.744 OA
ENDBRANCH  67  68
ENDBRANCH  48  62
BRANCH  49  72
ATOM     72  C   UNL A   1      45.281  23.551  25.500  1.00  0.00    -0.014 A 
ATOM     73  C   UNL A   1      44.976  23.298  24.150  1.00  0.00     0.010 A 
ATOM     74  C   UNL A   1      45.450  22.465  26.378  1.00  0.00     0.010 A 
ATOM     75  C   UNL A   1      44.817  21.986  23.693  1.00  0.00     0.020 A 
ATOM     76  C   UNL A   1      45.318  21.152  25.918  1.00  0.00     0.020 A 
ATOM     77  C   UNL A   1      44.989  20.921  24.581  1.00  0.00     0.054 A 
BRANCH  77  78
ATOM     78  S   UNL A   1      44.822  19.224  23.956  1.00  0.00     0.124 S 
ATOM     79  O   UNL A   1      46.106  18.637  24.324  1.00  0.00    -0.237 OA
ATOM     80  O   UNL A   1      43.663  18.729  24.694  1.00  0.00    -0.237 OA
ATOM     81  O   UNL A   1      44.605  19.410  22.523  1.00  0.00    -0.744 OA
ENDBRANCH  77  78
ENDBRANCH  49  72
BRANCH  61  82
ATOM     82  C   UNL A   1      50.670  27.936  26.062  1.00  0.00    -0.014 A 
ATOM     83  C   UNL A   1      51.244  28.252  24.819  1.00  0.00     0.010 A 
ATOM     84  C   UNL A   1      51.501  27.489  27.107  1.00  0.00     0.010 A 
ATOM     85  C   UNL A   1      52.616  28.078  24.610  1.00  0.00     0.020 A 
ATOM     86  C   UNL A   1      52.876  27.340  26.912  1.00  0.00     0.020 A 
ATOM     87  C   UNL A   1      53.422  27.616  25.657  1.00  0.00     0.054 A 
BRANCH  87  88
ATOM     88  S   UNL A   1      55.201  27.413  25.371  1.00  0.00     0.124 S 
ATOM     89  O   UNL A   1      55.267  27.337  23.914  1.00  0.00    -0.237 OA
ATOM     90  O   UNL A   1      55.764  28.624  25.962  1.00  0.00    -0.237 OA
ATOM     91  O   UNL A   1      55.526  26.175  26.076  1.00  0.00    -0.744 OA
ENDBRANCH  87  88
ENDBRANCH  61  82
ENDBRANCH  35  36
ENDBRANCH  28  30
ENDBRANCH  27  28
ENDBRANCH  26  27
ENDBRANCH  25  26
ENDBRANCH   1  25
TORSDOF 21
ENDMDL
MODEL 3
REMARK VINA RESULT:      -8.1      9.944     16.304
REMARK SMILES COc1ccc(C(=O)c2ccccc2)cc1[C@@H](C)C(=O)OCCOCCOC(=O)c1ccc(-c2c3nc(c(-c4ccc(S(=O)(=O)[O-])cc4)c4ccc([nH]4)c(-c4ccc(S(=O)(=O)[O-])cc4)c4nc(c(-c5ccc(S(=O)(=O)[O-])cc5)c5ccc2[nH]5)C=C4)C=C3)cc1
REMARK SMILES IDX 24 1 23 2 22 3 21 4 19 5 20 6 17 7 18 8 16 9 3 10 4 11 5 12
REMARK SMILES IDX 15 13 6 14 2 15 1 16 7 17 8 18 9 19 10 20 14 21 11 22 13 23
REMARK SMILES IDX 12 24 25 25 26 26 27 27 28 28 29 29 30 30 31 31 89 32 32 33
REMARK SMILES IDX 88 34 33 35 34 36 35 37 82 38 36 39 87 40 81 41 83 42 37 43
REMARK SMILES IDX 86 44 80 45 79 46 38 48 68 49 49 50 67 51 50 52 53 53 66 54
REMARK SMILES IDX 84 55 51 56 52 57 65 59 85 60 54 61 39 62 40 63 48 64 41 65
REMARK SMILES IDX 47 66 42 67 43 68 44 69 45 70 46 71 69 72 70 73 78 74 71 75
REMARK SMILES IDX 77 76 72 77 73 78 74 79 75 80 76 81 55 82 56 83 64 84 57 85
REMARK SMILES IDX 63 86 58 87 59 88 60 89 61 90 62 91
REMARK H PARENT 83 47 53 58
REMARK Flexibility Score: inf
ROOT
ATOM      1  O   UNL A   1      47.057  22.546  38.938  1.00  0.00    -0.374 OA
ENDROOT
BRANCH   1   2
ATOM      2  C   UNL A   1      46.059  21.793  39.629  1.00  0.00     0.202 C 
BRANCH   2   3
ATOM      3  C   UNL A   1      46.569  20.540  40.346  1.00  0.00     0.261 C 
BRANCH   3   4
ATOM      4  O   UNL A   1      45.672  19.430  40.137  1.00  0.00    -0.463 OA
BRANCH   4   5
ATOM      5  C   UNL A   1      46.025  18.529  39.185  1.00  0.00     0.313 C 
ATOM      6  O   UNL A   1      46.311  18.816  38.027  1.00  0.00    -0.252 OA
BRANCH   5   7
ATOM      7  C   UNL A   1      45.990  17.090  39.680  1.00  0.00     0.130 C 
ATOM      8  C   UNL A   1      44.839  16.336  39.015  1.00  0.00     0.025 C 
BRANCH   7   9
ATOM      9  C   UNL A   1      46.000  16.877  41.192  1.00  0.00     0.009 A 
ATOM     10  C   UNL A   1      47.147  17.124  41.963  1.00  0.00     0.122 A 
ATOM     11  C   UNL A   1      47.194  16.780  43.316  1.00  0.00     0.047 A 
ATOM     12  C   UNL A   1      46.099  16.160  43.920  1.00  0.00     0.016 A 
ATOM     13  C   UNL A   1      44.883  16.311  41.844  1.00  0.00     0.020 A 
ATOM     14  C   UNL A   1      44.941  15.891  43.181  1.00  0.00     0.023 A 
BRANCH  10  15
ATOM     15  O   UNL A   1      48.313  17.575  41.404  1.00  0.00    -0.496 OA
ATOM     16  C   UNL A   1      48.960  18.554  42.217  1.00  0.00     0.278 C 
ENDBRANCH  10  15
BRANCH  14  17
ATOM     17  C   UNL A   1      43.829  15.154  43.862  1.00  0.00     0.193 C 
ATOM     18  O   UNL A   1      43.625  15.376  45.055  1.00  0.00    -0.289 OA
BRANCH  17  19
ATOM     19  C   UNL A   1      42.935  14.190  43.159  1.00  0.00     0.022 A 
ATOM     20  C   UNL A   1      42.571  13.026  43.846  1.00  0.00     0.012 A 
ATOM     21  C   UNL A   1      42.446  14.388  41.864  1.00  0.00     0.012 A 
ATOM     22  C   UNL A   1      41.627  12.149  43.311  1.00  0.00     0.001 A 
ATOM     23  C   UNL A   1      41.494  13.516  41.331  1.00  0.00     0.001 A 
ATOM     24  C   UNL A   1      41.066  12.411  42.065  1.00  0.00     0.000 A 
ENDBRANCH  17  19
ENDBRANCH  14  17
ENDBRANCH   7   9
ENDBRANCH   5   7
ENDBRANCH   4   5
ENDBRANCH   3   4
ENDBRANCH   2   3
ENDBRANCH   1   2
BRANCH   1  25
ATOM     25  C   UNL A   1      47.114  22.375  37.522  1.00  0.00     0.202 C 
BRANCH  25  26
ATOM     26  C   UNL A   1      46.757  23.603  36.677  1.00  0.00     0.261 C 
BRANCH  26  27
ATOM     27  O   UNL A   1      46.363  24.722  37.485  1.00  0.00    -0.460 OA
BRANCH  27  28
ATOM     28  C   UNL A   1      46.996  25.880  37.185  1.00  0.00     0.338 C 
ATOM     29  O   UNL A   1      48.206  26.053  37.086  1.00  0.00    -0.246 OA
BRANCH  28  30
ATOM     30  C   UNL A   1      46.017  26.919  36.819  1.00  0.00     0.060 A 
ATOM     31  C   UNL A   1      44.666  26.671  37.098  1.00  0.00     0.016 A 
ATOM     32  C   UNL A   1      46.395  28.079  36.143  1.00  0.00     0.016 A 
ATOM     33  C   UNL A   1      43.681  27.549  36.645  1.00  0.00     0.010 A 
ATOM     34  C   UNL A   1      45.403  28.951  35.685  1.00  0.00     0.010 A 
ATOM     35  C   UNL A   1      44.039  28.679  35.899  1.00  0.00    -0.014 A 
BRANCH  35  36
ATOM     36  C   UNL A   1      42.999  29.465  35.182  1.00  0.00     0.031 A 
ATOM     37  C   UNL A   1      42.617  29.052  33.782  1.00  0.00     0.074 A 
ATOM     38  C   UNL A   1      42.388  30.519  35.758  1.00  0.00     0.049 A 
ATOM     39  N   UNL A   1      41.752  29.594  32.962  1.00  0.00    -0.248 NA
ATOM     40  C   UNL A   1      43.320  27.884  33.224  1.00  0.00     0.031 C 
ATOM     41  C   UNL A   1      42.657  31.035  37.100  1.00  0.00     0.029 A 
ATOM     42  N   UNL A   1      41.405  31.350  35.274  1.00  0.00    -0.354 N 
ATOM     43  C   UNL A   1      41.828  28.847  31.790  1.00  0.00     0.074 A 
ATOM     44  C   UNL A   1      42.861  27.856  31.983  1.00  0.00     0.031 C 
ATOM     45  C   UNL A   1      41.854  32.088  37.335  1.00  0.00     0.029 A 
ATOM     46  C   UNL A   1      41.024  32.332  36.158  1.00  0.00     0.049 A 
ATOM     47  H   UNL A   1      41.012  31.251  34.378  1.00  0.00     0.167 HD
ATOM     48  C   UNL A   1      41.084  28.948  30.662  1.00  0.00     0.031 A 
ATOM     49  C   UNL A   1      40.105  33.311  36.033  1.00  0.00     0.031 A 
ATOM     50  C   UNL A   1      40.031  29.907  30.473  1.00  0.00     0.049 A 
ATOM     51  C   UNL A   1      39.281  33.402  34.774  1.00  0.00     0.074 A 
ATOM     52  C   UNL A   1      39.192  30.062  29.384  1.00  0.00     0.029 A 
ATOM     53  N   UNL A   1      39.664  30.866  31.403  1.00  0.00    -0.354 N 
ATOM     54  N   UNL A   1      39.338  32.660  33.693  1.00  0.00    -0.248 NA
ATOM     55  C   UNL A   1      38.246  34.446  34.732  1.00  0.00     0.031 C 
ATOM     56  C   UNL A   1      38.333  31.137  29.645  1.00  0.00     0.029 A 
ATOM     57  C   UNL A   1      38.608  31.617  30.915  1.00  0.00     0.049 A 
ATOM     58  H   UNL A   1      40.090  30.995  32.281  1.00  0.00     0.167 HD
ATOM     59  C   UNL A   1      38.318  33.118  32.865  1.00  0.00     0.074 A 
ATOM     60  C   UNL A   1      37.659  34.197  33.570  1.00  0.00     0.031 C 
ATOM     61  C   UNL A   1      37.952  32.678  31.635  1.00  0.00     0.031 A 
BRANCH  48  62
ATOM     62  C   UNL A   1      41.395  27.984  29.548  1.00  0.00    -0.014 A 
ATOM     63  C   UNL A   1      42.412  28.259  28.613  1.00  0.00     0.010 A 
ATOM     64  C   UNL A   1      40.663  26.789  29.430  1.00  0.00     0.010 A 
ATOM     65  C   UNL A   1      42.651  27.386  27.550  1.00  0.00     0.020 A 
ATOM     66  C   UNL A   1      40.922  25.898  28.385  1.00  0.00     0.020 A 
ATOM     67  C   UNL A   1      41.898  26.214  27.438  1.00  0.00     0.054 A 
BRANCH  67  68
ATOM     68  S   UNL A   1      42.230  25.095  26.049  1.00  0.00     0.124 S 
ATOM     69  O   UNL A   1      41.426  23.929  26.406  1.00  0.00    -0.237 OA
ATOM     70  O   UNL A   1      41.753  25.858  24.900  1.00  0.00    -0.237 OA
ATOM     71  O   UNL A   1      43.676  24.895  26.104  1.00  0.00    -0.744 OA
ENDBRANCH  67  68
ENDBRANCH  48  62
BRANCH  49  72
ATOM     72  C   UNL A   1      39.882  34.273  37.149  1.00  0.00    -0.014 A 
ATOM     73  C   UNL A   1      40.539  35.517  37.162  1.00  0.00     0.010 A 
ATOM     74  C   UNL A   1      39.024  33.942  38.213  1.00  0.00     0.010 A 
ATOM     75  C   UNL A   1      40.362  36.401  38.230  1.00  0.00     0.020 A 
ATOM     76  C   UNL A   1      38.825  34.834  39.270  1.00  0.00     0.020 A 
ATOM     77  C   UNL A   1      39.506  36.053  39.279  1.00  0.00     0.054 A 
BRANCH  77  78
ATOM     78  S   UNL A   1      39.256  37.235  40.634  1.00  0.00     0.124 S 
ATOM     79  O   UNL A   1      40.597  37.782  40.811  1.00  0.00    -0.237 OA
ATOM     80  O   UNL A   1      38.265  38.151  40.075  1.00  0.00    -0.237 OA
ATOM     81  O   UNL A   1      38.771  36.398  41.729  1.00  0.00    -0.744 OA
ENDBRANCH  77  78
ENDBRANCH  49  72
BRANCH  61  82
ATOM     82  C   UNL A   1      36.743  33.312  31.000  1.00  0.00    -0.014 A 
ATOM     83  C   UNL A   1      35.517  33.410  31.680  1.00  0.00     0.010 A 
ATOM     84  C   UNL A   1      36.853  33.854  29.705  1.00  0.00     0.010 A 
ATOM     85  C   UNL A   1      34.409  33.994  31.058  1.00  0.00     0.020 A 
ATOM     86  C   UNL A   1      35.756  34.463  29.090  1.00  0.00     0.020 A 
ATOM     87  C   UNL A   1      34.534  34.511  29.764  1.00  0.00     0.054 A 
BRANCH  87  88
ATOM     88  S   UNL A   1      33.090  35.279  28.981  1.00  0.00     0.124 S 
ATOM     89  O   UNL A   1      33.664  36.500  28.422  1.00  0.00    -0.237 OA
ATOM     90  O   UNL A   1      32.679  34.274  28.004  1.00  0.00    -0.237 OA
ATOM     91  O   UNL A   1      32.160  35.477  30.090  1.00  0.00    -0.744 OA
ENDBRANCH  87  88
ENDBRANCH  61  82
ENDBRANCH  35  36
ENDBRANCH  28  30
ENDBRANCH  27  28
ENDBRANCH  26  27
ENDBRANCH  25  26
ENDBRANCH   1  25
TORSDOF 21
ENDMDL
