MODEL 1
REMARK VINA RESULT:      -8.9      0.000      0.000
REMARK SMILES Cc1cccc([C@@H](CCC[C@@H]2CCCO2)C(=O)OCCOCCOC(=O)c2ccc(-c3c4nc(c(-c5ccc(S(=O)(=O)[O-])cc5)c5ccc([nH]5)c(-c5ccc(S(=O)(=O)[O-])cc5)c5nc(c(-c6ccc(S(=O)(=O)[O-])cc6)c6ccc3[nH]6)C=C5)C=C4)cc2)c1
REMARK SMILES IDX 20 1 19 2 18 3 16 4 17 5 7 6 6 7 1 8 2 9 3 10 87 11 4 12
REMARK SMILES IDX 5 13 8 14 9 15 10 16 11 17 12 18 15 19 13 20 14 21 21 22
REMARK SMILES IDX 22 23 23 24 24 25 25 26 26 27 27 28 28 29 86 30 29 31 85 32
REMARK SMILES IDX 30 33 31 34 32 35 79 36 33 37 84 38 78 39 80 40 34 41 83 42
REMARK SMILES IDX 77 43 76 44 35 46 65 47 46 48 64 49 47 50 50 51 63 52 81 53
REMARK SMILES IDX 48 54 49 55 62 57 82 58 51 59 36 60 37 61 45 62 38 63 44 64
REMARK SMILES IDX 39 65 40 66 41 67 42 68 43 69 66 70 67 71 75 72 68 73 74 74
REMARK SMILES IDX 69 75 70 76 71 77 72 78 73 79 52 80 53 81 61 82 54 83 60 84
REMARK SMILES IDX 55 85 56 86 57 87 58 88 59 89
REMARK H PARENT 80 45 50 56
REMARK Flexibility Score: inf
ROOT
ATOM      1  C   UNL A   1      33.128  35.699  29.405  1.00  0.00     0.202 C 
ENDROOT
BRANCH   1   2
ATOM      2  C   UNL A   1      33.075  35.430  30.888  1.00  0.00     0.261 C 
BRANCH   2   3
ATOM      3  O   UNL A   1      34.399  35.156  31.325  1.00  0.00    -0.463 OA
BRANCH   3   4
ATOM      4  C   UNL A   1      34.815  33.962  31.797  1.00  0.00     0.313 C 
ATOM      5  O   UNL A   1      34.154  32.927  31.902  1.00  0.00    -0.252 OA
BRANCH   4   6
ATOM      6  C   UNL A   1      36.294  34.109  32.142  1.00  0.00     0.129 C 
BRANCH   6   7
ATOM      7  C   UNL A   1      36.654  33.291  33.394  1.00  0.00    -0.034 A 
ATOM      8  C   UNL A   1      38.341  29.981  34.123  1.00  0.00     0.044 C 
ATOM      9  C   UNL A   1      37.770  31.348  34.316  1.00  0.00    -0.051 A 
ATOM     10  C   UNL A   1      37.755  31.932  35.589  1.00  0.00     0.003 A 
ATOM     11  C   UNL A   1      37.241  32.039  33.222  1.00  0.00     0.008 A 
ATOM     12  C   UNL A   1      37.135  33.156  35.785  1.00  0.00     0.001 A 
ATOM     13  C   UNL A   1      36.531  33.790  34.707  1.00  0.00     0.004 A 
ENDBRANCH   6   7
BRANCH   6  14
ATOM     14  C   UNL A   1      37.278  33.880  30.989  1.00  0.00     0.020 C 
BRANCH  14  15
ATOM     15  C   UNL A   1      38.576  34.674  30.993  1.00  0.00     0.004 C 
BRANCH  15  16
ATOM     16  C   UNL A   1      39.506  34.472  29.822  1.00  0.00     0.032 C 
BRANCH  16  17
ATOM     17  C   UNL A   1      41.002  34.379  30.057  1.00  0.00     0.118 C 
ATOM     18  C   UNL A   1      41.780  35.307  29.161  1.00  0.00     0.034 C 
ATOM     19  O   UNL A   1      41.738  33.163  29.919  1.00  0.00    -0.378 OA
ATOM     20  C   UNL A   1      43.151  35.048  29.713  1.00  0.00     0.031 C 
ATOM     21  C   UNL A   1      43.114  33.584  30.122  1.00  0.00     0.160 C 
ENDBRANCH  16  17
ENDBRANCH  15  16
ENDBRANCH  14  15
ENDBRANCH   6  14
ENDBRANCH   4   6
ENDBRANCH   3   4
ENDBRANCH   2   3
ENDBRANCH   1   2
BRANCH   1  22
ATOM     22  O   UNL A   1      32.808  34.446  28.810  1.00  0.00    -0.374 OA
BRANCH  22  23
ATOM     23  C   UNL A   1      33.761  33.880  27.946  1.00  0.00     0.202 C 
BRANCH  23  24
ATOM     24  C   UNL A   1      33.630  32.361  27.900  1.00  0.00     0.261 C 
BRANCH  24  25
ATOM     25  O   UNL A   1      34.436  31.774  28.951  1.00  0.00    -0.460 OA
BRANCH  25  26
ATOM     26  C   UNL A   1      35.175  30.684  28.579  1.00  0.00     0.338 C 
ATOM     27  O   UNL A   1      34.755  29.802  27.854  1.00  0.00    -0.246 OA
BRANCH  26  28
ATOM     28  C   UNL A   1      36.524  30.697  29.240  1.00  0.00     0.060 A 
ATOM     29  C   UNL A   1      37.636  31.291  28.608  1.00  0.00     0.016 A 
ATOM     30  C   UNL A   1      36.735  29.867  30.331  1.00  0.00     0.016 A 
ATOM     31  C   UNL A   1      38.956  30.944  28.981  1.00  0.00     0.010 A 
ATOM     32  C   UNL A   1      38.022  29.436  30.600  1.00  0.00     0.010 A 
ATOM     33  C   UNL A   1      39.157  29.966  29.952  1.00  0.00    -0.014 A 
BRANCH  33  34
ATOM     34  C   UNL A   1      40.434  29.365  30.414  1.00  0.00     0.031 A 
ATOM     35  C   UNL A   1      40.838  28.098  29.690  1.00  0.00     0.074 A 
ATOM     36  C   UNL A   1      41.346  29.995  31.206  1.00  0.00     0.049 A 
ATOM     37  N   UNL A   1      42.023  27.597  29.640  1.00  0.00    -0.248 NA
ATOM     38  C   UNL A   1      39.907  27.326  28.861  1.00  0.00     0.031 C 
ATOM     39  C   UNL A   1      42.739  29.573  31.358  1.00  0.00     0.029 A 
ATOM     40  N   UNL A   1      41.309  31.130  32.015  1.00  0.00    -0.354 N 
ATOM     41  C   UNL A   1      42.046  26.524  28.784  1.00  0.00     0.074 A 
ATOM     42  C   UNL A   1      40.724  26.482  28.220  1.00  0.00     0.031 C 
ATOM     43  C   UNL A   1      43.401  30.366  32.202  1.00  0.00     0.029 A 
ATOM     44  C   UNL A   1      42.398  31.110  32.896  1.00  0.00     0.049 A 
ATOM     45  H   UNL A   1      40.624  31.837  31.973  1.00  0.00     0.167 HD
ATOM     46  C   UNL A   1      43.187  25.783  28.679  1.00  0.00     0.031 A 
ATOM     47  C   UNL A   1      42.352  31.069  34.257  1.00  0.00     0.031 A 
ATOM     48  C   UNL A   1      44.121  26.080  29.795  1.00  0.00     0.049 A 
ATOM     49  C   UNL A   1      42.980  29.719  34.663  1.00  0.00     0.074 A 
ATOM     50  C   UNL A   1      45.466  26.376  29.920  1.00  0.00     0.029 A 
ATOM     51  N   UNL A   1      43.603  26.194  31.101  1.00  0.00    -0.354 N 
ATOM     52  N   UNL A   1      42.775  28.585  34.008  1.00  0.00    -0.248 NA
ATOM     53  C   UNL A   1      44.181  29.667  35.507  1.00  0.00     0.031 C 
ATOM     54  C   UNL A   1      45.703  26.828  31.256  1.00  0.00     0.029 A 
ATOM     55  C   UNL A   1      44.521  26.733  31.986  1.00  0.00     0.049 A 
ATOM     56  H   UNL A   1      42.692  25.920  31.355  1.00  0.00     0.167 HD
ATOM     57  C   UNL A   1      43.881  27.771  34.181  1.00  0.00     0.074 A 
ATOM     58  C   UNL A   1      44.709  28.482  35.155  1.00  0.00     0.031 C 
ATOM     59  C   UNL A   1      44.297  26.698  33.431  1.00  0.00     0.031 A 
BRANCH  46  60
ATOM     60  C   UNL A   1      43.501  24.809  27.537  1.00  0.00    -0.014 A 
ATOM     61  C   UNL A   1      43.961  23.511  27.849  1.00  0.00     0.010 A 
ATOM     62  C   UNL A   1      43.422  25.087  26.155  1.00  0.00     0.010 A 
ATOM     63  C   UNL A   1      44.342  22.572  26.876  1.00  0.00     0.020 A 
ATOM     64  C   UNL A   1      43.787  24.149  25.159  1.00  0.00     0.020 A 
ATOM     65  C   UNL A   1      44.253  22.894  25.530  1.00  0.00     0.054 A 
BRANCH  65  66
ATOM     66  S   UNL A   1      44.725  21.641  24.306  1.00  0.00     0.124 S 
ATOM     67  O   UNL A   1      46.156  21.487  24.553  1.00  0.00    -0.237 OA
ATOM     68  O   UNL A   1      43.898  20.499  24.688  1.00  0.00    -0.237 OA
ATOM     69  O   UNL A   1      44.379  22.254  23.026  1.00  0.00    -0.744 OA
ENDBRANCH  65  66
ENDBRANCH  46  60
BRANCH  47  70
ATOM     70  C   UNL A   1      41.250  31.914  34.802  1.00  0.00    -0.014 A 
ATOM     71  C   UNL A   1      41.224  31.981  36.223  1.00  0.00     0.010 A 
ATOM     72  C   UNL A   1      40.839  33.046  34.079  1.00  0.00     0.010 A 
ATOM     73  C   UNL A   1      41.107  33.213  36.879  1.00  0.00     0.020 A 
ATOM     74  C   UNL A   1      40.720  34.284  34.738  1.00  0.00     0.020 A 
ATOM     75  C   UNL A   1      40.931  34.369  36.122  1.00  0.00     0.054 A 
BRANCH  75  76
ATOM     76  S   UNL A   1      41.301  35.984  36.896  1.00  0.00     0.124 S 
ATOM     77  O   UNL A   1      42.483  36.418  36.162  1.00  0.00    -0.237 OA
ATOM     78  O   UNL A   1      40.084  36.755  36.646  1.00  0.00    -0.237 OA
ATOM     79  O   UNL A   1      41.509  35.629  38.297  1.00  0.00    -0.744 OA
ENDBRANCH  75  76
ENDBRANCH  47  70
BRANCH  59  80
ATOM     80  C   UNL A   1      44.753  25.436  34.120  1.00  0.00    -0.014 A 
ATOM     81  C   UNL A   1      43.888  24.611  34.845  1.00  0.00     0.010 A 
ATOM     82  C   UNL A   1      46.083  24.981  33.922  1.00  0.00     0.010 A 
ATOM     83  C   UNL A   1      44.340  23.413  35.391  1.00  0.00     0.020 A 
ATOM     84  C   UNL A   1      46.537  23.774  34.440  1.00  0.00     0.020 A 
ATOM     85  C   UNL A   1      45.660  23.005  35.187  1.00  0.00     0.054 A 
BRANCH  85  86
ATOM     86  S   UNL A   1      46.185  21.426  35.873  1.00  0.00     0.124 S 
ATOM     87  O   UNL A   1      47.629  21.479  35.666  1.00  0.00    -0.237 OA
ATOM     88  O   UNL A   1      45.745  21.529  37.263  1.00  0.00    -0.237 OA
ATOM     89  O   UNL A   1      45.470  20.439  35.069  1.00  0.00    -0.744 OA
ENDBRANCH  85  86
ENDBRANCH  59  80
ENDBRANCH  33  34
ENDBRANCH  26  28
ENDBRANCH  25  26
ENDBRANCH  24  25
ENDBRANCH  23  24
ENDBRANCH  22  23
ENDBRANCH   1  22
TORSDOF 22
ENDMDL
MODEL 2
REMARK VINA RESULT:      -8.8      3.671      6.636
REMARK SMILES Cc1cccc([C@@H](CCC[C@@H]2CCCO2)C(=O)OCCOCCOC(=O)c2ccc(-c3c4nc(c(-c5ccc(S(=O)(=O)[O-])cc5)c5ccc([nH]5)c(-c5ccc(S(=O)(=O)[O-])cc5)c5nc(c(-c6ccc(S(=O)(=O)[O-])cc6)c6ccc3[nH]6)C=C5)C=C4)cc2)c1
REMARK SMILES IDX 20 1 19 2 18 3 16 4 17 5 7 6 6 7 1 8 2 9 3 10 87 11 4 12
REMARK SMILES IDX 5 13 8 14 9 15 10 16 11 17 12 18 15 19 13 20 14 21 21 22
REMARK SMILES IDX 22 23 23 24 24 25 25 26 26 27 27 28 28 29 86 30 29 31 85 32
REMARK SMILES IDX 30 33 31 34 32 35 79 36 33 37 84 38 78 39 80 40 34 41 83 42
REMARK SMILES IDX 77 43 76 44 35 46 65 47 46 48 64 49 47 50 50 51 63 52 81 53
REMARK SMILES IDX 48 54 49 55 62 57 82 58 51 59 36 60 37 61 45 62 38 63 44 64
REMARK SMILES IDX 39 65 40 66 41 67 42 68 43 69 66 70 67 71 75 72 68 73 74 74
REMARK SMILES IDX 69 75 70 76 71 77 72 78 73 79 52 80 53 81 61 82 54 83 60 84
REMARK SMILES IDX 55 85 56 86 57 87 58 88 59 89
REMARK H PARENT 80 45 50 56
REMARK Flexibility Score: inf
ROOT
ATOM      1  C   UNL A   1      34.308  28.315  26.564  1.00  0.00     0.202 C 
ENDROOT
BRANCH   1   2
ATOM      2  C   UNL A   1      33.395  28.332  25.365  1.00  0.00     0.261 C 
BRANCH   2   3
ATOM      3  O   UNL A   1      32.057  28.381  25.841  1.00  0.00    -0.463 OA
BRANCH   3   4
ATOM      4  C   UNL A   1      31.446  27.375  26.501  1.00  0.00     0.313 C 
ATOM      5  O   UNL A   1      31.084  27.363  27.679  1.00  0.00    -0.252 OA
BRANCH   4   6
ATOM      6  C   UNL A   1      31.237  26.245  25.496  1.00  0.00     0.129 C 
BRANCH   6   7
ATOM      7  C   UNL A   1      31.979  24.971  25.934  1.00  0.00    -0.034 A 
ATOM      8  C   UNL A   1      35.544  23.699  25.849  1.00  0.00     0.044 C 
ATOM      9  C   UNL A   1      34.100  23.831  26.207  1.00  0.00    -0.051 A 
ATOM     10  C   UNL A   1      33.505  22.914  27.083  1.00  0.00     0.003 A 
ATOM     11  C   UNL A   1      33.340  24.866  25.655  1.00  0.00     0.008 A 
ATOM     12  C   UNL A   1      32.144  22.977  27.336  1.00  0.00     0.001 A 
ATOM     13  C   UNL A   1      31.382  23.955  26.709  1.00  0.00     0.004 A 
ENDBRANCH   6   7
BRANCH   6  14
ATOM     14  C   UNL A   1      29.784  25.967  25.092  1.00  0.00     0.020 C 
BRANCH  14  15
ATOM     15  C   UNL A   1      29.387  26.222  23.646  1.00  0.00     0.004 C 
BRANCH  15  16
ATOM     16  C   UNL A   1      30.088  27.351  22.931  1.00  0.00     0.032 C 
BRANCH  16  17
ATOM     17  C   UNL A   1      29.418  28.707  22.828  1.00  0.00     0.118 C 
ATOM     18  C   UNL A   1      27.934  28.633  23.071  1.00  0.00     0.034 C 
ATOM     19  O   UNL A   1      29.476  29.518  21.653  1.00  0.00    -0.378 OA
ATOM     20  C   UNL A   1      27.625  30.100  23.004  1.00  0.00     0.031 C 
ATOM     21  C   UNL A   1      28.611  30.639  21.980  1.00  0.00     0.160 C 
ENDBRANCH  16  17
ENDBRANCH  15  16
ENDBRANCH  14  15
ENDBRANCH   6  14
ENDBRANCH   4   6
ENDBRANCH   3   4
ENDBRANCH   2   3
ENDBRANCH   1   2
BRANCH   1  22
ATOM     22  O   UNL A   1      33.803  29.347  27.405  1.00  0.00    -0.374 OA
BRANCH  22  23
ATOM     23  C   UNL A   1      33.565  30.601  26.815  1.00  0.00     0.202 C 
BRANCH  23  24
ATOM     24  C   UNL A   1      33.662  31.721  27.846  1.00  0.00     0.261 C 
BRANCH  24  25
ATOM     25  O   UNL A   1      35.047  32.119  27.999  1.00  0.00    -0.460 OA
BRANCH  25  26
ATOM     26  C   UNL A   1      35.536  32.043  29.275  1.00  0.00     0.338 C 
ATOM     27  O   UNL A   1      35.147  32.747  30.187  1.00  0.00    -0.246 OA
BRANCH  26  28
ATOM     28  C   UNL A   1      36.650  31.040  29.366  1.00  0.00     0.060 A 
ATOM     29  C   UNL A   1      36.462  29.805  30.020  1.00  0.00     0.016 A 
ATOM     30  C   UNL A   1      37.940  31.452  29.067  1.00  0.00     0.016 A 
ATOM     31  C   UNL A   1      37.566  29.057  30.495  1.00  0.00     0.010 A 
ATOM     32  C   UNL A   1      39.003  30.784  29.647  1.00  0.00     0.010 A 
ATOM     33  C   UNL A   1      38.851  29.575  30.357  1.00  0.00    -0.014 A 
BRANCH  33  34
ATOM     34  C   UNL A   1      40.132  29.030  30.875  1.00  0.00     0.031 A 
ATOM     35  C   UNL A   1      40.724  27.907  30.049  1.00  0.00     0.074 A 
ATOM     36  C   UNL A   1      40.900  29.627  31.828  1.00  0.00     0.049 A 
ATOM     37  N   UNL A   1      41.952  27.520  30.064  1.00  0.00    -0.248 NA
ATOM     38  C   UNL A   1      39.954  27.173  29.041  1.00  0.00     0.031 C 
ATOM     39  C   UNL A   1      42.308  29.310  32.073  1.00  0.00     0.029 A 
ATOM     40  N   UNL A   1      40.677  30.641  32.759  1.00  0.00    -0.354 N 
ATOM     41  C   UNL A   1      42.160  26.572  29.092  1.00  0.00     0.074 A 
ATOM     42  C   UNL A   1      40.907  26.491  28.391  1.00  0.00     0.031 C 
ATOM     43  C   UNL A   1      42.808  30.040  33.071  1.00  0.00     0.029 A 
ATOM     44  C   UNL A   1      41.676  30.600  33.741  1.00  0.00     0.049 A 
ATOM     45  H   UNL A   1      39.933  31.286  32.732  1.00  0.00     0.167 HD
ATOM     46  C   UNL A   1      43.373  25.952  29.019  1.00  0.00     0.031 A 
ATOM     47  C   UNL A   1      41.507  30.379  35.075  1.00  0.00     0.031 A 
ATOM     48  C   UNL A   1      44.164  26.180  30.254  1.00  0.00     0.049 A 
ATOM     49  C   UNL A   1      42.224  29.046  35.379  1.00  0.00     0.074 A 
ATOM     50  C   UNL A   1      45.457  26.571  30.554  1.00  0.00     0.029 A 
ATOM     51  N   UNL A   1      43.519  26.078  31.503  1.00  0.00    -0.354 N 
ATOM     52  N   UNL A   1      42.192  27.993  34.574  1.00  0.00    -0.248 NA
ATOM     53  C   UNL A   1      43.340  28.988  36.332  1.00  0.00     0.031 C 
ATOM     54  C   UNL A   1      45.522  26.864  31.952  1.00  0.00     0.029 A 
ATOM     55  C   UNL A   1      44.292  26.575  32.538  1.00  0.00     0.049 A 
ATOM     56  H   UNL A   1      42.619  25.698  31.625  1.00  0.00     0.167 HD
ATOM     57  C   UNL A   1      43.352  27.261  34.763  1.00  0.00     0.074 A 
ATOM     58  C   UNL A   1      44.011  27.908  35.897  1.00  0.00     0.031 C 
ATOM     59  C   UNL A   1      43.939  26.334  33.936  1.00  0.00     0.031 A 
BRANCH  46  60
ATOM     60  C   UNL A   1      43.885  25.164  27.807  1.00  0.00    -0.014 A 
ATOM     61  C   UNL A   1      44.571  23.948  28.018  1.00  0.00     0.010 A 
ATOM     62  C   UNL A   1      43.786  25.554  26.453  1.00  0.00     0.010 A 
ATOM     63  C   UNL A   1      45.139  23.191  26.981  1.00  0.00     0.020 A 
ATOM     64  C   UNL A   1      44.339  24.797  25.392  1.00  0.00     0.020 A 
ATOM     65  C   UNL A   1      45.021  23.618  25.666  1.00  0.00     0.054 A 
BRANCH  65  66
ATOM     66  S   UNL A   1      45.743  22.594  24.354  1.00  0.00     0.124 S 
ATOM     67  O   UNL A   1      44.577  22.259  23.541  1.00  0.00    -0.237 OA
ATOM     68  O   UNL A   1      46.699  23.507  23.732  1.00  0.00    -0.237 OA
ATOM     69  O   UNL A   1      46.340  21.472  25.075  1.00  0.00    -0.744 OA
ENDBRANCH  65  66
ENDBRANCH  46  60
BRANCH  47  70
ATOM     70  C   UNL A   1      40.282  31.048  35.599  1.00  0.00    -0.014 A 
ATOM     71  C   UNL A   1      40.351  32.469  35.588  1.00  0.00     0.010 A 
ATOM     72  C   UNL A   1      39.032  30.445  35.381  1.00  0.00     0.010 A 
ATOM     73  C   UNL A   1      39.298  33.233  35.066  1.00  0.00     0.020 A 
ATOM     74  C   UNL A   1      37.974  31.212  34.858  1.00  0.00     0.020 A 
ATOM     75  C   UNL A   1      38.143  32.587  34.633  1.00  0.00     0.054 A 
BRANCH  75  76
ATOM     76  S   UNL A   1      37.019  33.476  33.497  1.00  0.00     0.124 S 
ATOM     77  O   UNL A   1      37.659  33.274  32.204  1.00  0.00    -0.237 OA
ATOM     78  O   UNL A   1      35.745  32.783  33.686  1.00  0.00    -0.237 OA
ATOM     79  O   UNL A   1      37.045  34.838  34.022  1.00  0.00    -0.744 OA
ENDBRANCH  75  76
ENDBRANCH  47  70
BRANCH  59  80
ATOM     80  C   UNL A   1      44.450  25.037  34.513  1.00  0.00    -0.014 A 
ATOM     81  C   UNL A   1      45.365  24.217  33.846  1.00  0.00     0.010 A 
ATOM     82  C   UNL A   1      44.104  24.687  35.844  1.00  0.00     0.010 A 
ATOM     83  C   UNL A   1      45.871  23.073  34.458  1.00  0.00     0.020 A 
ATOM     84  C   UNL A   1      44.624  23.563  36.474  1.00  0.00     0.020 A 
ATOM     85  C   UNL A   1      45.495  22.754  35.763  1.00  0.00     0.054 A 
BRANCH  85  86
ATOM     86  S   UNL A   1      46.213  21.290  36.528  1.00  0.00     0.124 S 
ATOM     87  O   UNL A   1      47.634  21.478  36.251  1.00  0.00    -0.237 OA
ATOM     88  O   UNL A   1      45.819  21.445  37.927  1.00  0.00    -0.237 OA
ATOM     89  O   UNL A   1      45.577  20.180  35.825  1.00  0.00    -0.744 OA
ENDBRANCH  85  86
ENDBRANCH  59  80
ENDBRANCH  33  34
ENDBRANCH  26  28
ENDBRANCH  25  26
ENDBRANCH  24  25
ENDBRANCH  23  24
ENDBRANCH  22  23
ENDBRANCH   1  22
TORSDOF 22
ENDMDL
MODEL 3
REMARK VINA RESULT:      -8.8      3.891      6.661
REMARK SMILES Cc1cccc([C@@H](CCC[C@@H]2CCCO2)C(=O)OCCOCCOC(=O)c2ccc(-c3c4nc(c(-c5ccc(S(=O)(=O)[O-])cc5)c5ccc([nH]5)c(-c5ccc(S(=O)(=O)[O-])cc5)c5nc(c(-c6ccc(S(=O)(=O)[O-])cc6)c6ccc3[nH]6)C=C5)C=C4)cc2)c1
REMARK SMILES IDX 20 1 19 2 18 3 16 4 17 5 7 6 6 7 1 8 2 9 3 10 87 11 4 12
REMARK SMILES IDX 5 13 8 14 9 15 10 16 11 17 12 18 15 19 13 20 14 21 21 22
REMARK SMILES IDX 22 23 23 24 24 25 25 26 26 27 27 28 28 29 86 30 29 31 85 32
REMARK SMILES IDX 30 33 31 34 32 35 79 36 33 37 84 38 78 39 80 40 34 41 83 42
REMARK SMILES IDX 77 43 76 44 35 46 65 47 46 48 64 49 47 50 50 51 63 52 81 53
REMARK SMILES IDX 48 54 49 55 62 57 82 58 51 59 36 60 37 61 45 62 38 63 44 64
REMARK SMILES IDX 39 65 40 66 41 67 42 68 43 69 66 70 67 71 75 72 68 73 74 74
REMARK SMILES IDX 69 75 70 76 71 77 72 78 73 79 52 80 53 81 61 82 54 83 60 84
REMARK SMILES IDX 55 85 56 86 57 87 58 88 59 89
REMARK H PARENT 80 45 50 56
REMARK Flexibility Score: inf
ROOT
ATOM      1  C   UNL A   1      31.360  27.740  27.148  1.00  0.00     0.202 C 
ENDROOT
BRANCH   1   2
ATOM      2  C   UNL A   1      31.496  26.526  26.264  1.00  0.00     0.261 C 
BRANCH   2   3
ATOM      3  O   UNL A   1      31.545  25.382  27.107  1.00  0.00    -0.463 OA
BRANCH   3   4
ATOM      4  C   UNL A   1      31.515  24.108  26.663  1.00  0.00     0.313 C 
ATOM      5  O   UNL A   1      30.994  23.135  27.212  1.00  0.00    -0.252 OA
BRANCH   4   6
ATOM      6  C   UNL A   1      32.218  24.090  25.309  1.00  0.00     0.129 C 
BRANCH   6   7
ATOM      7  C   UNL A   1      33.633  23.499  25.428  1.00  0.00    -0.034 A 
ATOM      8  C   UNL A   1      35.262  20.129  24.858  1.00  0.00     0.044 C 
ATOM      9  C   UNL A   1      35.093  21.598  25.069  1.00  0.00    -0.051 A 
ATOM     10  C   UNL A   1      36.216  22.429  25.172  1.00  0.00     0.003 A 
ATOM     11  C   UNL A   1      33.809  22.140  25.174  1.00  0.00     0.008 A 
ATOM     12  C   UNL A   1      36.061  23.774  25.467  1.00  0.00     0.001 A 
ATOM     13  C   UNL A   1      34.783  24.283  25.662  1.00  0.00     0.004 A 
ENDBRANCH   6   7
BRANCH   6  14
ATOM     14  C   UNL A   1      31.424  23.480  24.148  1.00  0.00     0.020 C 
BRANCH  14  15
ATOM     15  C   UNL A   1      31.102  24.372  22.959  1.00  0.00     0.004 C 
BRANCH  15  16
ATOM     16  C   UNL A   1      32.262  25.060  22.285  1.00  0.00     0.032 C 
BRANCH  16  17
ATOM     17  C   UNL A   1      32.418  26.564  22.404  1.00  0.00     0.118 C 
ATOM     18  C   UNL A   1      33.569  26.951  23.295  1.00  0.00     0.034 C 
ATOM     19  O   UNL A   1      31.381  27.419  22.887  1.00  0.00    -0.378 OA
ATOM     20  C   UNL A   1      33.503  28.438  23.107  1.00  0.00     0.031 C 
ATOM     21  C   UNL A   1      32.020  28.724  22.931  1.00  0.00     0.160 C 
ENDBRANCH  16  17
ENDBRANCH  15  16
ENDBRANCH  14  15
ENDBRANCH   6  14
ENDBRANCH   4   6
ENDBRANCH   3   4
ENDBRANCH   2   3
ENDBRANCH   1   2
BRANCH   1  22
ATOM     22  O   UNL A   1      32.406  28.606  26.718  1.00  0.00    -0.374 OA
BRANCH  22  23
ATOM     23  C   UNL A   1      32.082  29.959  26.518  1.00  0.00     0.202 C 
BRANCH  23  24
ATOM     24  C   UNL A   1      33.037  30.872  27.281  1.00  0.00     0.261 C 
BRANCH  24  25
ATOM     25  O   UNL A   1      34.401  30.570  26.900  1.00  0.00    -0.460 OA
BRANCH  25  26
ATOM     26  C   UNL A   1      35.365  31.198  27.642  1.00  0.00     0.338 C 
ATOM     27  O   UNL A   1      35.419  32.403  27.793  1.00  0.00    -0.246 OA
BRANCH  26  28
ATOM     28  C   UNL A   1      36.367  30.211  28.170  1.00  0.00     0.060 A 
ATOM     29  C   UNL A   1      36.211  29.629  29.444  1.00  0.00     0.016 A 
ATOM     30  C   UNL A   1      37.591  30.100  27.526  1.00  0.00     0.016 A 
ATOM     31  C   UNL A   1      37.314  29.064  30.127  1.00  0.00     0.010 A 
ATOM     32  C   UNL A   1      38.686  29.666  28.251  1.00  0.00     0.010 A 
ATOM     33  C   UNL A   1      38.580  29.129  29.551  1.00  0.00    -0.014 A 
BRANCH  33  34
ATOM     34  C   UNL A   1      39.884  28.714  30.125  1.00  0.00     0.031 A 
ATOM     35  C   UNL A   1      40.492  27.478  29.494  1.00  0.00     0.074 A 
ATOM     36  C   UNL A   1      40.653  29.486  30.942  1.00  0.00     0.049 A 
ATOM     37  N   UNL A   1      41.729  27.129  29.547  1.00  0.00    -0.248 NA
ATOM     38  C   UNL A   1      39.723  26.562  28.646  1.00  0.00     0.031 C 
ATOM     39  C   UNL A   1      42.073  29.250  31.207  1.00  0.00     0.029 A 
ATOM     40  N   UNL A   1      40.420  30.640  31.689  1.00  0.00    -0.354 N 
ATOM     41  C   UNL A   1      41.945  26.032  28.750  1.00  0.00     0.074 A 
ATOM     42  C   UNL A   1      40.682  25.801  28.103  1.00  0.00     0.031 C 
ATOM     43  C   UNL A   1      42.572  30.154  32.051  1.00  0.00     0.029 A 
ATOM     44  C   UNL A   1      41.437  30.795  32.640  1.00  0.00     0.049 A 
ATOM     45  H   UNL A   1      39.658  31.253  31.567  1.00  0.00     0.167 HD
ATOM     46  C   UNL A   1      43.173  25.437  28.757  1.00  0.00     0.031 A 
ATOM     47  C   UNL A   1      41.300  30.805  33.995  1.00  0.00     0.031 A 
ATOM     48  C   UNL A   1      43.981  25.896  29.916  1.00  0.00     0.049 A 
ATOM     49  C   UNL A   1      42.059  29.562  34.509  1.00  0.00     0.074 A 
ATOM     50  C   UNL A   1      45.267  26.364  30.113  1.00  0.00     0.029 A 
ATOM     51  N   UNL A   1      43.362  25.998  31.178  1.00  0.00    -0.354 N 
ATOM     52  N   UNL A   1      42.041  28.385  33.900  1.00  0.00    -0.248 NA
ATOM     53  C   UNL A   1      43.193  29.698  35.432  1.00  0.00     0.031 C 
ATOM     54  C   UNL A   1      45.351  26.897  31.438  1.00  0.00     0.029 A 
ATOM     55  C   UNL A   1      44.140  26.685  32.092  1.00  0.00     0.049 A 
ATOM     56  H   UNL A   1      42.475  25.623  31.385  1.00  0.00     0.167 HD
ATOM     57  C   UNL A   1      43.223  27.725  34.186  1.00  0.00     0.074 A 
ATOM     58  C   UNL A   1      43.886  28.575  35.175  1.00  0.00     0.031 C 
ATOM     59  C   UNL A   1      43.820  26.682  33.520  1.00  0.00     0.031 A 
BRANCH  46  60
ATOM     60  C   UNL A   1      43.684  24.463  27.689  1.00  0.00    -0.014 A 
ATOM     61  C   UNL A   1      42.968  24.333  26.479  1.00  0.00     0.010 A 
ATOM     62  C   UNL A   1      44.808  23.614  27.801  1.00  0.00     0.010 A 
ATOM     63  C   UNL A   1      43.314  23.418  25.471  1.00  0.00     0.020 A 
ATOM     64  C   UNL A   1      45.181  22.696  26.790  1.00  0.00     0.020 A 
ATOM     65  C   UNL A   1      44.423  22.599  25.629  1.00  0.00     0.054 A 
BRANCH  65  66
ATOM     66  S   UNL A   1      44.853  21.454  24.290  1.00  0.00     0.124 S 
ATOM     67  O   UNL A   1      46.293  21.291  24.467  1.00  0.00    -0.237 OA
ATOM     68  O   UNL A   1      44.046  20.279  24.609  1.00  0.00    -0.237 OA
ATOM     69  O   UNL A   1      44.453  22.167  23.079  1.00  0.00    -0.744 OA
ENDBRANCH  65  66
ENDBRANCH  46  60
BRANCH  47  70
ATOM     70  C   UNL A   1      40.066  31.526  34.424  1.00  0.00    -0.014 A 
ATOM     71  C   UNL A   1      39.131  30.707  35.115  1.00  0.00     0.010 A 
ATOM     72  C   UNL A   1      40.163  32.878  34.795  1.00  0.00     0.010 A 
ATOM     73  C   UNL A   1      38.561  31.133  36.321  1.00  0.00     0.020 A 
ATOM     74  C   UNL A   1      39.589  33.306  36.007  1.00  0.00     0.020 A 
ATOM     75  C   UNL A   1      38.857  32.408  36.798  1.00  0.00     0.054 A 
BRANCH  75  76
ATOM     76  S   UNL A   1      38.567  32.768  38.566  1.00  0.00     0.124 S 
ATOM     77  O   UNL A   1      38.244  34.189  38.546  1.00  0.00    -0.237 OA
ATOM     78  O   UNL A   1      37.460  31.875  38.906  1.00  0.00    -0.237 OA
ATOM     79  O   UNL A   1      39.840  32.407  39.181  1.00  0.00    -0.744 OA
ENDBRANCH  75  76
ENDBRANCH  47  70
BRANCH  59  80
ATOM     80  C   UNL A   1      44.377  25.518  34.301  1.00  0.00    -0.014 A 
ATOM     81  C   UNL A   1      43.612  24.400  34.647  1.00  0.00     0.010 A 
ATOM     82  C   UNL A   1      45.767  25.477  34.584  1.00  0.00     0.010 A 
ATOM     83  C   UNL A   1      44.195  23.314  35.294  1.00  0.00     0.020 A 
ATOM     84  C   UNL A   1      46.364  24.386  35.205  1.00  0.00     0.020 A 
ATOM     85  C   UNL A   1      45.564  23.316  35.570  1.00  0.00     0.054 A 
BRANCH  85  86
ATOM     86  S   UNL A   1      46.280  21.869  36.366  1.00  0.00     0.124 S 
ATOM     87  O   UNL A   1      45.609  20.781  35.660  1.00  0.00    -0.237 OA
ATOM     88  O   UNL A   1      47.703  22.025  36.074  1.00  0.00    -0.237 OA
ATOM     89  O   UNL A   1      45.916  22.025  37.771  1.00  0.00    -0.744 OA
ENDBRANCH  85  86
ENDBRANCH  59  80
ENDBRANCH  33  34
ENDBRANCH  26  28
ENDBRANCH  25  26
ENDBRANCH  24  25
ENDBRANCH  23  24
ENDBRANCH  22  23
ENDBRANCH   1  22
TORSDOF 22
ENDMDL
