MODEL 1
REMARK VINA RESULT:      -9.5      0.000      0.000
REMARK SMILES CN1C(=O)C(=Cc2ccc(OCc3cccc(C(=O)OCCOCCOC(=O)c4ccc(-c5c6nc(c(-c7ccc(S(=O)(=O)[O-])cc7)c7ccc([nH]7)c(-c7ccc(S(=O)(=O)[O-])cc7)c7nc(c(-c8ccc(S(=O)(=O)[O-])cc8)c8ccc5[nH]8)C=C7)C=C6)cc4)c3)c(Cl)c2)C(=O)N(C)C1=S
REMARK SMILES IDX 22 1 21 2 20 3 18 4 19 5 17 6 13 7 14 8 89 9 15 10 16 11
REMARK SMILES IDX 12 12 11 13 10 14 7 15 8 16 92 17 9 18 90 19 91 20 6 21 1 22
REMARK SMILES IDX 2 23 3 24 97 25 4 26 5 27 95 28 98 29 93 30 96 31 94 32
REMARK SMILES IDX 23 33 24 34 25 35 26 36 27 37 28 38 29 39 30 40 88 41 31 42
REMARK SMILES IDX 87 43 32 44 33 45 34 46 81 47 35 48 86 49 80 50 82 51 36 52
REMARK SMILES IDX 85 53 79 54 78 55 37 57 67 58 48 59 66 60 49 61 52 62 65 63
REMARK SMILES IDX 83 64 50 65 51 66 64 68 84 69 53 70 38 71 39 72 47 73 40 74
REMARK SMILES IDX 46 75 41 76 42 77 43 78 44 79 45 80 68 81 69 82 77 83 70 84
REMARK SMILES IDX 76 85 71 86 72 87 73 88 74 89 75 90 54 91 55 92 63 93 56 94
REMARK SMILES IDX 62 95 57 96 58 97 59 98 60 99 61 100
REMARK H PARENT 82 56 52 67
REMARK Flexibility Score: inf
ROOT
ATOM      1  C   UNL A   1      33.278  34.791  28.831  1.00  0.00     0.202 C 
ENDROOT
BRANCH   1   2
ATOM      2  C   UNL A   1      33.052  36.137  29.520  1.00  0.00     0.261 C 
BRANCH   2   3
ATOM      3  O   UNL A   1      32.562  35.909  30.851  1.00  0.00    -0.460 OA
BRANCH   3   4
ATOM      4  C   UNL A   1      33.274  36.478  31.854  1.00  0.00     0.338 C 
ATOM      5  O   UNL A   1      33.197  37.625  32.256  1.00  0.00    -0.246 OA
BRANCH   4   6
ATOM      6  C   UNL A   1      34.062  35.423  32.536  1.00  0.00     0.060 A 
ATOM      7  C   UNL A   1      36.162  34.552  33.407  1.00  0.00    -0.010 A 
ATOM      8  C   UNL A   1      35.536  33.313  33.614  1.00  0.00     0.007 A 
ATOM      9  C   UNL A   1      35.404  35.611  32.885  1.00  0.00     0.023 A 
ATOM     10  C   UNL A   1      34.189  33.133  33.299  1.00  0.00     0.001 A 
ATOM     11  C   UNL A   1      33.452  34.186  32.759  1.00  0.00     0.016 A 
BRANCH   7  12
ATOM     12  C   UNL A   1      37.629  34.700  33.752  1.00  0.00     0.265 C 
BRANCH  12  13
ATOM     13  O   UNL A   1      38.233  33.507  34.232  1.00  0.00    -0.487 OA
BRANCH  13  14
ATOM     14  C   UNL A   1      39.248  32.870  33.579  1.00  0.00     0.138 A 
ATOM     15  C   UNL A   1      41.512  31.409  32.750  1.00  0.00    -0.023 A 
ATOM     16  C   UNL A   1      41.374  31.772  34.086  1.00  0.00     0.012 A 
ATOM     17  C   UNL A   1      40.576  31.862  31.818  1.00  0.00     0.032 A 
ATOM     18  C   UNL A   1      40.241  32.472  34.493  1.00  0.00     0.048 A 
ATOM     19  C   UNL A   1      39.446  32.588  32.220  1.00  0.00     0.083 A 
ATOM     20  Cl  UNL A   1      38.395  33.046  30.927  1.00  0.00    -0.080 Cl
BRANCH  15  21
ATOM     21  C   UNL A   1      42.576  30.515  32.291  1.00  0.00     0.027 C 
ATOM     22  C   UNL A   1      41.760  27.555  35.601  1.00  0.00     0.156 C 
ATOM     23  N   UNL A   1      42.373  27.621  34.281  1.00  0.00    -0.288 N 
ATOM     24  C   UNL A   1      41.740  28.503  33.425  1.00  0.00     0.265 C 
ATOM     25  C   UNL A   1      43.468  26.837  33.888  1.00  0.00     0.185 C 
ATOM     26  O   UNL A   1      40.531  28.717  33.417  1.00  0.00    -0.268 OA
ATOM     27  C   UNL A   1      42.676  29.197  32.545  1.00  0.00     0.106 C 
ATOM     28  N   UNL A   1      44.146  27.292  32.738  1.00  0.00    -0.288 N 
ATOM     29  S   UNL A   1      43.891  25.425  34.720  1.00  0.00    -0.040 S 
ATOM     30  C   UNL A   1      43.804  28.428  32.002  1.00  0.00     0.265 C 
ATOM     31  C   UNL A   1      45.364  26.646  32.260  1.00  0.00     0.156 C 
ATOM     32  O   UNL A   1      44.350  28.784  30.960  1.00  0.00    -0.268 OA
ENDBRANCH  15  21
ENDBRANCH  13  14
ENDBRANCH  12  13
ENDBRANCH   7  12
ENDBRANCH   4   6
ENDBRANCH   3   4
ENDBRANCH   2   3
ENDBRANCH   1   2
BRANCH   1  33
ATOM     33  O   UNL A   1      34.515  34.184  29.221  1.00  0.00    -0.374 OA
BRANCH  33  34
ATOM     34  C   UNL A   1      34.657  32.821  28.813  1.00  0.00     0.202 C 
BRANCH  34  35
ATOM     35  C   UNL A   1      35.250  31.926  29.908  1.00  0.00     0.261 C 
BRANCH  35  36
ATOM     36  O   UNL A   1      35.864  30.752  29.349  1.00  0.00    -0.460 OA
BRANCH  36  37
ATOM     37  C   UNL A   1      36.549  29.968  30.222  1.00  0.00     0.338 C 
ATOM     38  O   UNL A   1      36.140  29.477  31.256  1.00  0.00    -0.246 OA
BRANCH  37  39
ATOM     39  C   UNL A   1      37.874  29.666  29.637  1.00  0.00     0.060 A 
ATOM     40  C   UNL A   1      38.114  29.941  28.284  1.00  0.00     0.016 A 
ATOM     41  C   UNL A   1      38.883  29.121  30.421  1.00  0.00     0.016 A 
ATOM     42  C   UNL A   1      39.379  29.701  27.720  1.00  0.00     0.010 A 
ATOM     43  C   UNL A   1      40.131  28.874  29.848  1.00  0.00     0.010 A 
ATOM     44  C   UNL A   1      40.417  29.173  28.499  1.00  0.00    -0.014 A 
BRANCH  44  45
ATOM     45  C   UNL A   1      41.795  28.908  27.958  1.00  0.00     0.031 A 
ATOM     46  C   UNL A   1      42.127  27.538  27.394  1.00  0.00     0.074 A 
ATOM     47  C   UNL A   1      42.800  29.800  28.134  1.00  0.00     0.049 A 
ATOM     48  N   UNL A   1      43.273  27.080  26.948  1.00  0.00    -0.248 NA
ATOM     49  C   UNL A   1      41.047  26.540  27.380  1.00  0.00     0.031 C 
ATOM     50  C   UNL A   1      42.674  31.137  28.722  1.00  0.00     0.029 A 
ATOM     51  N   UNL A   1      44.150  29.698  27.861  1.00  0.00    -0.354 N 
ATOM     52  C   UNL A   1      43.088  25.710  26.763  1.00  0.00     0.074 A 
ATOM     53  C   UNL A   1      41.706  25.430  27.084  1.00  0.00     0.031 C 
ATOM     54  C   UNL A   1      43.883  31.729  28.748  1.00  0.00     0.029 A 
ATOM     55  C   UNL A   1      44.887  30.809  28.220  1.00  0.00     0.049 A 
ATOM     56  H   UNL A   1      44.553  28.902  27.444  1.00  0.00     0.167 HD
ATOM     57  C   UNL A   1      43.989  24.761  26.407  1.00  0.00     0.031 A 
ATOM     58  C   UNL A   1      46.211  31.062  28.144  1.00  0.00     0.031 A 
ATOM     59  C   UNL A   1      45.364  25.020  26.073  1.00  0.00     0.049 A 
ATOM     60  C   UNL A   1      47.163  30.008  27.631  1.00  0.00     0.074 A 
ATOM     61  C   UNL A   1      46.274  24.164  25.475  1.00  0.00     0.029 A 
ATOM     62  N   UNL A   1      46.042  26.198  26.335  1.00  0.00    -0.354 N 
ATOM     63  N   UNL A   1      46.902  28.795  27.206  1.00  0.00    -0.248 NA
ATOM     64  C   UNL A   1      48.590  30.366  27.588  1.00  0.00     0.031 C 
ATOM     65  C   UNL A   1      47.526  24.787  25.474  1.00  0.00     0.029 A 
ATOM     66  C   UNL A   1      47.382  26.053  26.017  1.00  0.00     0.049 A 
ATOM     67  H   UNL A   1      45.631  27.018  26.694  1.00  0.00     0.167 HD
ATOM     68  C   UNL A   1      48.128  28.271  26.793  1.00  0.00     0.074 A 
ATOM     69  C   UNL A   1      49.128  29.286  27.037  1.00  0.00     0.031 C 
ATOM     70  C   UNL A   1      48.388  27.061  26.239  1.00  0.00     0.031 A 
BRANCH  57  71
ATOM     71  C   UNL A   1      43.524  23.326  26.377  1.00  0.00    -0.014 A 
ATOM     72  C   UNL A   1      43.493  22.598  25.175  1.00  0.00     0.010 A 
ATOM     73  C   UNL A   1      43.162  22.678  27.575  1.00  0.00     0.010 A 
ATOM     74  C   UNL A   1      43.061  21.270  25.160  1.00  0.00     0.020 A 
ATOM     75  C   UNL A   1      42.761  21.338  27.570  1.00  0.00     0.020 A 
ATOM     76  C   UNL A   1      42.695  20.649  26.357  1.00  0.00     0.054 A 
BRANCH  76  77
ATOM     77  S   UNL A   1      42.175  18.912  26.307  1.00  0.00     0.124 S 
ATOM     78  O   UNL A   1      42.303  18.520  27.708  1.00  0.00    -0.237 OA
ATOM     79  O   UNL A   1      40.806  19.001  25.804  1.00  0.00    -0.237 OA
ATOM     80  O   UNL A   1      43.131  18.290  25.395  1.00  0.00    -0.744 OA
ENDBRANCH  76  77
ENDBRANCH  57  71
BRANCH  58  81
ATOM     81  C   UNL A   1      46.768  32.390  28.539  1.00  0.00    -0.014 A 
ATOM     82  C   UNL A   1      47.231  32.588  29.854  1.00  0.00     0.010 A 
ATOM     83  C   UNL A   1      46.742  33.482  27.655  1.00  0.00     0.010 A 
ATOM     84  C   UNL A   1      47.623  33.857  30.290  1.00  0.00     0.020 A 
ATOM     85  C   UNL A   1      47.152  34.752  28.082  1.00  0.00     0.020 A 
ATOM     86  C   UNL A   1      47.573  34.935  29.402  1.00  0.00     0.054 A 
BRANCH  86  87
ATOM     87  S   UNL A   1      48.083  36.577  29.989  1.00  0.00     0.124 S 
ATOM     88  O   UNL A   1      48.301  37.293  28.737  1.00  0.00    -0.237 OA
ATOM     89  O   UNL A   1      46.926  37.004  30.771  1.00  0.00    -0.237 OA
ATOM     90  O   UNL A   1      49.285  36.297  30.770  1.00  0.00    -0.744 OA
ENDBRANCH  86  87
ENDBRANCH  58  81
BRANCH  70  91
ATOM     91  C   UNL A   1      49.795  26.770  25.775  1.00  0.00    -0.014 A 
ATOM     92  C   UNL A   1      50.296  27.237  24.547  1.00  0.00     0.010 A 
ATOM     93  C   UNL A   1      50.658  26.068  26.637  1.00  0.00     0.010 A 
ATOM     94  C   UNL A   1      51.627  26.989  24.184  1.00  0.00     0.020 A 
ATOM     95  C   UNL A   1      51.994  25.844  26.292  1.00  0.00     0.020 A 
ATOM     96  C   UNL A   1      52.469  26.297  25.061  1.00  0.00     0.054 A 
BRANCH  96  97
ATOM     97  S   UNL A   1      54.209  26.046  24.610  1.00  0.00     0.124 S 
ATOM     98  O   UNL A   1      54.891  27.001  25.479  1.00  0.00    -0.237 OA
ATOM     99  O   UNL A   1      54.428  24.638  24.931  1.00  0.00    -0.237 OA
ATOM    100  O   UNL A   1      54.246  26.365  23.184  1.00  0.00    -0.744 OA
ENDBRANCH  96  97
ENDBRANCH  70  91
ENDBRANCH  44  45
ENDBRANCH  37  39
ENDBRANCH  36  37
ENDBRANCH  35  36
ENDBRANCH  34  35
ENDBRANCH  33  34
ENDBRANCH   1  33
TORSDOF 21
ENDMDL
MODEL 2
REMARK VINA RESULT:      -9.4      4.248     10.168
REMARK SMILES CN1C(=O)C(=Cc2ccc(OCc3cccc(C(=O)OCCOCCOC(=O)c4ccc(-c5c6nc(c(-c7ccc(S(=O)(=O)[O-])cc7)c7ccc([nH]7)c(-c7ccc(S(=O)(=O)[O-])cc7)c7nc(c(-c8ccc(S(=O)(=O)[O-])cc8)c8ccc5[nH]8)C=C7)C=C6)cc4)c3)c(Cl)c2)C(=O)N(C)C1=S
REMARK SMILES IDX 22 1 21 2 20 3 18 4 19 5 17 6 13 7 14 8 89 9 15 10 16 11
REMARK SMILES IDX 12 12 11 13 10 14 7 15 8 16 92 17 9 18 90 19 91 20 6 21 1 22
REMARK SMILES IDX 2 23 3 24 97 25 4 26 5 27 95 28 98 29 93 30 96 31 94 32
REMARK SMILES IDX 23 33 24 34 25 35 26 36 27 37 28 38 29 39 30 40 88 41 31 42
REMARK SMILES IDX 87 43 32 44 33 45 34 46 81 47 35 48 86 49 80 50 82 51 36 52
REMARK SMILES IDX 85 53 79 54 78 55 37 57 67 58 48 59 66 60 49 61 52 62 65 63
REMARK SMILES IDX 83 64 50 65 51 66 64 68 84 69 53 70 38 71 39 72 47 73 40 74
REMARK SMILES IDX 46 75 41 76 42 77 43 78 44 79 45 80 68 81 69 82 77 83 70 84
REMARK SMILES IDX 76 85 71 86 72 87 73 88 74 89 75 90 54 91 55 92 63 93 56 94
REMARK SMILES IDX 62 95 57 96 58 97 59 98 60 99 61 100
REMARK H PARENT 82 56 52 67
REMARK Flexibility Score: inf
ROOT
ATOM      1  C   UNL A   1      34.241  30.725  27.201  1.00  0.00     0.202 C 
ENDROOT
BRANCH   1   2
ATOM      2  C   UNL A   1      32.879  30.312  26.644  1.00  0.00     0.261 C 
BRANCH   2   3
ATOM      3  O   UNL A   1      33.036  29.132  25.840  1.00  0.00    -0.460 OA
BRANCH   3   4
ATOM      4  C   UNL A   1      32.705  29.253  24.532  1.00  0.00     0.338 C 
ATOM      5  O   UNL A   1      33.364  29.771  23.648  1.00  0.00    -0.246 OA
BRANCH   4   6
ATOM      6  C   UNL A   1      31.462  28.484  24.283  1.00  0.00     0.060 A 
ATOM      7  C   UNL A   1      30.247  26.380  24.125  1.00  0.00    -0.010 A 
ATOM      8  C   UNL A   1      29.158  27.077  23.579  1.00  0.00     0.007 A 
ATOM      9  C   UNL A   1      31.392  27.102  24.494  1.00  0.00     0.023 A 
ATOM     10  C   UNL A   1      29.213  28.459  23.399  1.00  0.00     0.001 A 
ATOM     11  C   UNL A   1      30.364  29.163  23.748  1.00  0.00     0.016 A 
BRANCH   7  12
ATOM     12  C   UNL A   1      30.149  24.878  24.292  1.00  0.00     0.265 C 
BRANCH  12  13
ATOM     13  O   UNL A   1      31.242  24.162  23.734  1.00  0.00    -0.487 OA
BRANCH  13  14
ATOM     14  C   UNL A   1      32.435  24.002  24.377  1.00  0.00     0.138 A 
ATOM     15  C   UNL A   1      35.085  24.056  25.337  1.00  0.00    -0.023 A 
ATOM     16  C   UNL A   1      34.783  24.629  24.106  1.00  0.00     0.012 A 
ATOM     17  C   UNL A   1      34.088  23.371  26.036  1.00  0.00     0.032 A 
ATOM     18  C   UNL A   1      33.467  24.620  23.649  1.00  0.00     0.048 A 
ATOM     19  C   UNL A   1      32.766  23.340  25.567  1.00  0.00     0.083 A 
ATOM     20  Cl  UNL A   1      31.674  22.459  26.576  1.00  0.00    -0.080 Cl
BRANCH  15  21
ATOM     21  C   UNL A   1      36.401  24.196  25.961  1.00  0.00     0.027 C 
ATOM     22  C   UNL A   1      37.473  19.900  25.075  1.00  0.00     0.156 C 
ATOM     23  N   UNL A   1      38.109  21.178  25.369  1.00  0.00    -0.288 N 
ATOM     24  C   UNL A   1      37.429  22.262  24.847  1.00  0.00     0.265 C 
ATOM     25  C   UNL A   1      39.318  21.305  26.068  1.00  0.00     0.185 C 
ATOM     26  O   UNL A   1      36.814  22.253  23.785  1.00  0.00    -0.268 OA
ATOM     27  C   UNL A   1      37.482  23.429  25.725  1.00  0.00     0.106 C 
ATOM     28  N   UNL A   1      39.581  22.595  26.575  1.00  0.00    -0.288 N 
ATOM     29  S   UNL A   1      40.388  20.004  26.233  1.00  0.00    -0.040 S 
ATOM     30  C   UNL A   1      38.744  23.702  26.425  1.00  0.00     0.265 C 
ATOM     31  C   UNL A   1      40.746  22.868  27.410  1.00  0.00     0.156 C 
ATOM     32  O   UNL A   1      39.006  24.842  26.805  1.00  0.00    -0.268 OA
ENDBRANCH  15  21
ENDBRANCH  13  14
ENDBRANCH  12  13
ENDBRANCH   7  12
ENDBRANCH   4   6
ENDBRANCH   3   4
ENDBRANCH   2   3
ENDBRANCH   1   2
BRANCH   1  33
ATOM     33  O   UNL A   1      34.123  31.555  28.362  1.00  0.00    -0.374 OA
BRANCH  33  34
ATOM     34  C   UNL A   1      35.059  32.635  28.412  1.00  0.00     0.202 C 
BRANCH  34  35
ATOM     35  C   UNL A   1      36.516  32.172  28.303  1.00  0.00     0.261 C 
BRANCH  35  36
ATOM     36  O   UNL A   1      36.889  31.350  29.422  1.00  0.00    -0.460 OA
BRANCH  36  37
ATOM     37  C   UNL A   1      36.985  30.017  29.175  1.00  0.00     0.338 C 
ATOM     38  O   UNL A   1      36.076  29.221  29.045  1.00  0.00    -0.246 OA
BRANCH  37  39
ATOM     39  C   UNL A   1      38.407  29.688  28.933  1.00  0.00     0.060 A 
ATOM     40  C   UNL A   1      38.838  29.384  27.634  1.00  0.00     0.016 A 
ATOM     41  C   UNL A   1      39.318  29.687  29.982  1.00  0.00     0.016 A 
ATOM     42  C   UNL A   1      40.193  29.111  27.378  1.00  0.00     0.010 A 
ATOM     43  C   UNL A   1      40.658  29.400  29.718  1.00  0.00     0.010 A 
ATOM     44  C   UNL A   1      41.132  29.126  28.418  1.00  0.00    -0.014 A 
BRANCH  44  45
ATOM     45  C   UNL A   1      42.595  28.856  28.204  1.00  0.00     0.031 A 
ATOM     46  C   UNL A   1      43.600  29.978  28.399  1.00  0.00     0.074 A 
ATOM     47  C   UNL A   1      43.021  27.690  27.661  1.00  0.00     0.049 A 
ATOM     48  N   UNL A   1      44.896  29.977  28.193  1.00  0.00    -0.248 NA
ATOM     49  C   UNL A   1      43.072  31.283  28.826  1.00  0.00     0.031 C 
ATOM     50  C   UNL A   1      42.182  26.530  27.344  1.00  0.00     0.029 A 
ATOM     51  N   UNL A   1      44.278  27.298  27.243  1.00  0.00    -0.354 N 
ATOM     52  C   UNL A   1      45.300  31.306  28.304  1.00  0.00     0.074 A 
ATOM     53  C   UNL A   1      44.124  32.070  28.657  1.00  0.00     0.031 C 
ATOM     54  C   UNL A   1      42.945  25.562  26.802  1.00  0.00     0.029 A 
ATOM     55  C   UNL A   1      44.323  26.035  26.690  1.00  0.00     0.049 A 
ATOM     56  H   UNL A   1      45.074  27.871  27.333  1.00  0.00     0.167 HD
ATOM     57  C   UNL A   1      46.521  31.855  28.088  1.00  0.00     0.031 A 
ATOM     58  C   UNL A   1      45.344  25.335  26.148  1.00  0.00     0.031 A 
ATOM     59  C   UNL A   1      47.705  31.113  27.748  1.00  0.00     0.049 A 
ATOM     60  C   UNL A   1      46.717  25.953  26.034  1.00  0.00     0.074 A 
ATOM     61  C   UNL A   1      49.018  31.553  27.747  1.00  0.00     0.029 A 
ATOM     62  N   UNL A   1      47.727  29.799  27.315  1.00  0.00    -0.354 N 
ATOM     63  N   UNL A   1      47.122  27.143  26.406  1.00  0.00    -0.248 NA
ATOM     64  C   UNL A   1      47.770  25.123  25.425  1.00  0.00     0.031 C 
ATOM     65  C   UNL A   1      49.819  30.538  27.212  1.00  0.00     0.029 A 
ATOM     66  C   UNL A   1      49.012  29.448  26.936  1.00  0.00     0.049 A 
ATOM     67  H   UNL A   1      46.945  29.202  27.280  1.00  0.00     0.167 HD
ATOM     68  C   UNL A   1      48.489  27.178  26.127  1.00  0.00     0.074 A 
ATOM     69  C   UNL A   1      48.836  25.903  25.539  1.00  0.00     0.031 C 
ATOM     70  C   UNL A   1      49.377  28.176  26.363  1.00  0.00     0.031 A 
BRANCH  57  71
ATOM     71  C   UNL A   1      46.646  33.356  28.191  1.00  0.00    -0.014 A 
ATOM     72  C   UNL A   1      46.876  33.981  29.429  1.00  0.00     0.010 A 
ATOM     73  C   UNL A   1      46.585  34.149  27.028  1.00  0.00     0.010 A 
ATOM     74  C   UNL A   1      46.990  35.371  29.512  1.00  0.00     0.020 A 
ATOM     75  C   UNL A   1      46.733  35.538  27.102  1.00  0.00     0.020 A 
ATOM     76  C   UNL A   1      46.915  36.141  28.348  1.00  0.00     0.054 A 
BRANCH  76  77
ATOM     77  S   UNL A   1      47.106  37.939  28.486  1.00  0.00     0.124 S 
ATOM     78  O   UNL A   1      45.865  38.420  27.885  1.00  0.00    -0.237 OA
ATOM     79  O   UNL A   1      47.221  38.140  29.929  1.00  0.00    -0.237 OA
ATOM     80  O   UNL A   1      48.319  38.219  27.723  1.00  0.00    -0.744 OA
ENDBRANCH  76  77
ENDBRANCH  57  71
BRANCH  58  81
ATOM     81  C   UNL A   1      45.153  23.933  25.671  1.00  0.00    -0.014 A 
ATOM     82  C   UNL A   1      45.415  22.860  26.544  1.00  0.00     0.010 A 
ATOM     83  C   UNL A   1      44.821  23.658  24.334  1.00  0.00     0.010 A 
ATOM     84  C   UNL A   1      45.383  21.540  26.083  1.00  0.00     0.020 A 
ATOM     85  C   UNL A   1      44.769  22.336  23.873  1.00  0.00     0.020 A 
ATOM     86  C   UNL A   1      45.068  21.287  24.745  1.00  0.00     0.054 A 
BRANCH  86  87
ATOM     87  S   UNL A   1      45.036  19.565  24.166  1.00  0.00     0.124 S 
ATOM     88  O   UNL A   1      44.222  18.916  25.189  1.00  0.00    -0.237 OA
ATOM     89  O   UNL A   1      44.418  19.688  22.848  1.00  0.00    -0.237 OA
ATOM     90  O   UNL A   1      46.447  19.188  24.153  1.00  0.00    -0.744 OA
ENDBRANCH  86  87
ENDBRANCH  58  81
BRANCH  70  91
ATOM     91  C   UNL A   1      50.835  27.926  26.066  1.00  0.00    -0.014 A 
ATOM     92  C   UNL A   1      51.645  27.117  26.884  1.00  0.00     0.010 A 
ATOM     93  C   UNL A   1      51.386  28.464  24.887  1.00  0.00     0.010 A 
ATOM     94  C   UNL A   1      52.980  26.869  26.536  1.00  0.00     0.020 A 
ATOM     95  C   UNL A   1      52.707  28.194  24.522  1.00  0.00     0.020 A 
ATOM     96  C   UNL A   1      53.502  27.406  25.355  1.00  0.00     0.054 A 
BRANCH  96  97
ATOM     97  S   UNL A   1      55.210  27.018  24.880  1.00  0.00     0.124 S 
ATOM     98  O   UNL A   1      55.680  26.248  26.028  1.00  0.00    -0.237 OA
ATOM     99  O   UNL A   1      55.038  26.260  23.643  1.00  0.00    -0.237 OA
ATOM    100  O   UNL A   1      55.829  28.331  24.715  1.00  0.00    -0.744 OA
ENDBRANCH  96  97
ENDBRANCH  70  91
ENDBRANCH  44  45
ENDBRANCH  37  39
ENDBRANCH  36  37
ENDBRANCH  35  36
ENDBRANCH  34  35
ENDBRANCH  33  34
ENDBRANCH   1  33
TORSDOF 21
ENDMDL
MODEL 3
REMARK VINA RESULT:      -9.2      3.948      9.694
REMARK SMILES CN1C(=O)C(=Cc2ccc(OCc3cccc(C(=O)OCCOCCOC(=O)c4ccc(-c5c6nc(c(-c7ccc(S(=O)(=O)[O-])cc7)c7ccc([nH]7)c(-c7ccc(S(=O)(=O)[O-])cc7)c7nc(c(-c8ccc(S(=O)(=O)[O-])cc8)c8ccc5[nH]8)C=C7)C=C6)cc4)c3)c(Cl)c2)C(=O)N(C)C1=S
REMARK SMILES IDX 22 1 21 2 20 3 18 4 19 5 17 6 13 7 14 8 89 9 15 10 16 11
REMARK SMILES IDX 12 12 11 13 10 14 7 15 8 16 92 17 9 18 90 19 91 20 6 21 1 22
REMARK SMILES IDX 2 23 3 24 97 25 4 26 5 27 95 28 98 29 93 30 96 31 94 32
REMARK SMILES IDX 23 33 24 34 25 35 26 36 27 37 28 38 29 39 30 40 88 41 31 42
REMARK SMILES IDX 87 43 32 44 33 45 34 46 81 47 35 48 86 49 80 50 82 51 36 52
REMARK SMILES IDX 85 53 79 54 78 55 37 57 67 58 48 59 66 60 49 61 52 62 65 63
REMARK SMILES IDX 83 64 50 65 51 66 64 68 84 69 53 70 38 71 39 72 47 73 40 74
REMARK SMILES IDX 46 75 41 76 42 77 43 78 44 79 45 80 68 81 69 82 77 83 70 84
REMARK SMILES IDX 76 85 71 86 72 87 73 88 74 89 75 90 54 91 55 92 63 93 56 94
REMARK SMILES IDX 62 95 57 96 58 97 59 98 60 99 61 100
REMARK H PARENT 82 56 52 67
REMARK Flexibility Score: inf
ROOT
ATOM      1  C   UNL A   1      32.940  36.524  30.355  1.00  0.00     0.202 C 
ENDROOT
BRANCH   1   2
ATOM      2  C   UNL A   1      32.891  36.056  31.809  1.00  0.00     0.261 C 
BRANCH   2   3
ATOM      3  O   UNL A   1      34.224  35.758  32.254  1.00  0.00    -0.460 OA
BRANCH   3   4
ATOM      4  C   UNL A   1      34.471  34.465  32.576  1.00  0.00     0.338 C 
ATOM      5  O   UNL A   1      33.837  33.484  32.231  1.00  0.00    -0.246 OA
BRANCH   4   6
ATOM      6  C   UNL A   1      35.769  34.392  33.289  1.00  0.00     0.060 A 
ATOM      7  C   UNL A   1      38.204  34.419  33.302  1.00  0.00    -0.010 A 
ATOM      8  C   UNL A   1      38.178  34.016  34.646  1.00  0.00     0.007 A 
ATOM      9  C   UNL A   1      36.985  34.625  32.637  1.00  0.00     0.023 A 
ATOM     10  C   UNL A   1      36.966  33.816  35.308  1.00  0.00     0.001 A 
ATOM     11  C   UNL A   1      35.762  34.001  34.631  1.00  0.00     0.016 A 
BRANCH   7  12
ATOM     12  C   UNL A   1      39.541  34.614  32.619  1.00  0.00     0.265 C 
BRANCH  12  13
ATOM     13  O   UNL A   1      39.591  34.108  31.292  1.00  0.00    -0.487 OA
BRANCH  13  14
ATOM     14  C   UNL A   1      40.662  34.288  30.465  1.00  0.00     0.138 A 
ATOM     15  C   UNL A   1      42.564  35.077  28.539  1.00  0.00    -0.023 A 
ATOM     16  C   UNL A   1      41.253  35.535  28.447  1.00  0.00     0.012 A 
ATOM     17  C   UNL A   1      42.895  34.149  29.529  1.00  0.00     0.032 A 
ATOM     18  C   UNL A   1      40.325  35.161  29.415  1.00  0.00     0.048 A 
ATOM     19  C   UNL A   1      41.956  33.751  30.493  1.00  0.00     0.083 A 
ATOM     20  Cl  UNL A   1      42.558  32.610  31.644  1.00  0.00    -0.080 Cl
BRANCH  15  21
ATOM     21  C   UNL A   1      43.629  35.579  27.671  1.00  0.00     0.027 C 
ATOM     22  C   UNL A   1      43.094  39.807  29.160  1.00  0.00     0.156 C 
ATOM     23  N   UNL A   1      44.089  38.963  28.513  1.00  0.00    -0.288 N 
ATOM     24  C   UNL A   1      44.046  37.646  28.931  1.00  0.00     0.265 C 
ATOM     25  C   UNL A   1      45.037  39.437  27.594  1.00  0.00     0.185 C 
ATOM     26  O   UNL A   1      43.762  37.285  30.069  1.00  0.00    -0.268 OA
ATOM     27  C   UNL A   1      44.339  36.708  27.850  1.00  0.00     0.106 C 
ATOM     28  N   UNL A   1      45.655  38.442  26.808  1.00  0.00    -0.288 N 
ATOM     29  S   UNL A   1      45.426  41.081  27.491  1.00  0.00    -0.040 S 
ATOM     30  C   UNL A   1      45.390  37.074  26.891  1.00  0.00     0.265 C 
ATOM     31  C   UNL A   1      46.587  38.781  25.737  1.00  0.00     0.156 C 
ATOM     32  O   UNL A   1      45.980  36.202  26.257  1.00  0.00    -0.268 OA
ENDBRANCH  15  21
ENDBRANCH  13  14
ENDBRANCH  12  13
ENDBRANCH   7  12
ENDBRANCH   4   6
ENDBRANCH   3   4
ENDBRANCH   2   3
ENDBRANCH   1   2
BRANCH   1  33
ATOM     33  O   UNL A   1      32.664  35.462  29.435  1.00  0.00    -0.374 OA
BRANCH  33  34
ATOM     34  C   UNL A   1      33.828  34.877  28.844  1.00  0.00     0.202 C 
BRANCH  34  35
ATOM     35  C   UNL A   1      33.515  33.623  28.019  1.00  0.00     0.261 C 
BRANCH  35  36
ATOM     36  O   UNL A   1      34.718  32.928  27.648  1.00  0.00    -0.460 OA
BRANCH  36  37
ATOM     37  C   UNL A   1      34.624  31.574  27.582  1.00  0.00     0.338 C 
ATOM     38  O   UNL A   1      33.820  30.916  26.951  1.00  0.00    -0.246 OA
BRANCH  37  39
ATOM     39  C   UNL A   1      35.777  30.991  28.304  1.00  0.00     0.060 A 
ATOM     40  C   UNL A   1      35.658  29.725  28.894  1.00  0.00     0.016 A 
ATOM     41  C   UNL A   1      36.976  31.685  28.394  1.00  0.00     0.016 A 
ATOM     42  C   UNL A   1      36.754  29.136  29.548  1.00  0.00     0.010 A 
ATOM     43  C   UNL A   1      38.054  31.097  29.058  1.00  0.00     0.010 A 
ATOM     44  C   UNL A   1      37.980  29.810  29.630  1.00  0.00    -0.014 A 
BRANCH  44  45
ATOM     45  C   UNL A   1      39.192  29.227  30.303  1.00  0.00     0.031 A 
ATOM     46  C   UNL A   1      39.608  29.739  31.671  1.00  0.00     0.074 A 
ATOM     47  C   UNL A   1      40.029  28.394  29.639  1.00  0.00     0.049 A 
ATOM     48  N   UNL A   1      40.660  29.426  32.389  1.00  0.00    -0.248 NA
ATOM     49  C   UNL A   1      38.761  30.774  32.283  1.00  0.00     0.031 C 
ATOM     50  C   UNL A   1      39.821  27.856  28.291  1.00  0.00     0.029 A 
ATOM     51  N   UNL A   1      41.255  27.873  30.003  1.00  0.00    -0.354 N 
ATOM     52  C   UNL A   1      40.685  30.338  33.443  1.00  0.00     0.074 A 
ATOM     53  C   UNL A   1      39.510  31.169  33.302  1.00  0.00     0.031 C 
ATOM     54  C   UNL A   1      40.866  27.078  27.953  1.00  0.00     0.029 A 
ATOM     55  C   UNL A   1      41.846  27.084  29.037  1.00  0.00     0.049 A 
ATOM     56  H   UNL A   1      41.672  28.049  30.877  1.00  0.00     0.167 HD
ATOM     57  C   UNL A   1      41.617  30.506  34.413  1.00  0.00     0.031 A 
ATOM     58  C   UNL A   1      43.036  26.445  29.013  1.00  0.00     0.031 A 
ATOM     59  C   UNL A   1      42.786  29.683  34.578  1.00  0.00     0.049 A 
ATOM     60  C   UNL A   1      43.995  26.572  30.174  1.00  0.00     0.074 A 
ATOM     61  C   UNL A   1      43.647  29.630  35.662  1.00  0.00     0.029 A 
ATOM     62  N   UNL A   1      43.283  28.803  33.633  1.00  0.00    -0.354 N 
ATOM     63  N   UNL A   1      43.855  27.245  31.290  1.00  0.00    -0.248 NA
ATOM     64  C   UNL A   1      45.271  25.848  30.062  1.00  0.00     0.031 C 
ATOM     65  C   UNL A   1      44.721  28.798  35.327  1.00  0.00     0.029 A 
ATOM     66  C   UNL A   1      44.497  28.289  34.059  1.00  0.00     0.049 A 
ATOM     67  H   UNL A   1      42.840  28.577  32.784  1.00  0.00     0.167 HD
ATOM     68  C   UNL A   1      45.005  26.974  32.036  1.00  0.00     0.074 A 
ATOM     69  C   UNL A   1      45.832  26.098  31.238  1.00  0.00     0.031 C 
ATOM     70  C   UNL A   1      45.326  27.402  33.282  1.00  0.00     0.031 A 
BRANCH  57  71
ATOM     71  C   UNL A   1      41.429  31.649  35.380  1.00  0.00    -0.014 A 
ATOM     72  C   UNL A   1      42.108  32.868  35.204  1.00  0.00     0.010 A 
ATOM     73  C   UNL A   1      40.521  31.524  36.450  1.00  0.00     0.010 A 
ATOM     74  C   UNL A   1      41.926  33.919  36.104  1.00  0.00     0.020 A 
ATOM     75  C   UNL A   1      40.309  32.587  37.335  1.00  0.00     0.020 A 
ATOM     76  C   UNL A   1      41.029  33.771  37.166  1.00  0.00     0.054 A 
BRANCH  76  77
ATOM     77  S   UNL A   1      40.787  35.169  38.295  1.00  0.00     0.124 S 
ATOM     78  O   UNL A   1      42.139  35.379  38.808  1.00  0.00    -0.237 OA
ATOM     79  O   UNL A   1      40.285  36.216  37.408  1.00  0.00    -0.237 OA
ATOM     80  O   UNL A   1      39.821  34.667  39.269  1.00  0.00    -0.744 OA
ENDBRANCH  76  77
ENDBRANCH  57  71
BRANCH  58  81
ATOM     81  C   UNL A   1      43.426  25.580  27.861  1.00  0.00    -0.014 A 
ATOM     82  C   UNL A   1      43.178  24.195  27.914  1.00  0.00     0.010 A 
ATOM     83  C   UNL A   1      44.135  26.103  26.766  1.00  0.00     0.010 A 
ATOM     84  C   UNL A   1      43.660  23.344  26.915  1.00  0.00     0.020 A 
ATOM     85  C   UNL A   1      44.603  25.256  25.753  1.00  0.00     0.020 A 
ATOM     86  C   UNL A   1      44.378  23.880  25.843  1.00  0.00     0.054 A 
BRANCH  86  87
ATOM     87  S   UNL A   1      44.999  22.756  24.558  1.00  0.00     0.124 S 
ATOM     88  O   UNL A   1      43.789  22.469  23.795  1.00  0.00    -0.237 OA
ATOM     89  O   UNL A   1      45.997  23.577  23.877  1.00  0.00    -0.237 OA
ATOM     90  O   UNL A   1      45.540  21.635  25.323  1.00  0.00    -0.744 OA
ENDBRANCH  86  87
ENDBRANCH  58  81
BRANCH  70  91
ATOM     91  C   UNL A   1      46.590  26.877  33.918  1.00  0.00    -0.014 A 
ATOM     92  C   UNL A   1      47.798  27.598  33.903  1.00  0.00     0.010 A 
ATOM     93  C   UNL A   1      46.539  25.654  34.613  1.00  0.00     0.010 A 
ATOM     94  C   UNL A   1      48.932  27.094  34.555  1.00  0.00     0.020 A 
ATOM     95  C   UNL A   1      47.659  25.164  35.290  1.00  0.00     0.020 A 
ATOM     96  C   UNL A   1      48.854  25.882  35.248  1.00  0.00     0.054 A 
BRANCH  96  97
ATOM     97  S   UNL A   1      50.310  25.278  36.149  1.00  0.00     0.124 S 
ATOM     98  O   UNL A   1      49.714  24.352  37.108  1.00  0.00    -0.237 OA
ATOM     99  O   UNL A   1      51.111  24.661  35.095  1.00  0.00    -0.237 OA
ATOM    100  O   UNL A   1      50.884  26.490  36.729  1.00  0.00    -0.744 OA
ENDBRANCH  96  97
ENDBRANCH  70  91
ENDBRANCH  44  45
ENDBRANCH  37  39
ENDBRANCH  36  37
ENDBRANCH  35  36
ENDBRANCH  34  35
ENDBRANCH  33  34
ENDBRANCH   1  33
TORSDOF 21
ENDMDL
