MODEL 1
REMARK VINA RESULT:      -9.8      0.000      0.000
REMARK SMILES CC(C)[C@@H]([NH3+])C(=O)N[C@@H](Cc1ccccc1)C(=O)OCCOCCOC(=O)c1ccc(-c2c3nc(c(-c4ccc(S(=O)(=O)[O-])cc4)c4ccc([nH]4)c(-c4ccc(S(=O)(=O)[O-])cc4)c4nc(c(-c5ccc(S(=O)(=O)[O-])cc5)c5ccc2[nH]5)C=C4)C=C3)cc1
REMARK SMILES IDX 22 1 21 2 20 3 19 4 17 5 18 6 9 7 8 8 6 9 7 10 4 12 2 13
REMARK SMILES IDX 1 14 3 15 5 16 10 20 11 21 12 22 16 23 13 24 15 25 14 26
REMARK SMILES IDX 23 27 24 28 25 29 26 30 27 31 28 32 29 33 87 34 30 35 86 36
REMARK SMILES IDX 31 37 32 38 33 39 80 40 34 41 85 42 79 43 81 44 35 45 84 46
REMARK SMILES IDX 78 47 77 48 36 50 66 51 47 52 65 53 48 54 51 55 64 56 82 57
REMARK SMILES IDX 49 58 50 59 63 61 83 62 52 63 37 64 38 65 46 66 39 67 45 68
REMARK SMILES IDX 40 69 41 70 42 71 43 72 44 73 67 74 68 75 76 76 69 77 75 78
REMARK SMILES IDX 70 79 71 80 72 81 73 82 74 83 53 84 54 85 62 86 55 87 61 88
REMARK SMILES IDX 56 89 57 90 58 91 59 92 60 93
REMARK H PARENT 8 11 5 17 5 18 5 19 81 49 51 60
REMARK Flexibility Score: inf
ROOT
ATOM      1  O   UNL A   1      37.500  22.546  25.573  1.00  0.00    -0.374 OA
ENDROOT
BRANCH   1   2
ATOM      2  C   UNL A   1      36.953  21.823  24.470  1.00  0.00     0.202 C 
BRANCH   2   3
ATOM      3  C   UNL A   1      35.497  21.374  24.597  1.00  0.00     0.261 C 
BRANCH   3   4
ATOM      4  O   UNL A   1      34.613  22.503  24.600  1.00  0.00    -0.462 OA
BRANCH   4   5
ATOM      5  C   UNL A   1      33.937  22.708  23.437  1.00  0.00     0.329 C 
ATOM      6  O   UNL A   1      34.426  23.165  22.409  1.00  0.00    -0.250 OA
BRANCH   5   7
ATOM      7  C   UNL A   1      32.454  22.334  23.548  1.00  0.00     0.196 C 
BRANCH   7   8
ATOM      8  N   UNL A   1      31.480  23.367  23.164  1.00  0.00    -0.337 N 
ATOM      9  C   UNL A   1      30.817  24.285  23.920  1.00  0.00     0.279 C 
ATOM     10  O   UNL A   1      29.915  24.931  23.375  1.00  0.00    -0.268 OA
ATOM     11  H   UNL A   1      31.274  23.401  22.201  1.00  0.00     0.164 HD
BRANCH   9  12
ATOM     12  C   UNL A   1      31.245  24.641  25.374  1.00  0.00     0.273 C 
BRANCH  12  13
ATOM     13  C   UNL A   1      32.077  25.931  25.566  1.00  0.00     0.051 C 
ATOM     14  C   UNL A   1      31.541  26.806  26.710  1.00  0.00     0.014 C 
ATOM     15  C   UNL A   1      33.548  25.602  25.840  1.00  0.00     0.014 C 
ENDBRANCH  12  13
BRANCH  12  16
ATOM     16  N   UNL A   1      30.021  24.601  26.209  1.00  0.00    -0.347 N 
ATOM     17  H   UNL A   1      29.198  24.595  25.607  1.00  0.00     0.345 HD
ATOM     18  H   UNL A   1      29.995  25.422  26.813  1.00  0.00     0.345 HD
ATOM     19  H   UNL A   1      30.028  23.757  26.782  1.00  0.00     0.345 HD
ENDBRANCH  12  16
ENDBRANCH   9  12
ENDBRANCH   7   8
BRANCH   7  20
ATOM     20  C   UNL A   1      32.207  21.049  22.731  1.00  0.00     0.072 C 
BRANCH  20  21
ATOM     21  C   UNL A   1      32.394  19.779  23.540  1.00  0.00    -0.045 A 
ATOM     22  C   UNL A   1      32.359  19.832  24.940  1.00  0.00     0.004 A 
ATOM     23  C   UNL A   1      32.678  18.554  22.917  1.00  0.00     0.004 A 
ATOM     24  C   UNL A   1      32.630  18.694  25.701  1.00  0.00     0.000 A 
ATOM     25  C   UNL A   1      32.971  17.423  23.681  1.00  0.00     0.000 A 
ATOM     26  C   UNL A   1      32.950  17.494  25.073  1.00  0.00     0.000 A 
ENDBRANCH  20  21
ENDBRANCH   7  20
ENDBRANCH   5   7
ENDBRANCH   4   5
ENDBRANCH   3   4
ENDBRANCH   2   3
ENDBRANCH   1   2
BRANCH   1  27
ATOM     27  C   UNL A   1      38.752  22.104  26.100  1.00  0.00     0.202 C 
BRANCH  27  28
ATOM     28  C   UNL A   1      39.225  20.693  25.720  1.00  0.00     0.261 C 
BRANCH  28  29
ATOM     29  O   UNL A   1      40.095  20.094  26.697  1.00  0.00    -0.460 OA
BRANCH  29  30
ATOM     30  C   UNL A   1      41.361  19.870  26.265  1.00  0.00     0.338 C 
ATOM     31  O   UNL A   1      41.776  18.888  25.663  1.00  0.00    -0.246 OA
BRANCH  30  32
ATOM     32  C   UNL A   1      42.189  21.070  26.468  1.00  0.00     0.060 A 
ATOM     33  C   UNL A   1      42.359  21.533  27.779  1.00  0.00     0.016 A 
ATOM     34  C   UNL A   1      42.705  21.789  25.389  1.00  0.00     0.016 A 
ATOM     35  C   UNL A   1      43.032  22.730  28.016  1.00  0.00     0.010 A 
ATOM     36  C   UNL A   1      43.366  22.998  25.627  1.00  0.00     0.010 A 
ATOM     37  C   UNL A   1      43.515  23.485  26.939  1.00  0.00    -0.014 A 
BRANCH  37  38
ATOM     38  C   UNL A   1      44.090  24.830  27.183  1.00  0.00     0.031 A 
ATOM     39  C   UNL A   1      43.184  25.964  27.577  1.00  0.00     0.074 A 
ATOM     40  C   UNL A   1      45.415  25.031  27.072  1.00  0.00     0.049 A 
ATOM     41  N   UNL A   1      43.479  27.218  27.801  1.00  0.00    -0.248 NA
ATOM     42  C   UNL A   1      41.757  25.641  27.743  1.00  0.00     0.031 C 
ATOM     43  C   UNL A   1      46.402  24.001  26.745  1.00  0.00     0.029 A 
ATOM     44  N   UNL A   1      46.158  26.175  27.219  1.00  0.00    -0.354 N 
ATOM     45  C   UNL A   1      42.279  27.837  28.130  1.00  0.00     0.074 A 
ATOM     46  C   UNL A   1      41.247  26.824  28.056  1.00  0.00     0.031 C 
ATOM     47  C   UNL A   1      47.622  24.565  26.707  1.00  0.00     0.029 A 
ATOM     48  C   UNL A   1      47.497  25.997  26.969  1.00  0.00     0.049 A 
ATOM     49  H   UNL A   1      45.769  27.041  27.478  1.00  0.00     0.167 HD
ATOM     50  C   UNL A   1      42.056  29.130  28.464  1.00  0.00     0.031 A 
ATOM     51  C   UNL A   1      48.505  26.892  26.930  1.00  0.00     0.031 A 
ATOM     52  C   UNL A   1      43.080  30.141  28.516  1.00  0.00     0.049 A 
ATOM     53  C   UNL A   1      48.217  28.342  27.212  1.00  0.00     0.074 A 
ATOM     54  C   UNL A   1      42.955  31.477  28.859  1.00  0.00     0.029 A 
ATOM     55  N   UNL A   1      44.414  29.932  28.201  1.00  0.00    -0.354 N 
ATOM     56  N   UNL A   1      47.081  28.907  27.547  1.00  0.00    -0.248 NA
ATOM     57  C   UNL A   1      49.348  29.276  27.111  1.00  0.00     0.031 C 
ATOM     58  C   UNL A   1      44.204  32.087  28.697  1.00  0.00     0.029 A 
ATOM     59  C   UNL A   1      45.117  31.121  28.306  1.00  0.00     0.049 A 
ATOM     60  H   UNL A   1      44.805  29.066  27.942  1.00  0.00     0.167 HD
ATOM     61  C   UNL A   1      47.363  30.259  27.707  1.00  0.00     0.074 A 
ATOM     62  C   UNL A   1      48.780  30.425  27.454  1.00  0.00     0.031 C 
ATOM     63  C   UNL A   1      46.524  31.274  28.035  1.00  0.00     0.031 A 
BRANCH  50  64
ATOM     64  C   UNL A   1      40.638  29.537  28.762  1.00  0.00    -0.014 A 
ATOM     65  C   UNL A   1      40.262  29.987  30.040  1.00  0.00     0.010 A 
ATOM     66  C   UNL A   1      39.675  29.504  27.736  1.00  0.00     0.010 A 
ATOM     67  C   UNL A   1      38.940  30.362  30.297  1.00  0.00     0.020 A 
ATOM     68  C   UNL A   1      38.357  29.899  27.984  1.00  0.00     0.020 A 
ATOM     69  C   UNL A   1      37.995  30.311  29.267  1.00  0.00     0.054 A 
BRANCH  69  70
ATOM     70  S   UNL A   1      36.290  30.819  29.623  1.00  0.00     0.124 S 
ATOM     71  O   UNL A   1      36.241  32.151  29.024  1.00  0.00    -0.237 OA
ATOM     72  O   UNL A   1      35.501  29.796  28.942  1.00  0.00    -0.237 OA
ATOM     73  O   UNL A   1      36.216  30.790  31.081  1.00  0.00    -0.744 OA
ENDBRANCH  69  70
ENDBRANCH  50  64
BRANCH  51  74
ATOM     74  C   UNL A   1      49.877  26.444  26.570  1.00  0.00    -0.014 A 
ATOM     75  C   UNL A   1      50.790  26.053  27.563  1.00  0.00     0.010 A 
ATOM     76  C   UNL A   1      50.273  26.398  25.219  1.00  0.00     0.010 A 
ATOM     77  C   UNL A   1      52.078  25.633  27.215  1.00  0.00     0.020 A 
ATOM     78  C   UNL A   1      51.550  25.956  24.866  1.00  0.00     0.020 A 
ATOM     79  C   UNL A   1      52.448  25.584  25.868  1.00  0.00     0.054 A 
BRANCH  79  80
ATOM     80  S   UNL A   1      54.100  24.975  25.433  1.00  0.00     0.124 S 
ATOM     81  O   UNL A   1      54.789  25.023  26.719  1.00  0.00    -0.237 OA
ATOM     82  O   UNL A   1      53.819  23.639  24.914  1.00  0.00    -0.237 OA
ATOM     83  O   UNL A   1      54.565  25.937  24.435  1.00  0.00    -0.744 OA
ENDBRANCH  79  80
ENDBRANCH  51  74
BRANCH  63  84
ATOM     84  C   UNL A   1      47.116  32.653  28.148  1.00  0.00    -0.014 A 
ATOM     85  C   UNL A   1      47.132  33.526  27.045  1.00  0.00     0.010 A 
ATOM     86  C   UNL A   1      47.612  33.103  29.385  1.00  0.00     0.010 A 
ATOM     87  C   UNL A   1      47.657  34.815  27.172  1.00  0.00     0.020 A 
ATOM     88  C   UNL A   1      48.115  34.399  29.523  1.00  0.00     0.020 A 
ATOM     89  C   UNL A   1      48.146  35.243  28.411  1.00  0.00     0.054 A 
BRANCH  89  90
ATOM     90  S   UNL A   1      48.780  36.937  28.561  1.00  0.00     0.124 S 
ATOM     91  O   UNL A   1      49.878  36.937  27.599  1.00  0.00    -0.237 OA
ATOM     92  O   UNL A   1      47.622  37.748  28.193  1.00  0.00    -0.237 OA
ATOM     93  O   UNL A   1      49.179  37.033  29.963  1.00  0.00    -0.744 OA
ENDBRANCH  89  90
ENDBRANCH  63  84
ENDBRANCH  37  38
ENDBRANCH  30  32
ENDBRANCH  29  30
ENDBRANCH  28  29
ENDBRANCH  27  28
ENDBRANCH   1  27
TORSDOF 23
ENDMDL
MODEL 2
REMARK VINA RESULT:      -9.7      0.775      8.196
REMARK SMILES CC(C)[C@@H]([NH3+])C(=O)N[C@@H](Cc1ccccc1)C(=O)OCCOCCOC(=O)c1ccc(-c2c3nc(c(-c4ccc(S(=O)(=O)[O-])cc4)c4ccc([nH]4)c(-c4ccc(S(=O)(=O)[O-])cc4)c4nc(c(-c5ccc(S(=O)(=O)[O-])cc5)c5ccc2[nH]5)C=C4)C=C3)cc1
REMARK SMILES IDX 22 1 21 2 20 3 19 4 17 5 18 6 9 7 8 8 6 9 7 10 4 12 2 13
REMARK SMILES IDX 1 14 3 15 5 16 10 20 11 21 12 22 16 23 13 24 15 25 14 26
REMARK SMILES IDX 23 27 24 28 25 29 26 30 27 31 28 32 29 33 87 34 30 35 86 36
REMARK SMILES IDX 31 37 32 38 33 39 80 40 34 41 85 42 79 43 81 44 35 45 84 46
REMARK SMILES IDX 78 47 77 48 36 50 66 51 47 52 65 53 48 54 51 55 64 56 82 57
REMARK SMILES IDX 49 58 50 59 63 61 83 62 52 63 37 64 38 65 46 66 39 67 45 68
REMARK SMILES IDX 40 69 41 70 42 71 43 72 44 73 67 74 68 75 76 76 69 77 75 78
REMARK SMILES IDX 70 79 71 80 72 81 73 82 74 83 53 84 54 85 62 86 55 87 61 88
REMARK SMILES IDX 56 89 57 90 58 91 59 92 60 93
REMARK H PARENT 8 11 5 17 5 18 5 19 81 49 51 60
REMARK Flexibility Score: inf
ROOT
ATOM      1  O   UNL A   1      37.938  21.948  25.693  1.00  0.00    -0.374 OA
ENDROOT
BRANCH   1   2
ATOM      2  C   UNL A   1      37.314  21.185  24.660  1.00  0.00     0.202 C 
BRANCH   2   3
ATOM      3  C   UNL A   1      35.980  20.521  25.006  1.00  0.00     0.261 C 
BRANCH   3   4
ATOM      4  O   UNL A   1      34.964  21.506  25.236  1.00  0.00    -0.462 OA
BRANCH   4   5
ATOM      5  C   UNL A   1      34.258  21.875  24.133  1.00  0.00     0.329 C 
ATOM      6  O   UNL A   1      34.730  22.441  23.151  1.00  0.00    -0.250 OA
BRANCH   5   7
ATOM      7  C   UNL A   1      32.768  21.535  24.250  1.00  0.00     0.196 C 
BRANCH   7   8
ATOM      8  N   UNL A   1      31.818  22.633  24.010  1.00  0.00    -0.337 N 
ATOM      9  C   UNL A   1      31.485  23.702  24.785  1.00  0.00     0.279 C 
ATOM     10  O   UNL A   1      30.525  24.391  24.426  1.00  0.00    -0.268 OA
ATOM     11  H   UNL A   1      31.346  22.587  23.147  1.00  0.00     0.164 HD
BRANCH   9  12
ATOM     12  C   UNL A   1      32.346  24.158  25.999  1.00  0.00     0.273 C 
BRANCH  12  13
ATOM     13  C   UNL A   1      33.225  25.416  25.805  1.00  0.00     0.051 C 
ATOM     14  C   UNL A   1      33.705  25.574  24.353  1.00  0.00     0.014 C 
ATOM     15  C   UNL A   1      32.472  26.683  26.220  1.00  0.00     0.014 C 
ENDBRANCH  12  13
BRANCH  12  16
ATOM     16  N   UNL A   1      31.437  24.250  27.165  1.00  0.00    -0.347 N 
ATOM     17  H   UNL A   1      30.645  24.850  26.934  1.00  0.00     0.345 HD
ATOM     18  H   UNL A   1      31.941  24.645  27.959  1.00  0.00     0.345 HD
ATOM     19  H   UNL A   1      31.098  23.319  27.407  1.00  0.00     0.345 HD
ENDBRANCH  12  16
ENDBRANCH   9  12
ENDBRANCH   7   8
BRANCH   7  20
ATOM     20  C   UNL A   1      32.455  20.354  23.307  1.00  0.00     0.072 C 
BRANCH  20  21
ATOM     21  C   UNL A   1      32.797  19.003  23.906  1.00  0.00    -0.045 A 
ATOM     22  C   UNL A   1      33.281  17.977  23.082  1.00  0.00     0.004 A 
ATOM     23  C   UNL A   1      32.570  18.729  25.262  1.00  0.00     0.004 A 
ATOM     24  C   UNL A   1      33.503  16.698  23.595  1.00  0.00     0.000 A 
ATOM     25  C   UNL A   1      32.773  17.444  25.769  1.00  0.00     0.000 A 
ATOM     26  C   UNL A   1      33.237  16.428  24.935  1.00  0.00     0.000 A 
ENDBRANCH  20  21
ENDBRANCH   7  20
ENDBRANCH   5   7
ENDBRANCH   4   5
ENDBRANCH   3   4
ENDBRANCH   2   3
ENDBRANCH   1   2
BRANCH   1  27
ATOM     27  C   UNL A   1      39.237  21.540  26.125  1.00  0.00     0.202 C 
BRANCH  27  28
ATOM     28  C   UNL A   1      39.697  20.121  25.754  1.00  0.00     0.261 C 
BRANCH  28  29
ATOM     29  O   UNL A   1      40.662  19.571  26.668  1.00  0.00    -0.460 OA
BRANCH  29  30
ATOM     30  C   UNL A   1      41.928  19.509  26.184  1.00  0.00     0.338 C 
ATOM     31  O   UNL A   1      42.433  18.595  25.547  1.00  0.00    -0.246 OA
BRANCH  30  32
ATOM     32  C   UNL A   1      42.612  20.797  26.380  1.00  0.00     0.060 A 
ATOM     33  C   UNL A   1      42.696  21.302  27.684  1.00  0.00     0.016 A 
ATOM     34  C   UNL A   1      43.074  21.548  25.298  1.00  0.00     0.016 A 
ATOM     35  C   UNL A   1      43.226  22.571  27.910  1.00  0.00     0.010 A 
ATOM     36  C   UNL A   1      43.591  22.828  25.525  1.00  0.00     0.010 A 
ATOM     37  C   UNL A   1      43.650  23.354  26.828  1.00  0.00    -0.014 A 
BRANCH  37  38
ATOM     38  C   UNL A   1      44.067  24.758  27.056  1.00  0.00     0.031 A 
ATOM     39  C   UNL A   1      45.509  25.142  26.873  1.00  0.00     0.074 A 
ATOM     40  C   UNL A   1      43.159  25.687  27.406  1.00  0.00     0.049 A 
ATOM     41  N   UNL A   1      46.085  26.302  27.055  1.00  0.00    -0.248 NA
ATOM     42  C   UNL A   1      46.423  24.079  26.423  1.00  0.00     0.031 C 
ATOM     43  C   UNL A   1      41.724  25.448  27.566  1.00  0.00     0.029 A 
ATOM     44  N   UNL A   1      43.313  27.020  27.693  1.00  0.00    -0.354 N 
ATOM     45  C   UNL A   1      47.427  26.112  26.747  1.00  0.00     0.074 A 
ATOM     46  C   UNL A   1      47.584  24.718  26.386  1.00  0.00     0.031 C 
ATOM     47  C   UNL A   1      41.131  26.597  27.932  1.00  0.00     0.029 A 
ATOM     48  C   UNL A   1      42.147  27.639  28.069  1.00  0.00     0.049 A 
ATOM     49  H   UNL A   1      44.177  27.487  27.636  1.00  0.00     0.167 HD
ATOM     50  C   UNL A   1      48.436  27.015  26.762  1.00  0.00     0.031 A 
ATOM     51  C   UNL A   1      41.925  28.898  28.500  1.00  0.00     0.031 A 
ATOM     52  C   UNL A   1      48.282  28.395  27.143  1.00  0.00     0.049 A 
ATOM     53  C   UNL A   1      43.080  29.858  28.599  1.00  0.00     0.074 A 
ATOM     54  C   UNL A   1      49.243  29.392  27.175  1.00  0.00     0.029 A 
ATOM     55  N   UNL A   1      47.095  28.970  27.571  1.00  0.00    -0.354 N 
ATOM     56  N   UNL A   1      44.339  29.670  28.281  1.00  0.00    -0.248 NA
ATOM     57  C   UNL A   1      42.784  31.202  29.118  1.00  0.00     0.031 C 
ATOM     58  C   UNL A   1      48.648  30.555  27.677  1.00  0.00     0.029 A 
ATOM     59  C   UNL A   1      47.306  30.297  27.905  1.00  0.00     0.049 A 
ATOM     60  H   UNL A   1      46.230  28.503  27.628  1.00  0.00     0.167 HD
ATOM     61  C   UNL A   1      44.982  30.874  28.549  1.00  0.00     0.074 A 
ATOM     62  C   UNL A   1      43.970  31.790  29.035  1.00  0.00     0.031 C 
ATOM     63  C   UNL A   1      46.293  31.192  28.404  1.00  0.00     0.031 A 
BRANCH  50  64
ATOM     64  C   UNL A   1      49.811  26.527  26.393  1.00  0.00    -0.014 A 
ATOM     65  C   UNL A   1      50.649  25.919  27.346  1.00  0.00     0.010 A 
ATOM     66  C   UNL A   1      50.257  26.642  25.063  1.00  0.00     0.010 A 
ATOM     67  C   UNL A   1      51.922  25.469  26.984  1.00  0.00     0.020 A 
ATOM     68  C   UNL A   1      51.521  26.173  24.692  1.00  0.00     0.020 A 
ATOM     69  C   UNL A   1      52.351  25.604  25.659  1.00  0.00     0.054 A 
BRANCH  69  70
ATOM     70  S   UNL A   1      54.001  24.997  25.212  1.00  0.00     0.124 S 
ATOM     71  O   UNL A   1      54.307  25.798  24.029  1.00  0.00    -0.237 OA
ATOM     72  O   UNL A   1      54.791  25.307  26.401  1.00  0.00    -0.237 OA
ATOM     73  O   UNL A   1      53.791  23.573  24.962  1.00  0.00    -0.744 OA
ENDBRANCH  69  70
ENDBRANCH  50  64
BRANCH  51  74
ATOM     74  C   UNL A   1      40.556  29.308  28.910  1.00  0.00    -0.014 A 
ATOM     75  C   UNL A   1      39.596  29.668  27.950  1.00  0.00     0.010 A 
ATOM     76  C   UNL A   1      40.204  29.332  30.273  1.00  0.00     0.010 A 
ATOM     77  C   UNL A   1      38.310  30.052  28.345  1.00  0.00     0.020 A 
ATOM     78  C   UNL A   1      38.914  29.691  30.670  1.00  0.00     0.020 A 
ATOM     79  C   UNL A   1      37.977  30.058  29.703  1.00  0.00     0.054 A 
BRANCH  79  80
ATOM     80  S   UNL A   1      36.286  30.498  30.190  1.00  0.00     0.124 S 
ATOM     81  O   UNL A   1      35.505  29.994  29.064  1.00  0.00    -0.237 OA
ATOM     82  O   UNL A   1      36.121  29.775  31.449  1.00  0.00    -0.237 OA
ATOM     83  O   UNL A   1      36.336  31.952  30.318  1.00  0.00    -0.744 OA
ENDBRANCH  79  80
ENDBRANCH  51  74
BRANCH  63  84
ATOM     84  C   UNL A   1      46.709  32.592  28.769  1.00  0.00    -0.014 A 
ATOM     85  C   UNL A   1      46.636  33.637  27.830  1.00  0.00     0.010 A 
ATOM     86  C   UNL A   1      47.126  32.879  30.081  1.00  0.00     0.010 A 
ATOM     87  C   UNL A   1      46.997  34.938  28.190  1.00  0.00     0.020 A 
ATOM     88  C   UNL A   1      47.464  34.183  30.453  1.00  0.00     0.020 A 
ATOM     89  C   UNL A   1      47.409  35.202  29.500  1.00  0.00     0.054 A 
BRANCH  89  90
ATOM     90  S   UNL A   1      47.829  36.908  29.957  1.00  0.00     0.124 S 
ATOM     91  O   UNL A   1      47.887  36.829  31.413  1.00  0.00    -0.237 OA
ATOM     92  O   UNL A   1      49.111  37.114  29.287  1.00  0.00    -0.237 OA
ATOM     93  O   UNL A   1      46.720  37.693  29.418  1.00  0.00    -0.744 OA
ENDBRANCH  89  90
ENDBRANCH  63  84
ENDBRANCH  37  38
ENDBRANCH  30  32
ENDBRANCH  29  30
ENDBRANCH  28  29
ENDBRANCH  27  28
ENDBRANCH   1  27
TORSDOF 23
ENDMDL
MODEL 3
REMARK VINA RESULT:      -9.7      6.416     11.808
REMARK SMILES CC(C)[C@@H]([NH3+])C(=O)N[C@@H](Cc1ccccc1)C(=O)OCCOCCOC(=O)c1ccc(-c2c3nc(c(-c4ccc(S(=O)(=O)[O-])cc4)c4ccc([nH]4)c(-c4ccc(S(=O)(=O)[O-])cc4)c4nc(c(-c5ccc(S(=O)(=O)[O-])cc5)c5ccc2[nH]5)C=C4)C=C3)cc1
REMARK SMILES IDX 22 1 21 2 20 3 19 4 17 5 18 6 9 7 8 8 6 9 7 10 4 12 2 13
REMARK SMILES IDX 1 14 3 15 5 16 10 20 11 21 12 22 16 23 13 24 15 25 14 26
REMARK SMILES IDX 23 27 24 28 25 29 26 30 27 31 28 32 29 33 87 34 30 35 86 36
REMARK SMILES IDX 31 37 32 38 33 39 80 40 34 41 85 42 79 43 81 44 35 45 84 46
REMARK SMILES IDX 78 47 77 48 36 50 66 51 47 52 65 53 48 54 51 55 64 56 82 57
REMARK SMILES IDX 49 58 50 59 63 61 83 62 52 63 37 64 38 65 46 66 39 67 45 68
REMARK SMILES IDX 40 69 41 70 42 71 43 72 44 73 67 74 68 75 76 76 69 77 75 78
REMARK SMILES IDX 70 79 71 80 72 81 73 82 74 83 53 84 54 85 62 86 55 87 61 88
REMARK SMILES IDX 56 89 57 90 58 91 59 92 60 93
REMARK H PARENT 8 11 5 17 5 18 5 19 81 49 51 60
REMARK Flexibility Score: inf
ROOT
ATOM      1  O   UNL A   1      33.430  30.824  27.407  1.00  0.00    -0.374 OA
ENDROOT
BRANCH   1   2
ATOM      2  C   UNL A   1      33.665  29.545  26.818  1.00  0.00     0.202 C 
BRANCH   2   3
ATOM      3  C   UNL A   1      32.452  28.626  26.663  1.00  0.00     0.261 C 
BRANCH   3   4
ATOM      4  O   UNL A   1      32.807  27.263  26.933  1.00  0.00    -0.462 OA
BRANCH   4   5
ATOM      5  C   UNL A   1      31.966  26.333  26.403  1.00  0.00     0.329 C 
ATOM      6  O   UNL A   1      30.786  26.194  26.711  1.00  0.00    -0.250 OA
BRANCH   5   7
ATOM      7  C   UNL A   1      32.662  25.429  25.379  1.00  0.00     0.196 C 
BRANCH   7   8
ATOM      8  N   UNL A   1      32.326  25.652  23.964  1.00  0.00    -0.337 N 
ATOM      9  C   UNL A   1      31.858  24.791  23.018  1.00  0.00     0.279 C 
ATOM     10  O   UNL A   1      31.821  25.191  21.850  1.00  0.00    -0.268 OA
ATOM     11  H   UNL A   1      32.462  26.575  23.649  1.00  0.00     0.164 HD
BRANCH   9  12
ATOM     12  C   UNL A   1      31.246  23.405  23.375  1.00  0.00     0.273 C 
BRANCH  12  13
ATOM     13  C   UNL A   1      32.230  22.221  23.528  1.00  0.00     0.051 C 
ATOM     14  C   UNL A   1      32.059  21.490  24.870  1.00  0.00     0.014 C 
ATOM     15  C   UNL A   1      32.060  21.213  22.388  1.00  0.00     0.014 C 
ENDBRANCH  12  13
BRANCH  12  16
ATOM     16  N   UNL A   1      30.379  23.605  24.560  1.00  0.00    -0.347 N 
ATOM     17  H   UNL A   1      30.891  23.348  25.405  1.00  0.00     0.345 HD
ATOM     18  H   UNL A   1      29.548  23.020  24.476  1.00  0.00     0.345 HD
ATOM     19  H   UNL A   1      30.101  24.585  24.617  1.00  0.00     0.345 HD
ENDBRANCH  12  16
ENDBRANCH   9  12
ENDBRANCH   7   8
BRANCH   7  20
ATOM     20  C   UNL A   1      34.188  25.538  25.581  1.00  0.00     0.072 C 
BRANCH  20  21
ATOM     21  C   UNL A   1      34.921  24.235  25.319  1.00  0.00    -0.045 A 
ATOM     22  C   UNL A   1      35.454  23.978  24.049  1.00  0.00     0.004 A 
ATOM     23  C   UNL A   1      35.015  23.242  26.305  1.00  0.00     0.004 A 
ATOM     24  C   UNL A   1      36.040  22.744  23.761  1.00  0.00     0.000 A 
ATOM     25  C   UNL A   1      35.582  22.001  26.008  1.00  0.00     0.000 A 
ATOM     26  C   UNL A   1      36.093  21.752  24.736  1.00  0.00     0.000 A 
ENDBRANCH  20  21
ENDBRANCH   7  20
ENDBRANCH   5   7
ENDBRANCH   4   5
ENDBRANCH   3   4
ENDBRANCH   2   3
ENDBRANCH   1   2
BRANCH   1  27
ATOM     27  C   UNL A   1      32.238  31.516  27.035  1.00  0.00     0.202 C 
BRANCH  27  28
ATOM     28  C   UNL A   1      32.248  33.049  27.122  1.00  0.00     0.261 C 
BRANCH  28  29
ATOM     29  O   UNL A   1      33.520  33.597  27.512  1.00  0.00    -0.460 OA
BRANCH  29  30
ATOM     30  C   UNL A   1      33.478  34.398  28.606  1.00  0.00     0.338 C 
ATOM     31  O   UNL A   1      32.611  35.211  28.897  1.00  0.00    -0.246 OA
BRANCH  30  32
ATOM     32  C   UNL A   1      34.565  34.049  29.536  1.00  0.00     0.060 A 
ATOM     33  C   UNL A   1      35.876  34.367  29.157  1.00  0.00     0.016 A 
ATOM     34  C   UNL A   1      34.318  33.334  30.708  1.00  0.00     0.016 A 
ATOM     35  C   UNL A   1      36.950  33.952  29.943  1.00  0.00     0.010 A 
ATOM     36  C   UNL A   1      35.399  32.905  31.487  1.00  0.00     0.010 A 
ATOM     37  C   UNL A   1      36.719  33.193  31.098  1.00  0.00    -0.014 A 
BRANCH  37  38
ATOM     38  C   UNL A   1      37.867  32.623  31.844  1.00  0.00     0.031 A 
ATOM     39  C   UNL A   1      38.618  31.454  31.268  1.00  0.00     0.074 A 
ATOM     40  C   UNL A   1      38.245  33.158  33.018  1.00  0.00     0.049 A 
ATOM     41  N   UNL A   1      39.623  30.788  31.774  1.00  0.00    -0.248 NA
ATOM     42  C   UNL A   1      38.180  30.975  29.947  1.00  0.00     0.031 C 
ATOM     43  C   UNL A   1      37.628  34.322  33.655  1.00  0.00     0.029 A 
ATOM     44  N   UNL A   1      39.241  32.787  33.886  1.00  0.00    -0.354 N 
ATOM     45  C   UNL A   1      39.938  29.809  30.839  1.00  0.00     0.074 A 
ATOM     46  C   UNL A   1      39.002  29.955  29.743  1.00  0.00     0.031 C 
ATOM     47  C   UNL A   1      38.255  34.564  34.819  1.00  0.00     0.029 A 
ATOM     48  C   UNL A   1      39.289  33.551  35.027  1.00  0.00     0.049 A 
ATOM     49  H   UNL A   1      39.861  32.044  33.709  1.00  0.00     0.167 HD
ATOM     50  C   UNL A   1      40.917  28.874  30.888  1.00  0.00     0.031 A 
ATOM     51  C   UNL A   1      40.062  33.434  36.126  1.00  0.00     0.031 A 
ATOM     52  C   UNL A   1      41.832  28.716  31.988  1.00  0.00     0.049 A 
ATOM     53  C   UNL A   1      41.080  32.328  36.197  1.00  0.00     0.074 A 
ATOM     54  C   UNL A   1      42.869  27.808  32.123  1.00  0.00     0.029 A 
ATOM     55  N   UNL A   1      41.812  29.475  33.149  1.00  0.00    -0.354 N 
ATOM     56  N   UNL A   1      41.383  31.425  35.294  1.00  0.00    -0.248 NA
ATOM     57  C   UNL A   1      41.861  32.224  37.438  1.00  0.00     0.031 C 
ATOM     58  C   UNL A   1      43.438  27.981  33.390  1.00  0.00     0.029 A 
ATOM     59  C   UNL A   1      42.792  29.032  34.020  1.00  0.00     0.049 A 
ATOM     60  H   UNL A   1      41.192  30.219  33.326  1.00  0.00     0.167 HD
ATOM     61  C   UNL A   1      42.396  30.654  35.853  1.00  0.00     0.074 A 
ATOM     62  C   UNL A   1      42.671  31.209  37.163  1.00  0.00     0.031 C 
ATOM     63  C   UNL A   1      43.043  29.584  35.328  1.00  0.00     0.031 A 
BRANCH  50  64
ATOM     64  C   UNL A   1      41.023  27.918  29.730  1.00  0.00    -0.014 A 
ATOM     65  C   UNL A   1      42.064  28.025  28.790  1.00  0.00     0.010 A 
ATOM     66  C   UNL A   1      40.089  26.874  29.602  1.00  0.00     0.010 A 
ATOM     67  C   UNL A   1      42.147  27.126  27.722  1.00  0.00     0.020 A 
ATOM     68  C   UNL A   1      40.181  25.960  28.548  1.00  0.00     0.020 A 
ATOM     69  C   UNL A   1      41.201  26.102  27.606  1.00  0.00     0.054 A 
BRANCH  69  70
ATOM     70  S   UNL A   1      41.342  24.939  26.221  1.00  0.00     0.124 S 
ATOM     71  O   UNL A   1      40.089  24.194  26.325  1.00  0.00    -0.237 OA
ATOM     72  O   UNL A   1      41.449  25.827  25.066  1.00  0.00    -0.237 OA
ATOM     73  O   UNL A   1      42.548  24.175  26.529  1.00  0.00    -0.744 OA
ENDBRANCH  69  70
ENDBRANCH  50  64
BRANCH  51  74
ATOM     74  C   UNL A   1      39.872  34.370  37.266  1.00  0.00    -0.014 A 
ATOM     75  C   UNL A   1      39.120  33.989  38.390  1.00  0.00     0.010 A 
ATOM     76  C   UNL A   1      40.455  35.650  37.233  1.00  0.00     0.010 A 
ATOM     77  C   UNL A   1      38.947  34.876  39.458  1.00  0.00     0.020 A 
ATOM     78  C   UNL A   1      40.306  36.529  38.309  1.00  0.00     0.020 A 
ATOM     79  C   UNL A   1      39.544  36.139  39.411  1.00  0.00     0.054 A 
BRANCH  79  80
ATOM     80  S   UNL A   1      39.362  37.250  40.834  1.00  0.00     0.124 S 
ATOM     81  O   UNL A   1      38.516  38.306  40.288  1.00  0.00    -0.237 OA
ATOM     82  O   UNL A   1      38.733  36.386  41.830  1.00  0.00    -0.237 OA
ATOM     83  O   UNL A   1      40.737  37.640  41.139  1.00  0.00    -0.744 OA
ENDBRANCH  79  80
ENDBRANCH  51  74
BRANCH  63  84
ATOM     84  C   UNL A   1      44.117  28.944  36.167  1.00  0.00    -0.014 A 
ATOM     85  C   UNL A   1      45.429  29.451  36.173  1.00  0.00     0.010 A 
ATOM     86  C   UNL A   1      43.799  27.857  37.001  1.00  0.00     0.010 A 
ATOM     87  C   UNL A   1      46.409  28.866  36.979  1.00  0.00     0.020 A 
ATOM     88  C   UNL A   1      44.769  27.286  37.828  1.00  0.00     0.020 A 
ATOM     89  C   UNL A   1      46.072  27.786  37.802  1.00  0.00     0.054 A 
BRANCH  89  90
ATOM     90  S   UNL A   1      47.351  27.073  38.874  1.00  0.00     0.124 S 
ATOM     91  O   UNL A   1      47.137  25.641  38.693  1.00  0.00    -0.237 OA
ATOM     92  O   UNL A   1      48.585  27.602  38.298  1.00  0.00    -0.237 OA
ATOM     93  O   UNL A   1      47.020  27.591  40.199  1.00  0.00    -0.744 OA
ENDBRANCH  89  90
ENDBRANCH  63  84
ENDBRANCH  37  38
ENDBRANCH  30  32
ENDBRANCH  29  30
ENDBRANCH  28  29
ENDBRANCH  27  28
ENDBRANCH   1  27
TORSDOF 23
ENDMDL
