MODEL 1
REMARK VINA RESULT:     -12.4      0.000      0.000
REMARK SMILES COc1ccccc1[C@@H]1C[N@@H+](Cc2cn3cc(C)ccc3n2)C[C@H]1C(=O)OCCOCCOC(=O)c1ccc(-c2c3nc(c(-c4ccc(S(=O)(=O)[O-])cc4)c4ccc([nH]4)c(-c4ccc(S(=O)(=O)[O-])cc4)c4nc(c(-c5ccc(S(=O)(=O)[O-])cc5)c5ccc2[nH]5)C=C4)C=C3)cc1
REMARK SMILES IDX 31 1 30 2 29 3 28 4 27 5 25 6 26 7 24 8 9 9 10 10 11 11
REMARK SMILES IDX 23 12 8 14 3 15 4 16 5 17 7 18 6 19 2 20 1 21 12 22 13 23
REMARK SMILES IDX 14 24 22 25 15 26 21 27 16 28 20 29 17 30 19 31 18 32 32 33
REMARK SMILES IDX 33 34 34 35 35 36 36 37 37 38 95 39 38 40 94 41 39 42 40 43
REMARK SMILES IDX 41 44 88 45 42 46 93 47 87 48 89 49 43 50 92 51 86 52 85 53
REMARK SMILES IDX 44 55 74 56 55 57 73 58 56 59 59 60 72 61 90 62 57 63 58 64
REMARK SMILES IDX 71 66 91 67 60 68 45 69 46 70 54 71 47 72 53 73 48 74 49 75
REMARK SMILES IDX 50 76 51 77 52 78 75 79 76 80 84 81 77 82 83 83 78 84 79 85
REMARK SMILES IDX 80 86 81 87 82 88 61 89 62 90 70 91 63 92 69 93 64 94 65 95
REMARK SMILES IDX 66 96 67 97 68 98
REMARK H PARENT 11 13 89 54 59 65
REMARK Flexibility Score: inf
ROOT
ATOM      1  C   UNL A   1      37.307  21.464  25.606  1.00  0.00     0.202 C 
ENDROOT
BRANCH   1   2
ATOM      2  O   UNL A   1      36.783  22.254  24.538  1.00  0.00    -0.374 OA
BRANCH   2   3
ATOM      3  C   UNL A   1      36.634  23.641  24.835  1.00  0.00     0.202 C 
BRANCH   3   4
ATOM      4  C   UNL A   1      35.268  24.212  24.444  1.00  0.00     0.261 C 
BRANCH   4   5
ATOM      5  O   UNL A   1      34.791  25.213  25.374  1.00  0.00    -0.463 OA
BRANCH   5   6
ATOM      6  C   UNL A   1      33.843  26.060  24.906  1.00  0.00     0.315 C 
ATOM      7  O   UNL A   1      34.054  26.922  24.055  1.00  0.00    -0.252 OA
BRANCH   6   8
ATOM      8  C   UNL A   1      32.498  25.978  25.602  1.00  0.00     0.167 C 
ATOM      9  C   UNL A   1      31.170  26.035  24.847  1.00  0.00     0.098 C 
ATOM     10  C   UNL A   1      30.209  25.246  25.756  1.00  0.00     0.272 C 
ATOM     11  N   UNL A   1      31.019  24.296  26.541  1.00  0.00    -0.329 N 
ATOM     12  C   UNL A   1      32.430  24.686  26.417  1.00  0.00     0.278 C 
ATOM     13  H   UNL A   1      30.711  24.373  27.511  1.00  0.00     0.348 HD
BRANCH   9  14
ATOM     14  C   UNL A   1      30.579  27.350  24.336  1.00  0.00     0.004 A 
ATOM     15  C   UNL A   1      30.974  28.664  24.631  1.00  0.00     0.122 A 
ATOM     16  C   UNL A   1      30.338  29.762  24.009  1.00  0.00     0.047 A 
ATOM     17  C   UNL A   1      29.238  29.592  23.170  1.00  0.00     0.004 A 
ATOM     18  C   UNL A   1      29.400  27.234  23.561  1.00  0.00     0.008 A 
ATOM     19  C   UNL A   1      28.733  28.320  22.988  1.00  0.00     0.001 A 
BRANCH  15  20
ATOM     20  O   UNL A   1      31.682  29.019  25.751  1.00  0.00    -0.496 OA
ATOM     21  C   UNL A   1      32.881  29.738  25.545  1.00  0.00     0.278 C 
ENDBRANCH  15  20
ENDBRANCH   9  14
BRANCH  11  22
ATOM     22  C   UNL A   1      30.779  22.852  26.291  1.00  0.00     0.321 C 
BRANCH  22  23
ATOM     23  C   UNL A   1      31.871  22.203  25.495  1.00  0.00     0.114 A 
ATOM     24  C   UNL A   1      32.846  21.327  25.948  1.00  0.00     0.122 A 
ATOM     25  N   UNL A   1      31.830  22.201  24.122  1.00  0.00    -0.228 NA
ATOM     26  N   UNL A   1      33.007  20.464  24.889  1.00  0.00    -0.306 N 
ATOM     27  C   UNL A   1      32.388  21.057  23.798  1.00  0.00     0.137 A 
ATOM     28  C   UNL A   1      33.406  19.131  24.923  1.00  0.00     0.096 A 
ATOM     29  C   UNL A   1      32.127  20.235  22.677  1.00  0.00     0.048 A 
ATOM     30  C   UNL A   1      33.033  18.324  23.915  1.00  0.00    -0.034 A 
ATOM     31  C   UNL A   1      32.336  18.914  22.780  1.00  0.00     0.009 A 
ATOM     32  C   UNL A   1      33.231  16.849  23.908  1.00  0.00     0.046 C 
ENDBRANCH  22  23
ENDBRANCH  11  22
ENDBRANCH   6   8
ENDBRANCH   5   6
ENDBRANCH   4   5
ENDBRANCH   3   4
ENDBRANCH   2   3
ENDBRANCH   1   2
BRANCH   1  33
ATOM     33  C   UNL A   1      38.829  21.531  25.726  1.00  0.00     0.261 C 
BRANCH  33  34
ATOM     34  O   UNL A   1      39.244  22.390  26.799  1.00  0.00    -0.460 OA
BRANCH  34  35
ATOM     35  C   UNL A   1      40.444  22.151  27.402  1.00  0.00     0.338 C 
ATOM     36  O   UNL A   1      40.765  21.172  28.053  1.00  0.00    -0.246 OA
BRANCH  35  37
ATOM     37  C   UNL A   1      41.180  23.438  27.353  1.00  0.00     0.060 A 
ATOM     38  C   UNL A   1      42.048  23.753  28.397  1.00  0.00     0.016 A 
ATOM     39  C   UNL A   1      40.717  24.443  26.517  1.00  0.00     0.016 A 
ATOM     40  C   UNL A   1      42.145  25.083  28.817  1.00  0.00     0.010 A 
ATOM     41  C   UNL A   1      40.788  25.752  26.959  1.00  0.00     0.010 A 
ATOM     42  C   UNL A   1      41.368  26.057  28.193  1.00  0.00    -0.014 A 
BRANCH  42  43
ATOM     43  C   UNL A   1      41.205  27.416  28.725  1.00  0.00     0.031 A 
ATOM     44  C   UNL A   1      42.194  28.383  28.205  1.00  0.00     0.074 A 
ATOM     45  C   UNL A   1      40.200  27.904  29.491  1.00  0.00     0.049 A 
ATOM     46  N   UNL A   1      43.380  28.541  28.684  1.00  0.00    -0.248 NA
ATOM     47  C   UNL A   1      41.950  29.119  26.956  1.00  0.00     0.031 C 
ATOM     48  C   UNL A   1      38.935  27.282  29.894  1.00  0.00     0.029 A 
ATOM     49  N   UNL A   1      40.077  29.171  29.999  1.00  0.00    -0.354 N 
ATOM     50  C   UNL A   1      43.928  29.590  27.970  1.00  0.00     0.074 A 
ATOM     51  C   UNL A   1      43.137  29.702  26.769  1.00  0.00     0.031 C 
ATOM     52  C   UNL A   1      38.099  28.230  30.396  1.00  0.00     0.029 A 
ATOM     53  C   UNL A   1      38.828  29.483  30.531  1.00  0.00     0.049 A 
ATOM     54  H   UNL A   1      40.820  29.815  29.987  1.00  0.00     0.167 HD
ATOM     55  C   UNL A   1      44.787  30.469  28.554  1.00  0.00     0.031 A 
ATOM     56  C   UNL A   1      38.448  30.675  31.068  1.00  0.00     0.031 A 
ATOM     57  C   UNL A   1      45.070  30.098  29.925  1.00  0.00     0.049 A 
ATOM     58  C   UNL A   1      39.688  31.323  31.566  1.00  0.00     0.074 A 
ATOM     59  C   UNL A   1      45.541  28.959  30.549  1.00  0.00     0.029 A 
ATOM     60  N   UNL A   1      44.428  30.827  30.904  1.00  0.00    -0.354 N 
ATOM     61  N   UNL A   1      40.385  30.842  32.556  1.00  0.00    -0.248 NA
ATOM     62  C   UNL A   1      40.388  32.274  30.719  1.00  0.00     0.031 C 
ATOM     63  C   UNL A   1      44.750  28.831  31.730  1.00  0.00     0.029 A 
ATOM     64  C   UNL A   1      43.906  29.941  31.814  1.00  0.00     0.049 A 
ATOM     65  H   UNL A   1      44.357  31.808  30.944  1.00  0.00     0.167 HD
ATOM     66  C   UNL A   1      41.703  31.038  32.177  1.00  0.00     0.074 A 
ATOM     67  C   UNL A   1      41.643  32.041  31.117  1.00  0.00     0.031 C 
ATOM     68  C   UNL A   1      42.676  30.154  32.552  1.00  0.00     0.031 A 
BRANCH  55  69
ATOM     69  C   UNL A   1      45.060  31.860  28.057  1.00  0.00    -0.014 A 
ATOM     70  C   UNL A   1      46.378  32.181  27.675  1.00  0.00     0.010 A 
ATOM     71  C   UNL A   1      44.139  32.922  28.152  1.00  0.00     0.010 A 
ATOM     72  C   UNL A   1      46.766  33.504  27.452  1.00  0.00     0.020 A 
ATOM     73  C   UNL A   1      44.505  34.243  27.884  1.00  0.00     0.020 A 
ATOM     74  C   UNL A   1      45.826  34.527  27.566  1.00  0.00     0.054 A 
BRANCH  74  75
ATOM     75  S   UNL A   1      46.361  36.241  27.351  1.00  0.00     0.124 S 
ATOM     76  O   UNL A   1      46.697  36.271  25.931  1.00  0.00    -0.237 OA
ATOM     77  O   UNL A   1      45.168  36.988  27.738  1.00  0.00    -0.237 OA
ATOM     78  O   UNL A   1      47.493  36.362  28.267  1.00  0.00    -0.744 OA
ENDBRANCH  74  75
ENDBRANCH  55  69
BRANCH  56  79
ATOM     79  C   UNL A   1      37.142  31.387  31.087  1.00  0.00    -0.014 A 
ATOM     80  C   UNL A   1      36.285  31.298  32.207  1.00  0.00     0.010 A 
ATOM     81  C   UNL A   1      36.887  32.414  30.158  1.00  0.00     0.010 A 
ATOM     82  C   UNL A   1      35.282  32.256  32.441  1.00  0.00     0.020 A 
ATOM     83  C   UNL A   1      35.882  33.369  30.381  1.00  0.00     0.020 A 
ATOM     84  C   UNL A   1      35.107  33.307  31.539  1.00  0.00     0.054 A 
BRANCH  84  85
ATOM     85  S   UNL A   1      33.982  34.674  31.965  1.00  0.00     0.124 S 
ATOM     86  O   UNL A   1      33.128  34.072  32.984  1.00  0.00    -0.237 OA
ATOM     87  O   UNL A   1      34.899  35.707  32.438  1.00  0.00    -0.237 OA
ATOM     88  O   UNL A   1      33.319  34.977  30.697  1.00  0.00    -0.744 OA
ENDBRANCH  84  85
ENDBRANCH  56  79
BRANCH  68  89
ATOM     89  C   UNL A   1      42.361  29.150  33.647  1.00  0.00    -0.014 A 
ATOM     90  C   UNL A   1      41.756  27.898  33.419  1.00  0.00     0.010 A 
ATOM     91  C   UNL A   1      42.823  29.435  34.944  1.00  0.00     0.010 A 
ATOM     92  C   UNL A   1      41.592  26.972  34.460  1.00  0.00     0.020 A 
ATOM     93  C   UNL A   1      42.686  28.509  35.982  1.00  0.00     0.020 A 
ATOM     94  C   UNL A   1      42.061  27.285  35.739  1.00  0.00     0.054 A 
BRANCH  94  95
ATOM     95  S   UNL A   1      41.898  26.063  37.070  1.00  0.00     0.124 S 
ATOM     96  O   UNL A   1      42.948  26.468  38.001  1.00  0.00    -0.237 OA
ATOM     97  O   UNL A   1      40.529  26.273  37.536  1.00  0.00    -0.237 OA
ATOM     98  O   UNL A   1      42.125  24.784  36.398  1.00  0.00    -0.744 OA
ENDBRANCH  94  95
ENDBRANCH  68  89
ENDBRANCH  42  43
ENDBRANCH  35  37
ENDBRANCH  34  35
ENDBRANCH  33  34
ENDBRANCH   1  33
TORSDOF 21
ENDMDL
MODEL 2
REMARK VINA RESULT:     -11.8      1.280      4.144
REMARK SMILES COc1ccccc1[C@@H]1C[N@@H+](Cc2cn3cc(C)ccc3n2)C[C@H]1C(=O)OCCOCCOC(=O)c1ccc(-c2c3nc(c(-c4ccc(S(=O)(=O)[O-])cc4)c4ccc([nH]4)c(-c4ccc(S(=O)(=O)[O-])cc4)c4nc(c(-c5ccc(S(=O)(=O)[O-])cc5)c5ccc2[nH]5)C=C4)C=C3)cc1
REMARK SMILES IDX 31 1 30 2 29 3 28 4 27 5 25 6 26 7 24 8 9 9 10 10 11 11
REMARK SMILES IDX 23 12 8 14 3 15 4 16 5 17 7 18 6 19 2 20 1 21 12 22 13 23
REMARK SMILES IDX 14 24 22 25 15 26 21 27 16 28 20 29 17 30 19 31 18 32 32 33
REMARK SMILES IDX 33 34 34 35 35 36 36 37 37 38 95 39 38 40 94 41 39 42 40 43
REMARK SMILES IDX 41 44 88 45 42 46 93 47 87 48 89 49 43 50 92 51 86 52 85 53
REMARK SMILES IDX 44 55 74 56 55 57 73 58 56 59 59 60 72 61 90 62 57 63 58 64
REMARK SMILES IDX 71 66 91 67 60 68 45 69 46 70 54 71 47 72 53 73 48 74 49 75
REMARK SMILES IDX 50 76 51 77 52 78 75 79 76 80 84 81 77 82 83 83 78 84 79 85
REMARK SMILES IDX 80 86 81 87 82 88 61 89 62 90 70 91 63 92 69 93 64 94 65 95
REMARK SMILES IDX 66 96 67 97 68 98
REMARK H PARENT 11 13 89 54 59 65
REMARK Flexibility Score: inf
ROOT
ATOM      1  C   UNL A   1      37.834  23.258  26.231  1.00  0.00     0.202 C 
ENDROOT
BRANCH   1   2
ATOM      2  O   UNL A   1      36.953  23.365  25.113  1.00  0.00    -0.374 OA
BRANCH   2   3
ATOM      3  C   UNL A   1      35.704  23.997  25.391  1.00  0.00     0.202 C 
BRANCH   3   4
ATOM      4  C   UNL A   1      34.951  24.452  24.137  1.00  0.00     0.261 C 
BRANCH   4   5
ATOM      5  O   UNL A   1      34.647  23.359  23.238  1.00  0.00    -0.463 OA
BRANCH   5   6
ATOM      6  C   UNL A   1      33.436  23.401  22.634  1.00  0.00     0.315 C 
ATOM      7  O   UNL A   1      33.200  24.052  21.617  1.00  0.00    -0.252 OA
BRANCH   6   8
ATOM      8  C   UNL A   1      32.317  22.691  23.371  1.00  0.00     0.167 C 
ATOM      9  C   UNL A   1      32.573  21.669  24.479  1.00  0.00     0.098 C 
ATOM     10  C   UNL A   1      31.308  21.766  25.352  1.00  0.00     0.272 C 
ATOM     11  N   UNL A   1      30.748  23.119  25.174  1.00  0.00    -0.329 N 
ATOM     12  C   UNL A   1      31.390  23.730  24.003  1.00  0.00     0.278 C 
ATOM     13  H   UNL A   1      29.747  23.007  25.015  1.00  0.00     0.348 HD
BRANCH   9  14
ATOM     14  C   UNL A   1      32.992  20.229  24.177  1.00  0.00     0.004 A 
ATOM     15  C   UNL A   1      34.062  19.494  24.711  1.00  0.00     0.122 A 
ATOM     16  C   UNL A   1      34.257  18.142  24.351  1.00  0.00     0.047 A 
ATOM     17  C   UNL A   1      33.468  17.522  23.382  1.00  0.00     0.004 A 
ATOM     18  C   UNL A   1      32.286  19.590  23.130  1.00  0.00     0.008 A 
ATOM     19  C   UNL A   1      32.509  18.271  22.728  1.00  0.00     0.001 A 
BRANCH  15  20
ATOM     20  O   UNL A   1      35.173  20.062  25.280  1.00  0.00    -0.496 OA
ATOM     21  C   UNL A   1      36.429  19.607  24.817  1.00  0.00     0.278 C 
ENDBRANCH  15  20
ENDBRANCH   9  14
BRANCH  11  22
ATOM     22  C   UNL A   1      30.740  23.998  26.371  1.00  0.00     0.321 C 
BRANCH  22  23
ATOM     23  C   UNL A   1      30.932  25.447  26.039  1.00  0.00     0.114 A 
ATOM     24  C   UNL A   1      32.088  26.201  26.166  1.00  0.00     0.122 A 
ATOM     25  N   UNL A   1      30.006  26.119  25.278  1.00  0.00    -0.228 NA
ATOM     26  N   UNL A   1      32.028  27.051  25.086  1.00  0.00    -0.306 N 
ATOM     27  C   UNL A   1      30.731  26.977  24.598  1.00  0.00     0.137 A 
ATOM     28  C   UNL A   1      33.086  27.630  24.391  1.00  0.00     0.096 A 
ATOM     29  C   UNL A   1      30.497  27.499  23.304  1.00  0.00     0.048 A 
ATOM     30  C   UNL A   1      32.889  27.997  23.113  1.00  0.00    -0.034 A 
ATOM     31  C   UNL A   1      31.546  27.882  22.561  1.00  0.00     0.009 A 
ATOM     32  C   UNL A   1      33.970  28.457  22.200  1.00  0.00     0.046 C 
ENDBRANCH  22  23
ENDBRANCH  11  22
ENDBRANCH   6   8
ENDBRANCH   5   6
ENDBRANCH   4   5
ENDBRANCH   3   4
ENDBRANCH   2   3
ENDBRANCH   1   2
BRANCH   1  33
ATOM     33  C   UNL A   1      38.824  22.098  26.120  1.00  0.00     0.261 C 
BRANCH  33  34
ATOM     34  O   UNL A   1      40.185  22.555  26.119  1.00  0.00    -0.460 OA
BRANCH  34  35
ATOM     35  C   UNL A   1      40.868  22.578  27.300  1.00  0.00     0.338 C 
ATOM     36  O   UNL A   1      40.750  21.810  28.239  1.00  0.00    -0.246 OA
BRANCH  35  37
ATOM     37  C   UNL A   1      41.573  23.882  27.330  1.00  0.00     0.060 A 
ATOM     38  C   UNL A   1      42.444  24.148  28.386  1.00  0.00     0.016 A 
ATOM     39  C   UNL A   1      41.079  24.928  26.566  1.00  0.00     0.016 A 
ATOM     40  C   UNL A   1      42.514  25.449  28.892  1.00  0.00     0.010 A 
ATOM     41  C   UNL A   1      41.124  26.207  27.093  1.00  0.00     0.010 A 
ATOM     42  C   UNL A   1      41.707  26.444  28.340  1.00  0.00    -0.014 A 
BRANCH  42  43
ATOM     43  C   UNL A   1      41.518  27.760  28.962  1.00  0.00     0.031 A 
ATOM     44  C   UNL A   1      42.535  28.758  28.570  1.00  0.00     0.074 A 
ATOM     45  C   UNL A   1      40.473  28.195  29.707  1.00  0.00     0.049 A 
ATOM     46  N   UNL A   1      43.694  28.874  29.123  1.00  0.00    -0.248 NA
ATOM     47  C   UNL A   1      42.360  29.585  27.368  1.00  0.00     0.031 C 
ATOM     48  C   UNL A   1      39.188  27.552  29.993  1.00  0.00     0.029 A 
ATOM     49  N   UNL A   1      40.325  29.421  30.300  1.00  0.00    -0.354 N 
ATOM     50  C   UNL A   1      44.281  29.970  28.519  1.00  0.00     0.074 A 
ATOM     51  C   UNL A   1      43.556  30.175  27.290  1.00  0.00     0.031 C 
ATOM     52  C   UNL A   1      38.327  28.464  30.519  1.00  0.00     0.029 A 
ATOM     53  C   UNL A   1      39.049  29.700  30.786  1.00  0.00     0.049 A 
ATOM     54  H   UNL A   1      41.068  30.061  30.377  1.00  0.00     0.167 HD
ATOM     55  C   UNL A   1      45.108  30.798  29.213  1.00  0.00     0.031 A 
ATOM     56  C   UNL A   1      38.642  30.851  31.389  1.00  0.00     0.031 A 
ATOM     57  C   UNL A   1      45.315  30.325  30.565  1.00  0.00     0.049 A 
ATOM     58  C   UNL A   1      39.853  31.453  32.000  1.00  0.00     0.074 A 
ATOM     59  C   UNL A   1      45.750  29.140  31.128  1.00  0.00     0.029 A 
ATOM     60  N   UNL A   1      44.622  30.983  31.560  1.00  0.00    -0.354 N 
ATOM     61  N   UNL A   1      40.496  30.897  32.988  1.00  0.00    -0.248 NA
ATOM     62  C   UNL A   1      40.600  32.461  31.266  1.00  0.00     0.031 C 
ATOM     63  C   UNL A   1      44.896  28.930  32.251  1.00  0.00     0.029 A 
ATOM     64  C   UNL A   1      44.050  30.034  32.372  1.00  0.00     0.049 A 
ATOM     65  H   UNL A   1      44.550  31.959  31.669  1.00  0.00     0.167 HD
ATOM     66  C   UNL A   1      41.833  31.113  32.696  1.00  0.00     0.074 A 
ATOM     67  C   UNL A   1      41.831  32.193  31.712  1.00  0.00     0.031 C 
ATOM     68  C   UNL A   1      42.783  30.198  33.056  1.00  0.00     0.031 A 
BRANCH  55  69
ATOM     69  C   UNL A   1      45.409  32.221  28.836  1.00  0.00    -0.014 A 
ATOM     70  C   UNL A   1      44.351  33.151  28.860  1.00  0.00     0.010 A 
ATOM     71  C   UNL A   1      46.622  32.638  28.252  1.00  0.00     0.010 A 
ATOM     72  C   UNL A   1      44.484  34.416  28.282  1.00  0.00     0.020 A 
ATOM     73  C   UNL A   1      46.781  33.917  27.715  1.00  0.00     0.020 A 
ATOM     74  C   UNL A   1      45.698  34.786  27.706  1.00  0.00     0.054 A 
BRANCH  74  75
ATOM     75  S   UNL A   1      45.832  36.395  26.893  1.00  0.00     0.124 S 
ATOM     76  O   UNL A   1      44.429  36.785  26.773  1.00  0.00    -0.237 OA
ATOM     77  O   UNL A   1      46.624  37.161  27.850  1.00  0.00    -0.237 OA
ATOM     78  O   UNL A   1      46.507  36.087  25.635  1.00  0.00    -0.744 OA
ENDBRANCH  74  75
ENDBRANCH  55  69
BRANCH  56  79
ATOM     79  C   UNL A   1      37.338  31.566  31.390  1.00  0.00    -0.014 A 
ATOM     80  C   UNL A   1      36.529  31.595  32.549  1.00  0.00     0.010 A 
ATOM     81  C   UNL A   1      37.044  32.495  30.374  1.00  0.00     0.010 A 
ATOM     82  C   UNL A   1      35.536  32.576  32.726  1.00  0.00     0.020 A 
ATOM     83  C   UNL A   1      36.048  33.471  30.540  1.00  0.00     0.020 A 
ATOM     84  C   UNL A   1      35.323  33.530  31.730  1.00  0.00     0.054 A 
BRANCH  84  85
ATOM     85  S   UNL A   1      34.217  34.938  32.062  1.00  0.00     0.124 S 
ATOM     86  O   UNL A   1      35.067  35.828  32.848  1.00  0.00    -0.237 OA
ATOM     87  O   UNL A   1      33.885  35.406  30.719  1.00  0.00    -0.237 OA
ATOM     88  O   UNL A   1      33.105  34.333  32.793  1.00  0.00    -0.744 OA
ENDBRANCH  84  85
ENDBRANCH  56  79
BRANCH  68  89
ATOM     89  C   UNL A   1      42.407  29.118  34.054  1.00  0.00    -0.014 A 
ATOM     90  C   UNL A   1      41.750  27.919  33.710  1.00  0.00     0.010 A 
ATOM     91  C   UNL A   1      42.862  29.266  35.377  1.00  0.00     0.010 A 
ATOM     92  C   UNL A   1      41.530  26.915  34.665  1.00  0.00     0.020 A 
ATOM     93  C   UNL A   1      42.669  28.260  36.328  1.00  0.00     0.020 A 
ATOM     94  C   UNL A   1      41.994  27.092  35.970  1.00  0.00     0.054 A 
BRANCH  94  95
ATOM     95  S   UNL A   1      41.757  25.767  37.187  1.00  0.00     0.124 S 
ATOM     96  O   UNL A   1      42.169  24.579  36.443  1.00  0.00    -0.237 OA
ATOM     97  O   UNL A   1      42.644  26.165  38.277  1.00  0.00    -0.237 OA
ATOM     98  O   UNL A   1      40.331  25.835  37.503  1.00  0.00    -0.744 OA
ENDBRANCH  94  95
ENDBRANCH  68  89
ENDBRANCH  42  43
ENDBRANCH  35  37
ENDBRANCH  34  35
ENDBRANCH  33  34
ENDBRANCH   1  33
TORSDOF 21
ENDMDL
MODEL 3
REMARK VINA RESULT:     -11.6      2.730      8.775
REMARK SMILES COc1ccccc1[C@@H]1C[N@@H+](Cc2cn3cc(C)ccc3n2)C[C@H]1C(=O)OCCOCCOC(=O)c1ccc(-c2c3nc(c(-c4ccc(S(=O)(=O)[O-])cc4)c4ccc([nH]4)c(-c4ccc(S(=O)(=O)[O-])cc4)c4nc(c(-c5ccc(S(=O)(=O)[O-])cc5)c5ccc2[nH]5)C=C4)C=C3)cc1
REMARK SMILES IDX 31 1 30 2 29 3 28 4 27 5 25 6 26 7 24 8 9 9 10 10 11 11
REMARK SMILES IDX 23 12 8 14 3 15 4 16 5 17 7 18 6 19 2 20 1 21 12 22 13 23
REMARK SMILES IDX 14 24 22 25 15 26 21 27 16 28 20 29 17 30 19 31 18 32 32 33
REMARK SMILES IDX 33 34 34 35 35 36 36 37 37 38 95 39 38 40 94 41 39 42 40 43
REMARK SMILES IDX 41 44 88 45 42 46 93 47 87 48 89 49 43 50 92 51 86 52 85 53
REMARK SMILES IDX 44 55 74 56 55 57 73 58 56 59 59 60 72 61 90 62 57 63 58 64
REMARK SMILES IDX 71 66 91 67 60 68 45 69 46 70 54 71 47 72 53 73 48 74 49 75
REMARK SMILES IDX 50 76 51 77 52 78 75 79 76 80 84 81 77 82 83 83 78 84 79 85
REMARK SMILES IDX 80 86 81 87 82 88 61 89 62 90 70 91 63 92 69 93 64 94 65 95
REMARK SMILES IDX 66 96 67 97 68 98
REMARK H PARENT 11 13 89 54 59 65
REMARK Flexibility Score: inf
ROOT
ATOM      1  C   UNL A   1      32.401  30.745  26.966  1.00  0.00     0.202 C 
ENDROOT
BRANCH   1   2
ATOM      2  O   UNL A   1      31.847  29.688  26.183  1.00  0.00    -0.374 OA
BRANCH   2   3
ATOM      3  C   UNL A   1      32.508  28.431  26.317  1.00  0.00     0.202 C 
BRANCH   3   4
ATOM      4  C   UNL A   1      31.767  27.438  27.217  1.00  0.00     0.261 C 
BRANCH   4   5
ATOM      5  O   UNL A   1      30.693  26.752  26.531  1.00  0.00    -0.463 OA
BRANCH   5   6
ATOM      6  C   UNL A   1      30.953  25.486  26.128  1.00  0.00     0.315 C 
ATOM      7  O   UNL A   1      31.490  24.638  26.838  1.00  0.00    -0.252 OA
BRANCH   6   8
ATOM      8  C   UNL A   1      30.661  25.196  24.668  1.00  0.00     0.167 C 
ATOM      9  C   UNL A   1      31.187  26.070  23.528  1.00  0.00     0.098 C 
ATOM     10  C   UNL A   1      31.275  25.092  22.342  1.00  0.00     0.272 C 
ATOM     11  N   UNL A   1      31.450  23.736  22.896  1.00  0.00    -0.329 N 
ATOM     12  C   UNL A   1      31.137  23.783  24.330  1.00  0.00     0.278 C 
ATOM     13  H   UNL A   1      30.793  23.129  22.406  1.00  0.00     0.348 HD
BRANCH   9  14
ATOM     14  C   UNL A   1      30.542  27.409  23.165  1.00  0.00     0.004 A 
ATOM     15  C   UNL A   1      31.160  28.599  22.752  1.00  0.00     0.122 A 
ATOM     16  C   UNL A   1      30.385  29.726  22.399  1.00  0.00     0.047 A 
ATOM     17  C   UNL A   1      28.999  29.736  22.545  1.00  0.00     0.004 A 
ATOM     18  C   UNL A   1      29.148  27.500  23.392  1.00  0.00     0.008 A 
ATOM     19  C   UNL A   1      28.382  28.631  23.098  1.00  0.00     0.001 A 
BRANCH  15  20
ATOM     20  O   UNL A   1      32.472  28.909  23.003  1.00  0.00    -0.496 OA
ATOM     21  C   UNL A   1      33.446  28.211  22.255  1.00  0.00     0.278 C 
ENDBRANCH  15  20
ENDBRANCH   9  14
BRANCH  11  22
ATOM     22  C   UNL A   1      32.734  23.054  22.591  1.00  0.00     0.321 C 
BRANCH  22  23
ATOM     23  C   UNL A   1      33.525  22.714  23.818  1.00  0.00     0.114 A 
ATOM     24  C   UNL A   1      33.700  21.467  24.397  1.00  0.00     0.122 A 
ATOM     25  N   UNL A   1      34.421  23.613  24.344  1.00  0.00    -0.228 NA
ATOM     26  N   UNL A   1      34.993  21.516  24.864  1.00  0.00    -0.306 N 
ATOM     27  C   UNL A   1      35.373  22.851  24.830  1.00  0.00     0.137 A 
ATOM     28  C   UNL A   1      35.884  20.461  25.035  1.00  0.00     0.096 A 
ATOM     29  C   UNL A   1      36.755  23.133  24.948  1.00  0.00     0.048 A 
ATOM     30  C   UNL A   1      37.202  20.723  25.007  1.00  0.00    -0.034 A 
ATOM     31  C   UNL A   1      37.628  22.114  24.920  1.00  0.00     0.009 A 
ATOM     32  C   UNL A   1      38.262  19.679  24.994  1.00  0.00     0.046 C 
ENDBRANCH  22  23
ENDBRANCH  11  22
ENDBRANCH   6   8
ENDBRANCH   5   6
ENDBRANCH   4   5
ENDBRANCH   3   4
ENDBRANCH   2   3
ENDBRANCH   1   2
BRANCH   1  33
ATOM     33  C   UNL A   1      33.929  30.777  26.955  1.00  0.00     0.261 C 
BRANCH  33  34
ATOM     34  O   UNL A   1      34.467  31.106  28.245  1.00  0.00    -0.460 OA
BRANCH  34  35
ATOM     35  C   UNL A   1      35.217  32.237  28.372  1.00  0.00     0.338 C 
ATOM     36  O   UNL A   1      35.158  33.247  27.692  1.00  0.00    -0.246 OA
BRANCH  35  37
ATOM     37  C   UNL A   1      36.310  31.890  29.313  1.00  0.00     0.060 A 
ATOM     38  C   UNL A   1      37.522  32.571  29.212  1.00  0.00     0.016 A 
ATOM     39  C   UNL A   1      36.257  30.677  29.982  1.00  0.00     0.016 A 
ATOM     40  C   UNL A   1      38.711  31.873  29.447  1.00  0.00     0.010 A 
ATOM     41  C   UNL A   1      37.437  29.980  30.178  1.00  0.00     0.010 A 
ATOM     42  C   UNL A   1      38.658  30.517  29.763  1.00  0.00    -0.014 A 
BRANCH  42  43
ATOM     43  C   UNL A   1      39.841  29.648  29.771  1.00  0.00     0.031 A 
ATOM     44  C   UNL A   1      40.300  29.276  31.125  1.00  0.00     0.074 A 
ATOM     45  C   UNL A   1      40.449  29.046  28.720  1.00  0.00     0.049 A 
ATOM     46  N   UNL A   1      41.066  30.006  31.862  1.00  0.00    -0.248 NA
ATOM     47  C   UNL A   1      39.750  28.100  31.815  1.00  0.00     0.031 C 
ATOM     48  C   UNL A   1      40.040  28.967  27.315  1.00  0.00     0.029 A 
ATOM     49  N   UNL A   1      41.569  28.257  28.744  1.00  0.00    -0.354 N 
ATOM     50  C   UNL A   1      41.314  29.253  32.994  1.00  0.00     0.074 A 
ATOM     51  C   UNL A   1      40.277  28.252  33.034  1.00  0.00     0.031 C 
ATOM     52  C   UNL A   1      40.776  28.016  26.678  1.00  0.00     0.029 A 
ATOM     53  C   UNL A   1      41.831  27.555  27.569  1.00  0.00     0.049 A 
ATOM     54  H   UNL A   1      42.148  28.190  29.536  1.00  0.00     0.167 HD
ATOM     55  C   UNL A   1      42.512  29.319  33.637  1.00  0.00     0.031 A 
ATOM     56  C   UNL A   1      42.859  26.691  27.350  1.00  0.00     0.031 A 
ATOM     57  C   UNL A   1      43.385  30.298  33.025  1.00  0.00     0.049 A 
ATOM     58  C   UNL A   1      43.951  27.100  28.269  1.00  0.00     0.074 A 
ATOM     59  C   UNL A   1      43.282  31.642  32.720  1.00  0.00     0.029 A 
ATOM     60  N   UNL A   1      44.395  29.806  32.223  1.00  0.00    -0.354 N 
ATOM     61  N   UNL A   1      44.582  28.234  28.153  1.00  0.00    -0.248 NA
ATOM     62  C   UNL A   1      44.081  26.449  29.562  1.00  0.00     0.031 C 
ATOM     63  C   UNL A   1      43.881  31.775  31.432  1.00  0.00     0.029 A 
ATOM     64  C   UNL A   1      44.399  30.533  31.059  1.00  0.00     0.049 A 
ATOM     65  H   UNL A   1      45.004  29.066  32.447  1.00  0.00     0.167 HD
ATOM     66  C   UNL A   1      44.762  28.665  29.458  1.00  0.00     0.074 A 
ATOM     67  C   UNL A   1      44.565  27.471  30.276  1.00  0.00     0.031 C 
ATOM     68  C   UNL A   1      44.759  29.997  29.760  1.00  0.00     0.031 A 
BRANCH  55  69
ATOM     69  C   UNL A   1      43.059  28.251  34.542  1.00  0.00    -0.014 A 
ATOM     70  C   UNL A   1      43.775  28.656  35.685  1.00  0.00     0.010 A 
ATOM     71  C   UNL A   1      43.091  26.883  34.210  1.00  0.00     0.010 A 
ATOM     72  C   UNL A   1      44.529  27.744  36.428  1.00  0.00     0.020 A 
ATOM     73  C   UNL A   1      43.801  25.955  34.973  1.00  0.00     0.020 A 
ATOM     74  C   UNL A   1      44.542  26.399  36.060  1.00  0.00     0.054 A 
BRANCH  74  75
ATOM     75  S   UNL A   1      45.584  25.245  36.983  1.00  0.00     0.124 S 
ATOM     76  O   UNL A   1      46.574  24.869  35.978  1.00  0.00    -0.237 OA
ATOM     77  O   UNL A   1      46.074  26.078  38.077  1.00  0.00    -0.237 OA
ATOM     78  O   UNL A   1      44.655  24.188  37.376  1.00  0.00    -0.744 OA
ENDBRANCH  74  75
ENDBRANCH  55  69
BRANCH  56  79
ATOM     79  C   UNL A   1      42.966  25.459  26.524  1.00  0.00    -0.014 A 
ATOM     80  C   UNL A   1      43.774  25.433  25.364  1.00  0.00     0.010 A 
ATOM     81  C   UNL A   1      42.548  24.221  27.048  1.00  0.00     0.010 A 
ATOM     82  C   UNL A   1      44.228  24.220  24.814  1.00  0.00     0.020 A 
ATOM     83  C   UNL A   1      42.991  23.007  26.499  1.00  0.00     0.020 A 
ATOM     84  C   UNL A   1      43.858  23.012  25.407  1.00  0.00     0.054 A 
BRANCH  84  85
ATOM     85  S   UNL A   1      44.640  21.465  24.848  1.00  0.00     0.124 S 
ATOM     86  O   UNL A   1      43.643  20.461  25.211  1.00  0.00    -0.237 OA
ATOM     87  O   UNL A   1      44.814  21.693  23.417  1.00  0.00    -0.237 OA
ATOM     88  O   UNL A   1      45.882  21.414  25.617  1.00  0.00    -0.744 OA
ENDBRANCH  84  85
ENDBRANCH  56  79
BRANCH  68  89
ATOM     89  C   UNL A   1      44.884  30.998  28.626  1.00  0.00    -0.014 A 
ATOM     90  C   UNL A   1      43.798  31.711  28.078  1.00  0.00     0.010 A 
ATOM     91  C   UNL A   1      46.179  31.330  28.189  1.00  0.00     0.010 A 
ATOM     92  C   UNL A   1      43.999  32.702  27.105  1.00  0.00     0.020 A 
ATOM     93  C   UNL A   1      46.390  32.333  27.238  1.00  0.00     0.020 A 
ATOM     94  C   UNL A   1      45.298  33.007  26.692  1.00  0.00     0.054 A 
BRANCH  94  95
ATOM     95  S   UNL A   1      45.557  34.328  25.475  1.00  0.00     0.124 S 
ATOM     96  O   UNL A   1      44.854  33.818  24.301  1.00  0.00    -0.237 OA
ATOM     97  O   UNL A   1      44.945  35.487  26.121  1.00  0.00    -0.237 OA
ATOM     98  O   UNL A   1      47.012  34.400  25.343  1.00  0.00    -0.744 OA
ENDBRANCH  94  95
ENDBRANCH  68  89
ENDBRANCH  42  43
ENDBRANCH  35  37
ENDBRANCH  34  35
ENDBRANCH  33  34
ENDBRANCH   1  33
TORSDOF 21
ENDMDL
