MODEL 1
REMARK VINA RESULT:     -10.5      0.000      0.000
REMARK SMILES CC[C@](C)(NC(=O)c1cccc2ncccc12)C(=O)OCCOCCOC(=O)c1ccc(-c2c3nc(c(-c4ccc(S(=O)(=O)[O-])cc4)c4ccc([nH]4)c(-c4ccc(S(=O)(=O)[O-])cc4)c4nc(c(-c5ccc(S(=O)(=O)[O-])cc5)c5ccc2[nH]5)C=C4)C=C3)cc1
REMARK SMILES IDX 24 1 23 2 22 3 21 4 20 5 18 6 19 7 3 8 4 9 2 10 1 11 5 12
REMARK SMILES IDX 6 13 7 15 8 16 9 17 17 18 10 19 12 20 16 21 11 22 13 23
REMARK SMILES IDX 15 24 14 25 25 26 26 27 27 28 28 29 29 30 30 31 88 32 31 33
REMARK SMILES IDX 87 34 32 35 33 36 34 37 81 38 35 39 86 40 80 41 82 42 36 43
REMARK SMILES IDX 85 44 79 45 78 46 37 48 67 49 48 50 66 51 49 52 52 53 65 54
REMARK SMILES IDX 83 55 50 56 51 57 64 59 84 60 53 61 38 62 39 63 47 64 40 65
REMARK SMILES IDX 46 66 41 67 42 68 43 69 44 70 45 71 68 72 69 73 77 74 70 75
REMARK SMILES IDX 76 76 71 77 72 78 73 79 74 80 75 81 54 82 55 83 63 84 56 85
REMARK SMILES IDX 62 86 57 87 58 88 59 89 60 90 61 91
REMARK H PARENT 5 14 82 47 52 58
REMARK Flexibility Score: inf
ROOT
ATOM      1  C   UNL A   1      39.051  21.496  25.823  1.00  0.00     0.202 C 
ENDROOT
BRANCH   1   2
ATOM      2  O   UNL A   1      37.721  22.010  25.783  1.00  0.00    -0.374 OA
BRANCH   2   3
ATOM      3  C   UNL A   1      37.359  23.223  25.100  1.00  0.00     0.202 C 
BRANCH   3   4
ATOM      4  C   UNL A   1      36.202  23.083  24.068  1.00  0.00     0.261 C 
BRANCH   4   5
ATOM      5  O   UNL A   1      35.138  22.275  24.553  1.00  0.00    -0.462 OA
BRANCH   5   6
ATOM      6  C   UNL A   1      33.942  22.885  24.602  1.00  0.00     0.331 C 
ATOM      7  O   UNL A   1      33.613  23.816  23.866  1.00  0.00    -0.249 OA
BRANCH   6   8
ATOM      8  C   UNL A   1      33.072  22.248  25.693  1.00  0.00     0.135 C 
ATOM      9  C   UNL A   1      34.043  21.307  26.500  1.00  0.00     0.047 C 
BRANCH   8  10
ATOM     10  C   UNL A   1      31.965  21.305  25.148  1.00  0.00     0.037 C 
ATOM     11  C   UNL A   1      32.449  19.979  24.570  1.00  0.00     0.007 C 
ENDBRANCH   8  10
BRANCH   8  12
ATOM     12  N   UNL A   1      32.471  23.319  26.626  1.00  0.00    -0.336 N 
ATOM     13  C   UNL A   1      31.375  24.208  26.535  1.00  0.00     0.252 C 
ATOM     14  H   UNL A   1      32.960  23.402  27.476  1.00  0.00     0.165 HD
ATOM     15  O   UNL A   1      30.412  23.874  27.240  1.00  0.00    -0.269 OA
BRANCH  13  16
ATOM     16  C   UNL A   1      31.215  25.562  25.735  1.00  0.00     0.049 A 
ATOM     17  C   UNL A   1      30.432  25.267  24.613  1.00  0.00     0.014 A 
ATOM     18  C   UNL A   1      31.506  27.067  26.031  1.00  0.00     0.013 A 
ATOM     19  C   UNL A   1      30.022  26.267  23.748  1.00  0.00     0.003 A 
ATOM     20  C   UNL A   1      31.107  28.010  25.057  1.00  0.00     0.071 A 
ATOM     21  C   UNL A   1      32.083  27.862  27.140  1.00  0.00     0.013 A 
ATOM     22  C   UNL A   1      30.391  27.591  23.964  1.00  0.00     0.029 A 
ATOM     23  N   UNL A   1      31.286  29.357  25.092  1.00  0.00    -0.256 NA
ATOM     24  C   UNL A   1      32.260  29.245  27.229  1.00  0.00     0.021 A 
ATOM     25  C   UNL A   1      31.848  29.955  26.156  1.00  0.00     0.112 A 
ENDBRANCH  13  16
ENDBRANCH   8  12
ENDBRANCH   6   8
ENDBRANCH   5   6
ENDBRANCH   4   5
ENDBRANCH   3   4
ENDBRANCH   2   3
ENDBRANCH   1   2
BRANCH   1  26
ATOM     26  C   UNL A   1      39.315  19.850  25.894  1.00  0.00     0.261 C 
BRANCH  26  27
ATOM     27  O   UNL A   1      40.660  19.268  25.510  1.00  0.00    -0.460 OA
BRANCH  27  28
ATOM     28  C   UNL A   1      41.838  19.385  26.230  1.00  0.00     0.338 C 
ATOM     29  O   UNL A   1      42.524  18.418  26.531  1.00  0.00    -0.246 OA
BRANCH  28  30
ATOM     30  C   UNL A   1      42.300  20.834  26.566  1.00  0.00     0.060 A 
ATOM     31  C   UNL A   1      42.799  21.714  25.591  1.00  0.00     0.016 A 
ATOM     32  C   UNL A   1      42.459  21.297  27.878  1.00  0.00     0.016 A 
ATOM     33  C   UNL A   1      43.231  23.041  25.844  1.00  0.00     0.010 A 
ATOM     34  C   UNL A   1      42.983  22.609  28.161  1.00  0.00     0.010 A 
ATOM     35  C   UNL A   1      43.346  23.518  27.145  1.00  0.00    -0.014 A 
BRANCH  35  36
ATOM     36  C   UNL A   1      44.008  24.853  27.407  1.00  0.00     0.031 A 
ATOM     37  C   UNL A   1      43.171  26.015  27.907  1.00  0.00     0.074 A 
ATOM     38  C   UNL A   1      45.344  25.056  27.314  1.00  0.00     0.049 A 
ATOM     39  N   UNL A   1      43.483  27.283  28.046  1.00  0.00    -0.248 NA
ATOM     40  C   UNL A   1      41.801  25.691  28.331  1.00  0.00     0.031 C 
ATOM     41  C   UNL A   1      46.342  24.028  27.023  1.00  0.00     0.029 A 
ATOM     42  N   UNL A   1      46.100  26.209  27.457  1.00  0.00    -0.354 N 
ATOM     43  C   UNL A   1      42.342  27.911  28.540  1.00  0.00     0.074 A 
ATOM     44  C   UNL A   1      41.336  26.880  28.690  1.00  0.00     0.031 C 
ATOM     45  C   UNL A   1      47.563  24.596  26.975  1.00  0.00     0.029 A 
ATOM     46  C   UNL A   1      47.441  26.041  27.175  1.00  0.00     0.049 A 
ATOM     47  H   UNL A   1      45.714  27.070  27.736  1.00  0.00     0.167 HD
ATOM     48  C   UNL A   1      42.135  29.223  28.829  1.00  0.00     0.031 A 
ATOM     49  C   UNL A   1      48.448  26.939  27.042  1.00  0.00     0.031 A 
ATOM     50  C   UNL A   1      43.122  30.263  28.675  1.00  0.00     0.049 A 
ATOM     51  C   UNL A   1      48.167  28.417  27.231  1.00  0.00     0.074 A 
ATOM     52  C   UNL A   1      42.979  31.628  28.868  1.00  0.00     0.029 A 
ATOM     53  N   UNL A   1      44.441  30.055  28.303  1.00  0.00    -0.354 N 
ATOM     54  N   UNL A   1      47.051  29.009  27.587  1.00  0.00    -0.248 NA
ATOM     55  C   UNL A   1      49.281  29.349  26.989  1.00  0.00     0.031 C 
ATOM     56  C   UNL A   1      44.195  32.250  28.562  1.00  0.00     0.029 A 
ATOM     57  C   UNL A   1      45.115  31.265  28.244  1.00  0.00     0.049 A 
ATOM     58  H   UNL A   1      44.841  29.176  28.108  1.00  0.00     0.167 HD
ATOM     59  C   UNL A   1      47.336  30.373  27.626  1.00  0.00     0.074 A 
ATOM     60  C   UNL A   1      48.735  30.519  27.290  1.00  0.00     0.031 C 
ATOM     61  C   UNL A   1      46.509  31.412  27.907  1.00  0.00     0.031 A 
BRANCH  48  62
ATOM     62  C   UNL A   1      40.751  29.630  29.277  1.00  0.00    -0.014 A 
ATOM     63  C   UNL A   1      39.690  29.768  28.363  1.00  0.00     0.010 A 
ATOM     64  C   UNL A   1      40.500  29.834  30.647  1.00  0.00     0.010 A 
ATOM     65  C   UNL A   1      38.416  30.139  28.809  1.00  0.00     0.020 A 
ATOM     66  C   UNL A   1      39.223  30.178  31.100  1.00  0.00     0.020 A 
ATOM     67  C   UNL A   1      38.191  30.346  30.175  1.00  0.00     0.054 A 
BRANCH  67  68
ATOM     68  S   UNL A   1      36.525  30.809  30.727  1.00  0.00     0.124 S 
ATOM     69  O   UNL A   1      36.702  32.216  31.075  1.00  0.00    -0.237 OA
ATOM     70  O   UNL A   1      35.712  30.555  29.539  1.00  0.00    -0.237 OA
ATOM     71  O   UNL A   1      36.270  29.917  31.855  1.00  0.00    -0.744 OA
ENDBRANCH  67  68
ENDBRANCH  48  62
BRANCH  49  72
ATOM     72  C   UNL A   1      49.814  26.503  26.603  1.00  0.00    -0.014 A 
ATOM     73  C   UNL A   1      50.186  26.479  25.244  1.00  0.00     0.010 A 
ATOM     74  C   UNL A   1      50.740  26.034  27.556  1.00  0.00     0.010 A 
ATOM     75  C   UNL A   1      51.437  25.982  24.850  1.00  0.00     0.020 A 
ATOM     76  C   UNL A   1      52.004  25.570  27.171  1.00  0.00     0.020 A 
ATOM     77  C   UNL A   1      52.340  25.533  25.818  1.00  0.00     0.054 A 
BRANCH  77  78
ATOM     78  S   UNL A   1      53.976  24.938  25.296  1.00  0.00     0.124 S 
ATOM     79  O   UNL A   1      54.273  25.812  24.165  1.00  0.00    -0.237 OA
ATOM     80  O   UNL A   1      54.787  25.153  26.493  1.00  0.00    -0.237 OA
ATOM     81  O   UNL A   1      53.738  23.537  24.958  1.00  0.00    -0.744 OA
ENDBRANCH  77  78
ENDBRANCH  49  72
BRANCH  61  82
ATOM     82  C   UNL A   1      47.103  32.801  27.900  1.00  0.00    -0.014 A 
ATOM     83  C   UNL A   1      47.681  33.359  29.055  1.00  0.00     0.010 A 
ATOM     84  C   UNL A   1      47.101  33.553  26.710  1.00  0.00     0.010 A 
ATOM     85  C   UNL A   1      48.196  34.660  29.034  1.00  0.00     0.020 A 
ATOM     86  C   UNL A   1      47.641  34.843  26.677  1.00  0.00     0.020 A 
ATOM     87  C   UNL A   1      48.166  35.397  27.846  1.00  0.00     0.054 A 
BRANCH  87  88
ATOM     88  S   UNL A   1      48.841  37.082  27.843  1.00  0.00     0.124 S 
ATOM     89  O   UNL A   1      49.452  37.168  29.166  1.00  0.00    -0.237 OA
ATOM     90  O   UNL A   1      49.775  37.053  26.720  1.00  0.00    -0.237 OA
ATOM     91  O   UNL A   1      47.665  37.927  27.644  1.00  0.00    -0.744 OA
ENDBRANCH  87  88
ENDBRANCH  61  82
ENDBRANCH  35  36
ENDBRANCH  28  30
ENDBRANCH  27  28
ENDBRANCH  26  27
ENDBRANCH   1  26
TORSDOF 20
ENDMDL
MODEL 2
REMARK VINA RESULT:     -10.3      6.142     11.950
REMARK SMILES CC[C@](C)(NC(=O)c1cccc2ncccc12)C(=O)OCCOCCOC(=O)c1ccc(-c2c3nc(c(-c4ccc(S(=O)(=O)[O-])cc4)c4ccc([nH]4)c(-c4ccc(S(=O)(=O)[O-])cc4)c4nc(c(-c5ccc(S(=O)(=O)[O-])cc5)c5ccc2[nH]5)C=C4)C=C3)cc1
REMARK SMILES IDX 24 1 23 2 22 3 21 4 20 5 18 6 19 7 3 8 4 9 2 10 1 11 5 12
REMARK SMILES IDX 6 13 7 15 8 16 9 17 17 18 10 19 12 20 16 21 11 22 13 23
REMARK SMILES IDX 15 24 14 25 25 26 26 27 27 28 28 29 29 30 30 31 88 32 31 33
REMARK SMILES IDX 87 34 32 35 33 36 34 37 81 38 35 39 86 40 80 41 82 42 36 43
REMARK SMILES IDX 85 44 79 45 78 46 37 48 67 49 48 50 66 51 49 52 52 53 65 54
REMARK SMILES IDX 83 55 50 56 51 57 64 59 84 60 53 61 38 62 39 63 47 64 40 65
REMARK SMILES IDX 46 66 41 67 42 68 43 69 44 70 45 71 68 72 69 73 77 74 70 75
REMARK SMILES IDX 76 76 71 77 72 78 73 79 74 80 75 81 54 82 55 83 63 84 56 85
REMARK SMILES IDX 62 86 57 87 58 88 59 89 60 90 61 91
REMARK H PARENT 5 14 82 47 52 58
REMARK Flexibility Score: inf
ROOT
ATOM      1  C   UNL A   1      34.316  30.978  27.465  1.00  0.00     0.202 C 
ENDROOT
BRANCH   1   2
ATOM      2  O   UNL A   1      34.124  29.565  27.493  1.00  0.00    -0.374 OA
BRANCH   2   3
ATOM      3  C   UNL A   1      33.574  28.818  26.395  1.00  0.00     0.202 C 
BRANCH   3   4
ATOM      4  C   UNL A   1      32.745  27.562  26.796  1.00  0.00     0.261 C 
BRANCH   4   5
ATOM      5  O   UNL A   1      32.399  26.760  25.675  1.00  0.00    -0.462 OA
BRANCH   5   6
ATOM      6  C   UNL A   1      31.223  26.119  25.779  1.00  0.00     0.331 C 
ATOM      7  O   UNL A   1      30.566  26.053  26.819  1.00  0.00    -0.249 OA
BRANCH   6   8
ATOM      8  C   UNL A   1      30.838  25.502  24.429  1.00  0.00     0.135 C 
ATOM      9  C   UNL A   1      32.080  25.749  23.493  1.00  0.00     0.047 C 
BRANCH   8  10
ATOM     10  C   UNL A   1      29.657  26.219  23.720  1.00  0.00     0.037 C 
ATOM     11  C   UNL A   1      29.972  27.590  23.130  1.00  0.00     0.007 C 
ENDBRANCH   8  10
BRANCH   8  12
ATOM     12  N   UNL A   1      30.563  23.991  24.562  1.00  0.00    -0.336 N 
ATOM     13  C   UNL A   1      31.064  22.963  25.394  1.00  0.00     0.252 C 
ATOM     14  H   UNL A   1      29.885  23.669  23.925  1.00  0.00     0.165 HD
ATOM     15  O   UNL A   1      30.263  22.604  26.269  1.00  0.00    -0.269 OA
BRANCH  13  16
ATOM     16  C   UNL A   1      32.436  22.179  25.343  1.00  0.00     0.049 A 
ATOM     17  C   UNL A   1      32.128  20.870  24.955  1.00  0.00     0.014 A 
ATOM     18  C   UNL A   1      33.945  22.578  25.385  1.00  0.00     0.013 A 
ATOM     19  C   UNL A   1      33.129  19.943  24.719  1.00  0.00     0.003 A 
ATOM     20  C   UNL A   1      34.895  21.549  25.198  1.00  0.00     0.071 A 
ATOM     21  C   UNL A   1      34.733  23.823  25.532  1.00  0.00     0.013 A 
ATOM     22  C   UNL A   1      34.468  20.285  24.878  1.00  0.00     0.029 A 
ATOM     23  N   UNL A   1      36.249  21.662  25.226  1.00  0.00    -0.256 NA
ATOM     24  C   UNL A   1      36.120  23.989  25.539  1.00  0.00     0.021 A 
ATOM     25  C   UNL A   1      36.842  22.857  25.391  1.00  0.00     0.112 A 
ENDBRANCH  13  16
ENDBRANCH   8  12
ENDBRANCH   6   8
ENDBRANCH   5   6
ENDBRANCH   4   5
ENDBRANCH   3   4
ENDBRANCH   2   3
ENDBRANCH   1   2
BRANCH   1  26
ATOM     26  C   UNL A   1      33.002  32.006  27.498  1.00  0.00     0.261 C 
BRANCH  26  27
ATOM     27  O   UNL A   1      33.197  33.508  27.439  1.00  0.00    -0.460 OA
BRANCH  27  28
ATOM     28  C   UNL A   1      33.393  34.350  28.522  1.00  0.00     0.338 C 
ATOM     29  O   UNL A   1      32.646  35.287  28.771  1.00  0.00    -0.246 OA
BRANCH  28  30
ATOM     30  C   UNL A   1      34.574  33.990  29.471  1.00  0.00     0.060 A 
ATOM     31  C   UNL A   1      35.919  34.111  29.085  1.00  0.00     0.016 A 
ATOM     32  C   UNL A   1      34.395  33.320  30.688  1.00  0.00     0.016 A 
ATOM     33  C   UNL A   1      37.029  33.798  29.911  1.00  0.00     0.010 A 
ATOM     34  C   UNL A   1      35.512  32.910  31.500  1.00  0.00     0.010 A 
ATOM     35  C   UNL A   1      36.850  33.174  31.140  1.00  0.00    -0.014 A 
BRANCH  35  36
ATOM     36  C   UNL A   1      38.047  32.654  31.907  1.00  0.00     0.031 A 
ATOM     37  C   UNL A   1      38.862  31.512  31.332  1.00  0.00     0.074 A 
ATOM     38  C   UNL A   1      38.505  33.219  33.050  1.00  0.00     0.049 A 
ATOM     39  N   UNL A   1      39.821  30.800  31.877  1.00  0.00    -0.248 NA
ATOM     40  C   UNL A   1      38.565  31.141  29.940  1.00  0.00     0.031 C 
ATOM     41  C   UNL A   1      37.974  34.430  33.672  1.00  0.00     0.029 A 
ATOM     42  N   UNL A   1      39.533  32.843  33.900  1.00  0.00    -0.354 N 
ATOM     43  C   UNL A   1      40.219  29.880  30.909  1.00  0.00     0.074 A 
ATOM     44  C   UNL A   1      39.405  30.135  29.739  1.00  0.00     0.031 C 
ATOM     45  C   UNL A   1      38.650  34.677  34.811  1.00  0.00     0.029 A 
ATOM     46  C   UNL A   1      39.630  33.614  35.041  1.00  0.00     0.049 A 
ATOM     47  H   UNL A   1      40.141  32.093  33.706  1.00  0.00     0.167 HD
ATOM     48  C   UNL A   1      41.159  28.901  30.984  1.00  0.00     0.031 A 
ATOM     49  C   UNL A   1      40.377  33.464  36.163  1.00  0.00     0.031 A 
ATOM     50  C   UNL A   1      41.969  28.627  32.145  1.00  0.00     0.049 A 
ATOM     51  C   UNL A   1      41.319  32.283  36.286  1.00  0.00     0.074 A 
ATOM     52  C   UNL A   1      42.889  27.609  32.338  1.00  0.00     0.029 A 
ATOM     53  N   UNL A   1      41.969  29.382  33.308  1.00  0.00    -0.354 N 
ATOM     54  N   UNL A   1      41.601  31.353  35.406  1.00  0.00    -0.248 NA
ATOM     55  C   UNL A   1      42.039  32.128  37.563  1.00  0.00     0.031 C 
ATOM     56  C   UNL A   1      43.405  27.717  33.634  1.00  0.00     0.029 A 
ATOM     57  C   UNL A   1      42.857  28.843  34.226  1.00  0.00     0.049 A 
ATOM     58  H   UNL A   1      41.418  30.184  33.460  1.00  0.00     0.167 HD
ATOM     59  C   UNL A   1      42.537  30.517  36.015  1.00  0.00     0.074 A 
ATOM     60  C   UNL A   1      42.800  31.069  37.325  1.00  0.00     0.031 C 
ATOM     61  C   UNL A   1      43.118  29.390  35.533  1.00  0.00     0.031 A 
BRANCH  48  62
ATOM     62  C   UNL A   1      41.315  27.990  29.789  1.00  0.00    -0.014 A 
ATOM     63  C   UNL A   1      40.378  26.982  29.501  1.00  0.00     0.010 A 
ATOM     64  C   UNL A   1      42.401  28.181  28.913  1.00  0.00     0.010 A 
ATOM     65  C   UNL A   1      40.545  26.158  28.381  1.00  0.00     0.020 A 
ATOM     66  C   UNL A   1      42.558  27.378  27.778  1.00  0.00     0.020 A 
ATOM     67  C   UNL A   1      41.637  26.359  27.529  1.00  0.00     0.054 A 
BRANCH  67  68
ATOM     68  S   UNL A   1      41.819  25.288  26.074  1.00  0.00     0.124 S 
ATOM     69  O   UNL A   1      40.766  24.299  26.293  1.00  0.00    -0.237 OA
ATOM     70  O   UNL A   1      41.591  26.212  24.966  1.00  0.00    -0.237 OA
ATOM     71  O   UNL A   1      43.183  24.778  26.186  1.00  0.00    -0.744 OA
ENDBRANCH  67  68
ENDBRANCH  48  62
BRANCH  49  72
ATOM     72  C   UNL A   1      40.204  34.389  37.331  1.00  0.00    -0.014 A 
ATOM     73  C   UNL A   1      39.202  34.184  38.300  1.00  0.00     0.010 A 
ATOM     74  C   UNL A   1      41.010  35.540  37.439  1.00  0.00     0.010 A 
ATOM     75  C   UNL A   1      39.000  35.111  39.333  1.00  0.00     0.020 A 
ATOM     76  C   UNL A   1      40.837  36.450  38.488  1.00  0.00     0.020 A 
ATOM     77  C   UNL A   1      39.822  36.238  39.422  1.00  0.00     0.054 A 
BRANCH  77  78
ATOM     78  S   UNL A   1      39.581  37.405  40.795  1.00  0.00     0.124 S 
ATOM     79  O   UNL A   1      39.227  36.514  41.895  1.00  0.00    -0.237 OA
ATOM     80  O   UNL A   1      40.890  38.048  40.896  1.00  0.00    -0.237 OA
ATOM     81  O   UNL A   1      38.505  38.272  40.321  1.00  0.00    -0.744 OA
ENDBRANCH  77  78
ENDBRANCH  49  72
BRANCH  61  82
ATOM     82  C   UNL A   1      44.128  28.693  36.414  1.00  0.00    -0.014 A 
ATOM     83  C   UNL A   1      45.461  29.136  36.498  1.00  0.00     0.010 A 
ATOM     84  C   UNL A   1      43.730  27.586  37.188  1.00  0.00     0.010 A 
ATOM     85  C   UNL A   1      46.387  28.455  37.296  1.00  0.00     0.020 A 
ATOM     86  C   UNL A   1      44.647  26.920  38.009  1.00  0.00     0.020 A 
ATOM     87  C   UNL A   1      45.976  27.346  38.040  1.00  0.00     0.054 A 
BRANCH  87  88
ATOM     88  S   UNL A   1      47.195  26.479  39.069  1.00  0.00     0.124 S 
ATOM     89  O   UNL A   1      46.503  26.392  40.352  1.00  0.00    -0.237 OA
ATOM     90  O   UNL A   1      47.371  25.213  38.363  1.00  0.00    -0.237 OA
ATOM     91  O   UNL A   1      48.359  27.364  39.047  1.00  0.00    -0.744 OA
ENDBRANCH  87  88
ENDBRANCH  61  82
ENDBRANCH  35  36
ENDBRANCH  28  30
ENDBRANCH  27  28
ENDBRANCH  26  27
ENDBRANCH   1  26
TORSDOF 20
ENDMDL
MODEL 3
REMARK VINA RESULT:     -10.1      1.953      8.882
REMARK SMILES CC[C@](C)(NC(=O)c1cccc2ncccc12)C(=O)OCCOCCOC(=O)c1ccc(-c2c3nc(c(-c4ccc(S(=O)(=O)[O-])cc4)c4ccc([nH]4)c(-c4ccc(S(=O)(=O)[O-])cc4)c4nc(c(-c5ccc(S(=O)(=O)[O-])cc5)c5ccc2[nH]5)C=C4)C=C3)cc1
REMARK SMILES IDX 24 1 23 2 22 3 21 4 20 5 18 6 19 7 3 8 4 9 2 10 1 11 5 12
REMARK SMILES IDX 6 13 7 15 8 16 9 17 17 18 10 19 12 20 16 21 11 22 13 23
REMARK SMILES IDX 15 24 14 25 25 26 26 27 27 28 28 29 29 30 30 31 88 32 31 33
REMARK SMILES IDX 87 34 32 35 33 36 34 37 81 38 35 39 86 40 80 41 82 42 36 43
REMARK SMILES IDX 85 44 79 45 78 46 37 48 67 49 48 50 66 51 49 52 52 53 65 54
REMARK SMILES IDX 83 55 50 56 51 57 64 59 84 60 53 61 38 62 39 63 47 64 40 65
REMARK SMILES IDX 46 66 41 67 42 68 43 69 44 70 45 71 68 72 69 73 77 74 70 75
REMARK SMILES IDX 76 76 71 77 72 78 73 79 74 80 75 81 54 82 55 83 63 84 56 85
REMARK SMILES IDX 62 86 57 87 58 88 59 89 60 90 61 91
REMARK H PARENT 5 14 82 47 52 58
REMARK Flexibility Score: inf
ROOT
ATOM      1  C   UNL A   1      35.090  32.073  28.132  1.00  0.00     0.202 C 
ENDROOT
BRANCH   1   2
ATOM      2  O   UNL A   1      34.721  30.795  27.618  1.00  0.00    -0.374 OA
BRANCH   2   3
ATOM      3  C   UNL A   1      33.363  30.420  27.325  1.00  0.00     0.202 C 
BRANCH   3   4
ATOM      4  C   UNL A   1      33.151  28.918  26.972  1.00  0.00     0.261 C 
BRANCH   4   5
ATOM      5  O   UNL A   1      31.946  28.695  26.252  1.00  0.00    -0.462 OA
BRANCH   5   6
ATOM      6  C   UNL A   1      31.621  27.404  26.080  1.00  0.00     0.331 C 
ATOM      7  O   UNL A   1      31.386  26.624  27.005  1.00  0.00    -0.249 OA
BRANCH   6   8
ATOM      8  C   UNL A   1      31.586  27.065  24.585  1.00  0.00     0.135 C 
ATOM      9  C   UNL A   1      31.046  28.364  23.878  1.00  0.00     0.047 C 
BRANCH   8  10
ATOM     10  C   UNL A   1      30.566  25.955  24.212  1.00  0.00     0.037 C 
ATOM     11  C   UNL A   1      29.109  26.398  24.119  1.00  0.00     0.007 C 
ENDBRANCH   8  10
BRANCH   8  12
ATOM     12  N   UNL A   1      32.993  26.717  24.057  1.00  0.00    -0.336 N 
ATOM     13  C   UNL A   1      33.578  25.564  23.484  1.00  0.00     0.252 C 
ATOM     14  H   UNL A   1      33.627  27.467  24.136  1.00  0.00     0.165 HD
ATOM     15  O   UNL A   1      33.770  25.666  22.264  1.00  0.00    -0.269 OA
BRANCH  13  16
ATOM     16  C   UNL A   1      34.067  24.220  24.156  1.00  0.00     0.049 A 
ATOM     17  C   UNL A   1      34.934  24.588  25.191  1.00  0.00     0.014 A 
ATOM     18  C   UNL A   1      33.636  22.721  24.082  1.00  0.00     0.013 A 
ATOM     19  C   UNL A   1      35.465  23.639  26.048  1.00  0.00     0.003 A 
ATOM     20  C   UNL A   1      34.282  21.815  24.953  1.00  0.00     0.071 A 
ATOM     21  C   UNL A   1      32.639  21.916  23.339  1.00  0.00     0.013 A 
ATOM     22  C   UNL A   1      35.162  22.291  25.893  1.00  0.00     0.029 A 
ATOM     23  N   UNL A   1      34.088  20.472  25.037  1.00  0.00    -0.256 NA
ATOM     24  C   UNL A   1      32.388  20.543  23.414  1.00  0.00     0.021 A 
ATOM     25  C   UNL A   1      33.160  19.856  24.284  1.00  0.00     0.112 A 
ENDBRANCH  13  16
ENDBRANCH   8  12
ENDBRANCH   6   8
ENDBRANCH   5   6
ENDBRANCH   4   5
ENDBRANCH   3   4
ENDBRANCH   2   3
ENDBRANCH   1   2
BRANCH   1  26
ATOM     26  C   UNL A   1      35.165  32.327  29.779  1.00  0.00     0.261 C 
BRANCH  26  27
ATOM     27  O   UNL A   1      35.849  31.323  30.684  1.00  0.00    -0.460 OA
BRANCH  27  28
ATOM     28  C   UNL A   1      37.039  31.514  31.367  1.00  0.00     0.338 C 
ATOM     29  O   UNL A   1      37.089  32.058  32.462  1.00  0.00    -0.246 OA
BRANCH  28  30
ATOM     30  C   UNL A   1      38.317  30.918  30.706  1.00  0.00     0.060 A 
ATOM     31  C   UNL A   1      39.501  30.683  31.425  1.00  0.00     0.016 A 
ATOM     32  C   UNL A   1      38.460  30.773  29.321  1.00  0.00     0.016 A 
ATOM     33  C   UNL A   1      40.689  30.141  30.871  1.00  0.00     0.010 A 
ATOM     34  C   UNL A   1      39.690  30.311  28.729  1.00  0.00     0.010 A 
ATOM     35  C   UNL A   1      40.816  29.954  29.499  1.00  0.00    -0.014 A 
BRANCH  35  36
ATOM     36  C   UNL A   1      42.158  29.580  28.907  1.00  0.00     0.031 A 
ATOM     37  C   UNL A   1      42.386  28.165  28.412  1.00  0.00     0.074 A 
ATOM     38  C   UNL A   1      43.157  30.471  28.698  1.00  0.00     0.049 A 
ATOM     39  N   UNL A   1      43.491  27.575  28.019  1.00  0.00    -0.248 NA
ATOM     40  C   UNL A   1      41.193  27.309  28.326  1.00  0.00     0.031 C 
ATOM     41  C   UNL A   1      43.076  31.911  28.938  1.00  0.00     0.029 A 
ATOM     42  N   UNL A   1      44.449  30.293  28.230  1.00  0.00    -0.354 N 
ATOM     43  C   UNL A   1      43.134  26.274  27.672  1.00  0.00     0.074 A 
ATOM     44  C   UNL A   1      41.706  26.167  27.888  1.00  0.00     0.031 C 
ATOM     45  C   UNL A   1      44.266  32.475  28.651  1.00  0.00     0.029 A 
ATOM     46  C   UNL A   1      45.221  31.437  28.259  1.00  0.00     0.049 A 
ATOM     47  H   UNL A   1      44.786  29.428  27.903  1.00  0.00     0.167 HD
ATOM     48  C   UNL A   1      43.915  25.253  27.232  1.00  0.00     0.031 A 
ATOM     49  C   UNL A   1      46.546  31.630  28.047  1.00  0.00     0.031 A 
ATOM     50  C   UNL A   1      45.339  25.340  27.022  1.00  0.00     0.049 A 
ATOM     51  C   UNL A   1      47.430  30.451  27.692  1.00  0.00     0.074 A 
ATOM     52  C   UNL A   1      46.222  24.338  26.653  1.00  0.00     0.029 A 
ATOM     53  N   UNL A   1      46.090  26.498  27.149  1.00  0.00    -0.354 N 
ATOM     54  N   UNL A   1      47.096  29.200  27.480  1.00  0.00    -0.248 NA
ATOM     55  C   UNL A   1      48.874  30.709  27.558  1.00  0.00     0.031 C 
ATOM     56  C   UNL A   1      47.513  24.878  26.608  1.00  0.00     0.029 A 
ATOM     57  C   UNL A   1      47.425  26.232  26.884  1.00  0.00     0.049 A 
ATOM     58  H   UNL A   1      45.728  27.381  27.393  1.00  0.00     0.167 HD
ATOM     59  C   UNL A   1      48.281  28.532  27.174  1.00  0.00     0.074 A 
ATOM     60  C   UNL A   1      49.336  29.521  27.196  1.00  0.00     0.031 C 
ATOM     61  C   UNL A   1      48.477  27.216  26.908  1.00  0.00     0.031 A 
BRANCH  48  62
ATOM     62  C   UNL A   1      43.254  23.912  27.013  1.00  0.00    -0.014 A 
ATOM     63  C   UNL A   1      42.779  23.519  25.749  1.00  0.00     0.010 A 
ATOM     64  C   UNL A   1      43.149  23.010  28.090  1.00  0.00     0.010 A 
ATOM     65  C   UNL A   1      42.178  22.267  25.576  1.00  0.00     0.020 A 
ATOM     66  C   UNL A   1      42.574  21.747  27.916  1.00  0.00     0.020 A 
ATOM     67  C   UNL A   1      42.076  21.390  26.662  1.00  0.00     0.054 A 
BRANCH  67  68
ATOM     68  S   UNL A   1      41.308  19.765  26.404  1.00  0.00     0.124 S 
ATOM     69  O   UNL A   1      42.143  19.200  25.347  1.00  0.00    -0.237 OA
ATOM     70  O   UNL A   1      41.446  19.135  27.715  1.00  0.00    -0.237 OA
ATOM     71  O   UNL A   1      39.939  20.085  26.011  1.00  0.00    -0.744 OA
ENDBRANCH  67  68
ENDBRANCH  48  62
BRANCH  49  72
ATOM     72  C   UNL A   1      47.172  32.976  28.265  1.00  0.00    -0.014 A 
ATOM     73  C   UNL A   1      47.544  33.423  29.548  1.00  0.00     0.010 A 
ATOM     74  C   UNL A   1      47.334  33.858  27.178  1.00  0.00     0.010 A 
ATOM     75  C   UNL A   1      48.044  34.720  29.740  1.00  0.00     0.020 A 
ATOM     76  C   UNL A   1      47.865  35.141  27.359  1.00  0.00     0.020 A 
ATOM     77  C   UNL A   1      48.204  35.570  28.642  1.00  0.00     0.054 A 
BRANCH  77  78
ATOM     78  S   UNL A   1      48.899  37.229  28.900  1.00  0.00     0.124 S 
ATOM     79  O   UNL A   1      49.059  37.710  27.531  1.00  0.00    -0.237 OA
ATOM     80  O   UNL A   1      47.858  37.889  29.686  1.00  0.00    -0.237 OA
ATOM     81  O   UNL A   1      50.143  36.971  29.621  1.00  0.00    -0.744 OA
ENDBRANCH  77  78
ENDBRANCH  49  72
BRANCH  61  82
ATOM     82  C   UNL A   1      49.883  26.770  26.581  1.00  0.00    -0.014 A 
ATOM     83  C   UNL A   1      50.355  26.738  25.255  1.00  0.00     0.010 A 
ATOM     84  C   UNL A   1      50.755  26.397  27.621  1.00  0.00     0.010 A 
ATOM     85  C   UNL A   1      51.651  26.291  24.973  1.00  0.00     0.020 A 
ATOM     86  C   UNL A   1      52.060  25.977  27.345  1.00  0.00     0.020 A 
ATOM     87  C   UNL A   1      52.493  25.906  26.019  1.00  0.00     0.054 A 
BRANCH  87  88
ATOM     88  S   UNL A   1      54.169  25.330  25.629  1.00  0.00     0.124 S 
ATOM     89  O   UNL A   1      54.624  24.820  26.919  1.00  0.00    -0.237 OA
ATOM     90  O   UNL A   1      53.933  24.319  24.601  1.00  0.00    -0.237 OA
ATOM     91  O   UNL A   1      54.850  26.536  25.161  1.00  0.00    -0.744 OA
ENDBRANCH  87  88
ENDBRANCH  61  82
ENDBRANCH  35  36
ENDBRANCH  28  30
ENDBRANCH  27  28
ENDBRANCH  26  27
ENDBRANCH   1  26
TORSDOF 20
ENDMDL
