MODEL 1
REMARK VINA RESULT:     -10.5      0.000      0.000
REMARK SMILES N#Cc1ccc(/C=C/C(=O)N[C@H]2C=C[C@H](C(=O)OCCOCCOC(=O)c3ccc(-c4c5nc(c(-c6ccc(S(=O)(=O)[O-])cc6)c6ccc([nH]6)c(-c6ccc(S(=O)(=O)[O-])cc6)c6nc(c(-c7ccc(S(=O)(=O)[O-])cc7)c7ccc4[nH]7)C=C6)C=C5)cc3)C2)cc1
REMARK SMILES IDX 20 1 19 2 18 3 16 4 17 5 15 6 12 7 13 8 87 9 14 10 11 11
REMARK SMILES IDX 9 12 10 13 8 15 7 16 6 17 3 18 4 19 89 20 5 21 88 22 2 23
REMARK SMILES IDX 1 24 21 25 22 26 23 27 24 28 25 29 26 30 27 31 28 32 86 33
REMARK SMILES IDX 29 34 85 35 30 36 31 37 32 38 79 39 33 40 84 41 78 42 80 43
REMARK SMILES IDX 34 44 83 45 77 46 76 47 35 49 65 50 46 51 64 52 47 53 50 54
REMARK SMILES IDX 63 55 81 56 48 57 49 58 62 60 82 61 51 62 36 63 37 64 45 65
REMARK SMILES IDX 38 66 44 67 39 68 40 69 41 70 42 71 43 72 66 73 67 74 75 75
REMARK SMILES IDX 68 76 74 77 69 78 70 79 71 80 72 81 73 82 52 83 53 84 61 85
REMARK SMILES IDX 54 86 60 87 55 88 56 89 57 90 58 91 59 92
REMARK H PARENT 11 14 80 48 50 59
REMARK Flexibility Score: inf
ROOT
ATOM      1  C   UNL A   1      40.317  21.026  26.177  1.00  0.00     0.202 C 
ENDROOT
BRANCH   1   2
ATOM      2  C   UNL A   1      39.346  22.202  26.357  1.00  0.00     0.261 C 
BRANCH   2   3
ATOM      3  O   UNL A   1      38.172  22.077  25.536  1.00  0.00    -0.463 OA
BRANCH   3   4
ATOM      4  C   UNL A   1      37.135  22.901  25.859  1.00  0.00     0.312 C 
ATOM      5  O   UNL A   1      36.649  23.004  26.979  1.00  0.00    -0.252 OA
BRANCH   4   6
ATOM      6  C   UNL A   1      36.787  23.823  24.685  1.00  0.00     0.124 C 
ATOM      7  C   UNL A   1      34.574  23.064  24.109  1.00  0.00     0.106 C 
ATOM      8  C   UNL A   1      35.517  22.773  22.989  1.00  0.00    -0.006 C 
ATOM      9  C   UNL A   1      35.310  24.220  24.787  1.00  0.00     0.048 C 
ATOM     10  C   UNL A   1      36.766  23.124  23.349  1.00  0.00    -0.014 C 
BRANCH   7  11
ATOM     11  N   UNL A   1      33.238  23.410  23.727  1.00  0.00    -0.346 N 
ATOM     12  C   UNL A   1      32.117  22.633  23.701  1.00  0.00     0.244 C 
ATOM     13  O   UNL A   1      31.052  23.162  23.370  1.00  0.00    -0.270 OA
ATOM     14  H   UNL A   1      33.111  24.345  23.444  1.00  0.00     0.164 HD
BRANCH  12  15
ATOM     15  C   UNL A   1      32.069  21.185  24.110  1.00  0.00     0.072 C 
ATOM     16  C   UNL A   1      32.970  20.208  23.925  1.00  0.00     0.014 C 
BRANCH  16  17
ATOM     17  C   UNL A   1      32.957  18.801  24.370  1.00  0.00    -0.025 A 
ATOM     18  C   UNL A   1      33.048  16.051  25.008  1.00  0.00     0.052 A 
ATOM     19  C   UNL A   1      32.585  16.985  25.942  1.00  0.00     0.020 A 
ATOM     20  C   UNL A   1      33.454  16.485  23.750  1.00  0.00     0.020 A 
ATOM     21  C   UNL A   1      32.541  18.355  25.626  1.00  0.00     0.009 A 
ATOM     22  C   UNL A   1      33.398  17.844  23.438  1.00  0.00     0.009 A 
BRANCH  18  23
ATOM     23  C   UNL A   1      33.108  14.654  25.331  1.00  0.00     0.099 C 
ATOM     24  N   UNL A   1      33.167  13.527  25.593  1.00  0.00    -0.192 NA
ENDBRANCH  18  23
ENDBRANCH  16  17
ENDBRANCH  12  15
ENDBRANCH   7  11
ENDBRANCH   4   6
ENDBRANCH   3   4
ENDBRANCH   2   3
ENDBRANCH   1   2
BRANCH   1  25
ATOM     25  O   UNL A   1      41.653  21.282  25.752  1.00  0.00    -0.374 OA
BRANCH  25  26
ATOM     26  C   UNL A   1      42.445  22.187  26.509  1.00  0.00     0.202 C 
BRANCH  26  27
ATOM     27  C   UNL A   1      42.725  23.604  25.992  1.00  0.00     0.261 C 
BRANCH  27  28
ATOM     28  O   UNL A   1      41.625  24.509  26.144  1.00  0.00    -0.460 OA
BRANCH  28  29
ATOM     29  C   UNL A   1      41.943  25.803  25.885  1.00  0.00     0.338 C 
ATOM     30  O   UNL A   1      42.390  26.257  24.846  1.00  0.00    -0.246 OA
BRANCH  29  31
ATOM     31  C   UNL A   1      41.482  26.656  26.994  1.00  0.00     0.060 A 
ATOM     32  C   UNL A   1      42.033  27.940  27.106  1.00  0.00     0.016 A 
ATOM     33  C   UNL A   1      40.586  26.175  27.946  1.00  0.00     0.016 A 
ATOM     34  C   UNL A   1      41.717  28.738  28.200  1.00  0.00     0.010 A 
ATOM     35  C   UNL A   1      40.280  26.974  29.050  1.00  0.00     0.010 A 
ATOM     36  C   UNL A   1      40.871  28.243  29.199  1.00  0.00    -0.014 A 
BRANCH  36  37
ATOM     37  C   UNL A   1      40.710  28.995  30.464  1.00  0.00     0.031 A 
ATOM     38  C   UNL A   1      39.616  30.022  30.571  1.00  0.00     0.074 A 
ATOM     39  C   UNL A   1      41.522  28.754  31.508  1.00  0.00     0.049 A 
ATOM     40  N   UNL A   1      39.319  30.814  31.568  1.00  0.00    -0.248 NA
ATOM     41  C   UNL A   1      38.748  30.180  29.394  1.00  0.00     0.031 C 
ATOM     42  C   UNL A   1      42.578  27.743  31.540  1.00  0.00     0.029 A 
ATOM     43  N   UNL A   1      41.578  29.343  32.744  1.00  0.00    -0.354 N 
ATOM     44  C   UNL A   1      38.246  31.582  31.132  1.00  0.00     0.074 A 
ATOM     45  C   UNL A   1      37.969  31.184  29.769  1.00  0.00     0.031 C 
ATOM     46  C   UNL A   1      43.172  27.776  32.746  1.00  0.00     0.029 A 
ATOM     47  C   UNL A   1      42.571  28.838  33.548  1.00  0.00     0.049 A 
ATOM     48  H   UNL A   1      40.966  30.060  33.028  1.00  0.00     0.167 HD
ATOM     49  C   UNL A   1      37.554  32.533  31.806  1.00  0.00     0.031 A 
ATOM     50  C   UNL A   1      42.960  29.203  34.785  1.00  0.00     0.031 A 
ATOM     51  C   UNL A   1      37.856  32.937  33.155  1.00  0.00     0.049 A 
ATOM     52  C   UNL A   1      42.237  30.325  35.481  1.00  0.00     0.074 A 
ATOM     53  C   UNL A   1      37.203  33.872  33.940  1.00  0.00     0.029 A 
ATOM     54  N   UNL A   1      38.909  32.446  33.914  1.00  0.00    -0.354 N 
ATOM     55  N   UNL A   1      41.204  31.023  35.071  1.00  0.00    -0.248 NA
ATOM     56  C   UNL A   1      42.731  30.702  36.812  1.00  0.00     0.031 C 
ATOM     57  C   UNL A   1      37.913  34.007  35.137  1.00  0.00     0.029 A 
ATOM     58  C   UNL A   1      38.953  33.091  35.139  1.00  0.00     0.049 A 
ATOM     59  H   UNL A   1      39.534  31.742  33.623  1.00  0.00     0.167 HD
ATOM     60  C   UNL A   1      40.901  31.897  36.110  1.00  0.00     0.074 A 
ATOM     61  C   UNL A   1      41.854  31.632  37.168  1.00  0.00     0.031 C 
ATOM     62  C   UNL A   1      39.915  32.827  36.183  1.00  0.00     0.031 A 
BRANCH  49  63
ATOM     63  C   UNL A   1      36.447  33.243  31.063  1.00  0.00    -0.014 A 
ATOM     64  C   UNL A   1      36.666  33.857  29.815  1.00  0.00     0.010 A 
ATOM     65  C   UNL A   1      35.161  33.301  31.631  1.00  0.00     0.010 A 
ATOM     66  C   UNL A   1      35.644  34.575  29.189  1.00  0.00     0.020 A 
ATOM     67  C   UNL A   1      34.125  33.984  30.989  1.00  0.00     0.020 A 
ATOM     68  C   UNL A   1      34.381  34.640  29.785  1.00  0.00     0.054 A 
BRANCH  68  69
ATOM     69  S   UNL A   1      33.080  35.602  28.966  1.00  0.00     0.124 S 
ATOM     70  O   UNL A   1      33.855  36.637  28.286  1.00  0.00    -0.237 OA
ATOM     71  O   UNL A   1      32.453  34.612  28.093  1.00  0.00    -0.237 OA
ATOM     72  O   UNL A   1      32.247  36.073  30.069  1.00  0.00    -0.744 OA
ENDBRANCH  68  69
ENDBRANCH  49  63
BRANCH  50  73
ATOM     73  C   UNL A   1      44.077  28.480  35.450  1.00  0.00    -0.014 A 
ATOM     74  C   UNL A   1      45.400  28.933  35.302  1.00  0.00     0.010 A 
ATOM     75  C   UNL A   1      43.825  27.357  36.260  1.00  0.00     0.010 A 
ATOM     76  C   UNL A   1      46.449  28.278  35.950  1.00  0.00     0.020 A 
ATOM     77  C   UNL A   1      44.869  26.718  36.936  1.00  0.00     0.020 A 
ATOM     78  C   UNL A   1      46.175  27.183  36.773  1.00  0.00     0.054 A 
BRANCH  78  79
ATOM     79  S   UNL A   1      47.547  26.406  37.670  1.00  0.00     0.124 S 
ATOM     80  O   UNL A   1      48.390  25.923  36.583  1.00  0.00    -0.237 OA
ATOM     81  O   UNL A   1      48.085  27.524  38.443  1.00  0.00    -0.237 OA
ATOM     82  O   UNL A   1      46.893  25.368  38.465  1.00  0.00    -0.744 OA
ENDBRANCH  78  79
ENDBRANCH  50  73
BRANCH  62  83
ATOM     83  C   UNL A   1      39.786  33.606  37.469  1.00  0.00    -0.014 A 
ATOM     84  C   UNL A   1      39.172  33.058  38.608  1.00  0.00     0.010 A 
ATOM     85  C   UNL A   1      40.342  34.898  37.550  1.00  0.00     0.010 A 
ATOM     86  C   UNL A   1      39.083  33.798  39.792  1.00  0.00     0.020 A 
ATOM     87  C   UNL A   1      40.290  35.625  38.741  1.00  0.00     0.020 A 
ATOM     88  C   UNL A   1      39.647  35.076  39.851  1.00  0.00     0.054 A 
BRANCH  88  89
ATOM     89  S   UNL A   1      39.561  35.994  41.413  1.00  0.00     0.124 S 
ATOM     90  O   UNL A   1      40.438  35.209  42.277  1.00  0.00    -0.237 OA
ATOM     91  O   UNL A   1      40.066  37.312  41.035  1.00  0.00    -0.237 OA
ATOM     92  O   UNL A   1      38.144  35.953  41.763  1.00  0.00    -0.744 OA
ENDBRANCH  88  89
ENDBRANCH  62  83
ENDBRANCH  36  37
ENDBRANCH  29  31
ENDBRANCH  28  29
ENDBRANCH  27  28
ENDBRANCH  26  27
ENDBRANCH  25  26
ENDBRANCH   1  25
TORSDOF 21
ENDMDL
MODEL 2
REMARK VINA RESULT:     -10.4      2.134      8.988
REMARK SMILES N#Cc1ccc(/C=C/C(=O)N[C@H]2C=C[C@H](C(=O)OCCOCCOC(=O)c3ccc(-c4c5nc(c(-c6ccc(S(=O)(=O)[O-])cc6)c6ccc([nH]6)c(-c6ccc(S(=O)(=O)[O-])cc6)c6nc(c(-c7ccc(S(=O)(=O)[O-])cc7)c7ccc4[nH]7)C=C6)C=C5)cc3)C2)cc1
REMARK SMILES IDX 20 1 19 2 18 3 16 4 17 5 15 6 12 7 13 8 87 9 14 10 11 11
REMARK SMILES IDX 9 12 10 13 8 15 7 16 6 17 3 18 4 19 89 20 5 21 88 22 2 23
REMARK SMILES IDX 1 24 21 25 22 26 23 27 24 28 25 29 26 30 27 31 28 32 86 33
REMARK SMILES IDX 29 34 85 35 30 36 31 37 32 38 79 39 33 40 84 41 78 42 80 43
REMARK SMILES IDX 34 44 83 45 77 46 76 47 35 49 65 50 46 51 64 52 47 53 50 54
REMARK SMILES IDX 63 55 81 56 48 57 49 58 62 60 82 61 51 62 36 63 37 64 45 65
REMARK SMILES IDX 38 66 44 67 39 68 40 69 41 70 42 71 43 72 66 73 67 74 75 75
REMARK SMILES IDX 68 76 74 77 69 78 70 79 71 80 72 81 73 82 52 83 53 84 61 85
REMARK SMILES IDX 54 86 60 87 55 88 56 89 57 90 58 91 59 92
REMARK H PARENT 11 14 80 48 50 59
REMARK Flexibility Score: inf
ROOT
ATOM      1  C   UNL A   1      38.544  21.840  25.444  1.00  0.00     0.202 C 
ENDROOT
BRANCH   1   2
ATOM      2  C   UNL A   1      37.029  22.007  25.628  1.00  0.00     0.261 C 
BRANCH   2   3
ATOM      3  O   UNL A   1      36.566  23.308  25.225  1.00  0.00    -0.463 OA
BRANCH   3   4
ATOM      4  C   UNL A   1      36.098  23.399  23.948  1.00  0.00     0.312 C 
ATOM      5  O   UNL A   1      36.624  22.874  22.973  1.00  0.00    -0.252 OA
BRANCH   4   6
ATOM      6  C   UNL A   1      34.724  24.078  23.920  1.00  0.00     0.124 C 
ATOM      7  C   UNL A   1      33.395  22.540  25.215  1.00  0.00     0.106 C 
ATOM      8  C   UNL A   1      32.912  22.563  23.802  1.00  0.00    -0.006 C 
ATOM      9  C   UNL A   1      34.062  23.914  25.293  1.00  0.00     0.048 C 
ATOM     10  C   UNL A   1      33.709  23.360  23.066  1.00  0.00    -0.014 C 
BRANCH   7  11
ATOM     11  N   UNL A   1      32.388  22.360  26.217  1.00  0.00    -0.346 N 
ATOM     12  C   UNL A   1      31.338  23.167  26.544  1.00  0.00     0.244 C 
ATOM     13  O   UNL A   1      30.566  22.785  27.428  1.00  0.00    -0.270 OA
ATOM     14  H   UNL A   1      32.465  21.532  26.746  1.00  0.00     0.164 HD
BRANCH  12  15
ATOM     15  C   UNL A   1      31.012  24.468  25.859  1.00  0.00     0.072 C 
ATOM     16  C   UNL A   1      30.552  24.697  24.620  1.00  0.00     0.014 C 
BRANCH  16  17
ATOM     17  C   UNL A   1      30.177  25.962  23.960  1.00  0.00    -0.025 A 
ATOM     18  C   UNL A   1      29.684  28.377  22.581  1.00  0.00     0.052 A 
ATOM     19  C   UNL A   1      28.683  27.783  23.360  1.00  0.00     0.020 A 
ATOM     20  C   UNL A   1      30.936  27.776  22.500  1.00  0.00     0.020 A 
ATOM     21  C   UNL A   1      28.928  26.579  24.044  1.00  0.00     0.009 A 
ATOM     22  C   UNL A   1      31.176  26.588  23.191  1.00  0.00     0.009 A 
BRANCH  18  23
ATOM     23  C   UNL A   1      29.434  29.598  21.869  1.00  0.00     0.099 C 
ATOM     24  N   UNL A   1      29.244  30.586  21.295  1.00  0.00    -0.192 NA
ENDBRANCH  18  23
ENDBRANCH  16  17
ENDBRANCH  12  15
ENDBRANCH   7  11
ENDBRANCH   4   6
ENDBRANCH   3   4
ENDBRANCH   2   3
ENDBRANCH   1   2
BRANCH   1  25
ATOM     25  O   UNL A   1      39.375  21.699  26.592  1.00  0.00    -0.374 OA
BRANCH  25  26
ATOM     26  C   UNL A   1      40.718  21.269  26.410  1.00  0.00     0.202 C 
BRANCH  26  27
ATOM     27  C   UNL A   1      41.873  22.280  26.424  1.00  0.00     0.261 C 
BRANCH  27  28
ATOM     28  O   UNL A   1      41.655  23.403  27.285  1.00  0.00    -0.460 OA
BRANCH  28  29
ATOM     29  C   UNL A   1      41.983  24.594  26.723  1.00  0.00     0.338 C 
ATOM     30  O   UNL A   1      42.407  24.784  25.596  1.00  0.00    -0.246 OA
BRANCH  29  31
ATOM     31  C   UNL A   1      41.566  25.691  27.611  1.00  0.00     0.060 A 
ATOM     32  C   UNL A   1      42.420  26.796  27.736  1.00  0.00     0.016 A 
ATOM     33  C   UNL A   1      40.396  25.602  28.364  1.00  0.00     0.016 A 
ATOM     34  C   UNL A   1      42.126  27.802  28.649  1.00  0.00     0.010 A 
ATOM     35  C   UNL A   1      40.110  26.608  29.290  1.00  0.00     0.010 A 
ATOM     36  C   UNL A   1      40.990  27.693  29.460  1.00  0.00    -0.014 A 
BRANCH  36  37
ATOM     37  C   UNL A   1      40.794  28.642  30.580  1.00  0.00     0.031 A 
ATOM     38  C   UNL A   1      41.681  28.539  31.790  1.00  0.00     0.074 A 
ATOM     39  C   UNL A   1      39.845  29.592  30.510  1.00  0.00     0.049 A 
ATOM     40  N   UNL A   1      41.662  29.241  32.893  1.00  0.00    -0.248 NA
ATOM     41  C   UNL A   1      42.722  27.500  31.753  1.00  0.00     0.031 C 
ATOM     42  C   UNL A   1      38.966  29.824  29.365  1.00  0.00     0.029 A 
ATOM     43  N   UNL A   1      39.468  30.540  31.425  1.00  0.00    -0.354 N 
ATOM     44  C   UNL A   1      42.670  28.715  33.692  1.00  0.00     0.074 A 
ATOM     45  C   UNL A   1      43.256  27.613  32.960  1.00  0.00     0.031 C 
ATOM     46  C   UNL A   1      38.157  30.861  29.644  1.00  0.00     0.029 A 
ATOM     47  C   UNL A   1      38.429  31.330  31.000  1.00  0.00     0.049 A 
ATOM     48  H   UNL A   1      39.901  30.643  32.303  1.00  0.00     0.167 HD
ATOM     49  C   UNL A   1      43.071  29.115  34.924  1.00  0.00     0.031 A 
ATOM     50  C   UNL A   1      37.763  32.312  31.639  1.00  0.00     0.031 A 
ATOM     51  C   UNL A   1      42.462  30.199  35.652  1.00  0.00     0.049 A 
ATOM     52  C   UNL A   1      38.164  32.677  33.043  1.00  0.00     0.074 A 
ATOM     53  C   UNL A   1      42.807  30.701  36.894  1.00  0.00     0.029 A 
ATOM     54  N   UNL A   1      41.371  30.934  35.213  1.00  0.00    -0.354 N 
ATOM     55  N   UNL A   1      39.139  32.195  33.777  1.00  0.00    -0.248 NA
ATOM     56  C   UNL A   1      37.377  33.729  33.701  1.00  0.00     0.031 C 
ATOM     57  C   UNL A   1      41.872  31.681  37.242  1.00  0.00     0.029 A 
ATOM     58  C   UNL A   1      41.000  31.856  36.179  1.00  0.00     0.049 A 
ATOM     59  H   UNL A   1      40.926  30.819  34.342  1.00  0.00     0.167 HD
ATOM     60  C   UNL A   1      39.106  32.909  34.969  1.00  0.00     0.074 A 
ATOM     61  C   UNL A   1      38.020  33.863  34.853  1.00  0.00     0.031 C 
ATOM     62  C   UNL A   1      39.909  32.794  36.057  1.00  0.00     0.031 A 
BRANCH  49  63
ATOM     63  C   UNL A   1      44.178  28.326  35.581  1.00  0.00    -0.014 A 
ATOM     64  C   UNL A   1      43.911  27.227  36.418  1.00  0.00     0.010 A 
ATOM     65  C   UNL A   1      45.517  28.700  35.360  1.00  0.00     0.010 A 
ATOM     66  C   UNL A   1      44.952  26.566  37.077  1.00  0.00     0.020 A 
ATOM     67  C   UNL A   1      46.564  28.017  35.984  1.00  0.00     0.020 A 
ATOM     68  C   UNL A   1      46.272  26.972  36.861  1.00  0.00     0.054 A 
BRANCH  68  69
ATOM     69  S   UNL A   1      47.602  26.116  37.750  1.00  0.00     0.124 S 
ATOM     70  O   UNL A   1      47.463  24.749  37.255  1.00  0.00    -0.237 OA
ATOM     71  O   UNL A   1      48.795  26.828  37.301  1.00  0.00    -0.237 OA
ATOM     72  O   UNL A   1      47.258  26.306  39.157  1.00  0.00    -0.744 OA
ENDBRANCH  68  69
ENDBRANCH  49  63
BRANCH  50  73
ATOM     73  C   UNL A   1      36.662  33.030  30.942  1.00  0.00    -0.014 A 
ATOM     74  C   UNL A   1      36.947  33.876  29.855  1.00  0.00     0.010 A 
ATOM     75  C   UNL A   1      35.324  32.850  31.336  1.00  0.00     0.010 A 
ATOM     76  C   UNL A   1      35.914  34.528  29.177  1.00  0.00     0.020 A 
ATOM     77  C   UNL A   1      34.286  33.475  30.640  1.00  0.00     0.020 A 
ATOM     78  C   UNL A   1      34.590  34.312  29.565  1.00  0.00     0.054 A 
BRANCH  78  79
ATOM     79  S   UNL A   1      33.266  35.103  28.611  1.00  0.00     0.124 S 
ATOM     80  O   UNL A   1      34.008  36.037  27.772  1.00  0.00    -0.237 OA
ATOM     81  O   UNL A   1      32.662  33.968  27.918  1.00  0.00    -0.237 OA
ATOM     82  O   UNL A   1      32.423  35.716  29.636  1.00  0.00    -0.744 OA
ENDBRANCH  78  79
ENDBRANCH  50  73
BRANCH  62  83
ATOM     83  C   UNL A   1      39.673  33.748  37.202  1.00  0.00    -0.014 A 
ATOM     84  C   UNL A   1      38.960  33.363  38.351  1.00  0.00     0.010 A 
ATOM     85  C   UNL A   1      40.226  35.043  37.145  1.00  0.00     0.010 A 
ATOM     86  C   UNL A   1      38.773  34.263  39.404  1.00  0.00     0.020 A 
ATOM     87  C   UNL A   1      40.075  35.932  38.212  1.00  0.00     0.020 A 
ATOM     88  C   UNL A   1      39.336  35.542  39.329  1.00  0.00     0.054 A 
BRANCH  88  89
ATOM     89  S   UNL A   1      39.120  36.672  40.730  1.00  0.00     0.124 S 
ATOM     90  O   UNL A   1      38.715  37.907  40.065  1.00  0.00    -0.237 OA
ATOM     91  O   UNL A   1      38.080  36.011  41.515  1.00  0.00    -0.237 OA
ATOM     92  O   UNL A   1      40.439  36.707  41.356  1.00  0.00    -0.744 OA
ENDBRANCH  88  89
ENDBRANCH  62  83
ENDBRANCH  36  37
ENDBRANCH  29  31
ENDBRANCH  28  29
ENDBRANCH  27  28
ENDBRANCH  26  27
ENDBRANCH  25  26
ENDBRANCH   1  25
TORSDOF 21
ENDMDL
MODEL 3
REMARK VINA RESULT:     -10.4      2.001      3.110
REMARK SMILES N#Cc1ccc(/C=C/C(=O)N[C@H]2C=C[C@H](C(=O)OCCOCCOC(=O)c3ccc(-c4c5nc(c(-c6ccc(S(=O)(=O)[O-])cc6)c6ccc([nH]6)c(-c6ccc(S(=O)(=O)[O-])cc6)c6nc(c(-c7ccc(S(=O)(=O)[O-])cc7)c7ccc4[nH]7)C=C6)C=C5)cc3)C2)cc1
REMARK SMILES IDX 20 1 19 2 18 3 16 4 17 5 15 6 12 7 13 8 87 9 14 10 11 11
REMARK SMILES IDX 9 12 10 13 8 15 7 16 6 17 3 18 4 19 89 20 5 21 88 22 2 23
REMARK SMILES IDX 1 24 21 25 22 26 23 27 24 28 25 29 26 30 27 31 28 32 86 33
REMARK SMILES IDX 29 34 85 35 30 36 31 37 32 38 79 39 33 40 84 41 78 42 80 43
REMARK SMILES IDX 34 44 83 45 77 46 76 47 35 49 65 50 46 51 64 52 47 53 50 54
REMARK SMILES IDX 63 55 81 56 48 57 49 58 62 60 82 61 51 62 36 63 37 64 45 65
REMARK SMILES IDX 38 66 44 67 39 68 40 69 41 70 42 71 43 72 66 73 67 74 75 75
REMARK SMILES IDX 68 76 74 77 69 78 70 79 71 80 72 81 73 82 52 83 53 84 61 85
REMARK SMILES IDX 54 86 60 87 55 88 56 89 57 90 58 91 59 92
REMARK H PARENT 11 14 80 48 50 59
REMARK Flexibility Score: inf
ROOT
ATOM      1  C   UNL A   1      35.173  23.667  25.514  1.00  0.00     0.202 C 
ENDROOT
BRANCH   1   2
ATOM      2  C   UNL A   1      35.177  24.443  24.190  1.00  0.00     0.261 C 
BRANCH   2   3
ATOM      3  O   UNL A   1      33.852  24.649  23.668  1.00  0.00    -0.463 OA
BRANCH   3   4
ATOM      4  C   UNL A   1      33.628  25.860  23.084  1.00  0.00     0.312 C 
ATOM      5  O   UNL A   1      33.812  26.106  21.897  1.00  0.00    -0.252 OA
BRANCH   4   6
ATOM      6  C   UNL A   1      32.934  26.815  24.061  1.00  0.00     0.124 C 
ATOM      7  C   UNL A   1      31.161  25.428  24.919  1.00  0.00     0.106 C 
ATOM      8  C   UNL A   1      30.585  26.562  24.137  1.00  0.00    -0.006 C 
ATOM      9  C   UNL A   1      32.512  26.028  25.308  1.00  0.00     0.048 C 
ATOM     10  C   UNL A   1      31.580  27.285  23.592  1.00  0.00    -0.014 C 
BRANCH   7  11
ATOM     11  N   UNL A   1      30.401  25.003  26.056  1.00  0.00    -0.346 N 
ATOM     12  C   UNL A   1      30.144  23.738  26.501  1.00  0.00     0.244 C 
ATOM     13  O   UNL A   1      29.489  23.611  27.539  1.00  0.00    -0.270 OA
ATOM     14  H   UNL A   1      30.007  25.728  26.595  1.00  0.00     0.164 HD
BRANCH  12  15
ATOM     15  C   UNL A   1      30.658  22.481  25.852  1.00  0.00     0.072 C 
ATOM     16  C   UNL A   1      31.885  21.937  25.880  1.00  0.00     0.014 C 
BRANCH  16  17
ATOM     17  C   UNL A   1      32.383  20.678  25.294  1.00  0.00    -0.025 A 
ATOM     18  C   UNL A   1      33.281  18.364  23.946  1.00  0.00     0.052 A 
ATOM     19  C   UNL A   1      33.453  18.496  25.329  1.00  0.00     0.020 A 
ATOM     20  C   UNL A   1      32.648  19.379  23.235  1.00  0.00     0.020 A 
ATOM     21  C   UNL A   1      33.008  19.649  26.000  1.00  0.00     0.009 A 
ATOM     22  C   UNL A   1      32.199  20.516  23.908  1.00  0.00     0.009 A 
BRANCH  18  23
ATOM     23  C   UNL A   1      33.745  17.195  23.254  1.00  0.00     0.099 C 
ATOM     24  N   UNL A   1      34.122  16.258  22.687  1.00  0.00    -0.192 NA
ENDBRANCH  18  23
ENDBRANCH  16  17
ENDBRANCH  12  15
ENDBRANCH   7  11
ENDBRANCH   4   6
ENDBRANCH   3   4
ENDBRANCH   2   3
ENDBRANCH   1   2
BRANCH   1  25
ATOM     25  O   UNL A   1      36.413  23.313  26.119  1.00  0.00    -0.374 OA
BRANCH  25  26
ATOM     26  C   UNL A   1      37.619  23.673  25.458  1.00  0.00     0.202 C 
BRANCH  26  27
ATOM     27  C   UNL A   1      38.900  23.945  26.258  1.00  0.00     0.261 C 
BRANCH  27  28
ATOM     28  O   UNL A   1      38.767  24.981  27.238  1.00  0.00    -0.460 OA
BRANCH  28  29
ATOM     29  C   UNL A   1      39.768  25.897  27.205  1.00  0.00     0.338 C 
ATOM     30  O   UNL A   1      40.554  26.093  26.295  1.00  0.00    -0.246 OA
BRANCH  29  31
ATOM     31  C   UNL A   1      39.661  26.788  28.371  1.00  0.00     0.060 A 
ATOM     32  C   UNL A   1      40.350  28.008  28.330  1.00  0.00     0.016 A 
ATOM     33  C   UNL A   1      38.960  26.400  29.512  1.00  0.00     0.016 A 
ATOM     34  C   UNL A   1      40.374  28.832  29.450  1.00  0.00     0.010 A 
ATOM     35  C   UNL A   1      38.996  27.223  30.640  1.00  0.00     0.010 A 
ATOM     36  C   UNL A   1      39.731  28.423  30.625  1.00  0.00    -0.014 A 
BRANCH  36  37
ATOM     37  C   UNL A   1      39.940  29.184  31.878  1.00  0.00     0.031 A 
ATOM     38  C   UNL A   1      38.954  30.254  32.257  1.00  0.00     0.074 A 
ATOM     39  C   UNL A   1      40.989  28.912  32.673  1.00  0.00     0.049 A 
ATOM     40  N   UNL A   1      38.961  31.060  33.287  1.00  0.00    -0.248 NA
ATOM     41  C   UNL A   1      37.812  30.445  31.349  1.00  0.00     0.031 C 
ATOM     42  C   UNL A   1      41.976  27.860  32.438  1.00  0.00     0.029 A 
ATOM     43  N   UNL A   1      41.393  29.501  33.843  1.00  0.00    -0.354 N 
ATOM     44  C   UNL A   1      37.841  31.870  33.140  1.00  0.00     0.074 A 
ATOM     45  C   UNL A   1      37.199  31.480  31.904  1.00  0.00     0.031 C 
ATOM     46  C   UNL A   1      42.868  27.870  33.443  1.00  0.00     0.029 A 
ATOM     47  C   UNL A   1      42.542  28.958  34.362  1.00  0.00     0.049 A 
ATOM     48  H   UNL A   1      40.905  30.242  34.270  1.00  0.00     0.167 HD
ATOM     49  C   UNL A   1      37.389  32.849  33.961  1.00  0.00     0.031 A 
ATOM     50  C   UNL A   1      43.259  29.309  35.448  1.00  0.00     0.031 A 
ATOM     51  C   UNL A   1      38.053  33.243  35.177  1.00  0.00     0.049 A 
ATOM     52  C   UNL A   1      42.789  30.461  36.296  1.00  0.00     0.074 A 
ATOM     53  C   UNL A   1      37.667  34.205  36.094  1.00  0.00     0.029 A 
ATOM     54  N   UNL A   1      39.250  32.712  35.637  1.00  0.00    -0.354 N 
ATOM     55  N   UNL A   1      41.712  31.199  36.165  1.00  0.00    -0.248 NA
ATOM     56  C   UNL A   1      43.631  30.821  37.444  1.00  0.00     0.031 C 
ATOM     57  C   UNL A   1      38.673  34.314  37.060  1.00  0.00     0.029 A 
ATOM     58  C   UNL A   1      39.641  33.356  36.799  1.00  0.00     0.049 A 
ATOM     59  H   UNL A   1      39.747  31.983  35.201  1.00  0.00     0.167 HD
ATOM     60  C   UNL A   1      41.728  32.087  37.235  1.00  0.00     0.074 A 
ATOM     61  C   UNL A   1      42.917  31.785  38.008  1.00  0.00     0.031 C 
ATOM     62  C   UNL A   1      40.833  33.056  37.555  1.00  0.00     0.031 A 
BRANCH  49  63
ATOM     63  C   UNL A   1      36.154  33.602  33.528  1.00  0.00    -0.014 A 
ATOM     64  C   UNL A   1      34.864  33.059  33.675  1.00  0.00     0.010 A 
ATOM     65  C   UNL A   1      36.291  34.880  32.954  1.00  0.00     0.010 A 
ATOM     66  C   UNL A   1      33.746  33.744  33.192  1.00  0.00     0.020 A 
ATOM     67  C   UNL A   1      35.172  35.586  32.506  1.00  0.00     0.020 A 
ATOM     68  C   UNL A   1      33.909  35.002  32.602  1.00  0.00     0.054 A 
BRANCH  68  69
ATOM     69  S   UNL A   1      32.445  35.857  31.958  1.00  0.00     0.124 S 
ATOM     70  O   UNL A   1      32.514  35.540  30.534  1.00  0.00    -0.237 OA
ATOM     71  O   UNL A   1      31.355  35.219  32.692  1.00  0.00    -0.237 OA
ATOM     72  O   UNL A   1      32.684  37.258  32.296  1.00  0.00    -0.744 OA
ENDBRANCH  68  69
ENDBRANCH  49  63
BRANCH  50  73
ATOM     73  C   UNL A   1      44.483  28.542  35.803  1.00  0.00    -0.014 A 
ATOM     74  C   UNL A   1      44.394  27.423  36.650  1.00  0.00     0.010 A 
ATOM     75  C   UNL A   1      45.735  28.903  35.275  1.00  0.00     0.010 A 
ATOM     76  C   UNL A   1      45.536  26.680  36.961  1.00  0.00     0.020 A 
ATOM     77  C   UNL A   1      46.873  28.143  35.557  1.00  0.00     0.020 A 
ATOM     78  C   UNL A   1      46.765  27.037  36.402  1.00  0.00     0.054 A 
BRANCH  78  79
ATOM     79  S   UNL A   1      48.213  26.002  36.754  1.00  0.00     0.124 S 
ATOM     80  O   UNL A   1      48.402  26.217  38.184  1.00  0.00    -0.237 OA
ATOM     81  O   UNL A   1      47.745  24.673  36.367  1.00  0.00    -0.237 OA
ATOM     82  O   UNL A   1      49.253  26.562  35.893  1.00  0.00    -0.744 OA
ENDBRANCH  78  79
ENDBRANCH  50  73
BRANCH  62  83
ATOM     83  C   UNL A   1      41.080  33.843  38.819  1.00  0.00    -0.014 A 
ATOM     84  C   UNL A   1      41.781  35.061  38.807  1.00  0.00     0.010 A 
ATOM     85  C   UNL A   1      40.549  33.374  40.037  1.00  0.00     0.010 A 
ATOM     86  C   UNL A   1      41.978  35.777  39.992  1.00  0.00     0.020 A 
ATOM     87  C   UNL A   1      40.710  34.105  41.216  1.00  0.00     0.020 A 
ATOM     88  C   UNL A   1      41.437  35.296  41.188  1.00  0.00     0.054 A 
BRANCH  88  89
ATOM     89  S   UNL A   1      41.666  36.270  42.701  1.00  0.00     0.124 S 
ATOM     90  O   UNL A   1      40.940  35.475  43.688  1.00  0.00    -0.237 OA
ATOM     91  O   UNL A   1      43.119  36.286  42.852  1.00  0.00    -0.237 OA
ATOM     92  O   UNL A   1      41.064  37.561  42.378  1.00  0.00    -0.744 OA
ENDBRANCH  88  89
ENDBRANCH  62  83
ENDBRANCH  36  37
ENDBRANCH  29  31
ENDBRANCH  28  29
ENDBRANCH  27  28
ENDBRANCH  26  27
ENDBRANCH  25  26
ENDBRANCH   1  25
TORSDOF 21
ENDMDL
