MODEL 1
REMARK VINA RESULT:     -11.2      0.000      0.000
REMARK SMILES O=C(OCCOCCOC(=O)c1ccc(-c2ccn(C(F)F)c(=O)c2)cc1O)c1ccc(-c2c3nc(c(-c4ccc(S(=O)(=O)[O-])cc4)c4ccc([nH]4)c(-c4ccc(S(=O)(=O)[O-])cc4)c4nc(c(-c5ccc(S(=O)(=O)[O-])cc5)c5ccc2[nH]5)C=C4)C=C3)cc1
REMARK SMILES IDX 5 1 4 2 3 3 2 4 1 5 29 6 30 7 88 8 31 9 87 10 32 11 33 12
REMARK SMILES IDX 34 13 81 14 35 15 86 16 80 17 82 18 36 19 85 20 79 21 78 22
REMARK SMILES IDX 37 24 67 25 48 26 66 27 49 28 52 29 65 30 83 31 50 32 51 33
REMARK SMILES IDX 64 35 84 36 53 37 38 38 39 39 47 40 40 41 46 42 41 43 42 44
REMARK SMILES IDX 43 45 44 46 45 47 68 48 69 49 77 50 70 51 76 52 71 53 72 54
REMARK SMILES IDX 73 55 74 56 75 57 54 58 55 59 63 60 56 61 62 62 57 63 58 64
REMARK SMILES IDX 59 65 60 66 61 67 6 68 7 69 8 70 9 71 10 72 11 73 12 74
REMARK SMILES IDX 13 75 27 76 14 77 26 78 15 79 28 80 16 82 17 83 25 84 18 85
REMARK SMILES IDX 23 86 19 87 24 88 20 89 21 90 22 91
REMARK H PARENT 82 23 52 34 28 81
REMARK Flexibility Score: inf
ROOT
ATOM      1  C   UNL A   1      35.161  24.591  25.152  1.00  0.00     0.202 C 
ENDROOT
BRANCH   1   2
ATOM      2  C   UNL A   1      35.986  23.434  25.714  1.00  0.00     0.261 C 
BRANCH   2   3
ATOM      3  O   UNL A   1      37.333  23.393  25.230  1.00  0.00    -0.460 OA
BRANCH   3   4
ATOM      4  C   UNL A   1      38.452  23.244  25.984  1.00  0.00     0.338 C 
ATOM      5  O   UNL A   1      38.876  22.112  26.208  1.00  0.00    -0.246 OA
BRANCH   4   6
ATOM      6  C   UNL A   1      39.035  24.392  26.740  1.00  0.00     0.060 A 
ATOM      7  C   UNL A   1      39.980  25.180  26.059  1.00  0.00     0.016 A 
ATOM      8  C   UNL A   1      38.718  24.728  28.057  1.00  0.00     0.016 A 
ATOM      9  C   UNL A   1      40.628  26.239  26.704  1.00  0.00     0.010 A 
ATOM     10  C   UNL A   1      39.416  25.720  28.730  1.00  0.00     0.010 A 
ATOM     11  C   UNL A   1      40.355  26.496  28.051  1.00  0.00    -0.014 A 
BRANCH  11  12
ATOM     12  C   UNL A   1      40.808  27.725  28.720  1.00  0.00     0.031 A 
ATOM     13  C   UNL A   1      42.130  27.811  29.402  1.00  0.00     0.074 A 
ATOM     14  C   UNL A   1      39.895  28.707  28.820  1.00  0.00     0.049 A 
ATOM     15  N   UNL A   1      42.678  28.850  29.974  1.00  0.00    -0.248 NA
ATOM     16  C   UNL A   1      42.937  26.584  29.469  1.00  0.00     0.031 C 
ATOM     17  C   UNL A   1      38.535  28.634  28.273  1.00  0.00     0.029 A 
ATOM     18  N   UNL A   1      39.945  29.921  29.439  1.00  0.00    -0.354 N 
ATOM     19  C   UNL A   1      43.920  28.424  30.421  1.00  0.00     0.074 A 
ATOM     20  C   UNL A   1      44.014  27.010  30.121  1.00  0.00     0.031 C 
ATOM     21  C   UNL A   1      37.872  29.749  28.601  1.00  0.00     0.029 A 
ATOM     22  C   UNL A   1      38.767  30.621  29.353  1.00  0.00     0.049 A 
ATOM     23  H   UNL A   1      40.744  30.262  29.902  1.00  0.00     0.167 HD
ATOM     24  C   UNL A   1      44.889  29.172  30.999  1.00  0.00     0.031 A 
ATOM     25  C   UNL A   1      38.450  31.847  29.801  1.00  0.00     0.031 A 
ATOM     26  C   UNL A   1      44.711  30.563  31.345  1.00  0.00     0.049 A 
ATOM     27  C   UNL A   1      39.537  32.666  30.423  1.00  0.00     0.074 A 
ATOM     28  C   UNL A   1      45.632  31.445  31.878  1.00  0.00     0.029 A 
ATOM     29  N   UNL A   1      43.519  31.269  31.209  1.00  0.00    -0.354 N 
ATOM     30  N   UNL A   1      40.771  32.309  30.698  1.00  0.00    -0.248 NA
ATOM     31  C   UNL A   1      39.218  34.058  30.744  1.00  0.00     0.031 C 
ATOM     32  C   UNL A   1      44.979  32.656  32.135  1.00  0.00     0.029 A 
ATOM     33  C   UNL A   1      43.671  32.562  31.683  1.00  0.00     0.049 A 
ATOM     34  H   UNL A   1      42.687  30.902  30.831  1.00  0.00     0.167 HD
ATOM     35  C   UNL A   1      41.384  33.438  31.219  1.00  0.00     0.074 A 
ATOM     36  C   UNL A   1      40.390  34.497  31.185  1.00  0.00     0.031 C 
ATOM     37  C   UNL A   1      42.650  33.586  31.686  1.00  0.00     0.031 A 
BRANCH  24  38
ATOM     38  C   UNL A   1      46.236  28.534  31.250  1.00  0.00    -0.014 A 
ATOM     39  C   UNL A   1      47.204  28.466  30.231  1.00  0.00     0.010 A 
ATOM     40  C   UNL A   1      46.492  27.875  32.469  1.00  0.00     0.010 A 
ATOM     41  C   UNL A   1      48.378  27.723  30.408  1.00  0.00     0.020 A 
ATOM     42  C   UNL A   1      47.678  27.156  32.662  1.00  0.00     0.020 A 
ATOM     43  C   UNL A   1      48.601  27.064  31.619  1.00  0.00     0.054 A 
BRANCH  43  44
ATOM     44  S   UNL A   1      50.104  26.065  31.815  1.00  0.00     0.124 S 
ATOM     45  O   UNL A   1      51.152  27.081  31.817  1.00  0.00    -0.237 OA
ATOM     46  O   UNL A   1      49.875  25.392  33.092  1.00  0.00    -0.237 OA
ATOM     47  O   UNL A   1      50.088  25.186  30.648  1.00  0.00    -0.744 OA
ENDBRANCH  43  44
ENDBRANCH  24  38
BRANCH  25  48
ATOM     48  C   UNL A   1      37.088  32.365  29.514  1.00  0.00    -0.014 A 
ATOM     49  C   UNL A   1      36.808  32.982  28.278  1.00  0.00     0.010 A 
ATOM     50  C   UNL A   1      36.135  32.432  30.545  1.00  0.00     0.010 A 
ATOM     51  C   UNL A   1      35.632  33.716  28.106  1.00  0.00     0.020 A 
ATOM     52  C   UNL A   1      34.945  33.143  30.366  1.00  0.00     0.020 A 
ATOM     53  C   UNL A   1      34.719  33.810  29.160  1.00  0.00     0.054 A 
BRANCH  53  54
ATOM     54  S   UNL A   1      33.258  34.863  28.953  1.00  0.00     0.124 S 
ATOM     55  O   UNL A   1      32.511  34.141  27.926  1.00  0.00    -0.237 OA
ATOM     56  O   UNL A   1      32.665  34.852  30.287  1.00  0.00    -0.237 OA
ATOM     57  O   UNL A   1      33.816  36.146  28.531  1.00  0.00    -0.744 OA
ENDBRANCH  53  54
ENDBRANCH  25  48
BRANCH  37  58
ATOM     58  C   UNL A   1      43.015  34.933  32.254  1.00  0.00    -0.014 A 
ATOM     59  C   UNL A   1      42.709  35.244  33.590  1.00  0.00     0.010 A 
ATOM     60  C   UNL A   1      43.596  35.919  31.436  1.00  0.00     0.010 A 
ATOM     61  C   UNL A   1      42.959  36.521  34.095  1.00  0.00     0.020 A 
ATOM     62  C   UNL A   1      43.882  37.187  31.947  1.00  0.00     0.020 A 
ATOM     63  C   UNL A   1      43.542  37.486  33.269  1.00  0.00     0.054 A 
BRANCH  63  64
ATOM     64  S   UNL A   1      43.867  39.137  33.943  1.00  0.00     0.124 S 
ATOM     65  O   UNL A   1      42.653  39.861  33.579  1.00  0.00    -0.237 OA
ATOM     66  O   UNL A   1      44.040  38.872  35.370  1.00  0.00    -0.237 OA
ATOM     67  O   UNL A   1      45.079  39.559  33.246  1.00  0.00    -0.744 OA
ENDBRANCH  63  64
ENDBRANCH  37  58
ENDBRANCH  11  12
ENDBRANCH   4   6
ENDBRANCH   3   4
ENDBRANCH   2   3
ENDBRANCH   1   2
BRANCH   1  68
ATOM     68  O   UNL A   1      34.055  25.047  25.924  1.00  0.00    -0.374 OA
BRANCH  68  69
ATOM     69  C   UNL A   1      33.600  26.371  25.623  1.00  0.00     0.202 C 
BRANCH  69  70
ATOM     70  C   UNL A   1      33.458  26.660  24.123  1.00  0.00     0.261 C 
BRANCH  70  71
ATOM     71  O   UNL A   1      32.078  26.773  23.747  1.00  0.00    -0.460 OA
BRANCH  71  72
ATOM     72  C   UNL A   1      31.695  26.007  22.690  1.00  0.00     0.341 C 
ATOM     73  O   UNL A   1      31.455  26.364  21.557  1.00  0.00    -0.246 OA
BRANCH  72  74
ATOM     74  C   UNL A   1      31.871  24.589  23.066  1.00  0.00     0.101 A 
ATOM     75  C   UNL A   1      32.815  23.837  22.344  1.00  0.00     0.020 A 
ATOM     76  C   UNL A   1      31.163  24.004  24.112  1.00  0.00     0.130 A 
ATOM     77  C   UNL A   1      33.066  22.507  22.682  1.00  0.00     0.010 A 
ATOM     78  C   UNL A   1      31.395  22.671  24.436  1.00  0.00     0.055 A 
ATOM     79  C   UNL A   1      32.339  21.918  23.717  1.00  0.00    -0.014 A 
BRANCH  76  80
ATOM     80  O   UNL A   1      30.210  24.711  24.786  1.00  0.00    -0.507 OA
ATOM     81  H   UNL A   1      30.083  24.569  25.703  1.00  0.00     0.293 HD
ENDBRANCH  76  80
BRANCH  79  82
ATOM     82  C   UNL A   1      32.405  20.474  23.980  1.00  0.00    -0.011 A 
ATOM     83  C   UNL A   1      32.652  19.994  25.323  1.00  0.00     0.027 A 
ATOM     84  C   UNL A   1      32.369  19.604  22.957  1.00  0.00     0.080 A 
ATOM     85  C   UNL A   1      32.985  18.718  25.534  1.00  0.00     0.095 A 
ATOM     86  C   UNL A   1      32.683  18.164  23.189  1.00  0.00     0.255 A 
ATOM     87  N   UNL A   1      33.040  17.821  24.485  1.00  0.00    -0.258 N 
ATOM     88  O   UNL A   1      32.656  17.395  22.232  1.00  0.00    -0.269 OA
BRANCH  87  89
ATOM     89  C   UNL A   1      33.525  16.485  24.706  1.00  0.00     0.451 C 
ATOM     90  F   UNL A   1      32.526  15.573  24.645  1.00  0.00    -0.185 F 
ATOM     91  F   UNL A   1      34.456  16.154  23.776  1.00  0.00    -0.185 F 
ENDBRANCH  87  89
ENDBRANCH  79  82
ENDBRANCH  72  74
ENDBRANCH  71  72
ENDBRANCH  70  71
ENDBRANCH  69  70
ENDBRANCH  68  69
ENDBRANCH   1  68
TORSDOF 20
ENDMDL
MODEL 2
REMARK VINA RESULT:     -11.0      3.380      4.807
REMARK SMILES O=C(OCCOCCOC(=O)c1ccc(-c2ccn(C(F)F)c(=O)c2)cc1O)c1ccc(-c2c3nc(c(-c4ccc(S(=O)(=O)[O-])cc4)c4ccc([nH]4)c(-c4ccc(S(=O)(=O)[O-])cc4)c4nc(c(-c5ccc(S(=O)(=O)[O-])cc5)c5ccc2[nH]5)C=C4)C=C3)cc1
REMARK SMILES IDX 5 1 4 2 3 3 2 4 1 5 29 6 30 7 88 8 31 9 87 10 32 11 33 12
REMARK SMILES IDX 34 13 81 14 35 15 86 16 80 17 82 18 36 19 85 20 79 21 78 22
REMARK SMILES IDX 37 24 67 25 48 26 66 27 49 28 52 29 65 30 83 31 50 32 51 33
REMARK SMILES IDX 64 35 84 36 53 37 38 38 39 39 47 40 40 41 46 42 41 43 42 44
REMARK SMILES IDX 43 45 44 46 45 47 68 48 69 49 77 50 70 51 76 52 71 53 72 54
REMARK SMILES IDX 73 55 74 56 75 57 54 58 55 59 63 60 56 61 62 62 57 63 58 64
REMARK SMILES IDX 59 65 60 66 61 67 6 68 7 69 8 70 9 71 10 72 11 73 12 74
REMARK SMILES IDX 13 75 27 76 14 77 26 78 15 79 28 80 16 82 17 83 25 84 18 85
REMARK SMILES IDX 23 86 19 87 24 88 20 89 21 90 22 91
REMARK H PARENT 82 23 52 34 28 81
REMARK Flexibility Score: inf
ROOT
ATOM      1  C   UNL A   1      36.356  21.376  24.816  1.00  0.00     0.202 C 
ENDROOT
BRANCH   1   2
ATOM      2  C   UNL A   1      37.847  21.443  25.143  1.00  0.00     0.261 C 
BRANCH   2   3
ATOM      3  O   UNL A   1      38.252  22.672  25.757  1.00  0.00    -0.460 OA
BRANCH   3   4
ATOM      4  C   UNL A   1      39.379  22.870  26.488  1.00  0.00     0.338 C 
ATOM      5  O   UNL A   1      39.998  21.895  26.908  1.00  0.00    -0.246 OA
BRANCH   4   6
ATOM      6  C   UNL A   1      39.746  24.227  26.992  1.00  0.00     0.060 A 
ATOM      7  C   UNL A   1      39.231  24.593  28.248  1.00  0.00     0.016 A 
ATOM      8  C   UNL A   1      40.546  25.145  26.311  1.00  0.00     0.016 A 
ATOM      9  C   UNL A   1      39.468  25.867  28.775  1.00  0.00     0.010 A 
ATOM     10  C   UNL A   1      40.714  26.438  26.785  1.00  0.00     0.010 A 
ATOM     11  C   UNL A   1      40.198  26.797  28.030  1.00  0.00    -0.014 A 
BRANCH  11  12
ATOM     12  C   UNL A   1      40.687  28.055  28.612  1.00  0.00     0.031 A 
ATOM     13  C   UNL A   1      42.063  28.186  29.170  1.00  0.00     0.074 A 
ATOM     14  C   UNL A   1      39.770  29.027  28.758  1.00  0.00     0.049 A 
ATOM     15  N   UNL A   1      42.641  29.253  29.653  1.00  0.00    -0.248 NA
ATOM     16  C   UNL A   1      42.894  26.974  29.209  1.00  0.00     0.031 C 
ATOM     17  C   UNL A   1      38.368  28.915  28.337  1.00  0.00     0.029 A 
ATOM     18  N   UNL A   1      39.853  30.265  29.327  1.00  0.00    -0.354 N 
ATOM     19  C   UNL A   1      43.925  28.862  30.003  1.00  0.00     0.074 A 
ATOM     20  C   UNL A   1      44.017  27.439  29.746  1.00  0.00     0.031 C 
ATOM     21  C   UNL A   1      37.718  30.032  28.683  1.00  0.00     0.029 A 
ATOM     22  C   UNL A   1      38.660  30.943  29.321  1.00  0.00     0.049 A 
ATOM     23  H   UNL A   1      40.684  30.633  29.704  1.00  0.00     0.167 HD
ATOM     24  C   UNL A   1      44.928  29.644  30.466  1.00  0.00     0.031 A 
ATOM     25  C   UNL A   1      38.362  32.181  29.752  1.00  0.00     0.031 A 
ATOM     26  C   UNL A   1      44.756  31.044  30.777  1.00  0.00     0.049 A 
ATOM     27  C   UNL A   1      39.485  33.037  30.245  1.00  0.00     0.074 A 
ATOM     28  C   UNL A   1      45.705  31.959  31.195  1.00  0.00     0.029 A 
ATOM     29  N   UNL A   1      43.545  31.727  30.723  1.00  0.00    -0.354 N 
ATOM     30  N   UNL A   1      40.745  32.708  30.422  1.00  0.00    -0.248 NA
ATOM     31  C   UNL A   1      39.172  34.436  30.543  1.00  0.00     0.031 C 
ATOM     32  C   UNL A   1      45.057  33.169  31.465  1.00  0.00     0.029 A 
ATOM     33  C   UNL A   1      43.716  33.039  31.136  1.00  0.00     0.049 A 
ATOM     34  H   UNL A   1      42.690  31.335  30.434  1.00  0.00     0.167 HD
ATOM     35  C   UNL A   1      41.381  33.865  30.846  1.00  0.00     0.074 A 
ATOM     36  C   UNL A   1      40.370  34.907  30.863  1.00  0.00     0.031 C 
ATOM     37  C   UNL A   1      42.681  34.048  31.193  1.00  0.00     0.031 A 
BRANCH  24  38
ATOM     38  C   UNL A   1      46.303  29.036  30.619  1.00  0.00    -0.014 A 
ATOM     39  C   UNL A   1      47.171  28.928  29.517  1.00  0.00     0.010 A 
ATOM     40  C   UNL A   1      46.684  28.441  31.839  1.00  0.00     0.010 A 
ATOM     41  C   UNL A   1      48.368  28.209  29.617  1.00  0.00     0.020 A 
ATOM     42  C   UNL A   1      47.894  27.747  31.952  1.00  0.00     0.020 A 
ATOM     43  C   UNL A   1      48.716  27.613  30.832  1.00  0.00     0.054 A 
BRANCH  43  44
ATOM     44  S   UNL A   1      50.247  26.643  30.933  1.00  0.00     0.124 S 
ATOM     45  O   UNL A   1      50.785  26.775  29.583  1.00  0.00    -0.237 OA
ATOM     46  O   UNL A   1      50.994  27.335  31.981  1.00  0.00    -0.237 OA
ATOM     47  O   UNL A   1      49.783  25.305  31.292  1.00  0.00    -0.744 OA
ENDBRANCH  43  44
ENDBRANCH  24  38
BRANCH  25  48
ATOM     48  C   UNL A   1      36.971  32.668  29.569  1.00  0.00    -0.014 A 
ATOM     49  C   UNL A   1      36.523  33.077  28.297  1.00  0.00     0.010 A 
ATOM     50  C   UNL A   1      36.166  32.920  30.693  1.00  0.00     0.010 A 
ATOM     51  C   UNL A   1      35.331  33.794  28.166  1.00  0.00     0.020 A 
ATOM     52  C   UNL A   1      34.960  33.613  30.561  1.00  0.00     0.020 A 
ATOM     53  C   UNL A   1      34.569  34.076  29.302  1.00  0.00     0.054 A 
BRANCH  53  54
ATOM     54  S   UNL A   1      33.087  35.107  29.122  1.00  0.00     0.124 S 
ATOM     55  O   UNL A   1      32.329  34.367  28.117  1.00  0.00    -0.237 OA
ATOM     56  O   UNL A   1      32.525  35.094  30.470  1.00  0.00    -0.237 OA
ATOM     57  O   UNL A   1      33.617  36.395  28.681  1.00  0.00    -0.744 OA
ENDBRANCH  53  54
ENDBRANCH  25  48
BRANCH  37  58
ATOM     58  C   UNL A   1      43.071  35.420  31.678  1.00  0.00    -0.014 A 
ATOM     59  C   UNL A   1      43.623  36.355  30.784  1.00  0.00     0.010 A 
ATOM     60  C   UNL A   1      42.960  35.755  33.039  1.00  0.00     0.010 A 
ATOM     61  C   UNL A   1      44.074  37.594  31.246  1.00  0.00     0.020 A 
ATOM     62  C   UNL A   1      43.376  37.007  33.498  1.00  0.00     0.020 A 
ATOM     63  C   UNL A   1      43.949  37.911  32.601  1.00  0.00     0.054 A 
BRANCH  63  64
ATOM     64  S   UNL A   1      44.533  39.526  33.181  1.00  0.00     0.124 S 
ATOM     65  O   UNL A   1      43.387  40.011  33.943  1.00  0.00    -0.237 OA
ATOM     66  O   UNL A   1      45.713  39.175  33.970  1.00  0.00    -0.237 OA
ATOM     67  O   UNL A   1      44.815  40.252  31.945  1.00  0.00    -0.744 OA
ENDBRANCH  63  64
ENDBRANCH  37  58
ENDBRANCH  11  12
ENDBRANCH   4   6
ENDBRANCH   3   4
ENDBRANCH   2   3
ENDBRANCH   1   2
BRANCH   1  68
ATOM     68  O   UNL A   1      35.731  22.564  24.344  1.00  0.00    -0.374 OA
BRANCH  68  69
ATOM     69  C   UNL A   1      34.407  22.397  23.826  1.00  0.00     0.202 C 
BRANCH  69  70
ATOM     70  C   UNL A   1      33.479  21.573  24.727  1.00  0.00     0.261 C 
BRANCH  70  71
ATOM     71  O   UNL A   1      32.771  22.414  25.649  1.00  0.00    -0.460 OA
BRANCH  71  72
ATOM     72  C   UNL A   1      31.416  22.394  25.539  1.00  0.00     0.341 C 
ATOM     73  O   UNL A   1      30.644  21.563  25.966  1.00  0.00    -0.246 OA
BRANCH  72  74
ATOM     74  C   UNL A   1      30.981  23.711  25.030  1.00  0.00     0.101 A 
ATOM     75  C   UNL A   1      30.667  24.703  25.976  1.00  0.00     0.020 A 
ATOM     76  C   UNL A   1      30.902  23.993  23.669  1.00  0.00     0.130 A 
ATOM     77  C   UNL A   1      30.299  25.983  25.562  1.00  0.00     0.010 A 
ATOM     78  C   UNL A   1      30.512  25.262  23.253  1.00  0.00     0.055 A 
ATOM     79  C   UNL A   1      30.201  26.256  24.197  1.00  0.00    -0.014 A 
BRANCH  76  80
ATOM     80  O   UNL A   1      31.155  23.023  22.744  1.00  0.00    -0.507 OA
ATOM     81  H   UNL A   1      30.446  22.550  22.354  1.00  0.00     0.293 HD
ENDBRANCH  76  80
BRANCH  79  82
ATOM     82  C   UNL A   1      29.619  27.510  23.702  1.00  0.00    -0.011 A 
ATOM     83  C   UNL A   1      30.438  28.700  23.603  1.00  0.00     0.027 A 
ATOM     84  C   UNL A   1      28.298  27.589  23.466  1.00  0.00     0.080 A 
ATOM     85  C   UNL A   1      29.874  29.896  23.422  1.00  0.00     0.095 A 
ATOM     86  C   UNL A   1      27.663  28.914  23.206  1.00  0.00     0.255 A 
ATOM     87  N   UNL A   1      28.507  30.014  23.264  1.00  0.00    -0.258 N 
ATOM     88  O   UNL A   1      26.452  28.956  23.008  1.00  0.00    -0.269 OA
BRANCH  87  89
ATOM     89  C   UNL A   1      27.900  31.317  23.200  1.00  0.00     0.451 C 
ATOM     90  F   UNL A   1      28.668  32.257  23.798  1.00  0.00    -0.185 F 
ATOM     91  F   UNL A   1      27.701  31.690  21.911  1.00  0.00    -0.185 F 
ENDBRANCH  87  89
ENDBRANCH  79  82
ENDBRANCH  72  74
ENDBRANCH  71  72
ENDBRANCH  70  71
ENDBRANCH  69  70
ENDBRANCH  68  69
ENDBRANCH   1  68
TORSDOF 20
ENDMDL
MODEL 3
REMARK VINA RESULT:     -10.7      3.874      5.873
REMARK SMILES O=C(OCCOCCOC(=O)c1ccc(-c2ccn(C(F)F)c(=O)c2)cc1O)c1ccc(-c2c3nc(c(-c4ccc(S(=O)(=O)[O-])cc4)c4ccc([nH]4)c(-c4ccc(S(=O)(=O)[O-])cc4)c4nc(c(-c5ccc(S(=O)(=O)[O-])cc5)c5ccc2[nH]5)C=C4)C=C3)cc1
REMARK SMILES IDX 5 1 4 2 3 3 2 4 1 5 29 6 30 7 88 8 31 9 87 10 32 11 33 12
REMARK SMILES IDX 34 13 81 14 35 15 86 16 80 17 82 18 36 19 85 20 79 21 78 22
REMARK SMILES IDX 37 24 67 25 48 26 66 27 49 28 52 29 65 30 83 31 50 32 51 33
REMARK SMILES IDX 64 35 84 36 53 37 38 38 39 39 47 40 40 41 46 42 41 43 42 44
REMARK SMILES IDX 43 45 44 46 45 47 68 48 69 49 77 50 70 51 76 52 71 53 72 54
REMARK SMILES IDX 73 55 74 56 75 57 54 58 55 59 63 60 56 61 62 62 57 63 58 64
REMARK SMILES IDX 59 65 60 66 61 67 6 68 7 69 8 70 9 71 10 72 11 73 12 74
REMARK SMILES IDX 13 75 27 76 14 77 26 78 15 79 28 80 16 82 17 83 25 84 18 85
REMARK SMILES IDX 23 86 19 87 24 88 20 89 21 90 22 91
REMARK H PARENT 82 23 52 34 28 81
REMARK Flexibility Score: inf
ROOT
ATOM      1  C   UNL A   1      44.375  21.971  25.756  1.00  0.00     0.202 C 
ENDROOT
BRANCH   1   2
ATOM      2  C   UNL A   1      43.706  22.969  26.699  1.00  0.00     0.261 C 
BRANCH   2   3
ATOM      3  O   UNL A   1      43.842  24.335  26.290  1.00  0.00    -0.460 OA
BRANCH   3   4
ATOM      4  C   UNL A   1      42.833  25.233  26.146  1.00  0.00     0.338 C 
ATOM      5  O   UNL A   1      42.322  25.385  25.038  1.00  0.00    -0.246 OA
BRANCH   4   6
ATOM      6  C   UNL A   1      42.497  26.201  27.232  1.00  0.00     0.060 A 
ATOM      7  C   UNL A   1      41.392  25.881  28.042  1.00  0.00     0.016 A 
ATOM      8  C   UNL A   1      43.187  27.386  27.491  1.00  0.00     0.016 A 
ATOM      9  C   UNL A   1      40.962  26.756  29.044  1.00  0.00     0.010 A 
ATOM     10  C   UNL A   1      42.716  28.299  28.424  1.00  0.00     0.010 A 
ATOM     11  C   UNL A   1      41.619  27.977  29.222  1.00  0.00    -0.014 A 
BRANCH  11  12
ATOM     12  C   UNL A   1      41.380  28.830  30.396  1.00  0.00     0.031 A 
ATOM     13  C   UNL A   1      42.129  28.645  31.672  1.00  0.00     0.074 A 
ATOM     14  C   UNL A   1      40.338  29.674  30.304  1.00  0.00     0.049 A 
ATOM     15  N   UNL A   1      42.063  29.366  32.759  1.00  0.00    -0.248 NA
ATOM     16  C   UNL A   1      43.057  27.507  31.751  1.00  0.00     0.031 C 
ATOM     17  C   UNL A   1      39.488  29.815  29.116  1.00  0.00     0.029 A 
ATOM     18  N   UNL A   1      39.790  30.530  31.214  1.00  0.00    -0.354 N 
ATOM     19  C   UNL A   1      42.980  28.809  33.638  1.00  0.00     0.074 A 
ATOM     20  C   UNL A   1      43.537  27.642  32.983  1.00  0.00     0.031 C 
ATOM     21  C   UNL A   1      38.511  30.691  29.380  1.00  0.00     0.029 A 
ATOM     22  C   UNL A   1      38.685  31.189  30.739  1.00  0.00     0.049 A 
ATOM     23  H   UNL A   1      40.151  30.661  32.121  1.00  0.00     0.167 HD
ATOM     24  C   UNL A   1      43.331  29.266  34.863  1.00  0.00     0.031 A 
ATOM     25  C   UNL A   1      37.912  32.122  31.322  1.00  0.00     0.031 A 
ATOM     26  C   UNL A   1      42.686  30.392  35.498  1.00  0.00     0.049 A 
ATOM     27  C   UNL A   1      38.323  32.627  32.668  1.00  0.00     0.074 A 
ATOM     28  C   UNL A   1      42.987  30.989  36.708  1.00  0.00     0.029 A 
ATOM     29  N   UNL A   1      41.592  31.077  34.979  1.00  0.00    -0.354 N 
ATOM     30  N   UNL A   1      39.303  32.203  33.435  1.00  0.00    -0.248 NA
ATOM     31  C   UNL A   1      37.573  33.762  33.208  1.00  0.00     0.031 C 
ATOM     32  C   UNL A   1      42.032  31.982  36.955  1.00  0.00     0.029 A 
ATOM     33  C   UNL A   1      41.183  32.065  35.861  1.00  0.00     0.049 A 
ATOM     34  H   UNL A   1      41.168  30.887  34.111  1.00  0.00     0.167 HD
ATOM     35  C   UNL A   1      39.294  33.028  34.549  1.00  0.00     0.074 A 
ATOM     36  C   UNL A   1      38.234  33.996  34.335  1.00  0.00     0.031 C 
ATOM     37  C   UNL A   1      40.089  32.986  35.649  1.00  0.00     0.031 A 
BRANCH  24  38
ATOM     38  C   UNL A   1      44.482  28.598  35.578  1.00  0.00    -0.014 A 
ATOM     39  C   UNL A   1      45.700  29.275  35.775  1.00  0.00     0.010 A 
ATOM     40  C   UNL A   1      44.400  27.237  35.936  1.00  0.00     0.010 A 
ATOM     41  C   UNL A   1      46.819  28.600  36.277  1.00  0.00     0.020 A 
ATOM     42  C   UNL A   1      45.508  26.566  36.466  1.00  0.00     0.020 A 
ATOM     43  C   UNL A   1      46.719  27.246  36.608  1.00  0.00     0.054 A 
BRANCH  43  44
ATOM     44  S   UNL A   1      48.192  26.373  37.211  1.00  0.00     0.124 S 
ATOM     45  O   UNL A   1      49.267  27.285  36.834  1.00  0.00    -0.237 OA
ATOM     46  O   UNL A   1      47.932  26.263  38.645  1.00  0.00    -0.237 OA
ATOM     47  O   UNL A   1      48.164  25.107  36.483  1.00  0.00    -0.744 OA
ENDBRANCH  43  44
ENDBRANCH  24  38
BRANCH  25  48
ATOM     48  C   UNL A   1      36.793  32.695  30.530  1.00  0.00    -0.014 A 
ATOM     49  C   UNL A   1      37.006  33.826  29.716  1.00  0.00     0.010 A 
ATOM     50  C   UNL A   1      35.480  32.246  30.751  1.00  0.00     0.010 A 
ATOM     51  C   UNL A   1      35.920  34.537  29.199  1.00  0.00     0.020 A 
ATOM     52  C   UNL A   1      34.394  32.939  30.211  1.00  0.00     0.020 A 
ATOM     53  C   UNL A   1      34.620  34.101  29.470  1.00  0.00     0.054 A 
BRANCH  53  54
ATOM     54  S   UNL A   1      33.227  35.105  28.886  1.00  0.00     0.124 S 
ATOM     55  O   UNL A   1      33.912  36.249  28.290  1.00  0.00    -0.237 OA
ATOM     56  O   UNL A   1      32.562  34.209  27.944  1.00  0.00    -0.237 OA
ATOM     57  O   UNL A   1      32.477  35.393  30.106  1.00  0.00    -0.744 OA
ENDBRANCH  53  54
ENDBRANCH  25  48
BRANCH  37  58
ATOM     58  C   UNL A   1      39.800  33.988  36.737  1.00  0.00    -0.014 A 
ATOM     59  C   UNL A   1      40.426  35.247  36.725  1.00  0.00     0.010 A 
ATOM     60  C   UNL A   1      38.962  33.649  37.816  1.00  0.00     0.010 A 
ATOM     61  C   UNL A   1      40.236  36.142  37.779  1.00  0.00     0.020 A 
ATOM     62  C   UNL A   1      38.740  34.556  38.854  1.00  0.00     0.020 A 
ATOM     63  C   UNL A   1      39.396  35.790  38.839  1.00  0.00     0.054 A 
BRANCH  63  64
ATOM     64  S   UNL A   1      39.155  36.968  40.196  1.00  0.00     0.124 S 
ATOM     65  O   UNL A   1      38.292  36.218  41.103  1.00  0.00    -0.237 OA
ATOM     66  O   UNL A   1      40.519  37.198  40.666  1.00  0.00    -0.237 OA
ATOM     67  O   UNL A   1      38.528  38.116  39.544  1.00  0.00    -0.744 OA
ENDBRANCH  63  64
ENDBRANCH  37  58
ENDBRANCH  11  12
ENDBRANCH   4   6
ENDBRANCH   3   4
ENDBRANCH   2   3
ENDBRANCH   1   2
BRANCH   1  68
ATOM     68  O   UNL A   1      43.540  21.026  25.096  1.00  0.00    -0.374 OA
BRANCH  68  69
ATOM     69  C   UNL A   1      43.331  19.795  25.797  1.00  0.00     0.202 C 
BRANCH  69  70
ATOM     70  C   UNL A   1      41.857  19.460  26.053  1.00  0.00     0.261 C 
BRANCH  70  71
ATOM     71  O   UNL A   1      41.006  20.555  25.686  1.00  0.00    -0.460 OA
BRANCH  71  72
ATOM     72  C   UNL A   1      40.329  21.140  26.710  1.00  0.00     0.341 C 
ATOM     73  O   UNL A   1      40.724  21.365  27.834  1.00  0.00    -0.246 OA
BRANCH  72  74
ATOM     74  C   UNL A   1      39.086  21.722  26.162  1.00  0.00     0.101 A 
ATOM     75  C   UNL A   1      38.831  23.079  26.427  1.00  0.00     0.020 A 
ATOM     76  C   UNL A   1      38.199  20.982  25.386  1.00  0.00     0.130 A 
ATOM     77  C   UNL A   1      37.701  23.703  25.897  1.00  0.00     0.010 A 
ATOM     78  C   UNL A   1      37.059  21.595  24.876  1.00  0.00     0.055 A 
ATOM     79  C   UNL A   1      36.803  22.953  25.137  1.00  0.00    -0.014 A 
BRANCH  76  80
ATOM     80  O   UNL A   1      38.411  19.653  25.166  1.00  0.00    -0.507 OA
ATOM     81  H   UNL A   1      39.100  19.377  24.594  1.00  0.00     0.293 HD
ENDBRANCH  76  80
BRANCH  79  82
ATOM     82  C   UNL A   1      35.499  23.492  24.731  1.00  0.00    -0.011 A 
ATOM     83  C   UNL A   1      34.428  23.601  25.700  1.00  0.00     0.027 A 
ATOM     84  C   UNL A   1      35.257  23.762  23.438  1.00  0.00     0.080 A 
ATOM     85  C   UNL A   1      33.175  23.825  25.299  1.00  0.00     0.095 A 
ATOM     86  C   UNL A   1      33.868  24.070  22.984  1.00  0.00     0.255 A 
ATOM     87  N   UNL A   1      32.885  24.018  23.962  1.00  0.00    -0.258 N 
ATOM     88  O   UNL A   1      33.676  24.297  21.794  1.00  0.00    -0.269 OA
BRANCH  87  89
ATOM     89  C   UNL A   1      31.518  24.129  23.530  1.00  0.00     0.451 C 
ATOM     90  F   UNL A   1      30.672  23.502  24.381  1.00  0.00    -0.185 F 
ATOM     91  F   UNL A   1      31.146  25.431  23.447  1.00  0.00    -0.185 F 
ENDBRANCH  87  89
ENDBRANCH  79  82
ENDBRANCH  72  74
ENDBRANCH  71  72
ENDBRANCH  70  71
ENDBRANCH  69  70
ENDBRANCH  68  69
ENDBRANCH   1  68
TORSDOF 20
ENDMDL
