MODEL 1
REMARK VINA RESULT:     -10.6      0.000      0.000
REMARK SMILES O=C(OCCOCCOC(=O)c1csc(-c2ccnc(N3CCOCC3)c2)n1)c1ccc(-c2c3nc(c(-c4ccc(S(=O)(=O)[O-])cc4)c4ccc([nH]4)c(-c4ccc(S(=O)(=O)[O-])cc4)c4nc(c(-c5ccc(S(=O)(=O)[O-])cc5)c5ccc2[nH]5)C=C4)C=C3)cc1
REMARK SMILES IDX 5 1 4 2 3 3 2 4 1 5 29 6 30 7 88 8 31 9 87 10 32 11 33 12
REMARK SMILES IDX 34 13 81 14 35 15 86 16 80 17 82 18 36 19 85 20 79 21 78 22
REMARK SMILES IDX 37 24 67 25 48 26 66 27 49 28 52 29 65 30 83 31 50 32 51 33
REMARK SMILES IDX 64 35 84 36 53 37 38 38 39 39 47 40 40 41 46 42 41 43 42 44
REMARK SMILES IDX 43 45 44 46 45 47 68 48 69 49 77 50 70 51 76 52 71 53 72 54
REMARK SMILES IDX 73 55 74 56 75 57 54 58 55 59 63 60 56 61 62 62 57 63 58 64
REMARK SMILES IDX 59 65 60 66 61 67 6 68 7 69 8 70 9 71 10 72 11 73 12 74
REMARK SMILES IDX 13 75 28 76 14 77 15 78 16 79 17 80 27 81 18 82 20 83 19 84
REMARK SMILES IDX 21 85 22 86 26 87 23 88 25 89 24 90
REMARK H PARENT 82 23 52 34
REMARK Flexibility Score: inf
ROOT
ATOM      1  C   UNL A   1      34.189  35.593  28.377  1.00  0.00     0.202 C 
ENDROOT
BRANCH   1   2
ATOM      2  C   UNL A   1      32.809  35.623  29.037  1.00  0.00     0.261 C 
BRANCH   2   3
ATOM      3  O   UNL A   1      32.932  36.108  30.384  1.00  0.00    -0.460 OA
BRANCH   3   4
ATOM      4  C   UNL A   1      33.023  35.403  31.533  1.00  0.00     0.338 C 
ATOM      5  O   UNL A   1      32.021  35.318  32.242  1.00  0.00    -0.246 OA
BRANCH   4   6
ATOM      6  C   UNL A   1      34.265  34.709  31.994  1.00  0.00     0.060 A 
ATOM      7  C   UNL A   1      35.564  35.217  31.902  1.00  0.00     0.016 A 
ATOM      8  C   UNL A   1      34.081  33.488  32.665  1.00  0.00     0.016 A 
ATOM      9  C   UNL A   1      36.658  34.514  32.396  1.00  0.00     0.010 A 
ATOM     10  C   UNL A   1      35.168  32.790  33.194  1.00  0.00     0.010 A 
ATOM     11  C   UNL A   1      36.464  33.294  33.039  1.00  0.00    -0.014 A 
BRANCH  11  12
ATOM     12  C   UNL A   1      37.632  32.503  33.457  1.00  0.00     0.031 A 
ATOM     13  C   UNL A   1      38.262  32.815  34.778  1.00  0.00     0.074 A 
ATOM     14  C   UNL A   1      38.084  31.504  32.678  1.00  0.00     0.049 A 
ATOM     15  N   UNL A   1      39.357  32.342  35.303  1.00  0.00    -0.248 NA
ATOM     16  C   UNL A   1      37.556  33.795  35.622  1.00  0.00     0.031 C 
ATOM     17  C   UNL A   1      37.465  31.068  31.425  1.00  0.00     0.029 A 
ATOM     18  N   UNL A   1      39.165  30.680  32.826  1.00  0.00    -0.354 N 
ATOM     19  C   UNL A   1      39.494  32.991  36.524  1.00  0.00     0.074 A 
ATOM     20  C   UNL A   1      38.368  33.887  36.663  1.00  0.00     0.031 C 
ATOM     21  C   UNL A   1      38.186  30.057  30.913  1.00  0.00     0.029 A 
ATOM     22  C   UNL A   1      39.343  29.818  31.771  1.00  0.00     0.049 A 
ATOM     23  H   UNL A   1      39.758  30.701  33.612  1.00  0.00     0.167 HD
ATOM     24  C   UNL A   1      40.487  32.862  37.432  1.00  0.00     0.031 A 
ATOM     25  C   UNL A   1      40.353  28.965  31.511  1.00  0.00     0.031 A 
ATOM     26  C   UNL A   1      41.613  31.990  37.244  1.00  0.00     0.049 A 
ATOM     27  C   UNL A   1      41.485  28.886  32.497  1.00  0.00     0.074 A 
ATOM     28  C   UNL A   1      42.720  31.816  38.053  1.00  0.00     0.029 A 
ATOM     29  N   UNL A   1      41.772  31.146  36.152  1.00  0.00    -0.354 N 
ATOM     30  N   UNL A   1      41.637  29.541  33.626  1.00  0.00    -0.248 NA
ATOM     31  C   UNL A   1      42.584  27.966  32.180  1.00  0.00     0.031 C 
ATOM     32  C   UNL A   1      43.568  30.893  37.429  1.00  0.00     0.029 A 
ATOM     33  C   UNL A   1      42.964  30.454  36.257  1.00  0.00     0.049 A 
ATOM     34  H   UNL A   1      41.130  31.054  35.413  1.00  0.00     0.167 HD
ATOM     35  C   UNL A   1      42.839  29.103  34.164  1.00  0.00     0.074 A 
ATOM     36  C   UNL A   1      43.372  28.119  33.238  1.00  0.00     0.031 C 
ATOM     37  C   UNL A   1      43.450  29.476  35.315  1.00  0.00     0.031 A 
BRANCH  24  38
ATOM     38  C   UNL A   1      40.420  33.758  38.637  1.00  0.00    -0.014 A 
ATOM     39  C   UNL A   1      39.641  33.422  39.760  1.00  0.00     0.010 A 
ATOM     40  C   UNL A   1      41.084  34.997  38.611  1.00  0.00     0.010 A 
ATOM     41  C   UNL A   1      39.469  34.341  40.801  1.00  0.00     0.020 A 
ATOM     42  C   UNL A   1      40.934  35.909  39.659  1.00  0.00     0.020 A 
ATOM     43  C   UNL A   1      40.101  35.587  40.733  1.00  0.00     0.054 A 
BRANCH  43  44
ATOM     44  S   UNL A   1      39.811  36.790  42.059  1.00  0.00     0.124 S 
ATOM     45  O   UNL A   1      39.255  37.922  41.319  1.00  0.00    -0.237 OA
ATOM     46  O   UNL A   1      38.872  36.091  42.933  1.00  0.00    -0.237 OA
ATOM     47  O   UNL A   1      41.139  37.009  42.625  1.00  0.00    -0.744 OA
ENDBRANCH  43  44
ENDBRANCH  24  38
BRANCH  25  48
ATOM     48  C   UNL A   1      40.340  28.175  30.251  1.00  0.00    -0.014 A 
ATOM     49  C   UNL A   1      41.289  28.407  29.241  1.00  0.00     0.010 A 
ATOM     50  C   UNL A   1      39.414  27.125  30.086  1.00  0.00     0.010 A 
ATOM     51  C   UNL A   1      41.320  27.600  28.098  1.00  0.00     0.020 A 
ATOM     52  C   UNL A   1      39.457  26.302  28.957  1.00  0.00     0.020 A 
ATOM     53  C   UNL A   1      40.409  26.546  27.967  1.00  0.00     0.054 A 
BRANCH  53  54
ATOM     54  S   UNL A   1      40.530  25.451  26.524  1.00  0.00     0.124 S 
ATOM     55  O   UNL A   1      39.173  24.923  26.428  1.00  0.00    -0.237 OA
ATOM     56  O   UNL A   1      40.928  26.370  25.460  1.00  0.00    -0.237 OA
ATOM     57  O   UNL A   1      41.555  24.484  26.914  1.00  0.00    -0.744 OA
ENDBRANCH  53  54
ENDBRANCH  25  48
BRANCH  37  58
ATOM     58  C   UNL A   1      44.742  28.794  35.664  1.00  0.00    -0.014 A 
ATOM     59  C   UNL A   1      45.976  29.344  35.278  1.00  0.00     0.010 A 
ATOM     60  C   UNL A   1      44.715  27.658  36.491  1.00  0.00     0.010 A 
ATOM     61  C   UNL A   1      47.168  28.765  35.718  1.00  0.00     0.020 A 
ATOM     62  C   UNL A   1      45.905  27.087  36.947  1.00  0.00     0.020 A 
ATOM     63  C   UNL A   1      47.124  27.645  36.555  1.00  0.00     0.054 A 
BRANCH  63  64
ATOM     64  S   UNL A   1      48.681  26.970  37.195  1.00  0.00     0.124 S 
ATOM     65  O   UNL A   1      49.292  26.419  35.989  1.00  0.00    -0.237 OA
ATOM     66  O   UNL A   1      49.340  28.151  37.751  1.00  0.00    -0.237 OA
ATOM     67  O   UNL A   1      48.249  25.984  38.183  1.00  0.00    -0.744 OA
ENDBRANCH  63  64
ENDBRANCH  37  58
ENDBRANCH  11  12
ENDBRANCH   4   6
ENDBRANCH   3   4
ENDBRANCH   2   3
ENDBRANCH   1   2
BRANCH   1  68
ATOM     68  O   UNL A   1      34.466  34.385  27.671  1.00  0.00    -0.374 OA
BRANCH  68  69
ATOM     69  C   UNL A   1      35.448  33.519  28.259  1.00  0.00     0.202 C 
BRANCH  69  70
ATOM     70  C   UNL A   1      34.736  32.340  28.935  1.00  0.00     0.261 C 
BRANCH  70  71
ATOM     71  O   UNL A   1      34.011  31.612  27.935  1.00  0.00    -0.458 OA
BRANCH  71  72
ATOM     72  C   UNL A   1      34.601  30.437  27.564  1.00  0.00     0.357 C 
ATOM     73  O   UNL A   1      35.763  30.121  27.797  1.00  0.00    -0.244 OA
BRANCH  72  74
ATOM     74  C   UNL A   1      33.625  29.520  26.986  1.00  0.00     0.159 A 
ATOM     75  C   UNL A   1      33.336  28.276  27.520  1.00  0.00     0.103 A 
ATOM     76  N   UNL A   1      32.855  29.863  25.878  1.00  0.00    -0.229 NA
ATOM     77  S   UNL A   1      32.047  27.547  26.660  1.00  0.00    -0.122 S 
ATOM     78  C   UNL A   1      32.024  28.890  25.586  1.00  0.00     0.124 A 
BRANCH  78  79
ATOM     79  C   UNL A   1      31.222  28.847  24.373  1.00  0.00     0.016 A 
ATOM     80  C   UNL A   1      31.120  27.647  23.679  1.00  0.00     0.031 A 
ATOM     81  C   UNL A   1      30.535  29.963  23.900  1.00  0.00     0.058 A 
ATOM     82  C   UNL A   1      30.279  27.601  22.589  1.00  0.00     0.114 A 
ATOM     83  C   UNL A   1      29.701  29.835  22.794  1.00  0.00     0.129 A 
ATOM     84  N   UNL A   1      29.552  28.654  22.158  1.00  0.00    -0.239 NA
BRANCH  83  85
ATOM     85  N   UNL A   1      28.935  30.904  22.405  1.00  0.00    -0.352 N 
ATOM     86  C   UNL A   1      28.080  30.845  21.222  1.00  0.00     0.146 C 
ATOM     87  C   UNL A   1      28.574  31.931  23.375  1.00  0.00     0.146 C 
ATOM     88  C   UNL A   1      28.074  32.233  20.564  1.00  0.00     0.181 C 
ATOM     89  C   UNL A   1      28.584  33.279  22.633  1.00  0.00     0.181 C 
ATOM     90  O   UNL A   1      27.696  33.267  21.496  1.00  0.00    -0.378 OA
ENDBRANCH  83  85
ENDBRANCH  78  79
ENDBRANCH  72  74
ENDBRANCH  71  72
ENDBRANCH  70  71
ENDBRANCH  69  70
ENDBRANCH  68  69
ENDBRANCH   1  68
TORSDOF 19
ENDMDL
MODEL 2
REMARK VINA RESULT:     -10.4      3.887      9.637
REMARK SMILES O=C(OCCOCCOC(=O)c1csc(-c2ccnc(N3CCOCC3)c2)n1)c1ccc(-c2c3nc(c(-c4ccc(S(=O)(=O)[O-])cc4)c4ccc([nH]4)c(-c4ccc(S(=O)(=O)[O-])cc4)c4nc(c(-c5ccc(S(=O)(=O)[O-])cc5)c5ccc2[nH]5)C=C4)C=C3)cc1
REMARK SMILES IDX 5 1 4 2 3 3 2 4 1 5 29 6 30 7 88 8 31 9 87 10 32 11 33 12
REMARK SMILES IDX 34 13 81 14 35 15 86 16 80 17 82 18 36 19 85 20 79 21 78 22
REMARK SMILES IDX 37 24 67 25 48 26 66 27 49 28 52 29 65 30 83 31 50 32 51 33
REMARK SMILES IDX 64 35 84 36 53 37 38 38 39 39 47 40 40 41 46 42 41 43 42 44
REMARK SMILES IDX 43 45 44 46 45 47 68 48 69 49 77 50 70 51 76 52 71 53 72 54
REMARK SMILES IDX 73 55 74 56 75 57 54 58 55 59 63 60 56 61 62 62 57 63 58 64
REMARK SMILES IDX 59 65 60 66 61 67 6 68 7 69 8 70 9 71 10 72 11 73 12 74
REMARK SMILES IDX 13 75 28 76 14 77 15 78 16 79 17 80 27 81 18 82 20 83 19 84
REMARK SMILES IDX 21 85 22 86 26 87 23 88 25 89 24 90
REMARK H PARENT 82 23 52 34
REMARK Flexibility Score: inf
ROOT
ATOM      1  C   UNL A   1      35.636  22.454  25.990  1.00  0.00     0.202 C 
ENDROOT
BRANCH   1   2
ATOM      2  C   UNL A   1      36.753  23.473  25.754  1.00  0.00     0.261 C 
BRANCH   2   3
ATOM      3  O   UNL A   1      38.015  22.792  25.670  1.00  0.00    -0.460 OA
BRANCH   3   4
ATOM      4  C   UNL A   1      39.144  23.008  26.380  1.00  0.00     0.338 C 
ATOM      5  O   UNL A   1      39.897  22.055  26.577  1.00  0.00    -0.246 OA
BRANCH   4   6
ATOM      6  C   UNL A   1      39.543  24.338  26.936  1.00  0.00     0.060 A 
ATOM      7  C   UNL A   1      40.177  25.360  26.224  1.00  0.00     0.016 A 
ATOM      8  C   UNL A   1      39.148  24.603  28.258  1.00  0.00     0.016 A 
ATOM      9  C   UNL A   1      40.475  26.583  26.816  1.00  0.00     0.010 A 
ATOM     10  C   UNL A   1      39.413  25.838  28.851  1.00  0.00     0.010 A 
ATOM     11  C   UNL A   1      40.099  26.824  28.134  1.00  0.00    -0.014 A 
BRANCH  11  12
ATOM     12  C   UNL A   1      40.516  28.074  28.790  1.00  0.00     0.031 A 
ATOM     13  C   UNL A   1      41.911  28.162  29.323  1.00  0.00     0.074 A 
ATOM     14  C   UNL A   1      39.664  29.112  28.866  1.00  0.00     0.049 A 
ATOM     15  N   UNL A   1      42.465  29.102  30.037  1.00  0.00    -0.248 NA
ATOM     16  C   UNL A   1      42.804  27.035  29.003  1.00  0.00     0.031 C 
ATOM     17  C   UNL A   1      38.321  29.145  28.283  1.00  0.00     0.029 A 
ATOM     18  N   UNL A   1      39.802  30.334  29.465  1.00  0.00    -0.354 N 
ATOM     19  C   UNL A   1      43.761  28.666  30.283  1.00  0.00     0.074 A 
ATOM     20  C   UNL A   1      43.912  27.380  29.639  1.00  0.00     0.031 C 
ATOM     21  C   UNL A   1      37.755  30.330  28.561  1.00  0.00     0.029 A 
ATOM     22  C   UNL A   1      38.671  31.110  29.388  1.00  0.00     0.049 A 
ATOM     23  H   UNL A   1      40.631  30.630  29.907  1.00  0.00     0.167 HD
ATOM     24  C   UNL A   1      44.726  29.281  31.004  1.00  0.00     0.031 A 
ATOM     25  C   UNL A   1      38.396  32.298  29.962  1.00  0.00     0.031 A 
ATOM     26  C   UNL A   1      44.530  30.541  31.664  1.00  0.00     0.049 A 
ATOM     27  C   UNL A   1      39.456  32.933  30.819  1.00  0.00     0.074 A 
ATOM     28  C   UNL A   1      45.401  31.237  32.480  1.00  0.00     0.029 A 
ATOM     29  N   UNL A   1      43.362  31.290  31.583  1.00  0.00    -0.354 N 
ATOM     30  N   UNL A   1      40.662  32.492  31.093  1.00  0.00    -0.248 NA
ATOM     31  C   UNL A   1      39.123  34.216  31.451  1.00  0.00     0.031 C 
ATOM     32  C   UNL A   1      44.743  32.391  32.924  1.00  0.00     0.029 A 
ATOM     33  C   UNL A   1      43.483  32.438  32.342  1.00  0.00     0.049 A 
ATOM     34  H   UNL A   1      42.567  31.040  31.061  1.00  0.00     0.167 HD
ATOM     35  C   UNL A   1      41.241  33.448  31.916  1.00  0.00     0.074 A 
ATOM     36  C   UNL A   1      40.253  34.498  32.089  1.00  0.00     0.031 C 
ATOM     37  C   UNL A   1      42.475  33.462  32.478  1.00  0.00     0.031 A 
BRANCH  24  38
ATOM     38  C   UNL A   1      46.019  28.532  31.175  1.00  0.00    -0.014 A 
ATOM     39  C   UNL A   1      47.082  28.685  30.267  1.00  0.00     0.010 A 
ATOM     40  C   UNL A   1      46.139  27.597  32.219  1.00  0.00     0.010 A 
ATOM     41  C   UNL A   1      48.212  27.865  30.357  1.00  0.00     0.020 A 
ATOM     42  C   UNL A   1      47.276  26.792  32.327  1.00  0.00     0.020 A 
ATOM     43  C   UNL A   1      48.291  26.909  31.375  1.00  0.00     0.054 A 
BRANCH  43  44
ATOM     44  S   UNL A   1      49.732  25.809  31.434  1.00  0.00     0.124 S 
ATOM     45  O   UNL A   1      49.350  24.873  32.490  1.00  0.00    -0.237 OA
ATOM     46  O   UNL A   1      49.770  25.250  30.085  1.00  0.00    -0.237 OA
ATOM     47  O   UNL A   1      50.838  26.704  31.765  1.00  0.00    -0.744 OA
ENDBRANCH  43  44
ENDBRANCH  24  38
BRANCH  25  48
ATOM     48  C   UNL A   1      37.055  32.912  29.770  1.00  0.00    -0.014 A 
ATOM     49  C   UNL A   1      36.204  33.149  30.864  1.00  0.00     0.010 A 
ATOM     50  C   UNL A   1      36.649  33.335  28.489  1.00  0.00     0.010 A 
ATOM     51  C   UNL A   1      34.982  33.806  30.682  1.00  0.00     0.020 A 
ATOM     52  C   UNL A   1      35.439  34.012  28.308  1.00  0.00     0.020 A 
ATOM     53  C   UNL A   1      34.611  34.241  29.406  1.00  0.00     0.054 A 
BRANCH  53  54
ATOM     54  S   UNL A   1      33.068  35.177  29.208  1.00  0.00     0.124 S 
ATOM     55  O   UNL A   1      32.460  35.044  30.529  1.00  0.00    -0.237 OA
ATOM     56  O   UNL A   1      33.549  36.514  28.865  1.00  0.00    -0.237 OA
ATOM     57  O   UNL A   1      32.379  34.477  28.127  1.00  0.00    -0.744 OA
ENDBRANCH  53  54
ENDBRANCH  25  48
BRANCH  37  58
ATOM     58  C   UNL A   1      42.846  34.662  33.301  1.00  0.00    -0.014 A 
ATOM     59  C   UNL A   1      42.677  34.662  34.696  1.00  0.00     0.010 A 
ATOM     60  C   UNL A   1      43.482  35.750  32.678  1.00  0.00     0.010 A 
ATOM     61  C   UNL A   1      43.142  35.736  35.457  1.00  0.00     0.020 A 
ATOM     62  C   UNL A   1      43.965  36.816  33.438  1.00  0.00     0.020 A 
ATOM     63  C   UNL A   1      43.790  36.802  34.823  1.00  0.00     0.054 A 
BRANCH  63  64
ATOM     64  S   UNL A   1      44.475  38.138  35.841  1.00  0.00     0.124 S 
ATOM     65  O   UNL A   1      45.907  37.865  35.776  1.00  0.00    -0.237 OA
ATOM     66  O   UNL A   1      44.032  39.340  35.137  1.00  0.00    -0.237 OA
ATOM     67  O   UNL A   1      43.858  37.927  37.148  1.00  0.00    -0.744 OA
ENDBRANCH  63  64
ENDBRANCH  37  58
ENDBRANCH  11  12
ENDBRANCH   4   6
ENDBRANCH   3   4
ENDBRANCH   2   3
ENDBRANCH   1   2
BRANCH   1  68
ATOM     68  O   UNL A   1      35.358  21.629  24.860  1.00  0.00    -0.374 OA
BRANCH  68  69
ATOM     69  C   UNL A   1      34.024  21.110  24.768  1.00  0.00     0.202 C 
BRANCH  69  70
ATOM     70  C   UNL A   1      33.211  21.985  23.807  1.00  0.00     0.261 C 
BRANCH  70  71
ATOM     71  O   UNL A   1      33.974  23.161  23.503  1.00  0.00    -0.458 OA
BRANCH  71  72
ATOM     72  C   UNL A   1      33.485  23.887  22.455  1.00  0.00     0.357 C 
ATOM     73  O   UNL A   1      33.424  23.503  21.292  1.00  0.00    -0.244 OA
BRANCH  72  74
ATOM     74  C   UNL A   1      32.890  25.136  22.916  1.00  0.00     0.159 A 
ATOM     75  C   UNL A   1      33.590  26.100  23.622  1.00  0.00     0.103 A 
ATOM     76  N   UNL A   1      31.576  25.484  22.617  1.00  0.00    -0.229 NA
ATOM     77  S   UNL A   1      32.608  27.482  23.870  1.00  0.00    -0.122 S 
ATOM     78  C   UNL A   1      31.300  26.671  23.103  1.00  0.00     0.124 A 
BRANCH  78  79
ATOM     79  C   UNL A   1      29.962  27.242  23.136  1.00  0.00     0.016 A 
ATOM     80  C   UNL A   1      28.928  26.494  23.688  1.00  0.00     0.031 A 
ATOM     81  C   UNL A   1      29.690  28.521  22.654  1.00  0.00     0.058 A 
ATOM     82  C   UNL A   1      27.690  27.087  23.799  1.00  0.00     0.114 A 
ATOM     83  C   UNL A   1      28.414  29.052  22.808  1.00  0.00     0.129 A 
ATOM     84  N   UNL A   1      27.426  28.351  23.402  1.00  0.00    -0.239 NA
BRANCH  83  85
ATOM     85  N   UNL A   1      28.182  30.353  22.443  1.00  0.00    -0.352 N 
ATOM     86  C   UNL A   1      27.852  30.717  21.067  1.00  0.00     0.146 C 
ATOM     87  C   UNL A   1      27.788  31.332  23.449  1.00  0.00     0.146 C 
ATOM     88  C   UNL A   1      28.482  32.086  20.767  1.00  0.00     0.181 C 
ATOM     89  C   UNL A   1      28.452  32.667  23.068  1.00  0.00     0.181 C 
ATOM     90  O   UNL A   1      28.089  33.080  21.735  1.00  0.00    -0.378 OA
ENDBRANCH  83  85
ENDBRANCH  78  79
ENDBRANCH  72  74
ENDBRANCH  71  72
ENDBRANCH  70  71
ENDBRANCH  69  70
ENDBRANCH  68  69
ENDBRANCH   1  68
TORSDOF 19
ENDMDL
MODEL 3
REMARK VINA RESULT:     -10.1      2.400      9.036
REMARK SMILES O=C(OCCOCCOC(=O)c1csc(-c2ccnc(N3CCOCC3)c2)n1)c1ccc(-c2c3nc(c(-c4ccc(S(=O)(=O)[O-])cc4)c4ccc([nH]4)c(-c4ccc(S(=O)(=O)[O-])cc4)c4nc(c(-c5ccc(S(=O)(=O)[O-])cc5)c5ccc2[nH]5)C=C4)C=C3)cc1
REMARK SMILES IDX 5 1 4 2 3 3 2 4 1 5 29 6 30 7 88 8 31 9 87 10 32 11 33 12
REMARK SMILES IDX 34 13 81 14 35 15 86 16 80 17 82 18 36 19 85 20 79 21 78 22
REMARK SMILES IDX 37 24 67 25 48 26 66 27 49 28 52 29 65 30 83 31 50 32 51 33
REMARK SMILES IDX 64 35 84 36 53 37 38 38 39 39 47 40 40 41 46 42 41 43 42 44
REMARK SMILES IDX 43 45 44 46 45 47 68 48 69 49 77 50 70 51 76 52 71 53 72 54
REMARK SMILES IDX 73 55 74 56 75 57 54 58 55 59 63 60 56 61 62 62 57 63 58 64
REMARK SMILES IDX 59 65 60 66 61 67 6 68 7 69 8 70 9 71 10 72 11 73 12 74
REMARK SMILES IDX 13 75 28 76 14 77 15 78 16 79 17 80 27 81 18 82 20 83 19 84
REMARK SMILES IDX 21 85 22 86 26 87 23 88 25 89 24 90
REMARK H PARENT 82 23 52 34
REMARK Flexibility Score: inf
ROOT
ATOM      1  C   UNL A   1      39.352  22.202  26.127  1.00  0.00     0.202 C 
ENDROOT
BRANCH   1   2
ATOM      2  C   UNL A   1      39.752  23.186  27.228  1.00  0.00     0.261 C 
BRANCH   2   3
ATOM      3  O   UNL A   1      39.261  24.496  26.903  1.00  0.00    -0.460 OA
BRANCH   3   4
ATOM      4  C   UNL A   1      39.943  25.660  26.813  1.00  0.00     0.338 C 
ATOM      5  O   UNL A   1      40.499  25.925  25.749  1.00  0.00    -0.246 OA
BRANCH   4   6
ATOM      6  C   UNL A   1      40.056  26.652  27.926  1.00  0.00     0.060 A 
ATOM      7  C   UNL A   1      40.714  27.883  27.855  1.00  0.00     0.016 A 
ATOM      8  C   UNL A   1      39.350  26.350  29.103  1.00  0.00     0.016 A 
ATOM      9  C   UNL A   1      40.734  28.762  28.933  1.00  0.00     0.010 A 
ATOM     10  C   UNL A   1      39.336  27.239  30.179  1.00  0.00     0.010 A 
ATOM     11  C   UNL A   1      40.050  28.440  30.102  1.00  0.00    -0.014 A 
BRANCH  11  12
ATOM     12  C   UNL A   1      40.167  29.318  31.276  1.00  0.00     0.031 A 
ATOM     13  C   UNL A   1      41.329  29.116  32.198  1.00  0.00     0.074 A 
ATOM     14  C   UNL A   1      39.266  30.295  31.481  1.00  0.00     0.049 A 
ATOM     15  N   UNL A   1      41.581  29.679  33.346  1.00  0.00    -0.248 NA
ATOM     16  C   UNL A   1      42.348  28.148  31.759  1.00  0.00     0.031 C 
ATOM     17  C   UNL A   1      38.162  30.625  30.578  1.00  0.00     0.029 A 
ATOM     18  N   UNL A   1      39.138  31.186  32.511  1.00  0.00    -0.354 N 
ATOM     19  C   UNL A   1      42.768  29.109  33.787  1.00  0.00     0.074 A 
ATOM     20  C   UNL A   1      43.189  28.160  32.781  1.00  0.00     0.031 C 
ATOM     21  C   UNL A   1      37.462  31.645  31.101  1.00  0.00     0.029 A 
ATOM     22  C   UNL A   1      38.033  31.996  32.397  1.00  0.00     0.049 A 
ATOM     23  H   UNL A   1      39.774  31.243  33.260  1.00  0.00     0.167 HD
ATOM     24  C   UNL A   1      43.429  29.345  34.943  1.00  0.00     0.031 A 
ATOM     25  C   UNL A   1      37.522  32.888  33.268  1.00  0.00     0.031 A 
ATOM     26  C   UNL A   1      42.961  30.266  35.940  1.00  0.00     0.049 A 
ATOM     27  C   UNL A   1      38.231  33.086  34.579  1.00  0.00     0.074 A 
ATOM     28  C   UNL A   1      43.500  30.547  37.181  1.00  0.00     0.029 A 
ATOM     29  N   UNL A   1      41.826  31.056  35.802  1.00  0.00    -0.354 N 
ATOM     30  N   UNL A   1      39.325  32.505  35.015  1.00  0.00    -0.248 NA
ATOM     31  C   UNL A   1      37.641  34.047  35.518  1.00  0.00     0.031 C 
ATOM     32  C   UNL A   1      42.665  31.480  37.810  1.00  0.00     0.029 A 
ATOM     33  C   UNL A   1      41.637  31.818  36.939  1.00  0.00     0.049 A 
ATOM     34  H   UNL A   1      41.243  31.070  35.010  1.00  0.00     0.167 HD
ATOM     35  C   UNL A   1      39.567  33.040  36.273  1.00  0.00     0.074 A 
ATOM     36  C   UNL A   1      38.506  33.999  36.525  1.00  0.00     0.031 C 
ATOM     37  C   UNL A   1      40.571  32.768  37.142  1.00  0.00     0.031 A 
BRANCH  24  38
ATOM     38  C   UNL A   1      44.657  28.515  35.198  1.00  0.00    -0.014 A 
ATOM     39  C   UNL A   1      44.578  27.262  35.834  1.00  0.00     0.010 A 
ATOM     40  C   UNL A   1      45.921  29.037  34.868  1.00  0.00     0.010 A 
ATOM     41  C   UNL A   1      45.744  26.581  36.199  1.00  0.00     0.020 A 
ATOM     42  C   UNL A   1      47.087  28.349  35.211  1.00  0.00     0.020 A 
ATOM     43  C   UNL A   1      46.991  27.140  35.904  1.00  0.00     0.054 A 
BRANCH  43  44
ATOM     44  S   UNL A   1      48.490  26.275  36.447  1.00  0.00     0.124 S 
ATOM     45  O   UNL A   1      48.995  25.733  35.188  1.00  0.00    -0.237 OA
ATOM     46  O   UNL A   1      49.290  27.348  37.033  1.00  0.00    -0.237 OA
ATOM     47  O   UNL A   1      47.993  25.284  37.397  1.00  0.00    -0.744 OA
ENDBRANCH  43  44
ENDBRANCH  24  38
BRANCH  25  48
ATOM     48  C   UNL A   1      36.263  33.605  32.929  1.00  0.00    -0.014 A 
ATOM     49  C   UNL A   1      35.012  32.985  33.089  1.00  0.00     0.010 A 
ATOM     50  C   UNL A   1      36.307  34.950  32.510  1.00  0.00     0.010 A 
ATOM     51  C   UNL A   1      33.832  33.698  32.849  1.00  0.00     0.020 A 
ATOM     52  C   UNL A   1      35.130  35.671  32.292  1.00  0.00     0.020 A 
ATOM     53  C   UNL A   1      33.898  35.040  32.460  1.00  0.00     0.054 A 
BRANCH  53  54
ATOM     54  S   UNL A   1      32.355  35.973  32.250  1.00  0.00     0.124 S 
ATOM     55  O   UNL A   1      31.349  34.990  32.638  1.00  0.00    -0.237 OA
ATOM     56  O   UNL A   1      32.534  37.094  33.170  1.00  0.00    -0.237 OA
ATOM     57  O   UNL A   1      32.365  36.335  30.834  1.00  0.00    -0.744 OA
ENDBRANCH  53  54
ENDBRANCH  25  48
BRANCH  37  58
ATOM     58  C   UNL A   1      40.597  33.539  38.430  1.00  0.00    -0.014 A 
ATOM     59  C   UNL A   1      41.258  34.776  38.517  1.00  0.00     0.010 A 
ATOM     60  C   UNL A   1      39.848  33.072  39.524  1.00  0.00     0.010 A 
ATOM     61  C   UNL A   1      41.167  35.537  39.685  1.00  0.00     0.020 A 
ATOM     62  C   UNL A   1      39.740  33.839  40.685  1.00  0.00     0.020 A 
ATOM     63  C   UNL A   1      40.402  35.067  40.758  1.00  0.00     0.054 A 
BRANCH  63  64
ATOM     64  S   UNL A   1      40.215  36.117  42.225  1.00  0.00     0.124 S 
ATOM     65  O   UNL A   1      41.538  36.724  42.334  1.00  0.00    -0.237 OA
ATOM     66  O   UNL A   1      39.136  37.024  41.837  1.00  0.00    -0.237 OA
ATOM     67  O   UNL A   1      39.873  35.171  43.285  1.00  0.00    -0.744 OA
ENDBRANCH  63  64
ENDBRANCH  37  58
ENDBRANCH  11  12
ENDBRANCH   4   6
ENDBRANCH   3   4
ENDBRANCH   2   3
ENDBRANCH   1   2
BRANCH   1  68
ATOM     68  O   UNL A   1      37.951  21.944  26.064  1.00  0.00    -0.374 OA
BRANCH  68  69
ATOM     69  C   UNL A   1      37.398  21.771  24.751  1.00  0.00     0.202 C 
BRANCH  69  70
ATOM     70  C   UNL A   1      35.869  21.866  24.835  1.00  0.00     0.261 C 
BRANCH  70  71
ATOM     71  O   UNL A   1      35.526  22.802  25.867  1.00  0.00    -0.458 OA
BRANCH  71  72
ATOM     72  C   UNL A   1      34.444  22.434  26.615  1.00  0.00     0.357 C 
ATOM     73  O   UNL A   1      34.433  21.541  27.456  1.00  0.00    -0.244 OA
BRANCH  72  74
ATOM     74  C   UNL A   1      33.326  23.346  26.405  1.00  0.00     0.159 A 
ATOM     75  C   UNL A   1      32.000  22.959  26.487  1.00  0.00     0.103 A 
ATOM     76  N   UNL A   1      33.516  24.704  26.169  1.00  0.00    -0.229 NA
ATOM     77  S   UNL A   1      30.975  24.322  26.321  1.00  0.00    -0.122 S 
ATOM     78  C   UNL A   1      32.357  25.311  26.063  1.00  0.00     0.124 A 
BRANCH  78  79
ATOM     79  C   UNL A   1      32.202  26.690  25.623  1.00  0.00     0.016 A 
ATOM     80  C   UNL A   1      33.236  27.588  25.857  1.00  0.00     0.031 A 
ATOM     81  C   UNL A   1      31.061  27.129  24.954  1.00  0.00     0.058 A 
ATOM     82  C   UNL A   1      33.111  28.862  25.348  1.00  0.00     0.114 A 
ATOM     83  C   UNL A   1      31.013  28.430  24.465  1.00  0.00     0.129 A 
ATOM     84  N   UNL A   1      32.043  29.285  24.637  1.00  0.00    -0.239 NA
BRANCH  83  85
ATOM     85  N   UNL A   1      29.941  28.821  23.705  1.00  0.00    -0.352 N 
ATOM     86  C   UNL A   1      29.920  30.107  23.013  1.00  0.00     0.146 C 
ATOM     87  C   UNL A   1      29.024  27.820  23.172  1.00  0.00     0.146 C 
ATOM     88  C   UNL A   1      28.477  30.635  23.024  1.00  0.00     0.181 C 
ATOM     89  C   UNL A   1      27.613  28.433  23.212  1.00  0.00     0.181 C 
ATOM     90  O   UNL A   1      27.550  29.673  22.479  1.00  0.00    -0.378 OA
ENDBRANCH  83  85
ENDBRANCH  78  79
ENDBRANCH  72  74
ENDBRANCH  71  72
ENDBRANCH  70  71
ENDBRANCH  69  70
ENDBRANCH  68  69
ENDBRANCH   1  68
TORSDOF 19
ENDMDL
