MODEL 1
REMARK VINA RESULT:     -11.4      0.000      0.000
REMARK SMILES O=C(CCn1cc(/C=C\C(=O)c2ccc(F)cc2)c(-c2cccc(Cl)c2)n1)OCCOCCOC(=O)c1ccc(-c2c3nc(c(-c4ccc(S(=O)(=O)[O-])cc4)c4ccc([nH]4)c(-c4ccc(S(=O)(=O)[O-])cc4)c4nc(c(-c5ccc(S(=O)(=O)[O-])cc5)c5ccc2[nH]5)C=C4)C=C3)cc1
REMARK SMILES IDX 30 1 29 2 28 3 2 4 1 5 3 6 4 7 5 8 6 9 27 10 7 11 19 12 8 13
REMARK SMILES IDX 9 14 10 15 11 16 12 17 13 18 18 19 14 20 17 21 15 22 16 23
REMARK SMILES IDX 20 24 21 25 26 26 22 27 24 28 23 29 25 30 31 31 32 32 33 33
REMARK SMILES IDX 34 34 35 35 36 36 37 37 38 38 96 39 39 40 95 41 40 42 41 43
REMARK SMILES IDX 42 44 89 45 43 46 94 47 88 48 90 49 44 50 93 51 87 52 86 53
REMARK SMILES IDX 45 55 75 56 56 57 74 58 57 59 60 60 73 61 91 62 58 63 59 64
REMARK SMILES IDX 72 66 92 67 61 68 46 69 47 70 55 71 48 72 54 73 49 74 50 75
REMARK SMILES IDX 51 76 52 77 53 78 76 79 77 80 85 81 78 82 84 83 79 84 80 85
REMARK SMILES IDX 81 86 82 87 83 88 62 89 63 90 71 91 64 92 70 93 65 94 66 95
REMARK SMILES IDX 67 96 68 97 69 98
REMARK H PARENT 90 54 60 65
REMARK Flexibility Score: inf
ROOT
ATOM      1  C   UNL A   1      42.304  18.785  26.061  1.00  0.00     0.202 C 
ENDROOT
BRANCH   1   2
ATOM      2  C   UNL A   1      41.242  19.847  25.898  1.00  0.00     0.261 C 
BRANCH   2   3
ATOM      3  O   UNL A   1      39.955  19.483  26.384  1.00  0.00    -0.463 OA
BRANCH   3   4
ATOM      4  C   UNL A   1      38.856  19.656  25.611  1.00  0.00     0.307 C 
ATOM      5  O   UNL A   1      38.179  18.676  25.307  1.00  0.00    -0.252 OA
BRANCH   4   6
ATOM      6  C   UNL A   1      38.591  21.008  24.974  1.00  0.00     0.146 C 
BRANCH   6   7
ATOM      7  C   UNL A   1      37.726  22.011  25.717  1.00  0.00     0.156 C 
BRANCH   7   8
ATOM      8  N   UNL A   1      36.283  21.843  25.697  1.00  0.00    -0.271 N 
ATOM      9  C   UNL A   1      35.452  21.150  24.845  1.00  0.00     0.117 A 
ATOM     10  N   UNL A   1      35.594  22.574  26.580  1.00  0.00    -0.172 NA
ATOM     11  C   UNL A   1      34.225  21.809  24.910  1.00  0.00     0.021 A 
ATOM     12  C   UNL A   1      34.416  22.744  25.982  1.00  0.00     0.100 A 
BRANCH  11  13
ATOM     13  C   UNL A   1      33.111  21.630  23.996  1.00  0.00     0.016 C 
ATOM     14  C   UNL A   1      32.683  22.304  22.895  1.00  0.00     0.053 C 
BRANCH  14  15
ATOM     15  C   UNL A   1      33.101  23.542  22.077  1.00  0.00     0.185 C 
ATOM     16  O   UNL A   1      33.642  23.397  20.986  1.00  0.00    -0.289 OA
BRANCH  15  17
ATOM     17  C   UNL A   1      32.955  24.938  22.728  1.00  0.00     0.022 A 
ATOM     18  C   UNL A   1      31.145  25.021  22.809  1.00  0.00     0.015 A 
ATOM     19  C   UNL A   1      33.967  26.700  22.849  1.00  0.00     0.015 A 
ATOM     20  C   UNL A   1      30.367  26.598  22.878  1.00  0.00     0.040 A 
ATOM     21  C   UNL A   1      33.014  28.229  22.899  1.00  0.00     0.040 A 
ATOM     22  C   UNL A   1      31.271  28.115  22.894  1.00  0.00     0.123 A 
ATOM     23  F   UNL A   1      30.560  29.254  22.909  1.00  0.00    -0.207 F 
ENDBRANCH  15  17
ENDBRANCH  14  15
ENDBRANCH  11  13
BRANCH  12  24
ATOM     24  C   UNL A   1      33.407  23.759  26.412  1.00  0.00     0.004 A 
ATOM     25  C   UNL A   1      33.022  25.733  26.117  1.00  0.00     0.010 A 
ATOM     26  C   UNL A   1      31.972  22.711  26.830  1.00  0.00     0.031 A 
ATOM     27  C   UNL A   1      31.330  26.306  26.188  1.00  0.00     0.002 A 
ATOM     28  C   UNL A   1      30.375  23.439  26.847  1.00  0.00     0.041 A 
ATOM     29  C   UNL A   1      30.081  25.146  26.531  1.00  0.00     0.020 A 
ATOM     30  Cl  UNL A   1      29.019  22.436  27.203  1.00  0.00    -0.084 Cl
ENDBRANCH  12  24
ENDBRANCH   7   8
ENDBRANCH   6   7
ENDBRANCH   4   6
ENDBRANCH   3   4
ENDBRANCH   2   3
ENDBRANCH   1   2
BRANCH   1  31
ATOM     31  O   UNL A   1      43.654  19.243  26.041  1.00  0.00    -0.374 OA
BRANCH  31  32
ATOM     32  C   UNL A   1      44.514  18.600  25.093  1.00  0.00     0.202 C 
BRANCH  32  33
ATOM     33  C   UNL A   1      45.211  19.537  24.122  1.00  0.00     0.261 C 
BRANCH  33  34
ATOM     34  O   UNL A   1      44.574  20.799  24.108  1.00  0.00    -0.460 OA
BRANCH  34  35
ATOM     35  C   UNL A   1      45.126  21.760  24.890  1.00  0.00     0.338 C 
ATOM     36  O   UNL A   1      46.289  22.111  24.940  1.00  0.00    -0.246 OA
BRANCH  35  37
ATOM     37  C   UNL A   1      44.036  22.282  25.730  1.00  0.00     0.060 A 
ATOM     38  C   UNL A   1      43.082  23.030  25.055  1.00  0.00     0.016 A 
ATOM     39  C   UNL A   1      44.287  22.442  27.100  1.00  0.00     0.016 A 
ATOM     40  C   UNL A   1      42.721  24.221  25.633  1.00  0.00     0.010 A 
ATOM     41  C   UNL A   1      43.964  23.645  27.657  1.00  0.00     0.010 A 
ATOM     42  C   UNL A   1      43.299  24.572  26.864  1.00  0.00    -0.014 A 
BRANCH  42  43
ATOM     43  C   UNL A   1      42.973  25.849  27.454  1.00  0.00     0.031 A 
ATOM     44  C   UNL A   1      44.052  26.797  27.109  1.00  0.00     0.074 A 
ATOM     45  C   UNL A   1      41.834  26.121  28.121  1.00  0.00     0.049 A 
ATOM     46  N   UNL A   1      45.131  26.968  27.799  1.00  0.00    -0.248 NA
ATOM     47  C   UNL A   1      44.151  27.286  25.718  1.00  0.00     0.031 C 
ATOM     48  C   UNL A   1      40.631  25.306  28.304  1.00  0.00     0.029 A 
ATOM     49  N   UNL A   1      41.498  27.271  28.764  1.00  0.00    -0.354 N 
ATOM     50  C   UNL A   1      45.869  27.879  27.064  1.00  0.00     0.074 A 
ATOM     51  C   UNL A   1      45.404  27.749  25.709  1.00  0.00     0.031 C 
ATOM     52  C   UNL A   1      39.628  26.078  28.799  1.00  0.00     0.029 A 
ATOM     53  C   UNL A   1      40.151  27.400  29.108  1.00  0.00     0.049 A 
ATOM     54  H   UNL A   1      42.161  27.967  28.974  1.00  0.00     0.167 HD
ATOM     55  C   UNL A   1      46.444  28.939  27.695  1.00  0.00     0.031 A 
ATOM     56  C   UNL A   1      39.546  28.530  29.578  1.00  0.00     0.031 A 
ATOM     57  C   UNL A   1      46.469  28.724  29.126  1.00  0.00     0.049 A 
ATOM     58  C   UNL A   1      40.630  29.395  30.120  1.00  0.00     0.074 A 
ATOM     59  C   UNL A   1      46.993  27.754  29.957  1.00  0.00     0.029 A 
ATOM     60  N   UNL A   1      45.481  29.360  29.843  1.00  0.00    -0.354 N 
ATOM     61  N   UNL A   1      41.323  29.068  31.177  1.00  0.00    -0.248 NA
ATOM     62  C   UNL A   1      41.287  30.302  29.191  1.00  0.00     0.031 C 
ATOM     63  C   UNL A   1      46.007  27.561  30.970  1.00  0.00     0.029 A 
ATOM     64  C   UNL A   1      44.989  28.499  30.786  1.00  0.00     0.049 A 
ATOM     65  H   UNL A   1      45.177  30.285  29.700  1.00  0.00     0.167 HD
ATOM     66  C   UNL A   1      42.639  29.338  30.826  1.00  0.00     0.074 A 
ATOM     67  C   UNL A   1      42.549  30.149  29.608  1.00  0.00     0.031 C 
ATOM     68  C   UNL A   1      43.668  28.616  31.363  1.00  0.00     0.031 A 
BRANCH  55  69
ATOM     69  C   UNL A   1      46.465  30.330  27.101  1.00  0.00    -0.014 A 
ATOM     70  C   UNL A   1      47.668  31.056  27.178  1.00  0.00     0.010 A 
ATOM     71  C   UNL A   1      45.312  31.049  26.722  1.00  0.00     0.010 A 
ATOM     72  C   UNL A   1      47.699  32.438  26.961  1.00  0.00     0.020 A 
ATOM     73  C   UNL A   1      45.336  32.419  26.465  1.00  0.00     0.020 A 
ATOM     74  C   UNL A   1      46.529  33.109  26.609  1.00  0.00     0.054 A 
BRANCH  74  75
ATOM     75  S   UNL A   1      46.579  34.894  26.349  1.00  0.00     0.124 S 
ATOM     76  O   UNL A   1      47.633  35.303  27.272  1.00  0.00    -0.237 OA
ATOM     77  O   UNL A   1      46.905  34.983  24.929  1.00  0.00    -0.237 OA
ATOM     78  O   UNL A   1      45.230  35.329  26.703  1.00  0.00    -0.744 OA
ENDBRANCH  74  75
ENDBRANCH  55  69
BRANCH  56  79
ATOM     79  C   UNL A   1      38.195  29.091  29.269  1.00  0.00    -0.014 A 
ATOM     80  C   UNL A   1      37.299  29.474  30.294  1.00  0.00     0.010 A 
ATOM     81  C   UNL A   1      37.912  29.553  27.970  1.00  0.00     0.010 A 
ATOM     82  C   UNL A   1      36.213  30.339  30.041  1.00  0.00     0.020 A 
ATOM     83  C   UNL A   1      36.833  30.413  27.709  1.00  0.00     0.020 A 
ATOM     84  C   UNL A   1      36.002  30.824  28.749  1.00  0.00     0.054 A 
BRANCH  84  85
ATOM     85  S   UNL A   1      34.728  32.095  28.449  1.00  0.00     0.124 S 
ATOM     86  O   UNL A   1      34.427  32.563  29.798  1.00  0.00    -0.237 OA
ATOM     87  O   UNL A   1      35.423  33.050  27.590  1.00  0.00    -0.237 OA
ATOM     88  O   UNL A   1      33.650  31.353  27.797  1.00  0.00    -0.744 OA
ENDBRANCH  84  85
ENDBRANCH  56  79
BRANCH  68  89
ATOM     89  C   UNL A   1      43.400  27.758  32.578  1.00  0.00    -0.014 A 
ATOM     90  C   UNL A   1      43.837  26.429  32.755  1.00  0.00     0.010 A 
ATOM     91  C   UNL A   1      42.789  28.412  33.661  1.00  0.00     0.010 A 
ATOM     92  C   UNL A   1      43.634  25.771  33.982  1.00  0.00     0.020 A 
ATOM     93  C   UNL A   1      42.605  27.774  34.885  1.00  0.00     0.020 A 
ATOM     94  C   UNL A   1      43.013  26.451  35.037  1.00  0.00     0.054 A 
BRANCH  94  95
ATOM     95  S   UNL A   1      42.744  25.614  36.626  1.00  0.00     0.124 S 
ATOM     96  O   UNL A   1      41.332  25.250  36.556  1.00  0.00    -0.237 OA
ATOM     97  O   UNL A   1      43.687  24.498  36.569  1.00  0.00    -0.237 OA
ATOM     98  O   UNL A   1      43.070  26.638  37.618  1.00  0.00    -0.744 OA
ENDBRANCH  94  95
ENDBRANCH  68  89
ENDBRANCH  42  43
ENDBRANCH  35  37
ENDBRANCH  34  35
ENDBRANCH  33  34
ENDBRANCH  32  33
ENDBRANCH  31  32
ENDBRANCH   1  31
TORSDOF 23
ENDMDL
MODEL 2
REMARK VINA RESULT:     -10.9      1.997      2.957
REMARK SMILES O=C(CCn1cc(/C=C\C(=O)c2ccc(F)cc2)c(-c2cccc(Cl)c2)n1)OCCOCCOC(=O)c1ccc(-c2c3nc(c(-c4ccc(S(=O)(=O)[O-])cc4)c4ccc([nH]4)c(-c4ccc(S(=O)(=O)[O-])cc4)c4nc(c(-c5ccc(S(=O)(=O)[O-])cc5)c5ccc2[nH]5)C=C4)C=C3)cc1
REMARK SMILES IDX 30 1 29 2 28 3 2 4 1 5 3 6 4 7 5 8 6 9 27 10 7 11 19 12 8 13
REMARK SMILES IDX 9 14 10 15 11 16 12 17 13 18 18 19 14 20 17 21 15 22 16 23
REMARK SMILES IDX 20 24 21 25 26 26 22 27 24 28 23 29 25 30 31 31 32 32 33 33
REMARK SMILES IDX 34 34 35 35 36 36 37 37 38 38 96 39 39 40 95 41 40 42 41 43
REMARK SMILES IDX 42 44 89 45 43 46 94 47 88 48 90 49 44 50 93 51 87 52 86 53
REMARK SMILES IDX 45 55 75 56 56 57 74 58 57 59 60 60 73 61 91 62 58 63 59 64
REMARK SMILES IDX 72 66 92 67 61 68 46 69 47 70 55 71 48 72 54 73 49 74 50 75
REMARK SMILES IDX 51 76 52 77 53 78 76 79 77 80 85 81 78 82 84 83 79 84 80 85
REMARK SMILES IDX 81 86 82 87 83 88 62 89 63 90 71 91 64 92 70 93 65 94 66 95
REMARK SMILES IDX 67 96 68 97 69 98
REMARK H PARENT 90 54 60 65
REMARK Flexibility Score: inf
ROOT
ATOM      1  C   UNL A   1      42.392  19.167  26.315  1.00  0.00     0.202 C 
ENDROOT
BRANCH   1   2
ATOM      2  C   UNL A   1      41.756  20.509  26.037  1.00  0.00     0.261 C 
BRANCH   2   3
ATOM      3  O   UNL A   1      40.550  20.757  26.751  1.00  0.00    -0.463 OA
BRANCH   3   4
ATOM      4  C   UNL A   1      39.477  21.290  26.120  1.00  0.00     0.307 C 
ATOM      5  O   UNL A   1      38.624  20.538  25.654  1.00  0.00    -0.252 OA
BRANCH   4   6
ATOM      6  C   UNL A   1      39.442  22.779  25.826  1.00  0.00     0.146 C 
BRANCH   6   7
ATOM      7  C   UNL A   1      38.323  23.617  26.420  1.00  0.00     0.156 C 
BRANCH   7   8
ATOM      8  N   UNL A   1      36.994  23.523  25.840  1.00  0.00    -0.271 N 
ATOM      9  C   UNL A   1      36.548  22.994  24.649  1.00  0.00     0.117 A 
ATOM     10  N   UNL A   1      36.020  24.158  26.500  1.00  0.00    -0.172 NA
ATOM     11  C   UNL A   1      35.381  23.696  24.349  1.00  0.00     0.021 A 
ATOM     12  C   UNL A   1      35.150  24.465  25.539  1.00  0.00     0.100 A 
BRANCH  11  13
ATOM     13  C   UNL A   1      34.692  23.698  23.070  1.00  0.00     0.016 C 
ATOM     14  C   UNL A   1      33.564  23.093  22.611  1.00  0.00     0.053 C 
BRANCH  14  15
ATOM     15  C   UNL A   1      32.481  22.135  23.145  1.00  0.00     0.185 C 
ATOM     16  O   UNL A   1      31.302  22.471  23.113  1.00  0.00    -0.289 OA
BRANCH  15  17
ATOM     17  C   UNL A   1      32.932  20.830  23.842  1.00  0.00     0.022 A 
ATOM     18  C   UNL A   1      32.492  19.648  22.538  1.00  0.00     0.015 A 
ATOM     19  C   UNL A   1      33.168  20.085  25.722  1.00  0.00     0.015 A 
ATOM     20  C   UNL A   1      32.191  17.971  22.975  1.00  0.00     0.040 A 
ATOM     21  C   UNL A   1      32.806  18.342  26.000  1.00  0.00     0.040 A 
ATOM     22  C   UNL A   1      32.321  17.371  24.631  1.00  0.00     0.123 A 
ATOM     23  F   UNL A   1      32.029  16.078  24.842  1.00  0.00    -0.207 F 
ENDBRANCH  15  17
ENDBRANCH  14  15
ENDBRANCH  11  13
BRANCH  12  24
ATOM     24  C   UNL A   1      34.046  25.460  25.705  1.00  0.00     0.004 A 
ATOM     25  C   UNL A   1      33.540  27.295  24.992  1.00  0.00     0.010 A 
ATOM     26  C   UNL A   1      32.668  24.402  26.266  1.00  0.00     0.031 A 
ATOM     27  C   UNL A   1      31.809  27.728  24.869  1.00  0.00     0.002 A 
ATOM     28  C   UNL A   1      31.025  24.985  26.062  1.00  0.00     0.041 A 
ATOM     29  C   UNL A   1      30.628  26.563  25.388  1.00  0.00     0.020 A 
ATOM     30  Cl  UNL A   1      29.726  23.966  26.557  1.00  0.00    -0.084 Cl
ENDBRANCH  12  24
ENDBRANCH   7   8
ENDBRANCH   6   7
ENDBRANCH   4   6
ENDBRANCH   3   4
ENDBRANCH   2   3
ENDBRANCH   1   2
BRANCH   1  31
ATOM     31  O   UNL A   1      43.814  19.117  26.221  1.00  0.00    -0.374 OA
BRANCH  31  32
ATOM     32  C   UNL A   1      44.336  18.490  25.044  1.00  0.00     0.202 C 
BRANCH  32  33
ATOM     33  C   UNL A   1      45.108  19.411  24.115  1.00  0.00     0.261 C 
BRANCH  33  34
ATOM     34  O   UNL A   1      45.513  20.578  24.801  1.00  0.00    -0.460 OA
BRANCH  34  35
ATOM     35  C   UNL A   1      44.980  21.747  24.366  1.00  0.00     0.338 C 
ATOM     36  O   UNL A   1      44.207  21.923  23.445  1.00  0.00    -0.246 OA
BRANCH  35  37
ATOM     37  C   UNL A   1      45.567  22.804  25.206  1.00  0.00     0.060 A 
ATOM     38  C   UNL A   1      45.361  22.652  26.570  1.00  0.00     0.016 A 
ATOM     39  C   UNL A   1      45.801  24.054  24.615  1.00  0.00     0.016 A 
ATOM     40  C   UNL A   1      44.937  23.767  27.249  1.00  0.00     0.010 A 
ATOM     41  C   UNL A   1      45.340  25.154  25.277  1.00  0.00     0.010 A 
ATOM     42  C   UNL A   1      44.789  24.970  26.540  1.00  0.00    -0.014 A 
BRANCH  42  43
ATOM     43  C   UNL A   1      44.289  26.135  27.230  1.00  0.00     0.031 A 
ATOM     44  C   UNL A   1      45.266  27.227  27.043  1.00  0.00     0.074 A 
ATOM     45  C   UNL A   1      43.096  26.210  27.852  1.00  0.00     0.049 A 
ATOM     46  N   UNL A   1      46.284  27.445  27.808  1.00  0.00    -0.248 NA
ATOM     47  C   UNL A   1      45.374  27.865  25.714  1.00  0.00     0.031 C 
ATOM     48  C   UNL A   1      41.988  25.251  27.884  1.00  0.00     0.029 A 
ATOM     49  N   UNL A   1      42.598  27.243  28.582  1.00  0.00    -0.354 N 
ATOM     50  C   UNL A   1      46.946  28.502  27.210  1.00  0.00     0.074 A 
ATOM     51  C   UNL A   1      46.564  28.461  25.824  1.00  0.00     0.031 C 
ATOM     52  C   UNL A   1      40.880  25.854  28.390  1.00  0.00     0.029 A 
ATOM     53  C   UNL A   1      41.230  27.186  28.856  1.00  0.00     0.049 A 
ATOM     54  H   UNL A   1      43.165  27.983  28.897  1.00  0.00     0.167 HD
ATOM     55  C   UNL A   1      47.362  29.549  27.974  1.00  0.00     0.031 A 
ATOM     56  C   UNL A   1      40.476  28.189  29.396  1.00  0.00     0.031 A 
ATOM     57  C   UNL A   1      47.344  29.193  29.377  1.00  0.00     0.049 A 
ATOM     58  C   UNL A   1      41.425  29.107  30.083  1.00  0.00     0.074 A 
ATOM     59  C   UNL A   1      47.937  28.206  30.140  1.00  0.00     0.029 A 
ATOM     60  N   UNL A   1      46.256  29.638  30.091  1.00  0.00    -0.354 N 
ATOM     61  N   UNL A   1      42.101  28.753  31.142  1.00  0.00    -0.248 NA
ATOM     62  C   UNL A   1      42.017  30.172  29.286  1.00  0.00     0.031 C 
ATOM     63  C   UNL A   1      46.932  27.803  31.069  1.00  0.00     0.029 A 
ATOM     64  C   UNL A   1      45.822  28.636  30.916  1.00  0.00     0.049 A 
ATOM     65  H   UNL A   1      45.853  30.534  30.020  1.00  0.00     0.167 HD
ATOM     66  C   UNL A   1      43.391  29.201  30.897  1.00  0.00     0.074 A 
ATOM     67  C   UNL A   1      43.266  30.118  29.760  1.00  0.00     0.031 C 
ATOM     68  C   UNL A   1      44.470  28.546  31.423  1.00  0.00     0.031 A 
BRANCH  55  69
ATOM     69  C   UNL A   1      47.250  30.987  27.519  1.00  0.00    -0.014 A 
ATOM     70  C   UNL A   1      48.386  31.808  27.656  1.00  0.00     0.010 A 
ATOM     71  C   UNL A   1      46.032  31.634  27.222  1.00  0.00     0.010 A 
ATOM     72  C   UNL A   1      48.291  33.201  27.575  1.00  0.00     0.020 A 
ATOM     73  C   UNL A   1      45.931  33.019  27.101  1.00  0.00     0.020 A 
ATOM     74  C   UNL A   1      47.060  33.796  27.301  1.00  0.00     0.054 A 
BRANCH  74  75
ATOM     75  S   UNL A   1      46.949  35.595  27.218  1.00  0.00     0.124 S 
ATOM     76  O   UNL A   1      48.015  36.005  28.126  1.00  0.00    -0.237 OA
ATOM     77  O   UNL A   1      47.188  35.846  25.800  1.00  0.00    -0.237 OA
ATOM     78  O   UNL A   1      45.590  35.874  27.675  1.00  0.00    -0.744 OA
ENDBRANCH  74  75
ENDBRANCH  55  69
BRANCH  56  79
ATOM     79  C   UNL A   1      39.086  28.625  29.063  1.00  0.00    -0.014 A 
ATOM     80  C   UNL A   1      38.075  28.694  30.049  1.00  0.00     0.010 A 
ATOM     81  C   UNL A   1      38.835  29.284  27.845  1.00  0.00     0.010 A 
ATOM     82  C   UNL A   1      36.899  29.450  29.850  1.00  0.00     0.020 A 
ATOM     83  C   UNL A   1      37.667  30.037  27.638  1.00  0.00     0.020 A 
ATOM     84  C   UNL A   1      36.715  30.139  28.650  1.00  0.00     0.054 A 
BRANCH  84  85
ATOM     85  S   UNL A   1      35.301  31.275  28.458  1.00  0.00     0.124 S 
ATOM     86  O   UNL A   1      35.095  31.754  29.822  1.00  0.00    -0.237 OA
ATOM     87  O   UNL A   1      35.809  32.264  27.513  1.00  0.00    -0.237 OA
ATOM     88  O   UNL A   1      34.239  30.416  27.938  1.00  0.00    -0.744 OA
ENDBRANCH  84  85
ENDBRANCH  56  79
BRANCH  68  89
ATOM     89  C   UNL A   1      44.245  27.544  32.531  1.00  0.00    -0.014 A 
ATOM     90  C   UNL A   1      43.929  27.859  33.869  1.00  0.00     0.010 A 
ATOM     91  C   UNL A   1      44.213  26.197  32.135  1.00  0.00     0.010 A 
ATOM     92  C   UNL A   1      43.619  26.839  34.786  1.00  0.00     0.020 A 
ATOM     93  C   UNL A   1      43.886  25.184  33.032  1.00  0.00     0.020 A 
ATOM     94  C   UNL A   1      43.606  25.505  34.358  1.00  0.00     0.054 A 
BRANCH  94  95
ATOM     95  S   UNL A   1      43.208  24.177  35.531  1.00  0.00     0.124 S 
ATOM     96  O   UNL A   1      43.703  24.714  36.795  1.00  0.00    -0.237 OA
ATOM     97  O   UNL A   1      41.755  24.068  35.418  1.00  0.00    -0.237 OA
ATOM     98  O   UNL A   1      43.947  23.025  35.016  1.00  0.00    -0.744 OA
ENDBRANCH  94  95
ENDBRANCH  68  89
ENDBRANCH  42  43
ENDBRANCH  35  37
ENDBRANCH  34  35
ENDBRANCH  33  34
ENDBRANCH  32  33
ENDBRANCH  31  32
ENDBRANCH   1  31
TORSDOF 23
ENDMDL
MODEL 3
REMARK VINA RESULT:     -10.4      2.983      4.359
REMARK SMILES O=C(CCn1cc(/C=C\C(=O)c2ccc(F)cc2)c(-c2cccc(Cl)c2)n1)OCCOCCOC(=O)c1ccc(-c2c3nc(c(-c4ccc(S(=O)(=O)[O-])cc4)c4ccc([nH]4)c(-c4ccc(S(=O)(=O)[O-])cc4)c4nc(c(-c5ccc(S(=O)(=O)[O-])cc5)c5ccc2[nH]5)C=C4)C=C3)cc1
REMARK SMILES IDX 30 1 29 2 28 3 2 4 1 5 3 6 4 7 5 8 6 9 27 10 7 11 19 12 8 13
REMARK SMILES IDX 9 14 10 15 11 16 12 17 13 18 18 19 14 20 17 21 15 22 16 23
REMARK SMILES IDX 20 24 21 25 26 26 22 27 24 28 23 29 25 30 31 31 32 32 33 33
REMARK SMILES IDX 34 34 35 35 36 36 37 37 38 38 96 39 39 40 95 41 40 42 41 43
REMARK SMILES IDX 42 44 89 45 43 46 94 47 88 48 90 49 44 50 93 51 87 52 86 53
REMARK SMILES IDX 45 55 75 56 56 57 74 58 57 59 60 60 73 61 91 62 58 63 59 64
REMARK SMILES IDX 72 66 92 67 61 68 46 69 47 70 55 71 48 72 54 73 49 74 50 75
REMARK SMILES IDX 51 76 52 77 53 78 76 79 77 80 85 81 78 82 84 83 79 84 80 85
REMARK SMILES IDX 81 86 82 87 83 88 62 89 63 90 71 91 64 92 70 93 65 94 66 95
REMARK SMILES IDX 67 96 68 97 69 98
REMARK H PARENT 90 54 60 65
REMARK Flexibility Score: inf
ROOT
ATOM      1  C   UNL A   1      41.237  21.645  27.669  1.00  0.00     0.202 C 
ENDROOT
BRANCH   1   2
ATOM      2  C   UNL A   1      40.346  22.094  26.535  1.00  0.00     0.261 C 
BRANCH   2   3
ATOM      3  O   UNL A   1      40.222  23.505  26.397  1.00  0.00    -0.463 OA
BRANCH   3   4
ATOM      4  C   UNL A   1      39.053  24.122  26.691  1.00  0.00     0.307 C 
ATOM      5  O   UNL A   1      39.080  25.210  27.264  1.00  0.00    -0.252 OA
BRANCH   4   6
ATOM      6  C   UNL A   1      37.742  23.384  26.492  1.00  0.00     0.146 C 
BRANCH   6   7
ATOM      7  C   UNL A   1      36.919  23.673  25.248  1.00  0.00     0.156 C 
BRANCH   7   8
ATOM      8  N   UNL A   1      35.510  23.992  25.399  1.00  0.00    -0.271 N 
ATOM      9  C   UNL A   1      34.400  23.191  25.555  1.00  0.00     0.117 A 
ATOM     10  N   UNL A   1      35.179  25.278  25.248  1.00  0.00    -0.172 NA
ATOM     11  C   UNL A   1      33.336  23.934  25.044  1.00  0.00     0.021 A 
ATOM     12  C   UNL A   1      33.924  25.221  24.806  1.00  0.00     0.100 A 
BRANCH  11  13
ATOM     13  C   UNL A   1      32.012  23.423  24.732  1.00  0.00     0.016 C 
ATOM     14  C   UNL A   1      31.551  22.470  23.878  1.00  0.00     0.053 C 
BRANCH  14  15
ATOM     15  C   UNL A   1      32.128  21.487  22.840  1.00  0.00     0.185 C 
ATOM     16  O   UNL A   1      32.462  21.897  21.734  1.00  0.00    -0.289 OA
BRANCH  15  17
ATOM     17  C   UNL A   1      32.131  19.978  23.179  1.00  0.00     0.022 A 
ATOM     18  C   UNL A   1      32.533  20.087  24.945  1.00  0.00     0.015 A 
ATOM     19  C   UNL A   1      32.467  18.190  22.266  1.00  0.00     0.015 A 
ATOM     20  C   UNL A   1      33.279  18.705  25.737  1.00  0.00     0.040 A 
ATOM     21  C   UNL A   1      33.253  16.878  23.220  1.00  0.00     0.040 A 
ATOM     22  C   UNL A   1      33.637  17.194  24.895  1.00  0.00     0.123 A 
ATOM     23  F   UNL A   1      34.243  16.225  25.600  1.00  0.00    -0.207 F 
ENDBRANCH  15  17
ENDBRANCH  14  15
ENDBRANCH  11  13
BRANCH  12  24
ATOM     24  C   UNL A   1      33.212  26.376  24.178  1.00  0.00     0.004 A 
ATOM     25  C   UNL A   1      31.931  26.710  22.635  1.00  0.00     0.010 A 
ATOM     26  C   UNL A   1      33.143  27.570  25.558  1.00  0.00     0.031 A 
ATOM     27  C   UNL A   1      30.772  28.067  22.751  1.00  0.00     0.002 A 
ATOM     28  C   UNL A   1      31.933  28.840  25.510  1.00  0.00     0.041 A 
ATOM     29  C   UNL A   1      30.805  29.061  24.176  1.00  0.00     0.020 A 
ATOM     30  Cl  UNL A   1      31.847  29.941  26.834  1.00  0.00    -0.084 Cl
ENDBRANCH  12  24
ENDBRANCH   7   8
ENDBRANCH   6   7
ENDBRANCH   4   6
ENDBRANCH   3   4
ENDBRANCH   2   3
ENDBRANCH   1   2
BRANCH   1  31
ATOM     31  O   UNL A   1      41.422  22.581  28.728  1.00  0.00    -0.374 OA
BRANCH  31  32
ATOM     32  C   UNL A   1      42.745  23.112  28.864  1.00  0.00     0.202 C 
BRANCH  32  33
ATOM     33  C   UNL A   1      43.675  22.823  27.698  1.00  0.00     0.261 C 
BRANCH  33  34
ATOM     34  O   UNL A   1      44.211  24.025  27.184  1.00  0.00    -0.460 OA
BRANCH  34  35
ATOM     35  C   UNL A   1      43.829  24.366  25.928  1.00  0.00     0.338 C 
ATOM     36  O   UNL A   1      43.494  23.630  25.019  1.00  0.00    -0.246 OA
BRANCH  35  37
ATOM     37  C   UNL A   1      43.945  25.831  25.845  1.00  0.00     0.060 A 
ATOM     38  C   UNL A   1      44.857  26.397  26.725  1.00  0.00     0.016 A 
ATOM     39  C   UNL A   1      42.856  26.545  25.327  1.00  0.00     0.016 A 
ATOM     40  C   UNL A   1      44.425  27.495  27.426  1.00  0.00     0.010 A 
ATOM     41  C   UNL A   1      42.406  27.610  26.053  1.00  0.00     0.010 A 
ATOM     42  C   UNL A   1      43.133  27.985  27.176  1.00  0.00    -0.014 A 
BRANCH  42  43
ATOM     43  C   UNL A   1      42.645  29.104  27.948  1.00  0.00     0.031 A 
ATOM     44  C   UNL A   1      43.628  30.200  27.830  1.00  0.00     0.074 A 
ATOM     45  C   UNL A   1      41.456  29.143  28.581  1.00  0.00     0.049 A 
ATOM     46  N   UNL A   1      44.652  30.359  28.602  1.00  0.00    -0.248 NA
ATOM     47  C   UNL A   1      43.733  30.927  26.547  1.00  0.00     0.031 C 
ATOM     48  C   UNL A   1      40.343  28.192  28.554  1.00  0.00     0.029 A 
ATOM     49  N   UNL A   1      40.969  30.127  29.383  1.00  0.00    -0.354 N 
ATOM     50  C   UNL A   1      45.317  31.451  28.073  1.00  0.00     0.074 A 
ATOM     51  C   UNL A   1      44.927  31.507  26.690  1.00  0.00     0.031 C 
ATOM     52  C   UNL A   1      39.241  28.765  29.108  1.00  0.00     0.029 A 
ATOM     53  C   UNL A   1      39.603  30.060  29.662  1.00  0.00     0.049 A 
ATOM     54  H   UNL A   1      41.544  30.841  29.744  1.00  0.00     0.167 HD
ATOM     55  C   UNL A   1      45.745  32.440  28.904  1.00  0.00     0.031 A 
ATOM     56  C   UNL A   1      38.859  31.028  30.274  1.00  0.00     0.031 A 
ATOM     57  C   UNL A   1      45.733  31.988  30.279  1.00  0.00     0.049 A 
ATOM     58  C   UNL A   1      39.818  31.891  31.016  1.00  0.00     0.074 A 
ATOM     59  C   UNL A   1      46.324  30.948  30.969  1.00  0.00     0.029 A 
ATOM     60  N   UNL A   1      44.652  32.391  31.029  1.00  0.00    -0.354 N 
ATOM     61  N   UNL A   1      40.498  31.461  32.044  1.00  0.00    -0.248 NA
ATOM     62  C   UNL A   1      40.412  33.005  30.290  1.00  0.00     0.031 C 
ATOM     63  C   UNL A   1      45.322  30.488  31.874  1.00  0.00     0.029 A 
ATOM     64  C   UNL A   1      44.217  31.337  31.786  1.00  0.00     0.049 A 
ATOM     65  H   UNL A   1      44.255  33.291  31.023  1.00  0.00     0.167 HD
ATOM     66  C   UNL A   1      41.789  31.917  31.822  1.00  0.00     0.074 A 
ATOM     67  C   UNL A   1      41.664  32.910  30.751  1.00  0.00     0.031 C 
ATOM     68  C   UNL A   1      42.867  31.221  32.294  1.00  0.00     0.031 A 
BRANCH  55  69
ATOM     69  C   UNL A   1      45.640  33.907  28.549  1.00  0.00    -0.014 A 
ATOM     70  C   UNL A   1      46.687  34.755  28.956  1.00  0.00     0.010 A 
ATOM     71  C   UNL A   1      44.462  34.529  28.085  1.00  0.00     0.010 A 
ATOM     72  C   UNL A   1      46.534  36.145  28.967  1.00  0.00     0.020 A 
ATOM     73  C   UNL A   1      44.310  35.914  28.055  1.00  0.00     0.020 A 
ATOM     74  C   UNL A   1      45.342  36.714  28.519  1.00  0.00     0.054 A 
BRANCH  74  75
ATOM     75  S   UNL A   1      45.151  38.508  28.556  1.00  0.00     0.124 S 
ATOM     76  O   UNL A   1      44.577  38.722  29.882  1.00  0.00    -0.237 OA
ATOM     77  O   UNL A   1      46.526  38.961  28.376  1.00  0.00    -0.237 OA
ATOM     78  O   UNL A   1      44.257  38.779  27.433  1.00  0.00    -0.744 OA
ENDBRANCH  74  75
ENDBRANCH  55  69
BRANCH  56  79
ATOM     79  C   UNL A   1      37.470  31.494  29.981  1.00  0.00    -0.014 A 
ATOM     80  C   UNL A   1      36.634  32.016  30.995  1.00  0.00     0.010 A 
ATOM     81  C   UNL A   1      37.080  31.730  28.649  1.00  0.00     0.010 A 
ATOM     82  C   UNL A   1      35.500  32.800  30.688  1.00  0.00     0.020 A 
ATOM     83  C   UNL A   1      35.953  32.507  28.334  1.00  0.00     0.020 A 
ATOM     84  C   UNL A   1      35.181  33.061  29.354  1.00  0.00     0.054 A 
BRANCH  84  85
ATOM     85  S   UNL A   1      33.842  34.232  28.948  1.00  0.00     0.124 S 
ATOM     86  O   UNL A   1      33.007  33.451  28.041  1.00  0.00    -0.237 OA
ATOM     87  O   UNL A   1      33.258  34.517  30.255  1.00  0.00    -0.237 OA
ATOM     88  O   UNL A   1      34.544  35.355  28.330  1.00  0.00    -0.744 OA
ENDBRANCH  84  85
ENDBRANCH  56  79
BRANCH  68  89
ATOM     89  C   UNL A   1      42.643  30.147  33.333  1.00  0.00    -0.014 A 
ATOM     90  C   UNL A   1      42.402  30.371  34.705  1.00  0.00     0.010 A 
ATOM     91  C   UNL A   1      42.526  28.837  32.838  1.00  0.00     0.010 A 
ATOM     92  C   UNL A   1      42.083  29.297  35.555  1.00  0.00     0.020 A 
ATOM     93  C   UNL A   1      42.189  27.774  33.670  1.00  0.00     0.020 A 
ATOM     94  C   UNL A   1      41.984  28.003  35.029  1.00  0.00     0.054 A 
BRANCH  94  95
ATOM     95  S   UNL A   1      41.574  26.607  36.115  1.00  0.00     0.124 S 
ATOM     96  O   UNL A   1      40.764  25.759  35.246  1.00  0.00    -0.237 OA
ATOM     97  O   UNL A   1      42.888  26.075  36.471  1.00  0.00    -0.237 OA
ATOM     98  O   UNL A   1      40.848  27.229  37.222  1.00  0.00    -0.744 OA
ENDBRANCH  94  95
ENDBRANCH  68  89
ENDBRANCH  42  43
ENDBRANCH  35  37
ENDBRANCH  34  35
ENDBRANCH  33  34
ENDBRANCH  32  33
ENDBRANCH  31  32
ENDBRANCH   1  31
TORSDOF 23
ENDMDL
