MODEL 1
REMARK VINA RESULT:     -10.2      0.000      0.000
REMARK SMILES C[C@H](CNC(=O)N1C[C@H]2CCCC[N@@H+]2C[C@@H]1C)C(=O)OCCOCCOC(=O)c1ccc(-c2c3nc(c(-c4ccc(S(=O)(=O)[O-])cc4)c4ccc([nH]4)c(-c4ccc(S(=O)(=O)[O-])cc4)c4nc(c(-c5ccc(S(=O)(=O)[O-])cc5)c5ccc2[nH]5)C=C4)C=C3)cc1
REMARK SMILES IDX 23 1 22 2 21 3 20 4 18 5 19 6 2 7 1 8 3 9 4 10 5 11 6 13
REMARK SMILES IDX 7 14 8 15 16 16 9 17 15 18 17 19 10 20 14 21 11 22 13 23
REMARK SMILES IDX 12 25 24 26 25 27 26 28 27 29 28 30 29 31 30 32 88 33 31 34
REMARK SMILES IDX 87 35 32 36 33 37 34 38 81 39 35 40 86 41 80 42 82 43 36 44
REMARK SMILES IDX 85 45 79 46 78 47 37 49 67 50 48 51 66 52 49 53 52 54 65 55
REMARK SMILES IDX 83 56 50 57 51 58 64 60 84 61 53 62 38 63 39 64 47 65 40 66
REMARK SMILES IDX 46 67 41 68 42 69 43 70 44 71 45 72 68 73 69 74 77 75 70 76
REMARK SMILES IDX 76 77 71 78 72 79 73 80 74 81 75 82 54 83 55 84 63 85 56 86
REMARK SMILES IDX 62 87 57 88 58 89 59 90 60 91 61 92
REMARK H PARENT 4 12 14 24 82 48 52 59
REMARK Flexibility Score: inf
ROOT
ATOM      1  O   UNL A   1      35.278  34.084  29.407  1.00  0.00    -0.374 OA
ENDROOT
BRANCH   1   2
ATOM      2  C   UNL A   1      34.976  33.633  28.086  1.00  0.00     0.202 C 
BRANCH   2   3
ATOM      3  C   UNL A   1      33.719  32.772  27.932  1.00  0.00     0.261 C 
BRANCH   3   4
ATOM      4  O   UNL A   1      34.009  31.551  27.228  1.00  0.00    -0.463 OA
BRANCH   4   5
ATOM      5  C   UNL A   1      33.019  30.625  27.185  1.00  0.00     0.310 C 
ATOM      6  O   UNL A   1      31.821  30.881  27.119  1.00  0.00    -0.252 OA
BRANCH   5   7
ATOM      7  C   UNL A   1      33.543  29.197  27.214  1.00  0.00     0.115 C 
ATOM      8  C   UNL A   1      35.062  29.224  27.259  1.00  0.00     0.022 C 
BRANCH   7   9
ATOM      9  C   UNL A   1      32.901  28.276  26.160  1.00  0.00     0.132 C 
BRANCH   9  10
ATOM     10  N   UNL A   1      31.878  28.864  25.312  1.00  0.00    -0.337 N 
ATOM     11  C   UNL A   1      31.438  28.528  24.072  1.00  0.00     0.318 C 
ATOM     12  H   UNL A   1      31.424  29.644  25.707  1.00  0.00     0.165 HD
ATOM     13  O   UNL A   1      30.708  29.315  23.476  1.00  0.00    -0.249 OA
BRANCH  11  14
ATOM     14  N   UNL A   1      31.896  27.357  23.526  1.00  0.00    -0.311 N 
ATOM     15  C   UNL A   1      31.001  26.201  23.515  1.00  0.00     0.186 C 
ATOM     16  C   UNL A   1      32.800  27.389  22.362  1.00  0.00     0.139 C 
ATOM     17  C   UNL A   1      31.831  24.912  23.566  1.00  0.00     0.203 C 
ATOM     18  C   UNL A   1      33.468  25.995  22.112  1.00  0.00     0.287 C 
ATOM     19  C   UNL A   1      33.943  28.408  22.505  1.00  0.00     0.037 C 
ATOM     20  C   UNL A   1      30.931  23.682  23.727  1.00  0.00     0.067 C 
ATOM     21  N   UNL A   1      32.652  24.779  22.340  1.00  0.00    -0.329 N 
ATOM     22  C   UNL A   1      31.779  22.418  23.835  1.00  0.00     0.012 C 
ATOM     23  C   UNL A   1      33.533  23.603  22.443  1.00  0.00     0.262 C 
ATOM     24  H   UNL A   1      32.018  24.661  21.549  1.00  0.00     0.348 HD
ATOM     25  C   UNL A   1      32.742  22.311  22.657  1.00  0.00     0.062 C 
ENDBRANCH  11  14
ENDBRANCH   9  10
ENDBRANCH   7   9
ENDBRANCH   5   7
ENDBRANCH   4   5
ENDBRANCH   3   4
ENDBRANCH   2   3
ENDBRANCH   1   2
BRANCH   1  26
ATOM     26  C   UNL A   1      34.558  33.499  30.489  1.00  0.00     0.202 C 
BRANCH  26  27
ATOM     27  C   UNL A   1      35.244  32.349  31.240  1.00  0.00     0.261 C 
BRANCH  27  28
ATOM     28  O   UNL A   1      35.996  31.484  30.368  1.00  0.00    -0.460 OA
BRANCH  28  29
ATOM     29  C   UNL A   1      36.630  30.464  30.996  1.00  0.00     0.338 C 
ATOM     30  O   UNL A   1      36.120  29.617  31.720  1.00  0.00    -0.246 OA
BRANCH  29  31
ATOM     31  C   UNL A   1      38.033  30.372  30.553  1.00  0.00     0.060 A 
ATOM     32  C   UNL A   1      38.269  30.264  29.176  1.00  0.00     0.016 A 
ATOM     33  C   UNL A   1      39.094  30.303  31.460  1.00  0.00     0.016 A 
ATOM     34  C   UNL A   1      39.559  30.034  28.701  1.00  0.00     0.010 A 
ATOM     35  C   UNL A   1      40.389  30.064  30.980  1.00  0.00     0.010 A 
ATOM     36  C   UNL A   1      40.622  29.893  29.603  1.00  0.00    -0.014 A 
BRANCH  36  37
ATOM     37  C   UNL A   1      41.940  29.423  29.107  1.00  0.00     0.031 A 
ATOM     38  C   UNL A   1      43.090  30.394  29.051  1.00  0.00     0.074 A 
ATOM     39  C   UNL A   1      42.128  28.139  28.753  1.00  0.00     0.049 A 
ATOM     40  N   UNL A   1      44.319  30.198  28.649  1.00  0.00    -0.248 NA
ATOM     41  C   UNL A   1      42.816  31.766  29.510  1.00  0.00     0.031 C 
ATOM     42  C   UNL A   1      41.110  27.089  28.807  1.00  0.00     0.029 A 
ATOM     43  N   UNL A   1      43.245  27.500  28.275  1.00  0.00    -0.354 N 
ATOM     44  C   UNL A   1      44.965  31.421  28.799  1.00  0.00     0.074 A 
ATOM     45  C   UNL A   1      43.985  32.357  29.304  1.00  0.00     0.031 C 
ATOM     46  C   UNL A   1      41.650  25.936  28.374  1.00  0.00     0.029 A 
ATOM     47  C   UNL A   1      43.039  26.173  27.983  1.00  0.00     0.049 A 
ATOM     48  H   UNL A   1      44.112  27.950  28.154  1.00  0.00     0.167 HD
ATOM     49  C   UNL A   1      46.258  31.735  28.545  1.00  0.00     0.031 A 
ATOM     50  C   UNL A   1      43.868  25.257  27.442  1.00  0.00     0.031 A 
ATOM     51  C   UNL A   1      47.231  30.807  28.032  1.00  0.00     0.049 A 
ATOM     52  C   UNL A   1      45.283  25.648  27.100  1.00  0.00     0.074 A 
ATOM     53  C   UNL A   1      48.568  31.030  27.753  1.00  0.00     0.029 A 
ATOM     54  N   UNL A   1      46.971  29.483  27.711  1.00  0.00    -0.354 N 
ATOM     55  N   UNL A   1      45.882  26.802  27.269  1.00  0.00    -0.248 NA
ATOM     56  C   UNL A   1      46.133  24.610  26.500  1.00  0.00     0.031 C 
ATOM     57  C   UNL A   1      49.104  29.855  27.215  1.00  0.00     0.029 A 
ATOM     58  C   UNL A   1      48.116  28.884  27.215  1.00  0.00     0.049 A 
ATOM     59  H   UNL A   1      46.101  29.036  27.821  1.00  0.00     0.167 HD
ATOM     60  C   UNL A   1      47.189  26.619  26.824  1.00  0.00     0.074 A 
ATOM     61  C   UNL A   1      47.293  25.243  26.388  1.00  0.00     0.031 C 
ATOM     62  C   UNL A   1      48.209  27.512  26.785  1.00  0.00     0.031 A 
BRANCH  49  63
ATOM     63  C   UNL A   1      46.688  33.158  28.788  1.00  0.00    -0.014 A 
ATOM     64  C   UNL A   1      46.579  34.135  27.782  1.00  0.00     0.010 A 
ATOM     65  C   UNL A   1      47.175  33.529  30.054  1.00  0.00     0.010 A 
ATOM     66  C   UNL A   1      46.984  35.450  28.028  1.00  0.00     0.020 A 
ATOM     67  C   UNL A   1      47.557  34.849  30.311  1.00  0.00     0.020 A 
ATOM     68  C   UNL A   1      47.474  35.798  29.290  1.00  0.00     0.054 A 
BRANCH  68  69
ATOM     69  S   UNL A   1      47.976  37.515  29.587  1.00  0.00     0.124 S 
ATOM     70  O   UNL A   1      47.469  38.187  28.393  1.00  0.00    -0.237 OA
ATOM     71  O   UNL A   1      47.283  37.841  30.831  1.00  0.00    -0.237 OA
ATOM     72  O   UNL A   1      49.431  37.439  29.689  1.00  0.00    -0.744 OA
ENDBRANCH  68  69
ENDBRANCH  49  63
BRANCH  50  73
ATOM     73  C   UNL A   1      43.376  23.877  27.176  1.00  0.00    -0.014 A 
ATOM     74  C   UNL A   1      43.142  22.981  28.233  1.00  0.00     0.010 A 
ATOM     75  C   UNL A   1      43.141  23.454  25.855  1.00  0.00     0.010 A 
ATOM     76  C   UNL A   1      42.693  21.682  27.973  1.00  0.00     0.020 A 
ATOM     77  C   UNL A   1      42.668  22.166  25.592  1.00  0.00     0.020 A 
ATOM     78  C   UNL A   1      42.456  21.283  26.653  1.00  0.00     0.054 A 
BRANCH  78  79
ATOM     79  S   UNL A   1      41.822  19.612  26.342  1.00  0.00     0.124 S 
ATOM     80  O   UNL A   1      40.383  19.842  26.267  1.00  0.00    -0.237 OA
ATOM     81  O   UNL A   1      42.474  19.256  25.084  1.00  0.00    -0.237 OA
ATOM     82  O   UNL A   1      42.275  18.854  27.506  1.00  0.00    -0.744 OA
ENDBRANCH  78  79
ENDBRANCH  50  73
BRANCH  62  83
ATOM     83  C   UNL A   1      49.546  27.022  26.292  1.00  0.00    -0.014 A 
ATOM     84  C   UNL A   1      50.450  26.374  27.152  1.00  0.00     0.010 A 
ATOM     85  C   UNL A   1      49.872  27.155  24.930  1.00  0.00     0.010 A 
ATOM     86  C   UNL A   1      51.670  25.894  26.662  1.00  0.00     0.020 A 
ATOM     87  C   UNL A   1      51.077  26.655  24.432  1.00  0.00     0.020 A 
ATOM     88  C   UNL A   1      51.975  26.039  25.305  1.00  0.00     0.054 A 
BRANCH  88  89
ATOM     89  S   UNL A   1      53.542  25.366  24.685  1.00  0.00     0.124 S 
ATOM     90  O   UNL A   1      53.430  23.955  25.044  1.00  0.00    -0.237 OA
ATOM     91  O   UNL A   1      53.475  25.659  23.255  1.00  0.00    -0.237 OA
ATOM     92  O   UNL A   1      54.557  26.117  25.421  1.00  0.00    -0.744 OA
ENDBRANCH  88  89
ENDBRANCH  62  83
ENDBRANCH  36  37
ENDBRANCH  29  31
ENDBRANCH  28  29
ENDBRANCH  27  28
ENDBRANCH  26  27
ENDBRANCH   1  26
TORSDOF 20
ENDMDL
MODEL 2
REMARK VINA RESULT:     -10.1      1.344      1.988
REMARK SMILES C[C@H](CNC(=O)N1C[C@H]2CCCC[N@@H+]2C[C@@H]1C)C(=O)OCCOCCOC(=O)c1ccc(-c2c3nc(c(-c4ccc(S(=O)(=O)[O-])cc4)c4ccc([nH]4)c(-c4ccc(S(=O)(=O)[O-])cc4)c4nc(c(-c5ccc(S(=O)(=O)[O-])cc5)c5ccc2[nH]5)C=C4)C=C3)cc1
REMARK SMILES IDX 23 1 22 2 21 3 20 4 18 5 19 6 2 7 1 8 3 9 4 10 5 11 6 13
REMARK SMILES IDX 7 14 8 15 16 16 9 17 15 18 17 19 10 20 14 21 11 22 13 23
REMARK SMILES IDX 12 25 24 26 25 27 26 28 27 29 28 30 29 31 30 32 88 33 31 34
REMARK SMILES IDX 87 35 32 36 33 37 34 38 81 39 35 40 86 41 80 42 82 43 36 44
REMARK SMILES IDX 85 45 79 46 78 47 37 49 67 50 48 51 66 52 49 53 52 54 65 55
REMARK SMILES IDX 83 56 50 57 51 58 64 60 84 61 53 62 38 63 39 64 47 65 40 66
REMARK SMILES IDX 46 67 41 68 42 69 43 70 44 71 45 72 68 73 69 74 77 75 70 76
REMARK SMILES IDX 76 77 71 78 72 79 73 80 74 81 75 82 54 83 55 84 63 85 56 86
REMARK SMILES IDX 62 87 57 88 58 89 59 90 60 91 61 92
REMARK H PARENT 4 12 14 24 82 48 52 59
REMARK Flexibility Score: inf
ROOT
ATOM      1  O   UNL A   1      34.929  33.665  29.147  1.00  0.00    -0.374 OA
ENDROOT
BRANCH   1   2
ATOM      2  C   UNL A   1      34.296  33.117  27.990  1.00  0.00     0.202 C 
BRANCH   2   3
ATOM      3  C   UNL A   1      33.785  31.678  28.112  1.00  0.00     0.261 C 
BRANCH   3   4
ATOM      4  O   UNL A   1      34.105  30.912  26.937  1.00  0.00    -0.463 OA
BRANCH   4   5
ATOM      5  C   UNL A   1      33.546  29.679  26.845  1.00  0.00     0.310 C 
ATOM      6  O   UNL A   1      33.640  28.801  27.695  1.00  0.00    -0.252 OA
BRANCH   5   7
ATOM      7  C   UNL A   1      32.758  29.483  25.558  1.00  0.00     0.115 C 
ATOM      8  C   UNL A   1      31.486  30.313  25.619  1.00  0.00     0.022 C 
BRANCH   7   9
ATOM      9  C   UNL A   1      32.599  28.007  25.145  1.00  0.00     0.132 C 
BRANCH   9  10
ATOM     10  N   UNL A   1      31.730  27.186  25.970  1.00  0.00    -0.337 N 
ATOM     11  C   UNL A   1      31.585  25.839  26.057  1.00  0.00     0.318 C 
ATOM     12  H   UNL A   1      31.143  27.697  26.573  1.00  0.00     0.165 HD
ATOM     13  O   UNL A   1      30.626  25.391  26.679  1.00  0.00    -0.249 OA
BRANCH  11  14
ATOM     14  N   UNL A   1      32.481  25.054  25.378  1.00  0.00    -0.311 N 
ATOM     15  C   UNL A   1      33.537  24.389  26.141  1.00  0.00     0.186 C 
ATOM     16  C   UNL A   1      32.040  24.267  24.213  1.00  0.00     0.139 C 
ATOM     17  C   UNL A   1      34.769  24.196  25.248  1.00  0.00     0.203 C 
ATOM     18  C   UNL A   1      33.257  23.724  23.389  1.00  0.00     0.287 C 
ATOM     19  C   UNL A   1      31.165  25.068  23.233  1.00  0.00     0.037 C 
ATOM     20  C   UNL A   1      35.956  23.657  26.055  1.00  0.00     0.067 C 
ATOM     21  N   UNL A   1      34.457  23.273  24.133  1.00  0.00    -0.329 N 
ATOM     22  C   UNL A   1      37.186  23.529  25.160  1.00  0.00     0.012 C 
ATOM     23  C   UNL A   1      35.603  23.180  23.213  1.00  0.00     0.262 C 
ATOM     24  H   UNL A   1      34.265  22.353  24.530  1.00  0.00     0.348 HD
ATOM     25  C   UNL A   1      36.869  22.696  23.922  1.00  0.00     0.062 C 
ENDBRANCH  11  14
ENDBRANCH   9  10
ENDBRANCH   7   9
ENDBRANCH   5   7
ENDBRANCH   4   5
ENDBRANCH   3   4
ENDBRANCH   2   3
ENDBRANCH   1   2
BRANCH   1  26
ATOM     26  C   UNL A   1      34.387  33.331  30.422  1.00  0.00     0.202 C 
BRANCH  26  27
ATOM     27  C   UNL A   1      35.132  32.264  31.237  1.00  0.00     0.261 C 
BRANCH  27  28
ATOM     28  O   UNL A   1      36.188  31.630  30.492  1.00  0.00    -0.460 OA
BRANCH  28  29
ATOM     29  C   UNL A   1      36.813  30.622  31.147  1.00  0.00     0.338 C 
ATOM     30  O   UNL A   1      36.297  29.807  31.904  1.00  0.00    -0.246 OA
BRANCH  29  31
ATOM     31  C   UNL A   1      38.209  30.492  30.693  1.00  0.00     0.060 A 
ATOM     32  C   UNL A   1      38.444  30.523  29.312  1.00  0.00     0.016 A 
ATOM     33  C   UNL A   1      39.260  30.256  31.584  1.00  0.00     0.016 A 
ATOM     34  C   UNL A   1      39.719  30.267  28.811  1.00  0.00     0.010 A 
ATOM     35  C   UNL A   1      40.540  29.992  31.077  1.00  0.00     0.010 A 
ATOM     36  C   UNL A   1      40.767  29.960  29.689  1.00  0.00    -0.014 A 
BRANCH  36  37
ATOM     37  C   UNL A   1      42.056  29.467  29.141  1.00  0.00     0.031 A 
ATOM     38  C   UNL A   1      43.221  30.416  29.042  1.00  0.00     0.074 A 
ATOM     39  C   UNL A   1      42.205  28.181  28.776  1.00  0.00     0.049 A 
ATOM     40  N   UNL A   1      44.429  30.199  28.592  1.00  0.00    -0.248 NA
ATOM     41  C   UNL A   1      42.992  31.791  29.516  1.00  0.00     0.031 C 
ATOM     42  C   UNL A   1      41.170  27.150  28.867  1.00  0.00     0.029 A 
ATOM     43  N   UNL A   1      43.290  27.523  28.252  1.00  0.00    -0.354 N 
ATOM     44  C   UNL A   1      45.105  31.408  28.720  1.00  0.00     0.074 A 
ATOM     45  C   UNL A   1      44.163  32.362  29.265  1.00  0.00     0.031 C 
ATOM     46  C   UNL A   1      41.671  25.989  28.410  1.00  0.00     0.029 A 
ATOM     47  C   UNL A   1      43.047  26.201  27.965  1.00  0.00     0.049 A 
ATOM     48  H   UNL A   1      44.160  27.957  28.099  1.00  0.00     0.167 HD
ATOM     49  C   UNL A   1      46.393  31.699  28.416  1.00  0.00     0.031 A 
ATOM     50  C   UNL A   1      43.837  25.271  27.390  1.00  0.00     0.031 A 
ATOM     51  C   UNL A   1      47.326  30.754  27.863  1.00  0.00     0.049 A 
ATOM     52  C   UNL A   1      45.244  25.637  26.994  1.00  0.00     0.074 A 
ATOM     53  C   UNL A   1      48.656  30.952  27.533  1.00  0.00     0.029 A 
ATOM     54  N   UNL A   1      47.029  29.437  27.549  1.00  0.00    -0.354 N 
ATOM     55  N   UNL A   1      45.872  26.779  27.142  1.00  0.00    -0.248 NA
ATOM     56  C   UNL A   1      46.050  24.584  26.358  1.00  0.00     0.031 C 
ATOM     57  C   UNL A   1      49.147  29.770  26.970  1.00  0.00     0.029 A 
ATOM     58  C   UNL A   1      48.142  28.817  27.006  1.00  0.00     0.049 A 
ATOM     59  H   UNL A   1      46.155  29.006  27.692  1.00  0.00     0.167 HD
ATOM     60  C   UNL A   1      47.157  26.572  26.646  1.00  0.00     0.074 A 
ATOM     61  C   UNL A   1      47.217  25.195  26.202  1.00  0.00     0.031 C 
ATOM     62  C   UNL A   1      48.192  27.445  26.570  1.00  0.00     0.031 A 
BRANCH  49  63
ATOM     63  C   UNL A   1      46.859  33.112  28.646  1.00  0.00    -0.014 A 
ATOM     64  C   UNL A   1      47.523  33.477  29.831  1.00  0.00     0.010 A 
ATOM     65  C   UNL A   1      46.662  34.080  27.645  1.00  0.00     0.010 A 
ATOM     66  C   UNL A   1      47.948  34.794  30.025  1.00  0.00     0.020 A 
ATOM     67  C   UNL A   1      47.109  35.392  27.825  1.00  0.00     0.020 A 
ATOM     68  C   UNL A   1      47.735  35.744  29.022  1.00  0.00     0.054 A 
BRANCH  68  69
ATOM     69  S   UNL A   1      48.312  37.443  29.293  1.00  0.00     0.124 S 
ATOM     70  O   UNL A   1      49.666  37.390  28.745  1.00  0.00    -0.237 OA
ATOM     71  O   UNL A   1      47.355  38.233  28.523  1.00  0.00    -0.237 OA
ATOM     72  O   UNL A   1      48.233  37.610  30.742  1.00  0.00    -0.744 OA
ENDBRANCH  68  69
ENDBRANCH  49  63
BRANCH  50  73
ATOM     73  C   UNL A   1      43.309  23.902  27.139  1.00  0.00    -0.014 A 
ATOM     74  C   UNL A   1      43.318  22.930  28.154  1.00  0.00     0.010 A 
ATOM     75  C   UNL A   1      42.793  23.565  25.875  1.00  0.00     0.010 A 
ATOM     76  C   UNL A   1      42.833  21.643  27.906  1.00  0.00     0.020 A 
ATOM     77  C   UNL A   1      42.283  22.287  25.629  1.00  0.00     0.020 A 
ATOM     78  C   UNL A   1      42.315  21.330  26.645  1.00  0.00     0.054 A 
BRANCH  78  79
ATOM     79  S   UNL A   1      41.640  19.670  26.361  1.00  0.00     0.124 S 
ATOM     80  O   UNL A   1      42.389  19.234  25.187  1.00  0.00    -0.237 OA
ATOM     81  O   UNL A   1      41.960  18.982  27.610  1.00  0.00    -0.237 OA
ATOM     82  O   UNL A   1      40.216  19.914  26.141  1.00  0.00    -0.744 OA
ENDBRANCH  78  79
ENDBRANCH  50  73
BRANCH  62  83
ATOM     83  C   UNL A   1      49.499  26.931  26.023  1.00  0.00    -0.014 A 
ATOM     84  C   UNL A   1      49.878  27.169  24.691  1.00  0.00     0.010 A 
ATOM     85  C   UNL A   1      50.389  26.256  26.879  1.00  0.00     0.010 A 
ATOM     86  C   UNL A   1      51.113  26.715  24.217  1.00  0.00     0.020 A 
ATOM     87  C   UNL A   1      51.633  25.824  26.417  1.00  0.00     0.020 A 
ATOM     88  C   UNL A   1      51.982  26.044  25.083  1.00  0.00     0.054 A 
BRANCH  88  89
ATOM     89  S   UNL A   1      53.599  25.507  24.457  1.00  0.00     0.124 S 
ATOM     90  O   UNL A   1      54.518  26.258  25.306  1.00  0.00    -0.237 OA
ATOM     91  O   UNL A   1      53.568  24.064  24.684  1.00  0.00    -0.237 OA
ATOM     92  O   UNL A   1      53.577  25.910  23.052  1.00  0.00    -0.744 OA
ENDBRANCH  88  89
ENDBRANCH  62  83
ENDBRANCH  36  37
ENDBRANCH  29  31
ENDBRANCH  28  29
ENDBRANCH  27  28
ENDBRANCH  26  27
ENDBRANCH   1  26
TORSDOF 20
ENDMDL
MODEL 3
REMARK VINA RESULT:     -10.0      4.159      9.587
REMARK SMILES C[C@H](CNC(=O)N1C[C@H]2CCCC[N@@H+]2C[C@@H]1C)C(=O)OCCOCCOC(=O)c1ccc(-c2c3nc(c(-c4ccc(S(=O)(=O)[O-])cc4)c4ccc([nH]4)c(-c4ccc(S(=O)(=O)[O-])cc4)c4nc(c(-c5ccc(S(=O)(=O)[O-])cc5)c5ccc2[nH]5)C=C4)C=C3)cc1
REMARK SMILES IDX 23 1 22 2 21 3 20 4 18 5 19 6 2 7 1 8 3 9 4 10 5 11 6 13
REMARK SMILES IDX 7 14 8 15 16 16 9 17 15 18 17 19 10 20 14 21 11 22 13 23
REMARK SMILES IDX 12 25 24 26 25 27 26 28 27 29 28 30 29 31 30 32 88 33 31 34
REMARK SMILES IDX 87 35 32 36 33 37 34 38 81 39 35 40 86 41 80 42 82 43 36 44
REMARK SMILES IDX 85 45 79 46 78 47 37 49 67 50 48 51 66 52 49 53 52 54 65 55
REMARK SMILES IDX 83 56 50 57 51 58 64 60 84 61 53 62 38 63 39 64 47 65 40 66
REMARK SMILES IDX 46 67 41 68 42 69 43 70 44 71 45 72 68 73 69 74 77 75 70 76
REMARK SMILES IDX 76 77 71 78 72 79 73 80 74 81 75 82 54 83 55 84 63 85 56 86
REMARK SMILES IDX 62 87 57 88 58 89 59 90 60 91 61 92
REMARK H PARENT 4 12 14 24 82 48 52 59
REMARK Flexibility Score: inf
ROOT
ATOM      1  O   UNL A   1      35.351  21.166  25.558  1.00  0.00    -0.374 OA
ENDROOT
BRANCH   1   2
ATOM      2  C   UNL A   1      34.070  20.742  25.090  1.00  0.00     0.202 C 
BRANCH   2   3
ATOM      3  C   UNL A   1      32.869  21.119  25.962  1.00  0.00     0.261 C 
BRANCH   3   4
ATOM      4  O   UNL A   1      31.784  21.622  25.161  1.00  0.00    -0.463 OA
BRANCH   4   5
ATOM      5  C   UNL A   1      31.044  22.623  25.702  1.00  0.00     0.310 C 
ATOM      6  O   UNL A   1      30.106  22.462  26.476  1.00  0.00    -0.252 OA
BRANCH   5   7
ATOM      7  C   UNL A   1      31.502  24.003  25.257  1.00  0.00     0.115 C 
ATOM      8  C   UNL A   1      31.908  24.812  26.478  1.00  0.00     0.022 C 
BRANCH   7   9
ATOM      9  C   UNL A   1      30.543  24.688  24.265  1.00  0.00     0.132 C 
BRANCH   9  10
ATOM     10  N   UNL A   1      31.081  25.020  22.958  1.00  0.00    -0.337 N 
ATOM     11  C   UNL A   1      31.550  26.189  22.452  1.00  0.00     0.318 C 
ATOM     12  H   UNL A   1      31.111  24.264  22.328  1.00  0.00     0.165 HD
ATOM     13  O   UNL A   1      31.753  26.266  21.243  1.00  0.00    -0.249 OA
BRANCH  11  14
ATOM     14  N   UNL A   1      31.702  27.245  23.313  1.00  0.00    -0.311 N 
ATOM     15  C   UNL A   1      33.030  27.502  23.868  1.00  0.00     0.186 C 
ATOM     16  C   UNL A   1      30.919  28.478  23.115  1.00  0.00     0.139 C 
ATOM     17  C   UNL A   1      32.890  28.161  25.246  1.00  0.00     0.203 C 
ATOM     18  C   UNL A   1      30.979  29.408  24.375  1.00  0.00     0.287 C 
ATOM     19  C   UNL A   1      29.431  28.217  22.829  1.00  0.00     0.037 C 
ATOM     20  C   UNL A   1      34.253  28.292  25.936  1.00  0.00     0.067 C 
ATOM     21  N   UNL A   1      32.259  29.495  25.118  1.00  0.00    -0.329 N 
ATOM     22  C   UNL A   1      34.083  28.895  27.328  1.00  0.00     0.012 C 
ATOM     23  C   UNL A   1      32.020  30.075  26.450  1.00  0.00     0.262 C 
ATOM     24  H   UNL A   1      32.897  30.095  24.595  1.00  0.00     0.348 HD
ATOM     25  C   UNL A   1      33.312  30.210  27.257  1.00  0.00     0.062 C 
ENDBRANCH  11  14
ENDBRANCH   9  10
ENDBRANCH   7   9
ENDBRANCH   5   7
ENDBRANCH   4   5
ENDBRANCH   3   4
ENDBRANCH   2   3
ENDBRANCH   1   2
BRANCH   1  26
ATOM     26  C   UNL A   1      36.494  20.440  25.115  1.00  0.00     0.202 C 
BRANCH  26  27
ATOM     27  C   UNL A   1      37.767  21.250  24.830  1.00  0.00     0.261 C 
BRANCH  27  28
ATOM     28  O   UNL A   1      38.108  22.148  25.903  1.00  0.00    -0.460 OA
BRANCH  28  29
ATOM     29  C   UNL A   1      37.914  23.459  25.624  1.00  0.00     0.338 C 
ATOM     30  O   UNL A   1      37.033  23.937  24.918  1.00  0.00    -0.246 OA
BRANCH  29  31
ATOM     31  C   UNL A   1      38.807  24.303  26.438  1.00  0.00     0.060 A 
ATOM     32  C   UNL A   1      38.553  24.370  27.814  1.00  0.00     0.016 A 
ATOM     33  C   UNL A   1      39.816  25.083  25.867  1.00  0.00     0.016 A 
ATOM     34  C   UNL A   1      39.270  25.254  28.618  1.00  0.00     0.010 A 
ATOM     35  C   UNL A   1      40.530  25.978  26.676  1.00  0.00     0.010 A 
ATOM     36  C   UNL A   1      40.236  26.093  28.047  1.00  0.00    -0.014 A 
BRANCH  36  37
ATOM     37  C   UNL A   1      40.827  27.185  28.862  1.00  0.00     0.031 A 
ATOM     38  C   UNL A   1      40.031  28.443  29.088  1.00  0.00     0.074 A 
ATOM     39  C   UNL A   1      42.037  27.044  29.431  1.00  0.00     0.049 A 
ATOM     40  N   UNL A   1      40.356  29.518  29.759  1.00  0.00    -0.248 NA
ATOM     41  C   UNL A   1      38.693  28.495  28.477  1.00  0.00     0.031 C 
ATOM     42  C   UNL A   1      42.888  25.858  29.330  1.00  0.00     0.029 A 
ATOM     43  N   UNL A   1      42.762  27.912  30.211  1.00  0.00    -0.354 N 
ATOM     44  C   UNL A   1      39.267  30.377  29.647  1.00  0.00     0.074 A 
ATOM     45  C   UNL A   1      38.285  29.708  28.822  1.00  0.00     0.031 C 
ATOM     46  C   UNL A   1      44.022  26.075  30.019  1.00  0.00     0.029 A 
ATOM     47  C   UNL A   1      43.992  27.424  30.581  1.00  0.00     0.049 A 
ATOM     48  H   UNL A   1      42.431  28.799  30.479  1.00  0.00     0.167 HD
ATOM     49  C   UNL A   1      39.098  31.608  30.186  1.00  0.00     0.031 A 
ATOM     50  C   UNL A   1      44.990  28.005  31.278  1.00  0.00     0.031 A 
ATOM     51  C   UNL A   1      40.079  32.278  30.998  1.00  0.00     0.049 A 
ATOM     52  C   UNL A   1      44.808  29.404  31.807  1.00  0.00     0.074 A 
ATOM     53  C   UNL A   1      39.994  33.523  31.598  1.00  0.00     0.029 A 
ATOM     54  N   UNL A   1      41.328  31.766  31.315  1.00  0.00    -0.354 N 
ATOM     55  N   UNL A   1      43.764  30.192  31.710  1.00  0.00    -0.248 NA
ATOM     56  C   UNL A   1      45.937  29.988  32.545  1.00  0.00     0.031 C 
ATOM     57  C   UNL A   1      41.211  33.785  32.235  1.00  0.00     0.029 A 
ATOM     58  C   UNL A   1      42.032  32.680  32.082  1.00  0.00     0.049 A 
ATOM     59  H   UNL A   1      41.663  30.884  31.037  1.00  0.00     0.167 HD
ATOM     60  C   UNL A   1      44.101  31.353  32.401  1.00  0.00     0.074 A 
ATOM     61  C   UNL A   1      45.440  31.160  32.917  1.00  0.00     0.031 C 
ATOM     62  C   UNL A   1      43.363  32.475  32.593  1.00  0.00     0.031 A 
BRANCH  49  63
ATOM     63  C   UNL A   1      37.809  32.327  29.885  1.00  0.00    -0.014 A 
ATOM     64  C   UNL A   1      37.709  33.225  28.807  1.00  0.00     0.010 A 
ATOM     65  C   UNL A   1      36.671  32.072  30.672  1.00  0.00     0.010 A 
ATOM     66  C   UNL A   1      36.505  33.883  28.545  1.00  0.00     0.020 A 
ATOM     67  C   UNL A   1      35.458  32.708  30.397  1.00  0.00     0.020 A 
ATOM     68  C   UNL A   1      35.387  33.623  29.344  1.00  0.00     0.054 A 
BRANCH  68  69
ATOM     69  S   UNL A   1      33.830  34.476  28.970  1.00  0.00     0.124 S 
ATOM     70  O   UNL A   1      33.195  33.548  28.039  1.00  0.00    -0.237 OA
ATOM     71  O   UNL A   1      33.198  34.579  30.283  1.00  0.00    -0.237 OA
ATOM     72  O   UNL A   1      34.261  35.745  28.388  1.00  0.00    -0.744 OA
ENDBRANCH  68  69
ENDBRANCH  49  63
BRANCH  50  73
ATOM     73  C   UNL A   1      46.263  27.268  31.503  1.00  0.00    -0.014 A 
ATOM     74  C   UNL A   1      47.329  27.377  30.593  1.00  0.00     0.010 A 
ATOM     75  C   UNL A   1      46.414  26.447  32.636  1.00  0.00     0.010 A 
ATOM     76  C   UNL A   1      48.516  26.669  30.805  1.00  0.00     0.020 A 
ATOM     77  C   UNL A   1      47.608  25.759  32.866  1.00  0.00     0.020 A 
ATOM     78  C   UNL A   1      48.649  25.866  31.942  1.00  0.00     0.054 A 
BRANCH  78  79
ATOM     79  S   UNL A   1      50.219  25.001  32.226  1.00  0.00     0.124 S 
ATOM     80  O   UNL A   1      50.491  24.426  30.913  1.00  0.00    -0.237 OA
ATOM     81  O   UNL A   1      51.106  26.085  32.640  1.00  0.00    -0.237 OA
ATOM     82  O   UNL A   1      49.892  24.038  33.276  1.00  0.00    -0.744 OA
ENDBRANCH  78  79
ENDBRANCH  50  73
BRANCH  62  83
ATOM     83  C   UNL A   1      43.968  33.572  33.431  1.00  0.00    -0.014 A 
ATOM     84  C   UNL A   1      44.705  34.617  32.848  1.00  0.00     0.010 A 
ATOM     85  C   UNL A   1      43.736  33.589  34.819  1.00  0.00     0.010 A 
ATOM     86  C   UNL A   1      45.224  35.644  33.642  1.00  0.00     0.020 A 
ATOM     87  C   UNL A   1      44.230  34.626  35.612  1.00  0.00     0.020 A 
ATOM     88  C   UNL A   1      44.984  35.642  35.020  1.00  0.00     0.054 A 
BRANCH  88  89
ATOM     89  S   UNL A   1      45.627  37.010  36.023  1.00  0.00     0.124 S 
ATOM     90  O   UNL A   1      44.423  37.796  36.272  1.00  0.00    -0.237 OA
ATOM     91  O   UNL A   1      46.183  36.323  37.187  1.00  0.00    -0.237 OA
ATOM     92  O   UNL A   1      46.615  37.644  35.151  1.00  0.00    -0.744 OA
ENDBRANCH  88  89
ENDBRANCH  62  83
ENDBRANCH  36  37
ENDBRANCH  29  31
ENDBRANCH  28  29
ENDBRANCH  27  28
ENDBRANCH  26  27
ENDBRANCH   1  26
TORSDOF 20
ENDMDL
