MODEL 1
REMARK VINA RESULT:      -9.5      0.000      0.000
REMARK SMILES CC(=O)c1ccc(N2CCN(c3ccc(C(=O)OCCOCCOC(=O)c4ccc(-c5c6nc(c(-c7ccc(S(=O)(=O)[O-])cc7)c7ccc([nH]7)c(-c7ccc(S(=O)(=O)[O-])cc7)c7nc(c(-c8ccc(S(=O)(=O)[O-])cc8)c8ccc5[nH]8)C=C7)C=C6)cc4)cc3NS(=O)(=O)c3ccc(C)cc3)CC2)cc1
REMARK SMILES IDX 21 1 20 2 19 3 18 4 16 5 17 6 15 7 12 8 13 9 88 10 14 11
REMARK SMILES IDX 87 12 11 13 8 14 9 15 101 16 10 17 100 18 7 19 4 20 5 21
REMARK SMILES IDX 103 22 6 23 102 24 2 25 1 26 3 27 89 28 90 30 91 31 92 32
REMARK SMILES IDX 93 33 94 34 99 35 95 36 98 37 96 38 97 39 22 40 23 41 24 42
REMARK SMILES IDX 25 43 26 44 27 45 28 46 86 47 29 48 85 49 30 50 31 51 32 52
REMARK SMILES IDX 79 53 33 54 84 55 78 56 80 57 34 58 83 59 77 60 76 61 35 63
REMARK SMILES IDX 65 64 46 65 64 66 47 67 50 68 63 69 81 70 48 71 49 72 62 74
REMARK SMILES IDX 82 75 51 76 36 77 37 78 45 79 38 80 44 81 39 82 40 83 41 84
REMARK SMILES IDX 42 85 43 86 66 87 67 88 75 89 68 90 74 91 69 92 70 93 71 94
REMARK SMILES IDX 72 95 73 96 52 97 53 98 61 99 54 100 60 101 55 102 56 103
REMARK SMILES IDX 57 104 58 105 59 106
REMARK H PARENT 89 29 80 62 50 73
REMARK Flexibility Score: inf
ROOT
ATOM      1  O   UNL A   1      36.604  34.082  30.066  1.00  0.00    -0.374 OA
ENDROOT
BRANCH   1   2
ATOM      2  C   UNL A   1      35.178  34.039  30.161  1.00  0.00     0.202 C 
BRANCH   2   3
ATOM      3  C   UNL A   1      34.567  32.633  30.151  1.00  0.00     0.261 C 
BRANCH   3   4
ATOM      4  O   UNL A   1      33.551  32.517  29.137  1.00  0.00    -0.460 OA
BRANCH   4   5
ATOM      5  C   UNL A   1      33.993  32.369  27.865  1.00  0.00     0.338 C 
ATOM      6  O   UNL A   1      34.572  33.211  27.199  1.00  0.00    -0.246 OA
BRANCH   5   7
ATOM      7  C   UNL A   1      33.760  30.984  27.370  1.00  0.00     0.062 A 
ATOM      8  C   UNL A   1      33.443  28.329  26.485  1.00  0.00     0.061 A 
ATOM      9  C   UNL A   1      34.575  28.700  27.215  1.00  0.00     0.029 A 
ATOM     10  C   UNL A   1      32.461  29.304  26.210  1.00  0.00     0.073 A 
ATOM     11  C   UNL A   1      34.738  30.020  27.644  1.00  0.00     0.018 A 
ATOM     12  C   UNL A   1      32.601  30.609  26.682  1.00  0.00     0.044 A 
BRANCH   8  13
ATOM     13  N   UNL A   1      33.222  27.023  26.071  1.00  0.00    -0.366 N 
ATOM     14  N   UNL A   1      32.788  24.376  25.244  1.00  0.00    -0.368 N 
ATOM     15  C   UNL A   1      31.792  25.036  26.099  1.00  0.00     0.138 C 
ATOM     16  C   UNL A   1      33.615  25.251  24.392  1.00  0.00     0.138 C 
ATOM     17  C   UNL A   1      32.492  26.110  26.959  1.00  0.00     0.138 C 
ATOM     18  C   UNL A   1      34.256  26.380  25.235  1.00  0.00     0.138 C 
BRANCH  14  19
ATOM     19  C   UNL A   1      32.750  23.019  25.037  1.00  0.00     0.037 A 
ATOM     20  C   UNL A   1      32.822  20.250  24.511  1.00  0.00     0.017 A 
ATOM     21  C   UNL A   1      33.017  20.727  25.810  1.00  0.00     0.014 A 
ATOM     22  C   UNL A   1      32.562  21.153  23.478  1.00  0.00     0.014 A 
ATOM     23  C   UNL A   1      32.996  22.102  26.063  1.00  0.00     0.026 A 
ATOM     24  C   UNL A   1      32.512  22.522  23.750  1.00  0.00     0.026 A 
BRANCH  20  25
ATOM     25  C   UNL A   1      32.912  18.786  24.270  1.00  0.00     0.159 C 
ATOM     26  C   UNL A   1      34.269  18.133  24.313  1.00  0.00     0.093 C 
ATOM     27  O   UNL A   1      31.888  18.128  24.105  1.00  0.00    -0.295 OA
ENDBRANCH  20  25
ENDBRANCH  14  19
ENDBRANCH   8  13
BRANCH  10  28
ATOM     28  N   UNL A   1      31.272  28.861  25.529  1.00  0.00    -0.277 N 
ATOM     29  H   UNL A   1      30.440  28.703  26.032  1.00  0.00     0.180 HD
BRANCH  28  30
ATOM     30  S   UNL A   1      31.319  28.612  23.850  1.00  0.00     0.261 S 
ATOM     31  O   UNL A   1      32.575  29.116  23.338  1.00  0.00    -0.201 OA
ATOM     32  O   UNL A   1      30.926  27.236  23.633  1.00  0.00    -0.201 OA
BRANCH  30  33
ATOM     33  C   UNL A   1      30.000  29.652  23.300  1.00  0.00     0.087 A 
ATOM     34  C   UNL A   1      29.431  29.420  22.044  1.00  0.00     0.022 A 
ATOM     35  C   UNL A   1      29.712  30.804  24.030  1.00  0.00     0.022 A 
ATOM     36  C   UNL A   1      28.680  30.428  21.448  1.00  0.00     0.005 A 
ATOM     37  C   UNL A   1      28.943  31.795  23.434  1.00  0.00     0.005 A 
ATOM     38  C   UNL A   1      28.469  31.633  22.125  1.00  0.00    -0.051 A 
ATOM     39  C   UNL A   1      27.854  32.787  21.404  1.00  0.00     0.044 C 
ENDBRANCH  30  33
ENDBRANCH  28  30
ENDBRANCH  10  28
ENDBRANCH   5   7
ENDBRANCH   4   5
ENDBRANCH   3   4
ENDBRANCH   2   3
ENDBRANCH   1   2
BRANCH   1  40
ATOM     40  C   UNL A   1      37.223  32.971  29.420  1.00  0.00     0.202 C 
BRANCH  40  41
ATOM     41  C   UNL A   1      38.103  32.072  30.300  1.00  0.00     0.261 C 
BRANCH  41  42
ATOM     42  O   UNL A   1      37.590  30.737  30.454  1.00  0.00    -0.460 OA
BRANCH  42  43
ATOM     43  C   UNL A   1      37.125  30.440  31.695  1.00  0.00     0.338 C 
ATOM     44  O   UNL A   1      36.373  29.526  31.996  1.00  0.00    -0.246 OA
BRANCH  43  45
ATOM     45  C   UNL A   1      37.758  31.325  32.697  1.00  0.00     0.060 A 
ATOM     46  C   UNL A   1      38.949  30.902  33.301  1.00  0.00     0.016 A 
ATOM     47  C   UNL A   1      37.175  32.536  33.073  1.00  0.00     0.016 A 
ATOM     48  C   UNL A   1      39.556  31.686  34.288  1.00  0.00     0.010 A 
ATOM     49  C   UNL A   1      37.786  33.322  34.060  1.00  0.00     0.010 A 
ATOM     50  C   UNL A   1      38.973  32.897  34.686  1.00  0.00    -0.014 A 
BRANCH  50  51
ATOM     51  C   UNL A   1      39.512  33.651  35.850  1.00  0.00     0.031 A 
ATOM     52  C   UNL A   1      40.651  34.605  35.615  1.00  0.00     0.074 A 
ATOM     53  C   UNL A   1      39.023  33.494  37.097  1.00  0.00     0.049 A 
ATOM     54  N   UNL A   1      41.266  35.382  36.468  1.00  0.00    -0.248 NA
ATOM     55  C   UNL A   1      41.161  34.697  34.236  1.00  0.00     0.031 C 
ATOM     56  C   UNL A   1      37.911  32.627  37.473  1.00  0.00     0.029 A 
ATOM     57  N   UNL A   1      39.411  34.056  38.290  1.00  0.00    -0.354 N 
ATOM     58  C   UNL A   1      42.225  36.062  35.729  1.00  0.00     0.074 A 
ATOM     59  C   UNL A   1      42.149  35.566  34.373  1.00  0.00     0.031 C 
ATOM     60  C   UNL A   1      37.727  32.679  38.801  1.00  0.00     0.029 A 
ATOM     61  C   UNL A   1      38.699  33.599  39.377  1.00  0.00     0.049 A 
ATOM     62  H   UNL A   1      40.132  34.723  38.361  1.00  0.00     0.167 HD
ATOM     63  C   UNL A   1      43.076  37.033  36.134  1.00  0.00     0.031 A 
ATOM     64  C   UNL A   1      38.804  33.892  40.689  1.00  0.00     0.031 A 
ATOM     65  C   UNL A   1      43.173  37.510  37.487  1.00  0.00     0.049 A 
ATOM     66  C   UNL A   1      39.805  34.926  41.130  1.00  0.00     0.074 A 
ATOM     67  C   UNL A   1      43.986  38.509  37.989  1.00  0.00     0.029 A 
ATOM     68  N   UNL A   1      42.442  37.013  38.555  1.00  0.00    -0.354 N 
ATOM     69  N   UNL A   1      40.647  35.619  40.400  1.00  0.00    -0.248 NA
ATOM     70  C   UNL A   1      39.847  35.241  42.564  1.00  0.00     0.031 C 
ATOM     71  C   UNL A   1      43.791  38.576  39.372  1.00  0.00     0.029 A 
ATOM     72  C   UNL A   1      42.807  37.665  39.720  1.00  0.00     0.049 A 
ATOM     73  H   UNL A   1      41.764  36.301  38.494  1.00  0.00     0.167 HD
ATOM     74  C   UNL A   1      41.289  36.481  41.282  1.00  0.00     0.074 A 
ATOM     75  C   UNL A   1      40.733  36.227  42.596  1.00  0.00     0.031 C 
ATOM     76  C   UNL A   1      42.244  37.407  41.023  1.00  0.00     0.031 A 
BRANCH  63  77
ATOM     77  C   UNL A   1      43.985  37.627  35.093  1.00  0.00    -0.014 A 
ATOM     78  C   UNL A   1      43.582  38.743  34.335  1.00  0.00     0.010 A 
ATOM     79  C   UNL A   1      45.259  37.076  34.879  1.00  0.00     0.010 A 
ATOM     80  C   UNL A   1      44.421  39.268  33.350  1.00  0.00     0.020 A 
ATOM     81  C   UNL A   1      46.115  37.617  33.915  1.00  0.00     0.020 A 
ATOM     82  C   UNL A   1      45.682  38.698  33.144  1.00  0.00     0.054 A 
BRANCH  82  83
ATOM     83  S   UNL A   1      46.755  39.408  31.866  1.00  0.00     0.124 S 
ATOM     84  O   UNL A   1      47.667  38.300  31.592  1.00  0.00    -0.237 OA
ATOM     85  O   UNL A   1      45.813  39.724  30.797  1.00  0.00    -0.237 OA
ATOM     86  O   UNL A   1      47.359  40.563  32.524  1.00  0.00    -0.744 OA
ENDBRANCH  82  83
ENDBRANCH  63  77
BRANCH  64  87
ATOM     87  C   UNL A   1      37.914  33.226  41.681  1.00  0.00    -0.014 A 
ATOM     88  C   UNL A   1      36.765  33.877  42.165  1.00  0.00     0.010 A 
ATOM     89  C   UNL A   1      38.216  31.936  42.155  1.00  0.00     0.010 A 
ATOM     90  C   UNL A   1      35.952  33.264  43.123  1.00  0.00     0.020 A 
ATOM     91  C   UNL A   1      37.390  31.308  43.094  1.00  0.00     0.020 A 
ATOM     92  C   UNL A   1      36.270  31.983  43.582  1.00  0.00     0.054 A 
BRANCH  92  93
ATOM     93  S   UNL A   1      35.178  31.195  44.800  1.00  0.00     0.124 S 
ATOM     94  O   UNL A   1      34.033  30.814  43.981  1.00  0.00    -0.237 OA
ATOM     95  O   UNL A   1      36.001  30.093  45.293  1.00  0.00    -0.237 OA
ATOM     96  O   UNL A   1      34.928  32.257  45.772  1.00  0.00    -0.744 OA
ENDBRANCH  92  93
ENDBRANCH  64  87
BRANCH  76  97
ATOM     97  C   UNL A   1      42.726  38.254  42.171  1.00  0.00    -0.014 A 
ATOM     98  C   UNL A   1      43.846  37.884  42.936  1.00  0.00     0.010 A 
ATOM     99  C   UNL A   1      42.083  39.475  42.444  1.00  0.00     0.010 A 
ATOM    100  C   UNL A   1      44.297  38.708  43.971  1.00  0.00     0.020 A 
ATOM    101  C   UNL A   1      42.549  40.316  43.457  1.00  0.00     0.020 A 
ATOM    102  C   UNL A   1      43.646  39.920  44.223  1.00  0.00     0.054 A 
BRANCH 102 103
ATOM    103  S   UNL A   1      44.283  40.996  45.537  1.00  0.00     0.124 S 
ATOM    104  O   UNL A   1      44.339  42.293  44.868  1.00  0.00    -0.237 OA
ATOM    105  O   UNL A   1      43.264  40.868  46.577  1.00  0.00    -0.237 OA
ATOM    106  O   UNL A   1      45.580  40.409  45.868  1.00  0.00    -0.744 OA
ENDBRANCH 102 103
ENDBRANCH  76  97
ENDBRANCH  50  51
ENDBRANCH  43  45
ENDBRANCH  42  43
ENDBRANCH  41  42
ENDBRANCH  40  41
ENDBRANCH   1  40
TORSDOF 23
ENDMDL
MODEL 2
REMARK VINA RESULT:      -9.5      6.567     10.225
REMARK SMILES CC(=O)c1ccc(N2CCN(c3ccc(C(=O)OCCOCCOC(=O)c4ccc(-c5c6nc(c(-c7ccc(S(=O)(=O)[O-])cc7)c7ccc([nH]7)c(-c7ccc(S(=O)(=O)[O-])cc7)c7nc(c(-c8ccc(S(=O)(=O)[O-])cc8)c8ccc5[nH]8)C=C7)C=C6)cc4)cc3NS(=O)(=O)c3ccc(C)cc3)CC2)cc1
REMARK SMILES IDX 21 1 20 2 19 3 18 4 16 5 17 6 15 7 12 8 13 9 88 10 14 11
REMARK SMILES IDX 87 12 11 13 8 14 9 15 101 16 10 17 100 18 7 19 4 20 5 21
REMARK SMILES IDX 103 22 6 23 102 24 2 25 1 26 3 27 89 28 90 30 91 31 92 32
REMARK SMILES IDX 93 33 94 34 99 35 95 36 98 37 96 38 97 39 22 40 23 41 24 42
REMARK SMILES IDX 25 43 26 44 27 45 28 46 86 47 29 48 85 49 30 50 31 51 32 52
REMARK SMILES IDX 79 53 33 54 84 55 78 56 80 57 34 58 83 59 77 60 76 61 35 63
REMARK SMILES IDX 65 64 46 65 64 66 47 67 50 68 63 69 81 70 48 71 49 72 62 74
REMARK SMILES IDX 82 75 51 76 36 77 37 78 45 79 38 80 44 81 39 82 40 83 41 84
REMARK SMILES IDX 42 85 43 86 66 87 67 88 75 89 68 90 74 91 69 92 70 93 71 94
REMARK SMILES IDX 72 95 73 96 52 97 53 98 61 99 54 100 60 101 55 102 56 103
REMARK SMILES IDX 57 104 58 105 59 106
REMARK H PARENT 89 29 80 62 50 73
REMARK Flexibility Score: inf
ROOT
ATOM      1  O   UNL A   1      48.404  28.789  25.826  1.00  0.00    -0.374 OA
ENDROOT
BRANCH   1   2
ATOM      2  C   UNL A   1      49.517  28.026  26.300  1.00  0.00     0.202 C 
BRANCH   2   3
ATOM      3  C   UNL A   1      49.333  26.505  26.248  1.00  0.00     0.261 C 
BRANCH   3   4
ATOM      4  O   UNL A   1      47.937  26.152  26.226  1.00  0.00    -0.460 OA
BRANCH   4   5
ATOM      5  C   UNL A   1      47.580  25.092  26.990  1.00  0.00     0.338 C 
ATOM      6  O   UNL A   1      48.312  24.450  27.725  1.00  0.00    -0.246 OA
BRANCH   5   7
ATOM      7  C   UNL A   1      46.117  24.828  26.896  1.00  0.00     0.062 A 
ATOM      8  C   UNL A   1      43.374  24.258  26.601  1.00  0.00     0.061 A 
ATOM      9  C   UNL A   1      44.304  23.744  25.694  1.00  0.00     0.029 A 
ATOM     10  C   UNL A   1      43.835  25.055  27.670  1.00  0.00     0.073 A 
ATOM     11  C   UNL A   1      45.663  24.037  25.834  1.00  0.00     0.018 A 
ATOM     12  C   UNL A   1      45.198  25.305  27.837  1.00  0.00     0.044 A 
BRANCH   8  13
ATOM     13  N   UNL A   1      42.021  23.963  26.523  1.00  0.00    -0.366 N 
ATOM     14  N   UNL A   1      39.283  23.366  26.349  1.00  0.00    -0.368 N 
ATOM     15  C   UNL A   1      40.202  22.372  26.921  1.00  0.00     0.138 C 
ATOM     16  C   UNL A   1      39.688  24.781  26.451  1.00  0.00     0.138 C 
ATOM     17  C   UNL A   1      41.607  22.570  26.313  1.00  0.00     0.138 C 
ATOM     18  C   UNL A   1      41.129  24.972  25.918  1.00  0.00     0.138 C 
BRANCH  14  19
ATOM     19  C   UNL A   1      37.999  23.022  26.003  1.00  0.00     0.037 A 
ATOM     20  C   UNL A   1      35.386  22.410  25.142  1.00  0.00     0.017 A 
ATOM     21  C   UNL A   1      36.344  21.399  25.263  1.00  0.00     0.014 A 
ATOM     22  C   UNL A   1      35.724  23.722  25.478  1.00  0.00     0.014 A 
ATOM     23  C   UNL A   1      37.643  21.710  25.676  1.00  0.00     0.026 A 
ATOM     24  C   UNL A   1      37.015  24.014  25.919  1.00  0.00     0.026 A 
BRANCH  20  25
ATOM     25  C   UNL A   1      34.033  22.050  24.642  1.00  0.00     0.159 C 
ATOM     26  C   UNL A   1      33.056  23.161  24.353  1.00  0.00     0.093 C 
ATOM     27  O   UNL A   1      33.755  20.876  24.414  1.00  0.00    -0.295 OA
ENDBRANCH  20  25
ENDBRANCH  14  19
ENDBRANCH   8  13
BRANCH  10  28
ATOM     28  N   UNL A   1      42.855  25.493  28.630  1.00  0.00    -0.277 N 
ATOM     29  H   UNL A   1      42.490  24.863  29.292  1.00  0.00     0.180 HD
BRANCH  28  30
ATOM     30  S   UNL A   1      42.333  27.109  28.607  1.00  0.00     0.261 S 
ATOM     31  O   UNL A   1      43.044  27.814  27.562  1.00  0.00    -0.201 OA
ATOM     32  O   UNL A   1      40.886  27.069  28.626  1.00  0.00    -0.201 OA
BRANCH  30  33
ATOM     33  C   UNL A   1      42.886  27.683  30.184  1.00  0.00     0.087 A 
ATOM     34  C   UNL A   1      44.193  27.399  30.591  1.00  0.00     0.022 A 
ATOM     35  C   UNL A   1      41.945  28.208  31.069  1.00  0.00     0.022 A 
ATOM     36  C   UNL A   1      44.517  27.503  31.940  1.00  0.00     0.005 A 
ATOM     37  C   UNL A   1      42.286  28.329  32.410  1.00  0.00     0.005 A 
ATOM     38  C   UNL A   1      43.553  27.929  32.857  1.00  0.00    -0.051 A 
ATOM     39  C   UNL A   1      43.832  27.832  34.321  1.00  0.00     0.044 C 
ENDBRANCH  30  33
ENDBRANCH  28  30
ENDBRANCH  10  28
ENDBRANCH   5   7
ENDBRANCH   4   5
ENDBRANCH   3   4
ENDBRANCH   2   3
ENDBRANCH   1   2
BRANCH   1  40
ATOM     40  C   UNL A   1      47.913  29.796  26.708  1.00  0.00     0.202 C 
BRANCH  40  41
ATOM     41  C   UNL A   1      46.471  30.266  26.474  1.00  0.00     0.261 C 
BRANCH  41  42
ATOM     42  O   UNL A   1      46.240  31.633  26.855  1.00  0.00    -0.460 OA
BRANCH  42  43
ATOM     43  C   UNL A   1      45.009  32.115  26.549  1.00  0.00     0.338 C 
ATOM     44  O   UNL A   1      44.565  32.333  25.432  1.00  0.00    -0.246 OA
BRANCH  43  45
ATOM     45  C   UNL A   1      44.195  32.241  27.778  1.00  0.00     0.060 A 
ATOM     46  C   UNL A   1      44.175  33.476  28.439  1.00  0.00     0.016 A 
ATOM     47  C   UNL A   1      43.492  31.155  28.302  1.00  0.00     0.016 A 
ATOM     48  C   UNL A   1      43.456  33.625  29.630  1.00  0.00     0.010 A 
ATOM     49  C   UNL A   1      42.770  31.307  29.493  1.00  0.00     0.010 A 
ATOM     50  C   UNL A   1      42.758  32.539  30.175  1.00  0.00    -0.014 A 
BRANCH  50  51
ATOM     51  C   UNL A   1      42.137  32.637  31.524  1.00  0.00     0.031 A 
ATOM     52  C   UNL A   1      42.959  32.228  32.716  1.00  0.00     0.074 A 
ATOM     53  C   UNL A   1      40.872  33.064  31.705  1.00  0.00     0.049 A 
ATOM     54  N   UNL A   1      42.640  32.247  33.984  1.00  0.00    -0.248 NA
ATOM     55  C   UNL A   1      44.320  31.735  32.441  1.00  0.00     0.031 C 
ATOM     56  C   UNL A   1      39.966  33.514  30.653  1.00  0.00     0.029 A 
ATOM     57  N   UNL A   1      40.117  33.178  32.849  1.00  0.00    -0.354 N 
ATOM     58  C   UNL A   1      43.762  31.782  34.658  1.00  0.00     0.074 A 
ATOM     59  C   UNL A   1      44.747  31.434  33.658  1.00  0.00     0.031 C 
ATOM     60  C   UNL A   1      38.772  33.818  31.184  1.00  0.00     0.029 A 
ATOM     61  C   UNL A   1      38.826  33.601  32.624  1.00  0.00     0.049 A 
ATOM     62  H   UNL A   1      40.469  32.976  33.746  1.00  0.00     0.167 HD
ATOM     63  C   UNL A   1      43.967  31.676  35.991  1.00  0.00     0.031 A 
ATOM     64  C   UNL A   1      37.802  33.805  33.476  1.00  0.00     0.031 A 
ATOM     65  C   UNL A   1      42.981  31.996  36.988  1.00  0.00     0.049 A 
ATOM     66  C   UNL A   1      38.030  33.617  34.952  1.00  0.00     0.074 A 
ATOM     67  C   UNL A   1      43.104  31.947  38.365  1.00  0.00     0.029 A 
ATOM     68  N   UNL A   1      41.686  32.410  36.715  1.00  0.00    -0.354 N 
ATOM     69  N   UNL A   1      39.126  33.256  35.575  1.00  0.00    -0.248 NA
ATOM     70  C   UNL A   1      36.893  33.896  35.841  1.00  0.00     0.031 C 
ATOM     71  C   UNL A   1      41.865  32.274  38.925  1.00  0.00     0.029 A 
ATOM     72  C   UNL A   1      40.990  32.592  37.898  1.00  0.00     0.049 A 
ATOM     73  H   UNL A   1      41.316  32.553  35.814  1.00  0.00     0.167 HD
ATOM     74  C   UNL A   1      38.823  33.305  36.931  1.00  0.00     0.074 A 
ATOM     75  C   UNL A   1      37.444  33.737  37.037  1.00  0.00     0.031 C 
ATOM     76  C   UNL A   1      39.619  33.027  37.992  1.00  0.00     0.031 A 
BRANCH  63  77
ATOM     77  C   UNL A   1      45.312  31.175  36.442  1.00  0.00    -0.014 A 
ATOM     78  C   UNL A   1      45.518  29.811  36.719  1.00  0.00     0.010 A 
ATOM     79  C   UNL A   1      46.384  32.073  36.576  1.00  0.00     0.010 A 
ATOM     80  C   UNL A   1      46.763  29.362  37.166  1.00  0.00     0.020 A 
ATOM     81  C   UNL A   1      47.640  31.623  36.994  1.00  0.00     0.020 A 
ATOM     82  C   UNL A   1      47.815  30.273  37.305  1.00  0.00     0.054 A 
BRANCH  82  83
ATOM     83  S   UNL A   1      49.423  29.659  37.876  1.00  0.00     0.124 S 
ATOM     84  O   UNL A   1      50.042  29.231  36.623  1.00  0.00    -0.237 OA
ATOM     85  O   UNL A   1      50.014  30.840  38.497  1.00  0.00    -0.237 OA
ATOM     86  O   UNL A   1      49.074  28.581  38.798  1.00  0.00    -0.744 OA
ENDBRANCH  82  83
ENDBRANCH  63  77
BRANCH  64  87
ATOM     87  C   UNL A   1      36.474  34.246  32.963  1.00  0.00    -0.014 A 
ATOM     88  C   UNL A   1      35.640  33.352  32.268  1.00  0.00     0.010 A 
ATOM     89  C   UNL A   1      36.039  35.570  33.160  1.00  0.00     0.010 A 
ATOM     90  C   UNL A   1      34.411  33.779  31.757  1.00  0.00     0.020 A 
ATOM     91  C   UNL A   1      34.798  35.994  32.672  1.00  0.00     0.020 A 
ATOM     92  C   UNL A   1      33.997  35.098  31.962  1.00  0.00     0.054 A 
BRANCH  92  93
ATOM     93  S   UNL A   1      32.381  35.617  31.317  1.00  0.00     0.124 S 
ATOM     94  O   UNL A   1      32.318  34.905  30.046  1.00  0.00    -0.237 OA
ATOM     95  O   UNL A   1      31.465  35.146  32.354  1.00  0.00    -0.237 OA
ATOM     96  O   UNL A   1      32.503  37.069  31.219  1.00  0.00    -0.744 OA
ENDBRANCH  92  93
ENDBRANCH  64  87
BRANCH  76  97
ATOM     97  C   UNL A   1      39.042  33.222  39.369  1.00  0.00    -0.014 A 
ATOM     98  C   UNL A   1      38.456  32.158  40.077  1.00  0.00     0.010 A 
ATOM     99  C   UNL A   1      39.149  34.481  39.989  1.00  0.00     0.010 A 
ATOM    100  C   UNL A   1      37.964  32.358  41.370  1.00  0.00     0.020 A 
ATOM    101  C   UNL A   1      38.686  34.676  41.292  1.00  0.00     0.020 A 
ATOM    102  C   UNL A   1      38.084  33.615  41.970  1.00  0.00     0.054 A 
BRANCH 102 103
ATOM    103  S   UNL A   1      37.485  33.834  43.668  1.00  0.00     0.124 S 
ATOM    104  O   UNL A   1      36.319  32.956  43.694  1.00  0.00    -0.237 OA
ATOM    105  O   UNL A   1      38.625  33.391  44.468  1.00  0.00    -0.237 OA
ATOM    106  O   UNL A   1      37.192  35.263  43.750  1.00  0.00    -0.744 OA
ENDBRANCH 102 103
ENDBRANCH  76  97
ENDBRANCH  50  51
ENDBRANCH  43  45
ENDBRANCH  42  43
ENDBRANCH  41  42
ENDBRANCH  40  41
ENDBRANCH   1  40
TORSDOF 23
ENDMDL
MODEL 3
REMARK VINA RESULT:      -9.5      6.566     10.711
REMARK SMILES CC(=O)c1ccc(N2CCN(c3ccc(C(=O)OCCOCCOC(=O)c4ccc(-c5c6nc(c(-c7ccc(S(=O)(=O)[O-])cc7)c7ccc([nH]7)c(-c7ccc(S(=O)(=O)[O-])cc7)c7nc(c(-c8ccc(S(=O)(=O)[O-])cc8)c8ccc5[nH]8)C=C7)C=C6)cc4)cc3NS(=O)(=O)c3ccc(C)cc3)CC2)cc1
REMARK SMILES IDX 21 1 20 2 19 3 18 4 16 5 17 6 15 7 12 8 13 9 88 10 14 11
REMARK SMILES IDX 87 12 11 13 8 14 9 15 101 16 10 17 100 18 7 19 4 20 5 21
REMARK SMILES IDX 103 22 6 23 102 24 2 25 1 26 3 27 89 28 90 30 91 31 92 32
REMARK SMILES IDX 93 33 94 34 99 35 95 36 98 37 96 38 97 39 22 40 23 41 24 42
REMARK SMILES IDX 25 43 26 44 27 45 28 46 86 47 29 48 85 49 30 50 31 51 32 52
REMARK SMILES IDX 79 53 33 54 84 55 78 56 80 57 34 58 83 59 77 60 76 61 35 63
REMARK SMILES IDX 65 64 46 65 64 66 47 67 50 68 63 69 81 70 48 71 49 72 62 74
REMARK SMILES IDX 82 75 51 76 36 77 37 78 45 79 38 80 44 81 39 82 40 83 41 84
REMARK SMILES IDX 42 85 43 86 66 87 67 88 75 89 68 90 74 91 69 92 70 93 71 94
REMARK SMILES IDX 72 95 73 96 52 97 53 98 61 99 54 100 60 101 55 102 56 103
REMARK SMILES IDX 57 104 58 105 59 106
REMARK H PARENT 89 29 80 62 50 73
REMARK Flexibility Score: inf
ROOT
ATOM      1  O   UNL A   1      48.490  28.855  25.945  1.00  0.00    -0.374 OA
ENDROOT
BRANCH   1   2
ATOM      2  C   UNL A   1      49.639  28.190  26.475  1.00  0.00     0.202 C 
BRANCH   2   3
ATOM      3  C   UNL A   1      49.535  26.661  26.538  1.00  0.00     0.261 C 
BRANCH   3   4
ATOM      4  O   UNL A   1      48.168  26.228  26.409  1.00  0.00    -0.460 OA
BRANCH   4   5
ATOM      5  C   UNL A   1      47.824  25.126  27.117  1.00  0.00     0.338 C 
ATOM      6  O   UNL A   1      48.566  24.451  27.811  1.00  0.00    -0.246 OA
BRANCH   5   7
ATOM      7  C   UNL A   1      46.362  24.858  27.021  1.00  0.00     0.062 A 
ATOM      8  C   UNL A   1      43.619  24.295  26.712  1.00  0.00     0.061 A 
ATOM      9  C   UNL A   1      44.534  23.914  25.727  1.00  0.00     0.029 A 
ATOM     10  C   UNL A   1      44.096  24.954  27.865  1.00  0.00     0.073 A 
ATOM     11  C   UNL A   1      45.893  24.204  25.875  1.00  0.00     0.018 A 
ATOM     12  C   UNL A   1      45.459  25.198  28.034  1.00  0.00     0.044 A 
BRANCH   8  13
ATOM     13  N   UNL A   1      42.267  23.996  26.625  1.00  0.00    -0.366 N 
ATOM     14  N   UNL A   1      39.533  23.387  26.432  1.00  0.00    -0.368 N 
ATOM     15  C   UNL A   1      40.430  22.459  27.134  1.00  0.00     0.138 C 
ATOM     16  C   UNL A   1      39.942  24.804  26.394  1.00  0.00     0.138 C 
ATOM     17  C   UNL A   1      41.854  22.589  26.552  1.00  0.00     0.138 C 
ATOM     18  C   UNL A   1      41.398  24.936  25.888  1.00  0.00     0.138 C 
BRANCH  14  19
ATOM     19  C   UNL A   1      38.259  23.010  26.086  1.00  0.00     0.037 A 
ATOM     20  C   UNL A   1      35.641  22.128  25.523  1.00  0.00     0.017 A 
ATOM     21  C   UNL A   1      35.878  23.462  25.870  1.00  0.00     0.014 A 
ATOM     22  C   UNL A   1      36.715  21.241  25.429  1.00  0.00     0.014 A 
ATOM     23  C   UNL A   1      37.175  23.890  26.163  1.00  0.00     0.026 A 
ATOM     24  C   UNL A   1      38.010  21.689  25.694  1.00  0.00     0.026 A 
BRANCH  20  25
ATOM     25  C   UNL A   1      34.241  21.695  25.277  1.00  0.00     0.159 C 
ATOM     26  C   UNL A   1      33.641  21.944  23.917  1.00  0.00     0.093 C 
ATOM     27  O   UNL A   1      33.622  21.093  26.151  1.00  0.00    -0.295 OA
ENDBRANCH  20  25
ENDBRANCH  14  19
ENDBRANCH   8  13
BRANCH  10  28
ATOM     28  N   UNL A   1      43.133  25.254  28.893  1.00  0.00    -0.277 N 
ATOM     29  H   UNL A   1      42.884  24.570  29.556  1.00  0.00     0.180 HD
BRANCH  28  30
ATOM     30  S   UNL A   1      42.430  26.798  28.950  1.00  0.00     0.261 S 
ATOM     31  O   UNL A   1      42.980  27.602  27.878  1.00  0.00    -0.201 OA
ATOM     32  O   UNL A   1      41.002  26.590  29.065  1.00  0.00    -0.201 OA
BRANCH  30  33
ATOM     33  C   UNL A   1      43.023  27.402  30.501  1.00  0.00     0.087 A 
ATOM     34  C   UNL A   1      44.129  26.784  31.092  1.00  0.00     0.022 A 
ATOM     35  C   UNL A   1      42.245  28.326  31.197  1.00  0.00     0.022 A 
ATOM     36  C   UNL A   1      44.369  26.985  32.447  1.00  0.00     0.005 A 
ATOM     37  C   UNL A   1      42.507  28.536  32.545  1.00  0.00     0.005 A 
ATOM     38  C   UNL A   1      43.534  27.829  33.185  1.00  0.00    -0.051 A 
ATOM     39  C   UNL A   1      43.657  27.873  34.673  1.00  0.00     0.044 C 
ENDBRANCH  30  33
ENDBRANCH  28  30
ENDBRANCH  10  28
ENDBRANCH   5   7
ENDBRANCH   4   5
ENDBRANCH   3   4
ENDBRANCH   2   3
ENDBRANCH   1   2
BRANCH   1  40
ATOM     40  C   UNL A   1      47.956  29.912  26.739  1.00  0.00     0.202 C 
BRANCH  40  41
ATOM     41  C   UNL A   1      46.500  30.309  26.458  1.00  0.00     0.261 C 
BRANCH  41  42
ATOM     42  O   UNL A   1      46.207  31.683  26.767  1.00  0.00    -0.460 OA
BRANCH  42  43
ATOM     43  C   UNL A   1      44.940  32.078  26.482  1.00  0.00     0.338 C 
ATOM     44  O   UNL A   1      44.453  32.231  25.372  1.00  0.00    -0.246 OA
BRANCH  43  45
ATOM     45  C   UNL A   1      44.154  32.196  27.729  1.00  0.00     0.060 A 
ATOM     46  C   UNL A   1      44.142  33.429  28.394  1.00  0.00     0.016 A 
ATOM     47  C   UNL A   1      43.470  31.104  28.267  1.00  0.00     0.016 A 
ATOM     48  C   UNL A   1      43.450  33.571  29.602  1.00  0.00     0.010 A 
ATOM     49  C   UNL A   1      42.774  31.249  29.474  1.00  0.00     0.010 A 
ATOM     50  C   UNL A   1      42.770  32.480  30.160  1.00  0.00    -0.014 A 
BRANCH  50  51
ATOM     51  C   UNL A   1      42.181  32.571  31.523  1.00  0.00     0.031 A 
ATOM     52  C   UNL A   1      40.763  33.058  31.653  1.00  0.00     0.074 A 
ATOM     53  C   UNL A   1      42.876  32.246  32.631  1.00  0.00     0.049 A 
ATOM     54  N   UNL A   1      40.035  33.200  32.730  1.00  0.00    -0.248 NA
ATOM     55  C   UNL A   1      40.077  33.432  30.405  1.00  0.00     0.031 C 
ATOM     56  C   UNL A   1      44.244  31.739  32.659  1.00  0.00     0.029 A 
ATOM     57  N   UNL A   1      42.527  32.306  33.959  1.00  0.00    -0.354 N 
ATOM     58  C   UNL A   1      38.803  33.666  32.289  1.00  0.00     0.074 A 
ATOM     59  C   UNL A   1      38.901  33.839  30.857  1.00  0.00     0.031 C 
ATOM     60  C   UNL A   1      44.637  31.570  33.932  1.00  0.00     0.029 A 
ATOM     61  C   UNL A   1      43.541  31.941  34.818  1.00  0.00     0.049 A 
ATOM     62  H   UNL A   1      41.635  32.584  34.269  1.00  0.00     0.167 HD
ATOM     63  C   UNL A   1      37.682  33.905  33.007  1.00  0.00     0.031 A 
ATOM     64  C   UNL A   1      43.586  31.897  36.164  1.00  0.00     0.031 A 
ATOM     65  C   UNL A   1      37.589  33.760  34.434  1.00  0.00     0.049 A 
ATOM     66  C   UNL A   1      42.347  32.233  36.949  1.00  0.00     0.074 A 
ATOM     67  C   UNL A   1      36.487  33.954  35.247  1.00  0.00     0.029 A 
ATOM     68  N   UNL A   1      38.641  33.399  35.263  1.00  0.00    -0.354 N 
ATOM     69  N   UNL A   1      41.165  32.593  36.506  1.00  0.00    -0.248 NA
ATOM     70  C   UNL A   1      42.436  32.125  38.412  1.00  0.00     0.031 C 
ATOM     71  C   UNL A   1      36.887  33.768  36.575  1.00  0.00     0.029 A 
ATOM     72  C   UNL A   1      38.221  33.393  36.582  1.00  0.00     0.049 A 
ATOM     73  H   UNL A   1      39.551  33.180  34.958  1.00  0.00     0.167 HD
ATOM     74  C   UNL A   1      40.360  32.714  37.633  1.00  0.00     0.074 A 
ATOM     75  C   UNL A   1      41.187  32.382  38.776  1.00  0.00     0.031 C 
ATOM     76  C   UNL A   1      39.052  33.057  37.712  1.00  0.00     0.031 A 
BRANCH  63  77
ATOM     77  C   UNL A   1      36.468  34.369  32.249  1.00  0.00    -0.014 A 
ATOM     78  C   UNL A   1      36.098  33.760  31.035  1.00  0.00     0.010 A 
ATOM     79  C   UNL A   1      35.680  35.414  32.760  1.00  0.00     0.010 A 
ATOM     80  C   UNL A   1      34.987  34.218  30.325  1.00  0.00     0.020 A 
ATOM     81  C   UNL A   1      34.550  35.857  32.067  1.00  0.00     0.020 A 
ATOM     82  C   UNL A   1      34.222  35.268  30.844  1.00  0.00     0.054 A 
BRANCH  82  83
ATOM     83  S   UNL A   1      32.778  35.835  29.905  1.00  0.00     0.124 S 
ATOM     84  O   UNL A   1      32.363  34.610  29.226  1.00  0.00    -0.237 OA
ATOM     85  O   UNL A   1      31.879  36.307  30.954  1.00  0.00    -0.237 OA
ATOM     86  O   UNL A   1      33.318  36.876  29.034  1.00  0.00    -0.744 OA
ENDBRANCH  82  83
ENDBRANCH  63  77
BRANCH  64  87
ATOM     87  C   UNL A   1      44.837  31.485  36.861  1.00  0.00    -0.014 A 
ATOM     88  C   UNL A   1      45.076  30.133  37.168  1.00  0.00     0.010 A 
ATOM     89  C   UNL A   1      45.796  32.446  37.230  1.00  0.00     0.010 A 
ATOM     90  C   UNL A   1      46.233  29.754  37.854  1.00  0.00     0.020 A 
ATOM     91  C   UNL A   1      46.968  32.068  37.894  1.00  0.00     0.020 A 
ATOM     92  C   UNL A   1      47.173  30.725  38.213  1.00  0.00     0.054 A 
BRANCH  92  93
ATOM     93  S   UNL A   1      48.684  30.202  39.072  1.00  0.00     0.124 S 
ATOM     94  O   UNL A   1      49.726  30.628  38.144  1.00  0.00    -0.237 OA
ATOM     95  O   UNL A   1      48.607  30.950  40.326  1.00  0.00    -0.237 OA
ATOM     96  O   UNL A   1      48.518  28.757  39.209  1.00  0.00    -0.744 OA
ENDBRANCH  92  93
ENDBRANCH  64  87
BRANCH  76  97
ATOM     97  C   UNL A   1      38.408  33.052  39.073  1.00  0.00    -0.014 A 
ATOM     98  C   UNL A   1      37.737  31.918  39.563  1.00  0.00     0.010 A 
ATOM     99  C   UNL A   1      38.537  34.183  39.901  1.00  0.00     0.010 A 
ATOM    100  C   UNL A   1      37.183  31.926  40.846  1.00  0.00     0.020 A 
ATOM    101  C   UNL A   1      38.011  34.183  41.195  1.00  0.00     0.020 A 
ATOM    102  C   UNL A   1      37.325  33.058  41.654  1.00  0.00     0.054 A 
BRANCH 102 103
ATOM    103  S   UNL A   1      36.643  33.024  43.334  1.00  0.00     0.124 S 
ATOM    104  O   UNL A   1      35.315  32.461  43.112  1.00  0.00    -0.237 OA
ATOM    105  O   UNL A   1      37.583  32.158  44.043  1.00  0.00    -0.237 OA
ATOM    106  O   UNL A   1      36.666  34.426  43.746  1.00  0.00    -0.744 OA
ENDBRANCH 102 103
ENDBRANCH  76  97
ENDBRANCH  50  51
ENDBRANCH  43  45
ENDBRANCH  42  43
ENDBRANCH  41  42
ENDBRANCH  40  41
ENDBRANCH   1  40
TORSDOF 23
ENDMDL
