MODEL 1
REMARK VINA RESULT:     -10.4      0.000      0.000
REMARK SMILES Cc1nsc(NC(=O)C2([NH3+])CCCCC2)c1C(=O)OCCOCCOC(=O)c1ccc(-c2c3nc(c(-c4ccc(S(=O)(=O)[O-])cc4)c4ccc([nH]4)c(-c4ccc(S(=O)(=O)[O-])cc4)c4nc(c(-c5ccc(S(=O)(=O)[O-])cc5)c5ccc2[nH]5)C=C4)C=C3)cc1
REMARK SMILES IDX 22 1 21 2 20 3 19 4 17 5 18 6 16 7 1 8 2 9 3 10 4 11 5 12
REMARK SMILES IDX 6 13 7 14 8 16 9 17 11 18 15 19 12 20 14 21 13 22 10 23
REMARK SMILES IDX 23 27 24 28 25 29 26 30 27 31 28 32 29 33 87 34 30 35 86 36
REMARK SMILES IDX 31 37 32 38 33 39 80 40 34 41 85 42 79 43 81 44 35 45 84 46
REMARK SMILES IDX 78 47 77 48 36 50 66 51 47 52 65 53 48 54 51 55 64 56 82 57
REMARK SMILES IDX 49 58 50 59 63 61 83 62 52 63 37 64 38 65 46 66 39 67 45 68
REMARK SMILES IDX 40 69 41 70 42 71 43 72 44 73 67 74 68 75 76 76 69 77 75 78
REMARK SMILES IDX 70 79 71 80 72 81 73 82 74 83 53 84 54 85 62 86 55 87 61 88
REMARK SMILES IDX 56 89 57 90 58 91 59 92 60 93
REMARK H PARENT 6 15 10 24 10 25 10 26 81 49 51 60
REMARK Flexibility Score: inf
ROOT
ATOM      1  O   UNL A   1      31.955  29.695  24.991  1.00  0.00    -0.374 OA
ENDROOT
BRANCH   1   2
ATOM      2  C   UNL A   1      33.247  29.136  24.759  1.00  0.00     0.202 C 
BRANCH   2   3
ATOM      3  C   UNL A   1      33.685  28.858  23.320  1.00  0.00     0.261 C 
BRANCH   3   4
ATOM      4  O   UNL A   1      32.665  28.192  22.556  1.00  0.00    -0.460 OA
BRANCH   4   5
ATOM      5  C   UNL A   1      32.629  26.840  22.707  1.00  0.00     0.343 C 
ATOM      6  O   UNL A   1      33.433  26.067  22.193  1.00  0.00    -0.246 OA
BRANCH   5   7
ATOM      7  C   UNL A   1      31.661  26.395  23.692  1.00  0.00     0.117 A 
ATOM      8  C   UNL A   1      29.551  27.824  23.038  1.00  0.00     0.069 C 
ATOM      9  C   UNL A   1      30.282  26.795  23.828  1.00  0.00     0.068 A 
ATOM     10  N   UNL A   1      29.597  26.171  24.787  1.00  0.00    -0.195 NA
ATOM     11  S   UNL A   1      30.609  25.151  25.587  1.00  0.00    -0.017 S 
ATOM     12  C   UNL A   1      32.016  25.539  24.736  1.00  0.00     0.131 A 
BRANCH  12  13
ATOM     13  N   UNL A   1      33.304  25.163  25.081  1.00  0.00    -0.310 N 
ATOM     14  C   UNL A   1      34.092  24.059  24.954  1.00  0.00     0.286 C 
ATOM     15  H   UNL A   1      33.779  25.891  25.544  1.00  0.00     0.171 HD
ATOM     16  O   UNL A   1      35.118  24.081  25.652  1.00  0.00    -0.267 OA
BRANCH  14  17
ATOM     17  C   UNL A   1      33.840  22.855  23.992  1.00  0.00     0.174 C 
ATOM     18  C   UNL A   1      34.895  21.735  24.246  1.00  0.00     0.079 C 
ATOM     19  C   UNL A   1      32.410  22.291  24.121  1.00  0.00     0.079 C 
ATOM     20  C   UNL A   1      34.614  20.834  25.449  1.00  0.00     0.007 C 
ATOM     21  C   UNL A   1      32.189  21.398  25.342  1.00  0.00     0.007 C 
ATOM     22  C   UNL A   1      33.204  20.270  25.403  1.00  0.00     0.001 C 
BRANCH  17  23
ATOM     23  N   UNL A   1      34.110  23.331  22.611  1.00  0.00    -0.345 N 
ATOM     24  H   UNL A   1      35.110  23.494  22.496  1.00  0.00     0.345 HD
ATOM     25  H   UNL A   1      33.603  24.200  22.445  1.00  0.00     0.345 HD
ATOM     26  H   UNL A   1      33.802  22.625  21.942  1.00  0.00     0.345 HD
ENDBRANCH  17  23
ENDBRANCH  14  17
ENDBRANCH  12  13
ENDBRANCH   5   7
ENDBRANCH   4   5
ENDBRANCH   3   4
ENDBRANCH   2   3
ENDBRANCH   1   2
BRANCH   1  27
ATOM     27  C   UNL A   1      31.752  30.715  25.963  1.00  0.00     0.202 C 
BRANCH  27  28
ATOM     28  C   UNL A   1      32.543  30.695  27.262  1.00  0.00     0.261 C 
BRANCH  28  29
ATOM     29  O   UNL A   1      33.560  31.677  27.246  1.00  0.00    -0.460 OA
BRANCH  29  30
ATOM     30  C   UNL A   1      33.176  32.859  27.773  1.00  0.00     0.338 C 
ATOM     31  O   UNL A   1      32.162  33.490  27.510  1.00  0.00    -0.246 OA
BRANCH  30  32
ATOM     32  C   UNL A   1      34.237  33.336  28.662  1.00  0.00     0.060 A 
ATOM     33  C   UNL A   1      35.276  33.998  28.007  1.00  0.00     0.016 A 
ATOM     34  C   UNL A   1      34.402  32.691  29.895  1.00  0.00     0.016 A 
ATOM     35  C   UNL A   1      36.553  33.674  28.382  1.00  0.00     0.010 A 
ATOM     36  C   UNL A   1      35.675  32.348  30.252  1.00  0.00     0.010 A 
ATOM     37  C   UNL A   1      36.713  32.748  29.415  1.00  0.00    -0.014 A 
BRANCH  37  38
ATOM     38  C   UNL A   1      38.029  32.219  29.652  1.00  0.00     0.031 A 
ATOM     39  C   UNL A   1      38.117  30.802  29.255  1.00  0.00     0.074 A 
ATOM     40  C   UNL A   1      39.035  33.002  30.078  1.00  0.00     0.049 A 
ATOM     41  N   UNL A   1      38.175  29.781  30.040  1.00  0.00    -0.248 NA
ATOM     42  C   UNL A   1      37.842  30.469  27.847  1.00  0.00     0.031 C 
ATOM     43  C   UNL A   1      39.066  34.459  30.234  1.00  0.00     0.029 A 
ATOM     44  N   UNL A   1      40.315  32.650  30.343  1.00  0.00    -0.354 N 
ATOM     45  C   UNL A   1      38.181  28.679  29.198  1.00  0.00     0.074 A 
ATOM     46  C   UNL A   1      37.715  29.145  27.919  1.00  0.00     0.031 C 
ATOM     47  C   UNL A   1      40.357  34.867  30.286  1.00  0.00     0.029 A 
ATOM     48  C   UNL A   1      41.222  33.697  30.278  1.00  0.00     0.049 A 
ATOM     49  H   UNL A   1      40.579  31.728  30.563  1.00  0.00     0.167 HD
ATOM     50  C   UNL A   1      38.849  27.542  29.529  1.00  0.00     0.031 A 
ATOM     51  C   UNL A   1      42.566  33.576  30.105  1.00  0.00     0.031 A 
ATOM     52  C   UNL A   1      39.240  27.550  30.916  1.00  0.00     0.049 A 
ATOM     53  C   UNL A   1      42.918  32.169  30.463  1.00  0.00     0.074 A 
ATOM     54  C   UNL A   1      38.548  27.597  32.109  1.00  0.00     0.029 A 
ATOM     55  N   UNL A   1      40.529  27.952  31.194  1.00  0.00    -0.354 N 
ATOM     56  N   UNL A   1      42.799  31.698  31.676  1.00  0.00    -0.248 NA
ATOM     57  C   UNL A   1      42.883  31.162  29.407  1.00  0.00     0.031 C 
ATOM     58  C   UNL A   1      39.318  28.457  32.943  1.00  0.00     0.029 A 
ATOM     59  C   UNL A   1      40.477  28.821  32.254  1.00  0.00     0.049 A 
ATOM     60  H   UNL A   1      41.342  27.667  30.717  1.00  0.00     0.167 HD
ATOM     61  C   UNL A   1      42.240  30.434  31.519  1.00  0.00     0.074 A 
ATOM     62  C   UNL A   1      42.397  30.123  30.098  1.00  0.00     0.031 C 
ATOM     63  C   UNL A   1      41.426  29.895  32.477  1.00  0.00     0.031 A 
BRANCH  50  64
ATOM     64  C   UNL A   1      39.518  26.652  28.516  1.00  0.00    -0.014 A 
ATOM     65  C   UNL A   1      38.973  25.374  28.291  1.00  0.00     0.010 A 
ATOM     66  C   UNL A   1      40.801  26.907  27.986  1.00  0.00     0.010 A 
ATOM     67  C   UNL A   1      39.716  24.376  27.650  1.00  0.00     0.020 A 
ATOM     68  C   UNL A   1      41.530  25.934  27.306  1.00  0.00     0.020 A 
ATOM     69  C   UNL A   1      40.998  24.661  27.180  1.00  0.00     0.054 A 
BRANCH  69  70
ATOM     70  S   UNL A   1      41.998  23.332  26.475  1.00  0.00     0.124 S 
ATOM     71  O   UNL A   1      42.626  24.001  25.340  1.00  0.00    -0.237 OA
ATOM     72  O   UNL A   1      42.884  22.994  27.585  1.00  0.00    -0.237 OA
ATOM     73  O   UNL A   1      41.013  22.308  26.134  1.00  0.00    -0.744 OA
ENDBRANCH  69  70
ENDBRANCH  50  64
BRANCH  51  74
ATOM     74  C   UNL A   1      43.438  34.462  29.279  1.00  0.00    -0.014 A 
ATOM     75  C   UNL A   1      44.559  35.119  29.821  1.00  0.00     0.010 A 
ATOM     76  C   UNL A   1      43.310  34.465  27.874  1.00  0.00     0.010 A 
ATOM     77  C   UNL A   1      45.537  35.701  28.987  1.00  0.00     0.020 A 
ATOM     78  C   UNL A   1      44.270  35.048  27.038  1.00  0.00     0.020 A 
ATOM     79  C   UNL A   1      45.394  35.643  27.597  1.00  0.00     0.054 A 
BRANCH  79  80
ATOM     80  S   UNL A   1      46.739  36.222  26.516  1.00  0.00     0.124 S 
ATOM     81  O   UNL A   1      46.322  37.585  26.201  1.00  0.00    -0.237 OA
ATOM     82  O   UNL A   1      47.913  36.101  27.376  1.00  0.00    -0.237 OA
ATOM     83  O   UNL A   1      46.702  35.287  25.391  1.00  0.00    -0.744 OA
ENDBRANCH  79  80
ENDBRANCH  51  74
BRANCH  63  84
ATOM     84  C   UNL A   1      41.315  30.596  33.814  1.00  0.00    -0.014 A 
ATOM     85  C   UNL A   1      42.121  30.287  34.930  1.00  0.00     0.010 A 
ATOM     86  C   UNL A   1      40.502  31.740  33.875  1.00  0.00     0.010 A 
ATOM     87  C   UNL A   1      42.096  31.094  36.079  1.00  0.00     0.020 A 
ATOM     88  C   UNL A   1      40.487  32.557  35.006  1.00  0.00     0.020 A 
ATOM     89  C   UNL A   1      41.277  32.227  36.108  1.00  0.00     0.054 A 
BRANCH  89  90
ATOM     90  S   UNL A   1      41.279  33.298  37.573  1.00  0.00     0.124 S 
ATOM     91  O   UNL A   1      41.061  32.348  38.660  1.00  0.00    -0.237 OA
ATOM     92  O   UNL A   1      42.604  33.911  37.528  1.00  0.00    -0.237 OA
ATOM     93  O   UNL A   1      40.171  34.222  37.329  1.00  0.00    -0.744 OA
ENDBRANCH  89  90
ENDBRANCH  63  84
ENDBRANCH  37  38
ENDBRANCH  30  32
ENDBRANCH  29  30
ENDBRANCH  28  29
ENDBRANCH  27  28
ENDBRANCH   1  27
TORSDOF 20
ENDMDL
MODEL 2
REMARK VINA RESULT:     -10.3      2.761      7.169
REMARK SMILES Cc1nsc(NC(=O)C2([NH3+])CCCCC2)c1C(=O)OCCOCCOC(=O)c1ccc(-c2c3nc(c(-c4ccc(S(=O)(=O)[O-])cc4)c4ccc([nH]4)c(-c4ccc(S(=O)(=O)[O-])cc4)c4nc(c(-c5ccc(S(=O)(=O)[O-])cc5)c5ccc2[nH]5)C=C4)C=C3)cc1
REMARK SMILES IDX 22 1 21 2 20 3 19 4 17 5 18 6 16 7 1 8 2 9 3 10 4 11 5 12
REMARK SMILES IDX 6 13 7 14 8 16 9 17 11 18 15 19 12 20 14 21 13 22 10 23
REMARK SMILES IDX 23 27 24 28 25 29 26 30 27 31 28 32 29 33 87 34 30 35 86 36
REMARK SMILES IDX 31 37 32 38 33 39 80 40 34 41 85 42 79 43 81 44 35 45 84 46
REMARK SMILES IDX 78 47 77 48 36 50 66 51 47 52 65 53 48 54 51 55 64 56 82 57
REMARK SMILES IDX 49 58 50 59 63 61 83 62 52 63 37 64 38 65 46 66 39 67 45 68
REMARK SMILES IDX 40 69 41 70 42 71 43 72 44 73 67 74 68 75 76 76 69 77 75 78
REMARK SMILES IDX 70 79 71 80 72 81 73 82 74 83 53 84 54 85 62 86 55 87 61 88
REMARK SMILES IDX 56 89 57 90 58 91 59 92 60 93
REMARK H PARENT 6 15 10 24 10 25 10 26 81 49 51 60
REMARK Flexibility Score: inf
ROOT
ATOM      1  O   UNL A   1      33.130  29.505  24.433  1.00  0.00    -0.374 OA
ENDROOT
BRANCH   1   2
ATOM      2  C   UNL A   1      34.123  29.022  23.529  1.00  0.00     0.202 C 
BRANCH   2   3
ATOM      3  C   UNL A   1      33.676  28.364  22.222  1.00  0.00     0.261 C 
BRANCH   3   4
ATOM      4  O   UNL A   1      33.747  26.929  22.279  1.00  0.00    -0.460 OA
BRANCH   4   5
ATOM      5  C   UNL A   1      32.546  26.293  22.207  1.00  0.00     0.343 C 
ATOM      6  O   UNL A   1      32.166  25.644  21.236  1.00  0.00    -0.246 OA
BRANCH   5   7
ATOM      7  C   UNL A   1      31.820  26.289  23.463  1.00  0.00     0.117 A 
ATOM      8  C   UNL A   1      29.698  27.718  22.848  1.00  0.00     0.069 C 
ATOM      9  C   UNL A   1      30.539  26.885  23.753  1.00  0.00     0.068 A 
ATOM     10  N   UNL A   1      30.070  26.667  24.981  1.00  0.00    -0.195 NA
ATOM     11  S   UNL A   1      31.186  25.809  25.833  1.00  0.00    -0.017 S 
ATOM     12  C   UNL A   1      32.366  25.743  24.627  1.00  0.00     0.131 A 
BRANCH  12  13
ATOM     13  N   UNL A   1      33.677  25.324  24.793  1.00  0.00    -0.310 N 
ATOM     14  C   UNL A   1      34.375  24.158  24.690  1.00  0.00     0.286 C 
ATOM     15  H   UNL A   1      34.262  26.070  25.059  1.00  0.00     0.171 HD
ATOM     16  O   UNL A   1      35.511  24.199  25.191  1.00  0.00    -0.267 OA
BRANCH  14  17
ATOM     17  C   UNL A   1      33.897  22.860  23.968  1.00  0.00     0.174 C 
ATOM     18  C   UNL A   1      34.964  21.734  24.123  1.00  0.00     0.079 C 
ATOM     19  C   UNL A   1      32.523  22.378  24.478  1.00  0.00     0.079 C 
ATOM     20  C   UNL A   1      34.944  20.997  25.464  1.00  0.00     0.007 C 
ATOM     21  C   UNL A   1      32.566  21.648  25.820  1.00  0.00     0.007 C 
ATOM     22  C   UNL A   1      33.551  20.493  25.799  1.00  0.00     0.001 C 
BRANCH  17  23
ATOM     23  N   UNL A   1      33.859  23.155  22.512  1.00  0.00    -0.345 N 
ATOM     24  H   UNL A   1      34.295  22.390  21.998  1.00  0.00     0.345 HD
ATOM     25  H   UNL A   1      34.365  24.021  22.327  1.00  0.00     0.345 HD
ATOM     26  H   UNL A   1      32.890  23.257  22.211  1.00  0.00     0.345 HD
ENDBRANCH  17  23
ENDBRANCH  14  17
ENDBRANCH  12  13
ENDBRANCH   5   7
ENDBRANCH   4   5
ENDBRANCH   3   4
ENDBRANCH   2   3
ENDBRANCH   1   2
BRANCH   1  27
ATOM     27  C   UNL A   1      33.169  29.180  25.818  1.00  0.00     0.202 C 
BRANCH  27  28
ATOM     28  C   UNL A   1      33.529  30.247  26.840  1.00  0.00     0.261 C 
BRANCH  28  29
ATOM     29  O   UNL A   1      34.906  30.195  27.156  1.00  0.00    -0.460 OA
BRANCH  29  30
ATOM     30  C   UNL A   1      35.354  31.298  27.794  1.00  0.00     0.338 C 
ATOM     31  O   UNL A   1      35.230  32.460  27.434  1.00  0.00    -0.246 OA
BRANCH  30  32
ATOM     32  C   UNL A   1      36.122  30.875  28.966  1.00  0.00     0.060 A 
ATOM     33  C   UNL A   1      37.013  31.836  29.443  1.00  0.00     0.016 A 
ATOM     34  C   UNL A   1      36.302  29.500  29.174  1.00  0.00     0.016 A 
ATOM     35  C   UNL A   1      38.271  31.409  29.772  1.00  0.00     0.010 A 
ATOM     36  C   UNL A   1      37.564  29.077  29.477  1.00  0.00     0.010 A 
ATOM     37  C   UNL A   1      38.548  30.045  29.650  1.00  0.00    -0.014 A 
BRANCH  37  38
ATOM     38  C   UNL A   1      39.918  29.621  29.754  1.00  0.00     0.031 A 
ATOM     39  C   UNL A   1      40.315  29.427  31.161  1.00  0.00     0.074 A 
ATOM     40  C   UNL A   1      40.654  29.347  28.663  1.00  0.00     0.049 A 
ATOM     41  N   UNL A   1      41.084  30.190  31.860  1.00  0.00    -0.248 NA
ATOM     42  C   UNL A   1      39.569  28.433  31.950  1.00  0.00     0.031 C 
ATOM     43  C   UNL A   1      40.230  29.270  27.262  1.00  0.00     0.029 A 
ATOM     44  N   UNL A   1      41.944  28.942  28.603  1.00  0.00    -0.354 N 
ATOM     45  C   UNL A   1      41.098  29.624  33.126  1.00  0.00     0.074 A 
ATOM     46  C   UNL A   1      39.971  28.734  33.184  1.00  0.00     0.031 C 
ATOM     47  C   UNL A   1      41.161  28.581  26.560  1.00  0.00     0.029 A 
ATOM     48  C   UNL A   1      42.281  28.273  27.437  1.00  0.00     0.049 A 
ATOM     49  H   UNL A   1      42.589  29.109  29.328  1.00  0.00     0.167 HD
ATOM     50  C   UNL A   1      42.200  29.700  33.919  1.00  0.00     0.031 A 
ATOM     51  C   UNL A   1      43.341  27.436  27.277  1.00  0.00     0.031 A 
ATOM     52  C   UNL A   1      43.148  30.659  33.409  1.00  0.00     0.049 A 
ATOM     53  C   UNL A   1      44.294  27.736  28.388  1.00  0.00     0.074 A 
ATOM     54  C   UNL A   1      43.110  32.019  33.180  1.00  0.00     0.029 A 
ATOM     55  N   UNL A   1      44.182  30.161  32.646  1.00  0.00    -0.354 N 
ATOM     56  N   UNL A   1      44.917  28.879  28.495  1.00  0.00    -0.248 NA
ATOM     57  C   UNL A   1      44.143  27.000  29.639  1.00  0.00     0.031 C 
ATOM     58  C   UNL A   1      43.810  32.202  31.954  1.00  0.00     0.029 A 
ATOM     59  C   UNL A   1      44.313  30.965  31.543  1.00  0.00     0.049 A 
ATOM     60  H   UNL A   1      44.730  29.370  32.856  1.00  0.00     0.167 HD
ATOM     61  C   UNL A   1      44.841  29.208  29.844  1.00  0.00     0.074 A 
ATOM     62  C   UNL A   1      44.432  27.972  30.513  1.00  0.00     0.031 C 
ATOM     63  C   UNL A   1      44.805  30.512  30.256  1.00  0.00     0.031 A 
BRANCH  50  64
ATOM     64  C   UNL A   1      42.602  28.614  34.881  1.00  0.00    -0.014 A 
ATOM     65  C   UNL A   1      43.134  28.993  36.127  1.00  0.00     0.010 A 
ATOM     66  C   UNL A   1      42.735  27.259  34.509  1.00  0.00     0.010 A 
ATOM     67  C   UNL A   1      43.845  28.081  36.916  1.00  0.00     0.020 A 
ATOM     68  C   UNL A   1      43.402  26.333  35.308  1.00  0.00     0.020 A 
ATOM     69  C   UNL A   1      43.989  26.760  36.488  1.00  0.00     0.054 A 
BRANCH  69  70
ATOM     70  S   UNL A   1      45.019  25.627  37.445  1.00  0.00     0.124 S 
ATOM     71  O   UNL A   1      44.453  24.331  37.082  1.00  0.00    -0.237 OA
ATOM     72  O   UNL A   1      46.352  25.909  36.922  1.00  0.00    -0.237 OA
ATOM     73  O   UNL A   1      44.794  26.045  38.827  1.00  0.00    -0.744 OA
ENDBRANCH  69  70
ENDBRANCH  50  64
BRANCH  51  74
ATOM     74  C   UNL A   1      43.361  26.167  26.491  1.00  0.00    -0.014 A 
ATOM     75  C   UNL A   1      44.242  25.973  25.411  1.00  0.00     0.010 A 
ATOM     76  C   UNL A   1      42.673  25.032  26.971  1.00  0.00     0.010 A 
ATOM     77  C   UNL A   1      44.465  24.687  24.874  1.00  0.00     0.020 A 
ATOM     78  C   UNL A   1      42.880  23.753  26.438  1.00  0.00     0.020 A 
ATOM     79  C   UNL A   1      43.796  23.581  25.407  1.00  0.00     0.054 A 
BRANCH  79  80
ATOM     80  S   UNL A   1      44.219  21.902  24.849  1.00  0.00     0.124 S 
ATOM     81  O   UNL A   1      44.423  22.091  23.416  1.00  0.00    -0.237 OA
ATOM     82  O   UNL A   1      45.418  21.600  25.625  1.00  0.00    -0.237 OA
ATOM     83  O   UNL A   1      43.040  21.113  25.208  1.00  0.00    -0.744 OA
ENDBRANCH  79  80
ENDBRANCH  51  74
BRANCH  63  84
ATOM     84  C   UNL A   1      45.073  31.602  29.240  1.00  0.00    -0.014 A 
ATOM     85  C   UNL A   1      46.358  32.112  28.958  1.00  0.00     0.010 A 
ATOM     86  C   UNL A   1      44.009  31.977  28.403  1.00  0.00     0.010 A 
ATOM     87  C   UNL A   1      46.562  32.988  27.880  1.00  0.00     0.020 A 
ATOM     88  C   UNL A   1      44.208  32.830  27.317  1.00  0.00     0.020 A 
ATOM     89  C   UNL A   1      45.482  33.340  27.064  1.00  0.00     0.054 A 
BRANCH  89  90
ATOM     90  S   UNL A   1      45.753  34.433  25.641  1.00  0.00     0.124 S 
ATOM     91  O   UNL A   1      45.339  35.734  26.157  1.00  0.00    -0.237 OA
ATOM     92  O   UNL A   1      47.183  34.284  25.382  1.00  0.00    -0.237 OA
ATOM     93  O   UNL A   1      44.884  33.874  24.604  1.00  0.00    -0.744 OA
ENDBRANCH  89  90
ENDBRANCH  63  84
ENDBRANCH  37  38
ENDBRANCH  30  32
ENDBRANCH  29  30
ENDBRANCH  28  29
ENDBRANCH  27  28
ENDBRANCH   1  27
TORSDOF 20
ENDMDL
MODEL 3
REMARK VINA RESULT:     -10.2      3.352      8.771
REMARK SMILES Cc1nsc(NC(=O)C2([NH3+])CCCCC2)c1C(=O)OCCOCCOC(=O)c1ccc(-c2c3nc(c(-c4ccc(S(=O)(=O)[O-])cc4)c4ccc([nH]4)c(-c4ccc(S(=O)(=O)[O-])cc4)c4nc(c(-c5ccc(S(=O)(=O)[O-])cc5)c5ccc2[nH]5)C=C4)C=C3)cc1
REMARK SMILES IDX 22 1 21 2 20 3 19 4 17 5 18 6 16 7 1 8 2 9 3 10 4 11 5 12
REMARK SMILES IDX 6 13 7 14 8 16 9 17 11 18 15 19 12 20 14 21 13 22 10 23
REMARK SMILES IDX 23 27 24 28 25 29 26 30 27 31 28 32 29 33 87 34 30 35 86 36
REMARK SMILES IDX 31 37 32 38 33 39 80 40 34 41 85 42 79 43 81 44 35 45 84 46
REMARK SMILES IDX 78 47 77 48 36 50 66 51 47 52 65 53 48 54 51 55 64 56 82 57
REMARK SMILES IDX 49 58 50 59 63 61 83 62 52 63 37 64 38 65 46 66 39 67 45 68
REMARK SMILES IDX 40 69 41 70 42 71 43 72 44 73 67 74 68 75 76 76 69 77 75 78
REMARK SMILES IDX 70 79 71 80 72 81 73 82 74 83 53 84 54 85 62 86 55 87 61 88
REMARK SMILES IDX 56 89 57 90 58 91 59 92 60 93
REMARK H PARENT 6 15 10 24 10 25 10 26 81 49 51 60
REMARK Flexibility Score: inf
ROOT
ATOM      1  O   UNL A   1      38.992  22.857  26.630  1.00  0.00    -0.374 OA
ENDROOT
BRANCH   1   2
ATOM      2  C   UNL A   1      38.162  23.908  26.135  1.00  0.00     0.202 C 
BRANCH   2   3
ATOM      3  C   UNL A   1      36.905  23.546  25.344  1.00  0.00     0.261 C 
BRANCH   3   4
ATOM      4  O   UNL A   1      35.791  24.396  25.666  1.00  0.00    -0.460 OA
BRANCH   4   5
ATOM      5  C   UNL A   1      34.608  23.747  25.842  1.00  0.00     0.343 C 
ATOM      6  O   UNL A   1      34.034  23.638  26.922  1.00  0.00    -0.246 OA
BRANCH   5   7
ATOM      7  C   UNL A   1      33.977  23.351  24.596  1.00  0.00     0.117 A 
ATOM      8  C   UNL A   1      34.178  20.730  24.716  1.00  0.00     0.069 C 
ATOM      9  C   UNL A   1      33.746  22.016  24.101  1.00  0.00     0.068 A 
ATOM     10  N   UNL A   1      33.078  21.941  22.950  1.00  0.00    -0.195 NA
ATOM     11  S   UNL A   1      32.781  23.463  22.404  1.00  0.00    -0.017 S 
ATOM     12  C   UNL A   1      33.580  24.290  23.642  1.00  0.00     0.131 A 
BRANCH  12  13
ATOM     13  N   UNL A   1      33.883  25.642  23.653  1.00  0.00    -0.310 N 
ATOM     14  C   UNL A   1      33.203  26.819  23.743  1.00  0.00     0.286 C 
ATOM     15  H   UNL A   1      34.853  25.794  23.573  1.00  0.00     0.171 HD
ATOM     16  O   UNL A   1      33.875  27.821  23.448  1.00  0.00    -0.267 OA
BRANCH  14  17
ATOM     17  C   UNL A   1      31.729  26.995  24.227  1.00  0.00     0.174 C 
ATOM     18  C   UNL A   1      31.425  26.006  25.393  1.00  0.00     0.079 C 
ATOM     19  C   UNL A   1      31.423  28.446  24.655  1.00  0.00     0.079 C 
ATOM     20  C   UNL A   1      31.930  26.443  26.769  1.00  0.00     0.007 C 
ATOM     21  C   UNL A   1      31.952  28.824  26.037  1.00  0.00     0.007 C 
ATOM     22  C   UNL A   1      31.478  27.854  27.105  1.00  0.00     0.001 C 
BRANCH  17  23
ATOM     23  N   UNL A   1      30.845  26.562  23.114  1.00  0.00    -0.345 N 
ATOM     24  H   UNL A   1      31.415  26.262  22.324  1.00  0.00     0.345 HD
ATOM     25  H   UNL A   1      30.250  27.339  22.830  1.00  0.00     0.345 HD
ATOM     26  H   UNL A   1      30.263  25.785  23.427  1.00  0.00     0.345 HD
ENDBRANCH  17  23
ENDBRANCH  14  17
ENDBRANCH  12  13
ENDBRANCH   5   7
ENDBRANCH   4   5
ENDBRANCH   3   4
ENDBRANCH   2   3
ENDBRANCH   1   2
BRANCH   1  27
ATOM     27  C   UNL A   1      39.117  21.622  25.933  1.00  0.00     0.202 C 
BRANCH  27  28
ATOM     28  C   UNL A   1      40.260  20.674  26.264  1.00  0.00     0.261 C 
BRANCH  28  29
ATOM     29  O   UNL A   1      41.365  21.384  26.786  1.00  0.00    -0.460 OA
BRANCH  29  30
ATOM     30  C   UNL A   1      42.512  21.168  26.108  1.00  0.00     0.338 C 
ATOM     31  O   UNL A   1      42.980  20.088  25.773  1.00  0.00    -0.246 OA
BRANCH  30  32
ATOM     32  C   UNL A   1      43.186  22.454  25.916  1.00  0.00     0.060 A 
ATOM     33  C   UNL A   1      44.214  22.703  26.826  1.00  0.00     0.016 A 
ATOM     34  C   UNL A   1      42.479  23.475  25.266  1.00  0.00     0.016 A 
ATOM     35  C   UNL A   1      44.262  23.953  27.381  1.00  0.00     0.010 A 
ATOM     36  C   UNL A   1      42.511  24.715  25.838  1.00  0.00     0.010 A 
ATOM     37  C   UNL A   1      43.315  24.889  26.961  1.00  0.00    -0.014 A 
BRANCH  37  38
ATOM     38  C   UNL A   1      43.198  26.115  27.705  1.00  0.00     0.031 A 
ATOM     39  C   UNL A   1      44.286  27.052  27.369  1.00  0.00     0.074 A 
ATOM     40  C   UNL A   1      42.144  26.354  28.504  1.00  0.00     0.049 A 
ATOM     41  N   UNL A   1      45.299  27.356  28.106  1.00  0.00    -0.248 NA
ATOM     42  C   UNL A   1      44.402  27.490  25.968  1.00  0.00     0.031 C 
ATOM     43  C   UNL A   1      40.915  25.573  28.668  1.00  0.00     0.029 A 
ATOM     44  N   UNL A   1      41.900  27.450  29.260  1.00  0.00    -0.354 N 
ATOM     45  C   UNL A   1      46.061  28.218  27.331  1.00  0.00     0.074 A 
ATOM     46  C   UNL A   1      45.611  28.049  25.976  1.00  0.00     0.031 C 
ATOM     47  C   UNL A   1      39.969  26.357  29.237  1.00  0.00     0.029 A 
ATOM     48  C   UNL A   1      40.562  27.643  29.572  1.00  0.00     0.049 A 
ATOM     49  H   UNL A   1      42.611  28.058  29.563  1.00  0.00     0.167 HD
ATOM     50  C   UNL A   1      46.790  29.217  27.897  1.00  0.00     0.031 A 
ATOM     51  C   UNL A   1      39.996  28.820  29.954  1.00  0.00     0.031 A 
ATOM     52  C   UNL A   1      46.894  29.045  29.324  1.00  0.00     0.049 A 
ATOM     53  C   UNL A   1      41.110  29.701  30.415  1.00  0.00     0.074 A 
ATOM     54  C   UNL A   1      47.433  28.070  30.138  1.00  0.00     0.029 A 
ATOM     55  N   UNL A   1      46.002  29.753  30.100  1.00  0.00    -0.354 N 
ATOM     56  N   UNL A   1      41.827  29.436  31.475  1.00  0.00    -0.248 NA
ATOM     57  C   UNL A   1      41.766  30.555  29.429  1.00  0.00     0.031 C 
ATOM     58  C   UNL A   1      46.511  27.944  31.216  1.00  0.00     0.029 A 
ATOM     59  C   UNL A   1      45.507  28.902  31.054  1.00  0.00     0.049 A 
ATOM     60  H   UNL A   1      45.762  30.703  29.989  1.00  0.00     0.167 HD
ATOM     61  C   UNL A   1      43.140  29.703  31.100  1.00  0.00     0.074 A 
ATOM     62  C   UNL A   1      43.030  30.473  29.860  1.00  0.00     0.031 C 
ATOM     63  C   UNL A   1      44.188  29.015  31.646  1.00  0.00     0.031 A 
BRANCH  50  64
ATOM     64  C   UNL A   1      47.023  30.548  27.234  1.00  0.00    -0.014 A 
ATOM     65  C   UNL A   1      48.332  31.064  27.219  1.00  0.00     0.010 A 
ATOM     66  C   UNL A   1      45.979  31.428  26.876  1.00  0.00     0.010 A 
ATOM     67  C   UNL A   1      48.571  32.416  26.950  1.00  0.00     0.020 A 
ATOM     68  C   UNL A   1      46.213  32.766  26.562  1.00  0.00     0.020 A 
ATOM     69  C   UNL A   1      47.504  33.260  26.642  1.00  0.00     0.054 A 
BRANCH  69  70
ATOM     70  S   UNL A   1      47.807  35.028  26.428  1.00  0.00     0.124 S 
ATOM     71  O   UNL A   1      48.160  35.101  25.014  1.00  0.00    -0.237 OA
ATOM     72  O   UNL A   1      46.518  35.607  26.795  1.00  0.00    -0.237 OA
ATOM     73  O   UNL A   1      48.897  35.303  27.362  1.00  0.00    -0.744 OA
ENDBRANCH  69  70
ENDBRANCH  50  64
BRANCH  51  74
ATOM     74  C   UNL A   1      38.651  29.329  29.554  1.00  0.00    -0.014 A 
ATOM     75  C   UNL A   1      37.759  29.891  30.488  1.00  0.00     0.010 A 
ATOM     76  C   UNL A   1      38.338  29.494  28.188  1.00  0.00     0.010 A 
ATOM     77  C   UNL A   1      36.635  30.633  30.066  1.00  0.00     0.020 A 
ATOM     78  C   UNL A   1      37.220  30.220  27.760  1.00  0.00     0.020 A 
ATOM     79  C   UNL A   1      36.385  30.810  28.702  1.00  0.00     0.054 A 
BRANCH  79  80
ATOM     80  S   UNL A   1      35.052  31.920  28.154  1.00  0.00     0.124 S 
ATOM     81  O   UNL A   1      34.366  32.226  29.406  1.00  0.00    -0.237 OA
ATOM     82  O   UNL A   1      35.786  33.026  27.548  1.00  0.00    -0.237 OA
ATOM     83  O   UNL A   1      34.287  31.101  27.214  1.00  0.00    -0.744 OA
ENDBRANCH  79  80
ENDBRANCH  51  74
BRANCH  63  84
ATOM     84  C   UNL A   1      43.924  28.109  32.829  1.00  0.00    -0.014 A 
ATOM     85  C   UNL A   1      43.627  28.578  34.126  1.00  0.00     0.010 A 
ATOM     86  C   UNL A   1      43.776  26.736  32.567  1.00  0.00     0.010 A 
ATOM     87  C   UNL A   1      43.213  27.692  35.133  1.00  0.00     0.020 A 
ATOM     88  C   UNL A   1      43.345  25.853  33.558  1.00  0.00     0.020 A 
ATOM     89  C   UNL A   1      43.074  26.332  34.840  1.00  0.00     0.054 A 
BRANCH  89  90
ATOM     90  S   UNL A   1      42.492  25.193  36.127  1.00  0.00     0.124 S 
ATOM     91  O   UNL A   1      41.734  26.074  37.011  1.00  0.00    -0.237 OA
ATOM     92  O   UNL A   1      41.700  24.224  35.373  1.00  0.00    -0.237 OA
ATOM     93  O   UNL A   1      43.727  24.657  36.701  1.00  0.00    -0.744 OA
ENDBRANCH  89  90
ENDBRANCH  63  84
ENDBRANCH  37  38
ENDBRANCH  30  32
ENDBRANCH  29  30
ENDBRANCH  28  29
ENDBRANCH  27  28
ENDBRANCH   1  27
TORSDOF 20
ENDMDL
