MODEL 1
REMARK VINA RESULT:     -10.1      0.000      0.000
REMARK SMILES Cc1cc(S(=O)(=O)N[C@@H](CO)C(=O)OCCOCCOC(=O)c2ccc(-c3c4nc(c(-c5ccc(S(=O)(=O)[O-])cc5)c5ccc([nH]5)c(-c5ccc(S(=O)(=O)[O-])cc5)c5nc(c(-c6ccc(S(=O)(=O)[O-])cc6)c6ccc3[nH]6)C=C5)C=C4)cc2)ccc1OC(C)C
REMARK SMILES IDX 16 1 15 2 14 3 12 4 13 5 9 6 8 7 5 9 6 10 7 11 4 12 1 13
REMARK SMILES IDX 2 14 3 15 85 16 84 17 83 18 86 19 87 20 88 21 89 22 10 23
REMARK SMILES IDX 11 24 17 26 18 27 19 28 20 29 21 30 22 31 23 32 24 33 82 34
REMARK SMILES IDX 25 35 81 36 26 37 27 38 28 39 75 40 29 41 80 42 74 43 76 44
REMARK SMILES IDX 30 45 79 46 73 47 72 48 31 50 61 51 42 52 60 53 43 54 46 55
REMARK SMILES IDX 59 56 77 57 44 58 45 59 58 61 78 62 47 63 32 64 33 65 41 66
REMARK SMILES IDX 34 67 40 68 35 69 36 70 37 71 38 72 39 73 62 74 63 75 71 76
REMARK SMILES IDX 64 77 70 78 65 79 66 80 67 81 68 82 69 83 48 84 49 85 57 86
REMARK SMILES IDX 50 87 56 88 51 89 52 90 53 91 54 92 55 93
REMARK H PARENT 8 8 11 25 76 49 46 60
REMARK Flexibility Score: inf
ROOT
ATOM      1  C   UNL A   1      32.795  29.122  26.346  1.00  0.00     0.202 C 
ENDROOT
BRANCH   1   2
ATOM      2  C   UNL A   1      32.372  29.326  24.917  1.00  0.00     0.261 C 
BRANCH   2   3
ATOM      3  O   UNL A   1      31.311  28.448  24.533  1.00  0.00    -0.462 OA
BRANCH   3   4
ATOM      4  C   UNL A   1      31.328  27.151  24.985  1.00  0.00     0.326 C 
ATOM      5  O   UNL A   1      30.633  26.664  25.864  1.00  0.00    -0.250 OA
BRANCH   4   6
ATOM      6  C   UNL A   1      32.198  26.342  24.022  1.00  0.00     0.205 C 
BRANCH   6   7
ATOM      7  N   UNL A   1      32.238  25.003  24.670  1.00  0.00    -0.194 NA
ATOM      8  H   UNL A   1      31.819  25.142  25.589  1.00  0.00     0.142 HD
BRANCH   7   9
ATOM      9  S   UNL A   1      33.560  24.090  24.942  1.00  0.00     0.241 S 
ATOM     10  O   UNL A   1      33.907  24.275  26.332  1.00  0.00    -0.207 OA
ATOM     11  O   UNL A   1      34.498  24.372  23.877  1.00  0.00    -0.207 OA
BRANCH   9  12
ATOM     12  C   UNL A   1      33.011  22.431  24.727  1.00  0.00     0.083 A 
ATOM     13  C   UNL A   1      31.790  20.667  21.675  1.00  0.00     0.048 C 
ATOM     14  C   UNL A   1      32.234  20.769  23.105  1.00  0.00    -0.008 A 
ATOM     15  C   UNL A   1      32.532  22.096  23.465  1.00  0.00     0.029 A 
ATOM     16  C   UNL A   1      32.465  19.763  24.058  1.00  0.00     0.122 A 
ATOM     17  C   UNL A   1      32.921  20.130  25.345  1.00  0.00     0.048 A 
ATOM     18  C   UNL A   1      33.174  21.455  25.698  1.00  0.00     0.025 A 
BRANCH  16  19
ATOM     19  O   UNL A   1      32.367  18.406  23.980  1.00  0.00    -0.491 OA
BRANCH  19  20
ATOM     20  C   UNL A   1      33.337  17.474  24.433  1.00  0.00     0.167 C 
ATOM     21  C   UNL A   1      32.796  16.509  25.488  1.00  0.00     0.052 C 
ATOM     22  C   UNL A   1      34.171  16.904  23.286  1.00  0.00     0.052 C 
ENDBRANCH  19  20
ENDBRANCH  16  19
ENDBRANCH   9  12
ENDBRANCH   7   9
ENDBRANCH   6   7
BRANCH   6  23
ATOM     23  C   UNL A   1      31.660  26.306  22.601  1.00  0.00     0.188 C 
BRANCH  23  24
ATOM     24  O   UNL A   1      31.771  27.564  21.940  1.00  0.00    -0.394 OA
ATOM     25  H   UNL A   1      31.007  27.690  21.355  1.00  0.00     0.210 HD
ENDBRANCH  23  24
ENDBRANCH   6  23
ENDBRANCH   4   6
ENDBRANCH   3   4
ENDBRANCH   2   3
ENDBRANCH   1   2
BRANCH   1  26
ATOM     26  O   UNL A   1      34.188  29.436  26.390  1.00  0.00    -0.374 OA
BRANCH  26  27
ATOM     27  C   UNL A   1      34.756  29.526  27.686  1.00  0.00     0.202 C 
BRANCH  27  28
ATOM     28  C   UNL A   1      36.194  30.064  27.735  1.00  0.00     0.261 C 
BRANCH  28  29
ATOM     29  O   UNL A   1      37.128  28.974  27.844  1.00  0.00    -0.460 OA
BRANCH  29  30
ATOM     30  C   UNL A   1      37.995  29.052  28.893  1.00  0.00     0.338 C 
ATOM     31  O   UNL A   1      37.668  28.989  30.064  1.00  0.00    -0.246 OA
BRANCH  30  32
ATOM     32  C   UNL A   1      39.374  29.275  28.377  1.00  0.00     0.060 A 
ATOM     33  C   UNL A   1      39.725  28.916  27.061  1.00  0.00     0.016 A 
ATOM     34  C   UNL A   1      40.365  29.661  29.277  1.00  0.00     0.016 A 
ATOM     35  C   UNL A   1      41.078  28.856  26.676  1.00  0.00     0.010 A 
ATOM     36  C   UNL A   1      41.690  29.537  28.917  1.00  0.00     0.010 A 
ATOM     37  C   UNL A   1      42.066  29.126  27.624  1.00  0.00    -0.014 A 
BRANCH  37  38
ATOM     38  C   UNL A   1      43.514  28.919  27.489  1.00  0.00     0.031 A 
ATOM     39  C   UNL A   1      44.351  30.056  27.043  1.00  0.00     0.074 A 
ATOM     40  C   UNL A   1      44.127  27.868  28.083  1.00  0.00     0.049 A 
ATOM     41  N   UNL A   1      45.630  30.001  26.907  1.00  0.00    -0.248 NA
ATOM     42  C   UNL A   1      43.802  31.354  26.665  1.00  0.00     0.031 C 
ATOM     43  C   UNL A   1      45.476  27.825  28.650  1.00  0.00     0.029 A 
ATOM     44  N   UNL A   1      43.678  26.572  28.237  1.00  0.00    -0.354 N 
ATOM     45  C   UNL A   1      46.096  31.283  26.762  1.00  0.00     0.074 A 
ATOM     46  C   UNL A   1      44.916  32.073  26.508  1.00  0.00     0.031 C 
ATOM     47  C   UNL A   1      45.800  26.555  28.938  1.00  0.00     0.029 A 
ATOM     48  C   UNL A   1      44.749  25.698  28.426  1.00  0.00     0.049 A 
ATOM     49  H   UNL A   1      42.730  26.301  28.215  1.00  0.00     0.167 HD
ATOM     50  C   UNL A   1      47.422  31.519  26.978  1.00  0.00     0.031 A 
ATOM     51  C   UNL A   1      44.884  24.638  27.579  1.00  0.00     0.031 A 
ATOM     52  C   UNL A   1      48.174  30.259  27.144  1.00  0.00     0.049 A 
ATOM     53  C   UNL A   1      46.028  24.890  26.623  1.00  0.00     0.074 A 
ATOM     54  C   UNL A   1      48.815  29.621  28.193  1.00  0.00     0.029 A 
ATOM     55  N   UNL A   1      48.083  29.305  26.133  1.00  0.00    -0.354 N 
ATOM     56  N   UNL A   1      46.852  25.895  26.756  1.00  0.00    -0.248 NA
ATOM     57  C   UNL A   1      46.326  24.100  25.431  1.00  0.00     0.031 C 
ATOM     58  C   UNL A   1      49.062  28.263  27.804  1.00  0.00     0.029 A 
ATOM     59  C   UNL A   1      48.613  28.085  26.506  1.00  0.00     0.049 A 
ATOM     60  H   UNL A   1      47.683  29.482  25.250  1.00  0.00     0.167 HD
ATOM     61  C   UNL A   1      47.691  25.968  25.697  1.00  0.00     0.074 A 
ATOM     62  C   UNL A   1      47.341  24.805  24.893  1.00  0.00     0.031 C 
ATOM     63  C   UNL A   1      48.590  26.984  25.547  1.00  0.00     0.031 A 
BRANCH  50  64
ATOM     64  C   UNL A   1      48.028  32.899  27.163  1.00  0.00    -0.014 A 
ATOM     65  C   UNL A   1      49.170  33.274  26.428  1.00  0.00     0.010 A 
ATOM     66  C   UNL A   1      47.551  33.866  28.072  1.00  0.00     0.010 A 
ATOM     67  C   UNL A   1      49.795  34.526  26.598  1.00  0.00     0.020 A 
ATOM     68  C   UNL A   1      48.154  35.119  28.251  1.00  0.00     0.020 A 
ATOM     69  C   UNL A   1      49.279  35.443  27.511  1.00  0.00     0.054 A 
BRANCH  69  70
ATOM     70  S   UNL A   1      50.076  37.054  27.729  1.00  0.00     0.124 S 
ATOM     71  O   UNL A   1      49.079  37.797  28.494  1.00  0.00    -0.237 OA
ATOM     72  O   UNL A   1      51.297  36.707  28.449  1.00  0.00    -0.237 OA
ATOM     73  O   UNL A   1      50.281  37.530  26.361  1.00  0.00    -0.744 OA
ENDBRANCH  69  70
ENDBRANCH  50  64
BRANCH  51  74
ATOM     74  C   UNL A   1      43.561  23.958  27.355  1.00  0.00    -0.014 A 
ATOM     75  C   UNL A   1      43.287  23.592  26.012  1.00  0.00     0.010 A 
ATOM     76  C   UNL A   1      42.930  23.226  28.379  1.00  0.00     0.010 A 
ATOM     77  C   UNL A   1      42.567  22.429  25.706  1.00  0.00     0.020 A 
ATOM     78  C   UNL A   1      42.210  22.052  28.074  1.00  0.00     0.020 A 
ATOM     79  C   UNL A   1      42.079  21.634  26.744  1.00  0.00     0.054 A 
BRANCH  79  80
ATOM     80  S   UNL A   1      41.601  19.905  26.370  1.00  0.00     0.124 S 
ATOM     81  O   UNL A   1      41.901  19.215  27.618  1.00  0.00    -0.237 OA
ATOM     82  O   UNL A   1      40.180  20.022  26.034  1.00  0.00    -0.237 OA
ATOM     83  O   UNL A   1      42.450  19.571  25.229  1.00  0.00    -0.744 OA
ENDBRANCH  79  80
ENDBRANCH  51  74
BRANCH  63  84
ATOM     84  C   UNL A   1      49.518  27.000  24.379  1.00  0.00    -0.014 A 
ATOM     85  C   UNL A   1      49.025  27.055  23.066  1.00  0.00     0.010 A 
ATOM     86  C   UNL A   1      50.909  26.904  24.569  1.00  0.00     0.010 A 
ATOM     87  C   UNL A   1      49.898  27.148  21.985  1.00  0.00     0.020 A 
ATOM     88  C   UNL A   1      51.788  26.963  23.492  1.00  0.00     0.020 A 
ATOM     89  C   UNL A   1      51.276  27.133  22.210  1.00  0.00     0.054 A 
BRANCH  89  90
ATOM     90  S   UNL A   1      52.397  27.351  20.812  1.00  0.00     0.124 S 
ATOM     91  O   UNL A   1      52.613  25.980  20.354  1.00  0.00    -0.237 OA
ATOM     92  O   UNL A   1      51.598  28.191  19.923  1.00  0.00    -0.237 OA
ATOM     93  O   UNL A   1      53.565  27.997  21.403  1.00  0.00    -0.744 OA
ENDBRANCH  89  90
ENDBRANCH  63  84
ENDBRANCH  37  38
ENDBRANCH  30  32
ENDBRANCH  29  30
ENDBRANCH  28  29
ENDBRANCH  27  28
ENDBRANCH  26  27
ENDBRANCH   1  26
TORSDOF 24
ENDMDL
MODEL 2
REMARK VINA RESULT:      -9.6      6.413     12.121
REMARK SMILES Cc1cc(S(=O)(=O)N[C@@H](CO)C(=O)OCCOCCOC(=O)c2ccc(-c3c4nc(c(-c5ccc(S(=O)(=O)[O-])cc5)c5ccc([nH]5)c(-c5ccc(S(=O)(=O)[O-])cc5)c5nc(c(-c6ccc(S(=O)(=O)[O-])cc6)c6ccc3[nH]6)C=C5)C=C4)cc2)ccc1OC(C)C
REMARK SMILES IDX 16 1 15 2 14 3 12 4 13 5 9 6 8 7 5 9 6 10 7 11 4 12 1 13
REMARK SMILES IDX 2 14 3 15 85 16 84 17 83 18 86 19 87 20 88 21 89 22 10 23
REMARK SMILES IDX 11 24 17 26 18 27 19 28 20 29 21 30 22 31 23 32 24 33 82 34
REMARK SMILES IDX 25 35 81 36 26 37 27 38 28 39 75 40 29 41 80 42 74 43 76 44
REMARK SMILES IDX 30 45 79 46 73 47 72 48 31 50 61 51 42 52 60 53 43 54 46 55
REMARK SMILES IDX 59 56 77 57 44 58 45 59 58 61 78 62 47 63 32 64 33 65 41 66
REMARK SMILES IDX 34 67 40 68 35 69 36 70 37 71 38 72 39 73 62 74 63 75 71 76
REMARK SMILES IDX 64 77 70 78 65 79 66 80 67 81 68 82 69 83 48 84 49 85 57 86
REMARK SMILES IDX 50 87 56 88 51 89 52 90 53 91 54 92 55 93
REMARK H PARENT 8 8 11 25 76 49 46 60
REMARK Flexibility Score: inf
ROOT
ATOM      1  C   UNL A   1      35.503  34.041  35.338  1.00  0.00     0.202 C 
ENDROOT
BRANCH   1   2
ATOM      2  C   UNL A   1      35.047  33.648  33.959  1.00  0.00     0.261 C 
BRANCH   2   3
ATOM      3  O   UNL A   1      34.020  34.510  33.460  1.00  0.00    -0.462 OA
BRANCH   3   4
ATOM      4  C   UNL A   1      34.382  35.644  32.776  1.00  0.00     0.326 C 
ATOM      5  O   UNL A   1      35.488  36.161  32.732  1.00  0.00    -0.250 OA
BRANCH   4   6
ATOM      6  C   UNL A   1      33.215  36.019  31.862  1.00  0.00     0.205 C 
BRANCH   6   7
ATOM      7  N   UNL A   1      33.164  34.873  30.916  1.00  0.00    -0.194 NA
ATOM      8  H   UNL A   1      33.824  34.193  31.290  1.00  0.00     0.142 HD
BRANCH   7   9
ATOM      9  S   UNL A   1      33.463  34.916  29.314  1.00  0.00     0.241 S 
ATOM     10  O   UNL A   1      33.833  36.278  29.003  1.00  0.00    -0.207 OA
ATOM     11  O   UNL A   1      32.356  34.257  28.656  1.00  0.00    -0.207 OA
BRANCH   9  12
ATOM     12  C   UNL A   1      34.881  33.896  29.096  1.00  0.00     0.083 A 
ATOM     13  C   UNL A   1      37.367  32.649  31.582  1.00  0.00     0.048 C 
ATOM     14  C   UNL A   1      36.716  32.740  30.233  1.00  0.00    -0.008 A 
ATOM     15  C   UNL A   1      35.664  33.675  30.223  1.00  0.00     0.029 A 
ATOM     16  C   UNL A   1      36.944  31.996  29.063  1.00  0.00     0.122 A 
ATOM     17  C   UNL A   1      36.157  32.261  27.918  1.00  0.00     0.048 A 
ATOM     18  C   UNL A   1      35.143  33.219  27.914  1.00  0.00     0.025 A 
BRANCH  16  19
ATOM     19  O   UNL A   1      37.804  30.974  28.797  1.00  0.00    -0.491 OA
BRANCH  19  20
ATOM     20  C   UNL A   1      37.569  29.598  29.057  1.00  0.00     0.167 C 
ATOM     21  C   UNL A   1      38.784  28.715  28.774  1.00  0.00     0.052 C 
ATOM     22  C   UNL A   1      36.802  29.381  30.362  1.00  0.00     0.052 C 
ENDBRANCH  19  20
ENDBRANCH  16  19
ENDBRANCH   9  12
ENDBRANCH   7   9
ENDBRANCH   6   7
BRANCH   6  23
ATOM     23  C   UNL A   1      31.908  36.243  32.606  1.00  0.00     0.188 C 
BRANCH  23  24
ATOM     24  O   UNL A   1      31.182  35.035  32.818  1.00  0.00    -0.394 OA
ATOM     25  H   UNL A   1      31.666  34.294  32.421  1.00  0.00     0.210 HD
ENDBRANCH  23  24
ENDBRANCH   6  23
ENDBRANCH   4   6
ENDBRANCH   3   4
ENDBRANCH   2   3
ENDBRANCH   1   2
BRANCH   1  26
ATOM     26  O   UNL A   1      36.540  33.122  35.684  1.00  0.00    -0.374 OA
BRANCH  26  27
ATOM     27  C   UNL A   1      37.359  33.503  36.775  1.00  0.00     0.202 C 
BRANCH  27  28
ATOM     28  C   UNL A   1      38.861  33.232  36.594  1.00  0.00     0.261 C 
BRANCH  28  29
ATOM     29  O   UNL A   1      39.428  34.176  35.668  1.00  0.00    -0.460 OA
BRANCH  29  30
ATOM     30  C   UNL A   1      40.768  34.048  35.452  1.00  0.00     0.338 C 
ATOM     31  O   UNL A   1      41.573  33.707  36.298  1.00  0.00    -0.246 OA
BRANCH  30  32
ATOM     32  C   UNL A   1      41.080  34.436  34.048  1.00  0.00     0.060 A 
ATOM     33  C   UNL A   1      40.232  34.068  32.986  1.00  0.00     0.016 A 
ATOM     34  C   UNL A   1      42.325  35.000  33.778  1.00  0.00     0.016 A 
ATOM     35  C   UNL A   1      40.672  34.179  31.653  1.00  0.00     0.010 A 
ATOM     36  C   UNL A   1      42.777  35.045  32.475  1.00  0.00     0.010 A 
ATOM     37  C   UNL A   1      41.967  34.630  31.401  1.00  0.00    -0.014 A 
BRANCH  37  38
ATOM     38  C   UNL A   1      42.683  34.620  30.118  1.00  0.00     0.031 A 
ATOM     39  C   UNL A   1      43.373  33.378  29.703  1.00  0.00     0.074 A 
ATOM     40  C   UNL A   1      42.437  35.559  29.174  1.00  0.00     0.049 A 
ATOM     41  N   UNL A   1      44.014  33.243  28.596  1.00  0.00    -0.248 NA
ATOM     42  C   UNL A   1      43.436  32.181  30.537  1.00  0.00     0.031 C 
ATOM     43  C   UNL A   1      42.462  35.393  27.720  1.00  0.00     0.029 A 
ATOM     44  N   UNL A   1      42.177  36.906  29.334  1.00  0.00    -0.354 N 
ATOM     45  C   UNL A   1      44.274  31.907  28.416  1.00  0.00     0.074 A 
ATOM     46  C   UNL A   1      43.993  31.306  29.697  1.00  0.00     0.031 C 
ATOM     47  C   UNL A   1      42.390  36.596  27.130  1.00  0.00     0.029 A 
ATOM     48  C   UNL A   1      42.477  37.607  28.165  1.00  0.00     0.049 A 
ATOM     49  H   UNL A   1      41.829  37.315  30.159  1.00  0.00     0.167 HD
ATOM     50  C   UNL A   1      44.598  31.474  27.164  1.00  0.00     0.031 A 
ATOM     51  C   UNL A   1      43.356  38.646  28.235  1.00  0.00     0.031 A 
ATOM     52  C   UNL A   1      44.809  32.605  26.238  1.00  0.00     0.049 A 
ATOM     53  C   UNL A   1      44.677  38.240  27.625  1.00  0.00     0.074 A 
ATOM     54  C   UNL A   1      44.138  33.125  25.144  1.00  0.00     0.029 A 
ATOM     55  N   UNL A   1      45.742  33.575  26.595  1.00  0.00    -0.354 N 
ATOM     56  N   UNL A   1      44.839  37.121  26.969  1.00  0.00    -0.248 NA
ATOM     57  C   UNL A   1      45.925  38.993  27.726  1.00  0.00     0.031 C 
ATOM     58  C   UNL A   1      44.658  34.436  24.885  1.00  0.00     0.029 A 
ATOM     59  C   UNL A   1      45.672  34.697  25.791  1.00  0.00     0.049 A 
ATOM     60  H   UNL A   1      46.380  33.473  27.338  1.00  0.00     0.167 HD
ATOM     61  C   UNL A   1      46.142  36.939  26.650  1.00  0.00     0.074 A 
ATOM     62  C   UNL A   1      46.791  38.153  27.127  1.00  0.00     0.031 C 
ATOM     63  C   UNL A   1      46.592  35.803  26.044  1.00  0.00     0.031 A 
BRANCH  50  64
ATOM     64  C   UNL A   1      44.606  30.015  26.738  1.00  0.00    -0.014 A 
ATOM     65  C   UNL A   1      43.410  29.272  26.744  1.00  0.00     0.010 A 
ATOM     66  C   UNL A   1      45.760  29.300  26.358  1.00  0.00     0.010 A 
ATOM     67  C   UNL A   1      43.374  27.905  26.401  1.00  0.00     0.020 A 
ATOM     68  C   UNL A   1      45.744  27.943  26.007  1.00  0.00     0.020 A 
ATOM     69  C   UNL A   1      44.546  27.249  26.033  1.00  0.00     0.054 A 
BRANCH  69  70
ATOM     70  S   UNL A   1      44.503  25.494  25.587  1.00  0.00     0.124 S 
ATOM     71  O   UNL A   1      45.699  25.350  24.762  1.00  0.00    -0.237 OA
ATOM     72  O   UNL A   1      44.549  24.836  26.890  1.00  0.00    -0.237 OA
ATOM     73  O   UNL A   1      43.239  25.348  24.867  1.00  0.00    -0.744 OA
ENDBRANCH  69  70
ENDBRANCH  50  64
BRANCH  51  74
ATOM     74  C   UNL A   1      43.061  39.520  29.424  1.00  0.00    -0.014 A 
ATOM     75  C   UNL A   1      44.163  39.771  30.280  1.00  0.00     0.010 A 
ATOM     76  C   UNL A   1      42.018  40.465  29.399  1.00  0.00     0.010 A 
ATOM     77  C   UNL A   1      44.310  41.000  30.939  1.00  0.00     0.020 A 
ATOM     78  C   UNL A   1      42.165  41.704  30.056  1.00  0.00     0.020 A 
ATOM     79  C   UNL A   1      43.334  41.983  30.777  1.00  0.00     0.054 A 
BRANCH  79  80
ATOM     80  S   UNL A   1      43.756  43.714  31.202  1.00  0.00     0.124 S 
ATOM     81  O   UNL A   1      42.543  44.186  31.857  1.00  0.00    -0.237 OA
ATOM     82  O   UNL A   1      44.928  43.564  32.068  1.00  0.00    -0.237 OA
ATOM     83  O   UNL A   1      44.057  44.305  29.901  1.00  0.00    -0.744 OA
ENDBRANCH  79  80
ENDBRANCH  51  74
BRANCH  63  84
ATOM     84  C   UNL A   1      48.032  35.665  25.680  1.00  0.00    -0.014 A 
ATOM     85  C   UNL A   1      48.762  36.762  25.196  1.00  0.00     0.010 A 
ATOM     86  C   UNL A   1      48.675  34.417  25.764  1.00  0.00     0.010 A 
ATOM     87  C   UNL A   1      50.125  36.645  24.934  1.00  0.00     0.020 A 
ATOM     88  C   UNL A   1      50.030  34.284  25.471  1.00  0.00     0.020 A 
ATOM     89  C   UNL A   1      50.756  35.411  25.104  1.00  0.00     0.054 A 
BRANCH  89  90
ATOM     90  S   UNL A   1      52.540  35.295  24.853  1.00  0.00     0.124 S 
ATOM     91  O   UNL A   1      52.669  34.124  23.988  1.00  0.00    -0.237 OA
ATOM     92  O   UNL A   1      52.833  36.578  24.220  1.00  0.00    -0.237 OA
ATOM     93  O   UNL A   1      53.068  35.127  26.204  1.00  0.00    -0.744 OA
ENDBRANCH  89  90
ENDBRANCH  63  84
ENDBRANCH  37  38
ENDBRANCH  30  32
ENDBRANCH  29  30
ENDBRANCH  28  29
ENDBRANCH  27  28
ENDBRANCH  26  27
ENDBRANCH   1  26
TORSDOF 24
ENDMDL
MODEL 3
REMARK VINA RESULT:      -9.1      6.442     14.986
REMARK SMILES Cc1cc(S(=O)(=O)N[C@@H](CO)C(=O)OCCOCCOC(=O)c2ccc(-c3c4nc(c(-c5ccc(S(=O)(=O)[O-])cc5)c5ccc([nH]5)c(-c5ccc(S(=O)(=O)[O-])cc5)c5nc(c(-c6ccc(S(=O)(=O)[O-])cc6)c6ccc3[nH]6)C=C5)C=C4)cc2)ccc1OC(C)C
REMARK SMILES IDX 16 1 15 2 14 3 12 4 13 5 9 6 8 7 5 9 6 10 7 11 4 12 1 13
REMARK SMILES IDX 2 14 3 15 85 16 84 17 83 18 86 19 87 20 88 21 89 22 10 23
REMARK SMILES IDX 11 24 17 26 18 27 19 28 20 29 21 30 22 31 23 32 24 33 82 34
REMARK SMILES IDX 25 35 81 36 26 37 27 38 28 39 75 40 29 41 80 42 74 43 76 44
REMARK SMILES IDX 30 45 79 46 73 47 72 48 31 50 61 51 42 52 60 53 43 54 46 55
REMARK SMILES IDX 59 56 77 57 44 58 45 59 58 61 78 62 47 63 32 64 33 65 41 66
REMARK SMILES IDX 34 67 40 68 35 69 36 70 37 71 38 72 39 73 62 74 63 75 71 76
REMARK SMILES IDX 64 77 70 78 65 79 66 80 67 81 68 82 69 83 48 84 49 85 57 86
REMARK SMILES IDX 50 87 56 88 51 89 52 90 53 91 54 92 55 93
REMARK H PARENT 8 8 11 25 76 49 46 60
REMARK Flexibility Score: inf
ROOT
ATOM      1  C   UNL A   1      45.926  42.483  27.443  1.00  0.00     0.202 C 
ENDROOT
BRANCH   1   2
ATOM      2  C   UNL A   1      46.836  41.954  26.369  1.00  0.00     0.261 C 
BRANCH   2   3
ATOM      3  O   UNL A   1      46.384  42.298  25.056  1.00  0.00    -0.462 OA
BRANCH   3   4
ATOM      4  C   UNL A   1      46.743  41.494  24.001  1.00  0.00     0.326 C 
ATOM      5  O   UNL A   1      46.835  40.276  23.997  1.00  0.00    -0.250 OA
BRANCH   4   6
ATOM      6  C   UNL A   1      46.763  42.368  22.746  1.00  0.00     0.205 C 
BRANCH   6   7
ATOM      7  N   UNL A   1      46.721  43.744  23.309  1.00  0.00    -0.194 NA
ATOM      8  H   UNL A   1      46.478  43.619  24.292  1.00  0.00     0.142 HD
BRANCH   7   9
ATOM      9  S   UNL A   1      45.788  44.978  22.797  1.00  0.00     0.241 S 
ATOM     10  O   UNL A   1      46.690  46.009  22.337  1.00  0.00    -0.207 OA
ATOM     11  O   UNL A   1      44.808  45.228  23.831  1.00  0.00    -0.207 OA
BRANCH   9  12
ATOM     12  C   UNL A   1      44.924  44.339  21.403  1.00  0.00     0.083 A 
ATOM     13  C   UNL A   1      41.472  42.950  21.129  1.00  0.00     0.048 C 
ATOM     14  C   UNL A   1      42.792  43.436  20.605  1.00  0.00    -0.008 A 
ATOM     15  C   UNL A   1      43.660  43.811  21.646  1.00  0.00     0.029 A 
ATOM     16  C   UNL A   1      43.225  43.639  19.284  1.00  0.00     0.122 A 
ATOM     17  C   UNL A   1      44.526  44.147  19.060  1.00  0.00     0.048 A 
ATOM     18  C   UNL A   1      45.389  44.477  20.104  1.00  0.00     0.025 A 
BRANCH  16  19
ATOM     19  O   UNL A   1      42.591  43.470  18.090  1.00  0.00    -0.491 OA
BRANCH  19  20
ATOM     20  C   UNL A   1      41.822  44.450  17.409  1.00  0.00     0.167 C 
ATOM     21  C   UNL A   1      41.308  45.557  18.329  1.00  0.00     0.052 C 
ATOM     22  C   UNL A   1      42.448  44.849  16.073  1.00  0.00     0.052 C 
ENDBRANCH  19  20
ENDBRANCH  16  19
ENDBRANCH   9  12
ENDBRANCH   7   9
ENDBRANCH   6   7
BRANCH   6  23
ATOM     23  C   UNL A   1      47.970  42.120  21.854  1.00  0.00     0.188 C 
BRANCH  23  24
ATOM     24  O   UNL A   1      47.763  41.051  20.934  1.00  0.00    -0.394 OA
ATOM     25  H   UNL A   1      47.730  40.211  21.418  1.00  0.00     0.210 HD
ENDBRANCH  23  24
ENDBRANCH   6  23
ENDBRANCH   4   6
ENDBRANCH   3   4
ENDBRANCH   2   3
ENDBRANCH   1   2
BRANCH   1  26
ATOM     26  O   UNL A   1      45.644  41.374  28.298  1.00  0.00    -0.374 OA
BRANCH  26  27
ATOM     27  C   UNL A   1      45.696  40.098  27.684  1.00  0.00     0.202 C 
BRANCH  27  28
ATOM     28  C   UNL A   1      44.333  39.440  27.421  1.00  0.00     0.261 C 
BRANCH  28  29
ATOM     29  O   UNL A   1      44.513  38.071  27.015  1.00  0.00    -0.460 OA
BRANCH  29  30
ATOM     30  C   UNL A   1      43.382  37.310  27.011  1.00  0.00     0.338 C 
ATOM     31  O   UNL A   1      42.251  37.758  27.016  1.00  0.00    -0.246 OA
BRANCH  30  32
ATOM     32  C   UNL A   1      43.757  35.869  27.050  1.00  0.00     0.060 A 
ATOM     33  C   UNL A   1      43.266  34.964  26.091  1.00  0.00     0.016 A 
ATOM     34  C   UNL A   1      44.443  35.393  28.165  1.00  0.00     0.016 A 
ATOM     35  C   UNL A   1      43.382  33.575  26.297  1.00  0.00     0.010 A 
ATOM     36  C   UNL A   1      44.496  34.034  28.396  1.00  0.00     0.010 A 
ATOM     37  C   UNL A   1      43.962  33.111  27.478  1.00  0.00    -0.014 A 
BRANCH  37  38
ATOM     38  C   UNL A   1      43.990  31.730  27.976  1.00  0.00     0.031 A 
ATOM     39  C   UNL A   1      44.976  30.789  27.395  1.00  0.00     0.074 A 
ATOM     40  C   UNL A   1      43.411  31.400  29.155  1.00  0.00     0.049 A 
ATOM     41  N   UNL A   1      45.108  29.563  27.763  1.00  0.00    -0.248 NA
ATOM     42  C   UNL A   1      45.876  31.148  26.304  1.00  0.00     0.031 C 
ATOM     43  C   UNL A   1      43.857  30.392  30.118  1.00  0.00     0.029 A 
ATOM     44  N   UNL A   1      42.235  31.867  29.706  1.00  0.00    -0.354 N 
ATOM     45  C   UNL A   1      46.279  29.084  27.231  1.00  0.00     0.074 A 
ATOM     46  C   UNL A   1      46.660  30.068  26.247  1.00  0.00     0.031 C 
ATOM     47  C   UNL A   1      42.903  30.204  31.042  1.00  0.00     0.029 A 
ATOM     48  C   UNL A   1      41.732  30.956  30.637  1.00  0.00     0.049 A 
ATOM     49  H   UNL A   1      41.809  32.724  29.474  1.00  0.00     0.167 HD
ATOM     50  C   UNL A   1      46.824  27.958  27.773  1.00  0.00     0.031 A 
ATOM     51  C   UNL A   1      40.463  30.488  30.471  1.00  0.00     0.031 A 
ATOM     52  C   UNL A   1      45.908  27.329  28.746  1.00  0.00     0.049 A 
ATOM     53  C   UNL A   1      40.506  29.058  29.982  1.00  0.00     0.074 A 
ATOM     54  C   UNL A   1      45.890  27.159  30.120  1.00  0.00     0.029 A 
ATOM     55  N   UNL A   1      44.624  27.002  28.316  1.00  0.00    -0.354 N 
ATOM     56  N   UNL A   1      41.610  28.362  29.930  1.00  0.00    -0.248 NA
ATOM     57  C   UNL A   1      39.366  28.303  29.469  1.00  0.00     0.031 C 
ATOM     58  C   UNL A   1      44.564  26.769  30.503  1.00  0.00     0.029 A 
ATOM     59  C   UNL A   1      43.787  26.660  29.362  1.00  0.00     0.049 A 
ATOM     60  H   UNL A   1      44.343  27.015  27.372  1.00  0.00     0.167 HD
ATOM     61  C   UNL A   1      41.395  27.168  29.329  1.00  0.00     0.074 A 
ATOM     62  C   UNL A   1      39.960  27.161  29.072  1.00  0.00     0.031 C 
ATOM     63  C   UNL A   1      42.405  26.291  29.066  1.00  0.00     0.031 A 
BRANCH  50  64
ATOM     64  C   UNL A   1      48.244  27.484  27.516  1.00  0.00    -0.014 A 
ATOM     65  C   UNL A   1      48.839  27.687  26.255  1.00  0.00     0.010 A 
ATOM     66  C   UNL A   1      49.040  26.797  28.455  1.00  0.00     0.010 A 
ATOM     67  C   UNL A   1      50.136  27.227  25.954  1.00  0.00     0.020 A 
ATOM     68  C   UNL A   1      50.334  26.337  28.178  1.00  0.00     0.020 A 
ATOM     69  C   UNL A   1      50.878  26.553  26.923  1.00  0.00     0.054 A 
BRANCH  69  70
ATOM     70  S   UNL A   1      52.547  25.963  26.541  1.00  0.00     0.124 S 
ATOM     71  O   UNL A   1      53.232  26.110  27.822  1.00  0.00    -0.237 OA
ATOM     72  O   UNL A   1      52.305  24.592  26.105  1.00  0.00    -0.237 OA
ATOM     73  O   UNL A   1      53.007  26.872  25.491  1.00  0.00    -0.744 OA
ENDBRANCH  69  70
ENDBRANCH  50  64
BRANCH  51  74
ATOM     74  C   UNL A   1      39.518  31.606  30.125  1.00  0.00    -0.014 A 
ATOM     75  C   UNL A   1      38.687  31.371  29.000  1.00  0.00     0.010 A 
ATOM     76  C   UNL A   1      39.064  32.512  31.103  1.00  0.00     0.010 A 
ATOM     77  C   UNL A   1      37.377  31.870  28.946  1.00  0.00     0.020 A 
ATOM     78  C   UNL A   1      37.745  33.010  31.052  1.00  0.00     0.020 A 
ATOM     79  C   UNL A   1      36.894  32.641  30.002  1.00  0.00     0.054 A 
BRANCH  79  80
ATOM     80  S   UNL A   1      35.083  32.857  30.172  1.00  0.00     0.124 S 
ATOM     81  O   UNL A   1      34.923  34.302  30.070  1.00  0.00    -0.237 OA
ATOM     82  O   UNL A   1      34.552  32.078  29.052  1.00  0.00    -0.237 OA
ATOM     83  O   UNL A   1      34.807  32.271  31.482  1.00  0.00    -0.744 OA
ENDBRANCH  79  80
ENDBRANCH  51  74
BRANCH  63  84
ATOM     84  C   UNL A   1      42.110  24.972  28.434  1.00  0.00    -0.014 A 
ATOM     85  C   UNL A   1      42.637  23.784  28.963  1.00  0.00     0.010 A 
ATOM     86  C   UNL A   1      41.340  24.899  27.259  1.00  0.00     0.010 A 
ATOM     87  C   UNL A   1      42.294  22.551  28.414  1.00  0.00     0.020 A 
ATOM     88  C   UNL A   1      41.019  23.672  26.684  1.00  0.00     0.020 A 
ATOM     89  C   UNL A   1      41.460  22.504  27.295  1.00  0.00     0.054 A 
BRANCH  89  90
ATOM     90  S   UNL A   1      40.944  20.898  26.652  1.00  0.00     0.124 S 
ATOM     91  O   UNL A   1      39.659  21.198  26.024  1.00  0.00    -0.237 OA
ATOM     92  O   UNL A   1      42.034  20.585  25.731  1.00  0.00    -0.237 OA
ATOM     93  O   UNL A   1      40.869  20.056  27.842  1.00  0.00    -0.744 OA
ENDBRANCH  89  90
ENDBRANCH  63  84
ENDBRANCH  37  38
ENDBRANCH  30  32
ENDBRANCH  29  30
ENDBRANCH  28  29
ENDBRANCH  27  28
ENDBRANCH  26  27
ENDBRANCH   1  26
TORSDOF 24
ENDMDL
