MODEL 1
REMARK VINA RESULT:     -10.7      0.000      0.000
REMARK SMILES Cc1ccnc(C(=O)c2[nH]c3ccc(OC(F)(F)F)cc3c2CC(=O)OCCOCCOC(=O)c2ccc(-c3c4nc(c(-c5ccc(S(=O)(=O)[O-])cc5)c5ccc([nH]5)c(-c5ccc(S(=O)(=O)[O-])cc5)c5nc(c(-c6ccc(S(=O)(=O)[O-])cc6)c6ccc3[nH]6)C=C5)C=C4)cc2)c1
REMARK SMILES IDX 29 1 28 2 27 3 26 4 24 5 25 6 23 7 22 8 9 9 10 10 11 11
REMARK SMILES IDX 21 13 12 14 20 15 13 16 14 17 7 18 8 19 6 20 1 21 2 22 3 23
REMARK SMILES IDX 95 24 4 25 5 26 15 27 16 28 17 29 18 30 19 31 30 32 31 33
REMARK SMILES IDX 32 34 33 35 34 36 35 37 36 38 94 39 37 40 93 41 38 42 39 43
REMARK SMILES IDX 40 44 87 45 41 46 92 47 86 48 88 49 42 50 91 51 85 52 84 53
REMARK SMILES IDX 43 55 73 56 54 57 72 58 55 59 58 60 71 61 89 62 56 63 57 64
REMARK SMILES IDX 70 66 90 67 59 68 44 69 45 70 53 71 46 72 52 73 47 74 48 75
REMARK SMILES IDX 49 76 50 77 51 78 74 79 75 80 83 81 76 82 82 83 77 84 78 85
REMARK SMILES IDX 79 86 80 87 81 88 60 89 61 90 69 91 62 92 68 93 63 94 64 95
REMARK SMILES IDX 65 96 66 97 67 98
REMARK H PARENT 10 12 88 54 58 65
REMARK Flexibility Score: inf
ROOT
ATOM      1  O   UNL A   1      32.739  28.153  27.239  1.00  0.00    -0.374 OA
ENDROOT
BRANCH   1   2
ATOM      2  C   UNL A   1      32.392  27.061  26.387  1.00  0.00     0.202 C 
BRANCH   2   3
ATOM      3  C   UNL A   1      31.199  26.181  26.780  1.00  0.00     0.261 C 
BRANCH   3   4
ATOM      4  O   UNL A   1      31.552  24.802  27.028  1.00  0.00    -0.463 OA
BRANCH   4   5
ATOM      5  C   UNL A   1      30.641  23.884  26.601  1.00  0.00     0.310 C 
ATOM      6  O   UNL A   1      29.654  23.544  27.251  1.00  0.00    -0.252 OA
BRANCH   5   7
ATOM      7  C   UNL A   1      30.963  23.210  25.285  1.00  0.00     0.161 C 
BRANCH   7   8
ATOM      8  C   UNL A   1      32.128  23.704  24.465  1.00  0.00     0.000 A 
ATOM      9  C   UNL A   1      33.482  23.394  24.632  1.00  0.00     0.093 A 
ATOM     10  N   UNL A   1      34.162  24.062  23.633  1.00  0.00    -0.352 N 
ATOM     11  C   UNL A   1      33.353  25.016  23.057  1.00  0.00     0.046 A 
ATOM     12  H   UNL A   1      35.093  23.883  23.369  1.00  0.00     0.167 HD
ATOM     13  C   UNL A   1      32.068  24.796  23.539  1.00  0.00     0.008 A 
ATOM     14  C   UNL A   1      33.654  26.053  22.165  1.00  0.00     0.030 A 
ATOM     15  C   UNL A   1      31.038  25.664  23.123  1.00  0.00     0.057 A 
ATOM     16  C   UNL A   1      32.618  26.934  21.810  1.00  0.00     0.049 A 
ATOM     17  C   UNL A   1      31.324  26.759  22.298  1.00  0.00     0.130 A 
BRANCH   9  18
ATOM     18  C   UNL A   1      34.067  22.527  25.650  1.00  0.00     0.227 C 
ATOM     19  O   UNL A   1      34.465  22.971  26.725  1.00  0.00    -0.285 OA
BRANCH  18  20
ATOM     20  C   UNL A   1      34.283  21.065  25.410  1.00  0.00     0.113 A 
ATOM     21  C   UNL A   1      32.396  17.970  24.319  1.00  0.00     0.044 C 
ATOM     22  C   UNL A   1      33.497  18.911  24.706  1.00  0.00    -0.047 A 
ATOM     23  C   UNL A   1      34.831  18.531  24.537  1.00  0.00     0.023 A 
ATOM     24  C   UNL A   1      33.217  20.210  25.146  1.00  0.00     0.036 A 
ATOM     25  C   UNL A   1      35.828  19.440  24.849  1.00  0.00     0.112 A 
ATOM     26  N   UNL A   1      35.584  20.688  25.293  1.00  0.00    -0.253 NA
ENDBRANCH  18  20
ENDBRANCH   9  18
BRANCH  17  27
ATOM     27  O   UNL A   1      30.250  27.570  22.067  1.00  0.00    -0.406 OA
BRANCH  27  28
ATOM     28  C   UNL A   1      30.227  28.836  22.700  1.00  0.00     0.573 C 
ATOM     29  F   UNL A   1      30.834  28.795  23.908  1.00  0.00    -0.132 F 
ATOM     30  F   UNL A   1      30.822  29.772  21.933  1.00  0.00    -0.132 F 
ATOM     31  F   UNL A   1      28.940  29.201  22.898  1.00  0.00    -0.132 F 
ENDBRANCH  27  28
ENDBRANCH  17  27
ENDBRANCH   7   8
ENDBRANCH   5   7
ENDBRANCH   4   5
ENDBRANCH   3   4
ENDBRANCH   2   3
ENDBRANCH   1   2
BRANCH   1  32
ATOM     32  C   UNL A   1      31.858  29.272  27.239  1.00  0.00     0.202 C 
BRANCH  32  33
ATOM     33  C   UNL A   1      32.467  30.651  26.945  1.00  0.00     0.261 C 
BRANCH  33  34
ATOM     34  O   UNL A   1      33.902  30.663  26.970  1.00  0.00    -0.460 OA
BRANCH  34  35
ATOM     35  C   UNL A   1      34.439  31.573  27.819  1.00  0.00     0.338 C 
ATOM     36  O   UNL A   1      33.928  32.605  28.228  1.00  0.00    -0.246 OA
BRANCH  35  37
ATOM     37  C   UNL A   1      35.716  31.060  28.340  1.00  0.00     0.060 A 
ATOM     38  C   UNL A   1      35.704  29.812  28.977  1.00  0.00     0.016 A 
ATOM     39  C   UNL A   1      36.895  31.799  28.237  1.00  0.00     0.016 A 
ATOM     40  C   UNL A   1      36.876  29.304  29.528  1.00  0.00     0.010 A 
ATOM     41  C   UNL A   1      38.067  31.294  28.804  1.00  0.00     0.010 A 
ATOM     42  C   UNL A   1      38.057  30.054  29.467  1.00  0.00    -0.014 A 
BRANCH  42  43
ATOM     43  C   UNL A   1      39.266  29.578  30.176  1.00  0.00     0.031 A 
ATOM     44  C   UNL A   1      39.685  30.263  31.445  1.00  0.00     0.074 A 
ATOM     45  C   UNL A   1      39.969  28.541  29.686  1.00  0.00     0.049 A 
ATOM     46  N   UNL A   1      40.729  30.037  32.199  1.00  0.00    -0.248 NA
ATOM     47  C   UNL A   1      38.815  31.348  31.930  1.00  0.00     0.031 C 
ATOM     48  C   UNL A   1      39.622  27.780  28.485  1.00  0.00     0.029 A 
ATOM     49  N   UNL A   1      41.122  27.952  30.135  1.00  0.00    -0.354 N 
ATOM     50  C   UNL A   1      40.648  30.957  33.239  1.00  0.00     0.074 A 
ATOM     51  C   UNL A   1      39.466  31.757  33.009  1.00  0.00     0.031 C 
ATOM     52  C   UNL A   1      40.547  26.824  28.291  1.00  0.00     0.029 A 
ATOM     53  C   UNL A   1      41.572  26.934  29.327  1.00  0.00     0.049 A 
ATOM     54  H   UNL A   1      41.586  28.231  30.958  1.00  0.00     0.167 HD
ATOM     55  C   UNL A   1      41.490  31.116  34.288  1.00  0.00     0.031 A 
ATOM     56  C   UNL A   1      42.695  26.194  29.404  1.00  0.00     0.031 A 
ATOM     57  C   UNL A   1      42.670  30.317  34.493  1.00  0.00     0.049 A 
ATOM     58  C   UNL A   1      43.656  26.451  30.535  1.00  0.00     0.074 A 
ATOM     59  C   UNL A   1      43.574  30.374  35.539  1.00  0.00     0.029 A 
ATOM     60  N   UNL A   1      43.116  29.327  33.631  1.00  0.00    -0.354 N 
ATOM     61  N   UNL A   1      43.545  27.293  31.536  1.00  0.00    -0.248 NA
ATOM     62  C   UNL A   1      44.893  25.659  30.548  1.00  0.00     0.031 C 
ATOM     63  C   UNL A   1      44.605  29.469  35.271  1.00  0.00     0.029 A 
ATOM     64  C   UNL A   1      44.308  28.798  34.095  1.00  0.00     0.049 A 
ATOM     65  H   UNL A   1      42.654  29.044  32.809  1.00  0.00     0.167 HD
ATOM     66  C   UNL A   1      44.689  27.116  32.308  1.00  0.00     0.074 A 
ATOM     67  C   UNL A   1      45.464  26.072  31.672  1.00  0.00     0.031 C 
ATOM     68  C   UNL A   1      45.066  27.762  33.439  1.00  0.00     0.031 A 
BRANCH  55  69
ATOM     69  C   UNL A   1      41.194  32.218  35.270  1.00  0.00    -0.014 A 
ATOM     70  C   UNL A   1      41.760  33.498  35.131  1.00  0.00     0.010 A 
ATOM     71  C   UNL A   1      40.281  31.986  36.315  1.00  0.00     0.010 A 
ATOM     72  C   UNL A   1      41.438  34.516  36.033  1.00  0.00     0.020 A 
ATOM     73  C   UNL A   1      39.934  33.010  37.202  1.00  0.00     0.020 A 
ATOM     74  C   UNL A   1      40.523  34.267  37.061  1.00  0.00     0.054 A 
BRANCH  74  75
ATOM     75  S   UNL A   1      40.086  35.620  38.186  1.00  0.00     0.124 S 
ATOM     76  O   UNL A   1      38.964  35.048  38.926  1.00  0.00    -0.237 OA
ATOM     77  O   UNL A   1      41.315  35.806  38.954  1.00  0.00    -0.237 OA
ATOM     78  O   UNL A   1      39.743  36.722  37.290  1.00  0.00    -0.744 OA
ENDBRANCH  74  75
ENDBRANCH  55  69
BRANCH  56  79
ATOM     79  C   UNL A   1      42.992  25.168  28.365  1.00  0.00    -0.014 A 
ATOM     80  C   UNL A   1      42.570  23.838  28.528  1.00  0.00     0.010 A 
ATOM     81  C   UNL A   1      43.717  25.516  27.210  1.00  0.00     0.010 A 
ATOM     82  C   UNL A   1      42.885  22.871  27.569  1.00  0.00     0.020 A 
ATOM     83  C   UNL A   1      44.006  24.559  26.232  1.00  0.00     0.020 A 
ATOM     84  C   UNL A   1      43.600  23.238  26.425  1.00  0.00     0.054 A 
BRANCH  84  85
ATOM     85  S   UNL A   1      43.970  21.973  25.179  1.00  0.00     0.124 S 
ATOM     86  O   UNL A   1      45.336  21.594  25.526  1.00  0.00    -0.237 OA
ATOM     87  O   UNL A   1      42.946  20.963  25.443  1.00  0.00    -0.237 OA
ATOM     88  O   UNL A   1      43.819  22.685  23.912  1.00  0.00    -0.744 OA
ENDBRANCH  84  85
ENDBRANCH  56  79
BRANCH  68  89
ATOM     89  C   UNL A   1      46.369  27.347  34.071  1.00  0.00    -0.014 A 
ATOM     90  C   UNL A   1      47.567  28.016  33.768  1.00  0.00     0.010 A 
ATOM     91  C   UNL A   1      46.383  26.314  35.027  1.00  0.00     0.010 A 
ATOM     92  C   UNL A   1      48.761  27.643  34.389  1.00  0.00     0.020 A 
ATOM     93  C   UNL A   1      47.568  25.959  35.674  1.00  0.00     0.020 A 
ATOM     94  C   UNL A   1      48.753  26.619  35.342  1.00  0.00     0.054 A 
BRANCH  94  95
ATOM     95  S   UNL A   1      50.308  26.193  36.172  1.00  0.00     0.124 S 
ATOM     96  O   UNL A   1      51.169  27.311  35.800  1.00  0.00    -0.237 OA
ATOM     97  O   UNL A   1      49.915  26.142  37.578  1.00  0.00    -0.237 OA
ATOM     98  O   UNL A   1      50.673  24.904  35.586  1.00  0.00    -0.744 OA
ENDBRANCH  94  95
ENDBRANCH  68  89
ENDBRANCH  42  43
ENDBRANCH  35  37
ENDBRANCH  34  35
ENDBRANCH  33  34
ENDBRANCH  32  33
ENDBRANCH   1  32
TORSDOF 22
ENDMDL
MODEL 2
REMARK VINA RESULT:     -10.5      4.394      6.649
REMARK SMILES Cc1ccnc(C(=O)c2[nH]c3ccc(OC(F)(F)F)cc3c2CC(=O)OCCOCCOC(=O)c2ccc(-c3c4nc(c(-c5ccc(S(=O)(=O)[O-])cc5)c5ccc([nH]5)c(-c5ccc(S(=O)(=O)[O-])cc5)c5nc(c(-c6ccc(S(=O)(=O)[O-])cc6)c6ccc3[nH]6)C=C5)C=C4)cc2)c1
REMARK SMILES IDX 29 1 28 2 27 3 26 4 24 5 25 6 23 7 22 8 9 9 10 10 11 11
REMARK SMILES IDX 21 13 12 14 20 15 13 16 14 17 7 18 8 19 6 20 1 21 2 22 3 23
REMARK SMILES IDX 95 24 4 25 5 26 15 27 16 28 17 29 18 30 19 31 30 32 31 33
REMARK SMILES IDX 32 34 33 35 34 36 35 37 36 38 94 39 37 40 93 41 38 42 39 43
REMARK SMILES IDX 40 44 87 45 41 46 92 47 86 48 88 49 42 50 91 51 85 52 84 53
REMARK SMILES IDX 43 55 73 56 54 57 72 58 55 59 58 60 71 61 89 62 56 63 57 64
REMARK SMILES IDX 70 66 90 67 59 68 44 69 45 70 53 71 46 72 52 73 47 74 48 75
REMARK SMILES IDX 49 76 50 77 51 78 74 79 75 80 83 81 76 82 82 83 77 84 78 85
REMARK SMILES IDX 79 86 80 87 81 88 60 89 61 90 69 91 62 92 68 93 63 94 64 95
REMARK SMILES IDX 65 96 66 97 67 98
REMARK H PARENT 10 12 88 54 58 65
REMARK Flexibility Score: inf
ROOT
ATOM      1  O   UNL A   1      35.275  23.965  25.788  1.00  0.00    -0.374 OA
ENDROOT
BRANCH   1   2
ATOM      2  C   UNL A   1      34.374  23.434  26.759  1.00  0.00     0.202 C 
BRANCH   2   3
ATOM      3  C   UNL A   1      33.012  24.119  26.941  1.00  0.00     0.261 C 
BRANCH   3   4
ATOM      4  O   UNL A   1      32.016  23.273  27.555  1.00  0.00    -0.463 OA
BRANCH   4   5
ATOM      5  C   UNL A   1      30.808  23.249  26.927  1.00  0.00     0.310 C 
ATOM      6  O   UNL A   1      29.874  24.000  27.206  1.00  0.00    -0.252 OA
BRANCH   5   7
ATOM      7  C   UNL A   1      30.630  22.154  25.898  1.00  0.00     0.161 C 
BRANCH   7   8
ATOM      8  C   UNL A   1      31.608  22.047  24.755  1.00  0.00     0.000 A 
ATOM      9  C   UNL A   1      32.652  21.128  24.607  1.00  0.00     0.093 A 
ATOM     10  N   UNL A   1      33.250  21.408  23.394  1.00  0.00    -0.352 N 
ATOM     11  C   UNL A   1      32.845  22.640  22.932  1.00  0.00     0.046 A 
ATOM     12  H   UNL A   1      33.877  20.812  22.926  1.00  0.00     0.167 HD
ATOM     13  C   UNL A   1      31.798  23.050  23.749  1.00  0.00     0.008 A 
ATOM     14  C   UNL A   1      33.324  23.423  21.874  1.00  0.00     0.030 A 
ATOM     15  C   UNL A   1      31.213  24.310  23.507  1.00  0.00     0.057 A 
ATOM     16  C   UNL A   1      32.757  24.696  21.691  1.00  0.00     0.049 A 
ATOM     17  C   UNL A   1      31.725  25.149  22.510  1.00  0.00     0.130 A 
BRANCH   9  18
ATOM     18  C   UNL A   1      33.032  20.072  25.540  1.00  0.00     0.227 C 
ATOM     19  O   UNL A   1      33.225  20.302  26.732  1.00  0.00    -0.285 OA
BRANCH  18  20
ATOM     20  C   UNL A   1      33.284  18.669  25.082  1.00  0.00     0.113 A 
ATOM     21  C   UNL A   1      32.190  15.117  25.802  1.00  0.00     0.044 C 
ATOM     22  C   UNL A   1      32.824  16.316  25.165  1.00  0.00    -0.047 A 
ATOM     23  C   UNL A   1      33.419  16.203  23.904  1.00  0.00     0.023 A 
ATOM     24  C   UNL A   1      32.749  17.579  25.763  1.00  0.00     0.036 A 
ATOM     25  C   UNL A   1      33.947  17.338  23.313  1.00  0.00     0.112 A 
ATOM     26  N   UNL A   1      33.905  18.560  23.878  1.00  0.00    -0.253 NA
ENDBRANCH  18  20
ENDBRANCH   9  18
BRANCH  17  27
ATOM     27  O   UNL A   1      31.128  26.377  22.465  1.00  0.00    -0.406 OA
BRANCH  27  28
ATOM     28  C   UNL A   1      31.714  27.427  23.212  1.00  0.00     0.573 C 
ATOM     29  F   UNL A   1      30.881  27.865  24.184  1.00  0.00    -0.132 F 
ATOM     30  F   UNL A   1      32.880  27.036  23.766  1.00  0.00    -0.132 F 
ATOM     31  F   UNL A   1      31.962  28.466  22.384  1.00  0.00    -0.132 F 
ENDBRANCH  27  28
ENDBRANCH  17  27
ENDBRANCH   7   8
ENDBRANCH   5   7
ENDBRANCH   4   5
ENDBRANCH   3   4
ENDBRANCH   2   3
ENDBRANCH   1   2
BRANCH   1  32
ATOM     32  C   UNL A   1      35.921  23.028  24.931  1.00  0.00     0.202 C 
BRANCH  32  33
ATOM     33  C   UNL A   1      36.935  22.068  25.570  1.00  0.00     0.261 C 
BRANCH  33  34
ATOM     34  O   UNL A   1      38.302  22.411  25.299  1.00  0.00    -0.460 OA
BRANCH  34  35
ATOM     35  C   UNL A   1      39.166  22.093  26.293  1.00  0.00     0.338 C 
ATOM     36  O   UNL A   1      39.536  20.979  26.632  1.00  0.00    -0.246 OA
BRANCH  35  37
ATOM     37  C   UNL A   1      39.757  23.325  26.839  1.00  0.00     0.060 A 
ATOM     38  C   UNL A   1      39.526  24.520  26.145  1.00  0.00     0.016 A 
ATOM     39  C   UNL A   1      40.547  23.307  27.989  1.00  0.00     0.016 A 
ATOM     40  C   UNL A   1      40.101  25.705  26.593  1.00  0.00     0.010 A 
ATOM     41  C   UNL A   1      41.136  24.495  28.428  1.00  0.00     0.010 A 
ATOM     42  C   UNL A   1      40.930  25.693  27.722  1.00  0.00    -0.014 A 
BRANCH  42  43
ATOM     43  C   UNL A   1      41.653  26.923  28.114  1.00  0.00     0.031 A 
ATOM     44  C   UNL A   1      40.875  28.081  28.672  1.00  0.00     0.074 A 
ATOM     45  C   UNL A   1      42.989  26.991  27.975  1.00  0.00     0.049 A 
ATOM     46  N   UNL A   1      41.300  29.261  29.038  1.00  0.00    -0.248 NA
ATOM     47  C   UNL A   1      39.425  27.884  28.841  1.00  0.00     0.031 C 
ATOM     48  C   UNL A   1      43.842  25.908  27.484  1.00  0.00     0.029 A 
ATOM     49  N   UNL A   1      43.862  28.017  28.231  1.00  0.00    -0.354 N 
ATOM     50  C   UNL A   1      40.172  29.952  29.467  1.00  0.00     0.074 A 
ATOM     51  C   UNL A   1      39.041  29.067  29.298  1.00  0.00     0.031 C 
ATOM     52  C   UNL A   1      45.119  26.330  27.472  1.00  0.00     0.029 A 
ATOM     53  C   UNL A   1      45.166  27.722  27.911  1.00  0.00     0.049 A 
ATOM     54  H   UNL A   1      43.582  28.883  28.607  1.00  0.00     0.167 HD
ATOM     55  C   UNL A   1      40.093  31.212  29.955  1.00  0.00     0.031 A 
ATOM     56  C   UNL A   1      46.268  28.498  27.947  1.00  0.00     0.031 A 
ATOM     57  C   UNL A   1      41.229  32.084  30.104  1.00  0.00     0.049 A 
ATOM     58  C   UNL A   1      46.135  29.924  28.415  1.00  0.00     0.074 A 
ATOM     59  C   UNL A   1      41.265  33.369  30.617  1.00  0.00     0.029 A 
ATOM     60  N   UNL A   1      42.526  31.766  29.728  1.00  0.00    -0.354 N 
ATOM     61  N   UNL A   1      45.070  30.549  28.860  1.00  0.00    -0.248 NA
ATOM     62  C   UNL A   1      47.350  30.748  28.385  1.00  0.00     0.031 C 
ATOM     63  C   UNL A   1      42.569  33.853  30.484  1.00  0.00     0.029 A 
ATOM     64  C   UNL A   1      43.361  32.847  29.954  1.00  0.00     0.049 A 
ATOM     65  H   UNL A   1      42.809  30.901  29.355  1.00  0.00     0.167 HD
ATOM     66  C   UNL A   1      45.493  31.834  29.182  1.00  0.00     0.074 A 
ATOM     67  C   UNL A   1      46.914  31.888  28.904  1.00  0.00     0.031 C 
ATOM     68  C   UNL A   1      44.772  32.878  29.662  1.00  0.00     0.031 A 
BRANCH  55  69
ATOM     69  C   UNL A   1      38.733  31.743  30.323  1.00  0.00    -0.014 A 
ATOM     70  C   UNL A   1      38.221  31.612  31.626  1.00  0.00     0.010 A 
ATOM     71  C   UNL A   1      37.981  32.443  29.361  1.00  0.00     0.010 A 
ATOM     72  C   UNL A   1      36.973  32.151  31.954  1.00  0.00     0.020 A 
ATOM     73  C   UNL A   1      36.745  33.007  29.692  1.00  0.00     0.020 A 
ATOM     74  C   UNL A   1      36.243  32.848  30.985  1.00  0.00     0.054 A 
BRANCH  74  75
ATOM     75  S   UNL A   1      34.650  33.577  31.451  1.00  0.00     0.124 S 
ATOM     76  O   UNL A   1      34.095  32.552  32.332  1.00  0.00    -0.237 OA
ATOM     77  O   UNL A   1      35.047  34.820  32.107  1.00  0.00    -0.237 OA
ATOM     78  O   UNL A   1      33.956  33.743  30.177  1.00  0.00    -0.744 OA
ENDBRANCH  74  75
ENDBRANCH  55  69
BRANCH  56  79
ATOM     79  C   UNL A   1      47.582  27.960  27.496  1.00  0.00    -0.014 A 
ATOM     80  C   UNL A   1      48.001  28.110  26.163  1.00  0.00     0.010 A 
ATOM     81  C   UNL A   1      48.418  27.277  28.400  1.00  0.00     0.010 A 
ATOM     82  C   UNL A   1      49.218  27.569  25.736  1.00  0.00     0.020 A 
ATOM     83  C   UNL A   1      49.650  26.763  27.985  1.00  0.00     0.020 A 
ATOM     84  C   UNL A   1      50.036  26.900  26.652  1.00  0.00     0.054 A 
BRANCH  84  85
ATOM     85  S   UNL A   1      51.625  26.235  26.082  1.00  0.00     0.124 S 
ATOM     86  O   UNL A   1      52.573  27.196  26.637  1.00  0.00    -0.237 OA
ATOM     87  O   UNL A   1      51.643  24.904  26.687  1.00  0.00    -0.237 OA
ATOM     88  O   UNL A   1      51.499  26.246  24.626  1.00  0.00    -0.744 OA
ENDBRANCH  84  85
ENDBRANCH  56  79
BRANCH  68  89
ATOM     89  C   UNL A   1      45.511  34.163  29.931  1.00  0.00    -0.014 A 
ATOM     90  C   UNL A   1      45.573  35.180  28.962  1.00  0.00     0.010 A 
ATOM     91  C   UNL A   1      46.096  34.381  31.192  1.00  0.00     0.010 A 
ATOM     92  C   UNL A   1      46.231  36.380  29.240  1.00  0.00     0.020 A 
ATOM     93  C   UNL A   1      46.726  35.592  31.485  1.00  0.00     0.020 A 
ATOM     94  C   UNL A   1      46.799  36.580  30.501  1.00  0.00     0.054 A 
BRANCH  94  95
ATOM     95  S   UNL A   1      47.599  38.170  30.852  1.00  0.00     0.124 S 
ATOM     96  O   UNL A   1      49.014  37.812  30.824  1.00  0.00    -0.237 OA
ATOM     97  O   UNL A   1      47.139  39.009  29.748  1.00  0.00    -0.237 OA
ATOM     98  O   UNL A   1      47.076  38.539  32.167  1.00  0.00    -0.744 OA
ENDBRANCH  94  95
ENDBRANCH  68  89
ENDBRANCH  42  43
ENDBRANCH  35  37
ENDBRANCH  34  35
ENDBRANCH  33  34
ENDBRANCH  32  33
ENDBRANCH   1  32
TORSDOF 22
ENDMDL
MODEL 3
REMARK VINA RESULT:     -10.0      4.090      8.939
REMARK SMILES Cc1ccnc(C(=O)c2[nH]c3ccc(OC(F)(F)F)cc3c2CC(=O)OCCOCCOC(=O)c2ccc(-c3c4nc(c(-c5ccc(S(=O)(=O)[O-])cc5)c5ccc([nH]5)c(-c5ccc(S(=O)(=O)[O-])cc5)c5nc(c(-c6ccc(S(=O)(=O)[O-])cc6)c6ccc3[nH]6)C=C5)C=C4)cc2)c1
REMARK SMILES IDX 29 1 28 2 27 3 26 4 24 5 25 6 23 7 22 8 9 9 10 10 11 11
REMARK SMILES IDX 21 13 12 14 20 15 13 16 14 17 7 18 8 19 6 20 1 21 2 22 3 23
REMARK SMILES IDX 95 24 4 25 5 26 15 27 16 28 17 29 18 30 19 31 30 32 31 33
REMARK SMILES IDX 32 34 33 35 34 36 35 37 36 38 94 39 37 40 93 41 38 42 39 43
REMARK SMILES IDX 40 44 87 45 41 46 92 47 86 48 88 49 42 50 91 51 85 52 84 53
REMARK SMILES IDX 43 55 73 56 54 57 72 58 55 59 58 60 71 61 89 62 56 63 57 64
REMARK SMILES IDX 70 66 90 67 59 68 44 69 45 70 53 71 46 72 52 73 47 74 48 75
REMARK SMILES IDX 49 76 50 77 51 78 74 79 75 80 83 81 76 82 82 83 77 84 78 85
REMARK SMILES IDX 79 86 80 87 81 88 60 89 61 90 69 91 62 92 68 93 63 94 64 95
REMARK SMILES IDX 65 96 66 97 67 98
REMARK H PARENT 10 12 88 54 58 65
REMARK Flexibility Score: inf
ROOT
ATOM      1  O   UNL A   1      35.956  23.862  26.108  1.00  0.00    -0.374 OA
ENDROOT
BRANCH   1   2
ATOM      2  C   UNL A   1      34.969  23.065  26.761  1.00  0.00     0.202 C 
BRANCH   2   3
ATOM      3  C   UNL A   1      33.539  23.613  26.861  1.00  0.00     0.261 C 
BRANCH   3   4
ATOM      4  O   UNL A   1      32.519  22.620  26.610  1.00  0.00    -0.463 OA
BRANCH   4   5
ATOM      5  C   UNL A   1      31.270  23.115  26.392  1.00  0.00     0.310 C 
ATOM      6  O   UNL A   1      30.555  23.588  27.274  1.00  0.00    -0.252 OA
BRANCH   5   7
ATOM      7  C   UNL A   1      30.746  22.963  24.981  1.00  0.00     0.161 C 
BRANCH   7   8
ATOM      8  C   UNL A   1      31.535  23.539  23.832  1.00  0.00     0.000 A 
ATOM      9  C   UNL A   1      32.122  22.848  22.767  1.00  0.00     0.093 A 
ATOM     10  N   UNL A   1      32.712  23.801  21.960  1.00  0.00    -0.352 N 
ATOM     11  C   UNL A   1      32.801  25.003  22.625  1.00  0.00     0.046 A 
ATOM     12  H   UNL A   1      33.026  23.643  21.041  1.00  0.00     0.167 HD
ATOM     13  C   UNL A   1      32.049  24.876  23.786  1.00  0.00     0.008 A 
ATOM     14  C   UNL A   1      33.490  26.179  22.299  1.00  0.00     0.030 A 
ATOM     15  C   UNL A   1      31.996  25.971  24.674  1.00  0.00     0.057 A 
ATOM     16  C   UNL A   1      33.462  27.233  23.228  1.00  0.00     0.049 A 
ATOM     17  C   UNL A   1      32.740  27.128  24.416  1.00  0.00     0.130 A 
BRANCH   9  18
ATOM     18  C   UNL A   1      32.106  21.406  22.539  1.00  0.00     0.227 C 
ATOM     19  O   UNL A   1      31.465  20.905  21.617  1.00  0.00    -0.285 OA
BRANCH  18  20
ATOM     20  C   UNL A   1      32.804  20.456  23.461  1.00  0.00     0.113 A 
ATOM     21  C   UNL A   1      33.155  16.743  24.117  1.00  0.00     0.044 C 
ATOM     22  C   UNL A   1      33.355  18.228  24.162  1.00  0.00    -0.047 A 
ATOM     23  C   UNL A   1      34.450  18.764  24.845  1.00  0.00     0.023 A 
ATOM     24  C   UNL A   1      32.517  19.093  23.448  1.00  0.00     0.036 A 
ATOM     25  C   UNL A   1      34.643  20.135  24.824  1.00  0.00     0.112 A 
ATOM     26  N   UNL A   1      33.839  20.989  24.162  1.00  0.00    -0.253 NA
ENDBRANCH  18  20
ENDBRANCH   9  18
BRANCH  17  27
ATOM     27  O   UNL A   1      32.676  28.057  25.415  1.00  0.00    -0.406 OA
BRANCH  27  28
ATOM     28  C   UNL A   1      33.722  28.081  26.367  1.00  0.00     0.573 C 
ATOM     29  F   UNL A   1      33.247  28.283  27.618  1.00  0.00    -0.132 F 
ATOM     30  F   UNL A   1      34.430  26.933  26.339  1.00  0.00    -0.132 F 
ATOM     31  F   UNL A   1      34.556  29.104  26.074  1.00  0.00    -0.132 F 
ENDBRANCH  27  28
ENDBRANCH  17  27
ENDBRANCH   7   8
ENDBRANCH   5   7
ENDBRANCH   4   5
ENDBRANCH   3   4
ENDBRANCH   2   3
ENDBRANCH   1   2
BRANCH   1  32
ATOM     32  C   UNL A   1      36.516  23.334  24.909  1.00  0.00     0.202 C 
BRANCH  32  33
ATOM     33  C   UNL A   1      37.601  22.257  25.051  1.00  0.00     0.261 C 
BRANCH  33  34
ATOM     34  O   UNL A   1      38.251  22.260  26.331  1.00  0.00    -0.460 OA
BRANCH  34  35
ATOM     35  C   UNL A   1      39.601  22.365  26.272  1.00  0.00     0.338 C 
ATOM     36  O   UNL A   1      40.389  21.583  25.762  1.00  0.00    -0.246 OA
BRANCH  35  37
ATOM     37  C   UNL A   1      40.011  23.681  26.786  1.00  0.00     0.060 A 
ATOM     38  C   UNL A   1      40.422  24.644  25.855  1.00  0.00     0.016 A 
ATOM     39  C   UNL A   1      40.023  23.958  28.154  1.00  0.00     0.016 A 
ATOM     40  C   UNL A   1      40.863  25.888  26.292  1.00  0.00     0.010 A 
ATOM     41  C   UNL A   1      40.482  25.203  28.592  1.00  0.00     0.010 A 
ATOM     42  C   UNL A   1      40.920  26.164  27.664  1.00  0.00    -0.014 A 
BRANCH  42  43
ATOM     43  C   UNL A   1      41.522  27.432  28.133  1.00  0.00     0.031 A 
ATOM     44  C   UNL A   1      43.016  27.582  28.115  1.00  0.00     0.074 A 
ATOM     45  C   UNL A   1      40.732  28.434  28.562  1.00  0.00     0.049 A 
ATOM     46  N   UNL A   1      43.750  28.585  28.519  1.00  0.00    -0.248 NA
ATOM     47  C   UNL A   1      43.788  26.451  27.571  1.00  0.00     0.031 C 
ATOM     48  C   UNL A   1      39.269  28.406  28.579  1.00  0.00     0.029 A 
ATOM     49  N   UNL A   1      41.051  29.668  29.068  1.00  0.00    -0.354 N 
ATOM     50  C   UNL A   1      45.068  28.204  28.290  1.00  0.00     0.074 A 
ATOM     51  C   UNL A   1      45.034  26.870  27.732  1.00  0.00     0.031 C 
ATOM     52  C   UNL A   1      38.816  29.570  29.075  1.00  0.00     0.029 A 
ATOM     53  C   UNL A   1      39.955  30.405  29.449  1.00  0.00     0.049 A 
ATOM     54  H   UNL A   1      41.976  29.994  29.151  1.00  0.00     0.167 HD
ATOM     55  C   UNL A   1      46.201  28.906  28.529  1.00  0.00     0.031 A 
ATOM     56  C   UNL A   1      39.883  31.607  30.054  1.00  0.00     0.031 A 
ATOM     57  C   UNL A   1      46.214  30.229  29.097  1.00  0.00     0.049 A 
ATOM     58  C   UNL A   1      41.163  32.330  30.384  1.00  0.00     0.074 A 
ATOM     59  C   UNL A   1      47.304  31.043  29.352  1.00  0.00     0.029 A 
ATOM     60  N   UNL A   1      45.089  30.925  29.511  1.00  0.00    -0.354 N 
ATOM     61  N   UNL A   1      42.400  31.977  30.122  1.00  0.00    -0.248 NA
ATOM     62  C   UNL A   1      41.038  33.611  31.092  1.00  0.00     0.031 C 
ATOM     63  C   UNL A   1      46.843  32.200  29.986  1.00  0.00     0.029 A 
ATOM     64  C   UNL A   1      45.461  32.139  30.064  1.00  0.00     0.049 A 
ATOM     65  H   UNL A   1      44.163  30.603  29.427  1.00  0.00     0.167 HD
ATOM     66  C   UNL A   1      43.199  33.004  30.615  1.00  0.00     0.074 A 
ATOM     67  C   UNL A   1      42.304  33.999  31.168  1.00  0.00     0.031 C 
ATOM     68  C   UNL A   1      44.551  33.112  30.614  1.00  0.00     0.031 A 
BRANCH  55  69
ATOM     69  C   UNL A   1      47.519  28.248  28.219  1.00  0.00    -0.014 A 
ATOM     70  C   UNL A   1      48.131  28.386  26.961  1.00  0.00     0.010 A 
ATOM     71  C   UNL A   1      48.188  27.532  29.229  1.00  0.00     0.010 A 
ATOM     72  C   UNL A   1      49.376  27.800  26.712  1.00  0.00     0.020 A 
ATOM     73  C   UNL A   1      49.445  26.968  28.993  1.00  0.00     0.020 A 
ATOM     74  C   UNL A   1      50.027  27.096  27.731  1.00  0.00     0.054 A 
BRANCH  74  75
ATOM     75  S   UNL A   1      51.662  26.388  27.393  1.00  0.00     0.124 S 
ATOM     76  O   UNL A   1      51.321  25.034  26.964  1.00  0.00    -0.237 OA
ATOM     77  O   UNL A   1      52.180  27.267  26.348  1.00  0.00    -0.237 OA
ATOM     78  O   UNL A   1      52.353  26.478  28.677  1.00  0.00    -0.744 OA
ENDBRANCH  74  75
ENDBRANCH  55  69
BRANCH  56  79
ATOM     79  C   UNL A   1      38.561  32.188  30.419  1.00  0.00    -0.014 A 
ATOM     80  C   UNL A   1      37.961  31.891  31.654  1.00  0.00     0.010 A 
ATOM     81  C   UNL A   1      37.883  33.034  29.519  1.00  0.00     0.010 A 
ATOM     82  C   UNL A   1      36.702  32.408  31.975  1.00  0.00     0.020 A 
ATOM     83  C   UNL A   1      36.639  33.579  29.849  1.00  0.00     0.020 A 
ATOM     84  C   UNL A   1      36.050  33.250  31.070  1.00  0.00     0.054 A 
BRANCH  84  85
ATOM     85  S   UNL A   1      34.431  33.935  31.522  1.00  0.00     0.124 S 
ATOM     86  O   UNL A   1      34.804  35.157  32.227  1.00  0.00    -0.237 OA
ATOM     87  O   UNL A   1      33.795  34.123  30.220  1.00  0.00    -0.237 OA
ATOM     88  O   UNL A   1      33.836  32.889  32.352  1.00  0.00    -0.744 OA
ENDBRANCH  84  85
ENDBRANCH  56  79
BRANCH  68  89
ATOM     89  C   UNL A   1      45.145  34.358  31.217  1.00  0.00    -0.014 A 
ATOM     90  C   UNL A   1      45.338  35.516  30.445  1.00  0.00     0.010 A 
ATOM     91  C   UNL A   1      45.456  34.389  32.590  1.00  0.00     0.010 A 
ATOM     92  C   UNL A   1      45.857  36.675  31.028  1.00  0.00     0.020 A 
ATOM     93  C   UNL A   1      45.944  35.555  33.183  1.00  0.00     0.020 A 
ATOM     94  C   UNL A   1      46.152  36.688  32.394  1.00  0.00     0.054 A 
BRANCH  94  95
ATOM     95  S   UNL A   1      46.772  38.223  33.134  1.00  0.00     0.124 S 
ATOM     96  O   UNL A   1      45.719  39.174  32.791  1.00  0.00    -0.237 OA
ATOM     97  O   UNL A   1      46.872  37.877  34.550  1.00  0.00    -0.237 OA
ATOM     98  O   UNL A   1      48.052  38.441  32.461  1.00  0.00    -0.744 OA
ENDBRANCH  94  95
ENDBRANCH  68  89
ENDBRANCH  42  43
ENDBRANCH  35  37
ENDBRANCH  34  35
ENDBRANCH  33  34
ENDBRANCH  32  33
ENDBRANCH   1  32
TORSDOF 22
ENDMDL
