MODEL 1
REMARK VINA RESULT:     -10.3      0.000      0.000
REMARK SMILES C[C@@H]1[C@@H](C(=O)OCCOCCOC(=O)c2ccc(-c3c4nc(c(-c5ccc(S(=O)(=O)[O-])cc5)c5ccc([nH]5)c(-c5ccc(S(=O)(=O)[O-])cc5)c5nc(c(-c6ccc(S(=O)(=O)[O-])cc6)c6ccc3[nH]6)C=C5)C=C4)cc2)CCN1C(=O)N1CCC[C@H]2CCC[C@@H]21
REMARK SMILES IDX 10 1 9 2 8 3 7 4 6 5 4 6 5 7 3 8 1 9 2 10 77 11 75 12 76 13
REMARK SMILES IDX 78 14 79 15 80 16 81 17 88 18 82 19 84 20 87 21 83 22 85 23
REMARK SMILES IDX 86 24 11 25 12 26 13 27 14 28 15 29 16 30 74 31 17 32 73 33
REMARK SMILES IDX 18 34 19 35 20 36 67 37 21 38 72 39 66 40 68 41 22 42 71 43
REMARK SMILES IDX 65 44 64 45 23 47 53 48 34 49 52 50 35 51 38 52 51 53 69 54
REMARK SMILES IDX 36 55 37 56 50 58 70 59 39 60 24 61 25 62 33 63 26 64 32 65
REMARK SMILES IDX 27 66 28 67 29 68 30 69 31 70 54 71 55 72 63 73 56 74 62 75
REMARK SMILES IDX 57 76 58 77 59 78 60 79 61 80 40 81 41 82 49 83 42 84 48 85
REMARK SMILES IDX 43 86 44 87 45 88 46 89 47 90
REMARK H PARENT 68 46 38 57
REMARK Flexibility Score: inf
ROOT
ATOM      1  C   UNL A   1      34.094  30.875  28.002  1.00  0.00     0.202 C 
ENDROOT
BRANCH   1   2
ATOM      2  O   UNL A   1      33.318  31.048  26.817  1.00  0.00    -0.374 OA
BRANCH   2   3
ATOM      3  C   UNL A   1      32.032  30.432  26.766  1.00  0.00     0.202 C 
BRANCH   3   4
ATOM      4  C   UNL A   1      31.987  28.902  26.719  1.00  0.00     0.261 C 
BRANCH   4   5
ATOM      5  O   UNL A   1      32.815  28.368  25.673  1.00  0.00    -0.463 OA
BRANCH   5   6
ATOM      6  C   UNL A   1      32.272  28.463  24.427  1.00  0.00     0.311 C 
ATOM      7  O   UNL A   1      32.780  29.074  23.498  1.00  0.00    -0.252 OA
BRANCH   6   8
ATOM      8  C   UNL A   1      31.045  27.574  24.313  1.00  0.00     0.123 C 
ATOM      9  C   UNL A   1      30.350  25.209  24.849  1.00  0.00     0.032 C 
ATOM     10  C   UNL A   1      31.482  26.103  24.337  1.00  0.00     0.098 C 
ATOM     11  N   UNL A   1      31.824  25.844  22.931  1.00  0.00    -0.321 N 
ATOM     12  C   UNL A   1      30.335  27.700  22.970  1.00  0.00     0.039 C 
ATOM     13  C   UNL A   1      31.141  26.787  22.052  1.00  0.00     0.122 C 
BRANCH  11  14
ATOM     14  C   UNL A   1      33.025  25.298  22.483  1.00  0.00     0.320 C 
ATOM     15  O   UNL A   1      33.859  25.960  21.866  1.00  0.00    -0.248 OA
BRANCH  14  16
ATOM     16  N   UNL A   1      33.273  24.003  22.880  1.00  0.00    -0.321 N 
ATOM     17  C   UNL A   1      32.869  22.877  22.050  1.00  0.00     0.121 C 
ATOM     18  C   UNL A   1      34.333  23.682  23.820  1.00  0.00     0.090 C 
ATOM     19  C   UNL A   1      32.401  21.692  22.901  1.00  0.00     0.022 C 
ATOM     20  C   UNL A   1      33.781  22.619  24.777  1.00  0.00     0.012 C 
ATOM     21  C   UNL A   1      34.847  24.737  24.795  1.00  0.00     0.025 C 
ATOM     22  C   UNL A   1      33.401  21.351  24.019  1.00  0.00     0.007 C 
ATOM     23  C   UNL A   1      34.875  22.496  25.824  1.00  0.00     0.006 C 
ATOM     24  C   UNL A   1      35.415  23.925  25.971  1.00  0.00     0.002 C 
ENDBRANCH  14  16
ENDBRANCH  11  14
ENDBRANCH   6   8
ENDBRANCH   5   6
ENDBRANCH   4   5
ENDBRANCH   3   4
ENDBRANCH   2   3
ENDBRANCH   1   2
BRANCH   1  25
ATOM     25  C   UNL A   1      35.242  29.860  27.952  1.00  0.00     0.261 C 
BRANCH  25  26
ATOM     26  O   UNL A   1      36.509  30.454  28.285  1.00  0.00    -0.460 OA
BRANCH  26  27
ATOM     27  C   UNL A   1      37.165  29.845  29.301  1.00  0.00     0.338 C 
ATOM     28  O   UNL A   1      36.722  29.590  30.415  1.00  0.00    -0.246 OA
BRANCH  27  29
ATOM     29  C   UNL A   1      38.467  29.338  28.835  1.00  0.00     0.060 A 
ATOM     30  C   UNL A   1      39.359  28.863  29.807  1.00  0.00     0.016 A 
ATOM     31  C   UNL A   1      38.844  29.392  27.492  1.00  0.00     0.016 A 
ATOM     32  C   UNL A   1      40.651  28.493  29.446  1.00  0.00     0.010 A 
ATOM     33  C   UNL A   1      40.147  29.030  27.134  1.00  0.00     0.010 A 
ATOM     34  C   UNL A   1      41.066  28.616  28.114  1.00  0.00    -0.014 A 
BRANCH  34  35
ATOM     35  C   UNL A   1      42.503  28.460  27.783  1.00  0.00     0.031 A 
ATOM     36  C   UNL A   1      43.434  29.619  28.016  1.00  0.00     0.074 A 
ATOM     37  C   UNL A   1      42.980  27.291  27.319  1.00  0.00     0.049 A 
ATOM     38  N   UNL A   1      44.718  29.707  27.788  1.00  0.00    -0.248 NA
ATOM     39  C   UNL A   1      42.837  30.841  28.580  1.00  0.00     0.031 C 
ATOM     40  C   UNL A   1      42.186  26.083  27.096  1.00  0.00     0.029 A 
ATOM     41  N   UNL A   1      44.252  26.932  26.950  1.00  0.00    -0.354 N 
ATOM     42  C   UNL A   1      45.083  30.993  28.175  1.00  0.00     0.074 A 
ATOM     43  C   UNL A   1      43.879  31.657  28.625  1.00  0.00     0.031 C 
ATOM     44  C   UNL A   1      42.991  25.114  26.623  1.00  0.00     0.029 A 
ATOM     45  C   UNL A   1      44.346  25.644  26.481  1.00  0.00     0.049 A 
ATOM     46  H   UNL A   1      45.023  27.540  27.016  1.00  0.00     0.167 HD
ATOM     47  C   UNL A   1      46.310  31.565  28.162  1.00  0.00     0.031 A 
ATOM     48  C   UNL A   1      45.401  24.974  25.977  1.00  0.00     0.031 A 
ATOM     49  C   UNL A   1      47.504  30.907  27.703  1.00  0.00     0.049 A 
ATOM     50  C   UNL A   1      46.743  25.656  25.906  1.00  0.00     0.074 A 
ATOM     51  C   UNL A   1      48.797  31.399  27.661  1.00  0.00     0.029 A 
ATOM     52  N   UNL A   1      47.550  29.616  27.200  1.00  0.00    -0.354 N 
ATOM     53  N   UNL A   1      47.075  26.865  26.295  1.00  0.00    -0.248 NA
ATOM     54  C   UNL A   1      47.853  24.880  25.336  1.00  0.00     0.031 C 
ATOM     55  C   UNL A   1      49.615  30.424  27.082  1.00  0.00     0.029 A 
ATOM     56  C   UNL A   1      48.844  29.303  26.820  1.00  0.00     0.049 A 
ATOM     57  H   UNL A   1      46.777  29.010  27.123  1.00  0.00     0.167 HD
ATOM     58  C   UNL A   1      48.437  26.983  26.040  1.00  0.00     0.074 A 
ATOM     59  C   UNL A   1      48.869  25.722  25.477  1.00  0.00     0.031 C 
ATOM     60  C   UNL A   1      49.258  28.041  26.257  1.00  0.00     0.031 A 
BRANCH  47  61
ATOM     61  C   UNL A   1      46.415  32.992  28.629  1.00  0.00    -0.014 A 
ATOM     62  C   UNL A   1      46.647  33.303  29.982  1.00  0.00     0.010 A 
ATOM     63  C   UNL A   1      46.312  34.040  27.696  1.00  0.00     0.010 A 
ATOM     64  C   UNL A   1      46.736  34.634  30.396  1.00  0.00     0.020 A 
ATOM     65  C   UNL A   1      46.426  35.372  28.102  1.00  0.00     0.020 A 
ATOM     66  C   UNL A   1      46.621  35.661  29.454  1.00  0.00     0.054 A 
BRANCH  66  67
ATOM     67  S   UNL A   1      46.758  37.380  30.016  1.00  0.00     0.124 S 
ATOM     68  O   UNL A   1      48.202  37.595  29.979  1.00  0.00    -0.237 OA
ATOM     69  O   UNL A   1      45.988  38.109  29.011  1.00  0.00    -0.237 OA
ATOM     70  O   UNL A   1      46.167  37.356  31.352  1.00  0.00    -0.744 OA
ENDBRANCH  66  67
ENDBRANCH  47  61
BRANCH  48  71
ATOM     71  C   UNL A   1      45.229  23.581  25.483  1.00  0.00    -0.014 A 
ATOM     72  C   UNL A   1      44.908  23.329  24.138  1.00  0.00     0.010 A 
ATOM     73  C   UNL A   1      45.389  22.495  26.363  1.00  0.00     0.010 A 
ATOM     74  C   UNL A   1      44.733  22.017  23.685  1.00  0.00     0.020 A 
ATOM     75  C   UNL A   1      45.242  21.182  25.908  1.00  0.00     0.020 A 
ATOM     76  C   UNL A   1      44.904  20.952  24.574  1.00  0.00     0.054 A 
BRANCH  76  77
ATOM     77  S   UNL A   1      44.723  19.256  23.955  1.00  0.00     0.124 S 
ATOM     78  O   UNL A   1      45.984  18.646  24.368  1.00  0.00    -0.237 OA
ATOM     79  O   UNL A   1      43.532  18.789  24.659  1.00  0.00    -0.237 OA
ATOM     80  O   UNL A   1      44.556  19.436  22.514  1.00  0.00    -0.744 OA
ENDBRANCH  76  77
ENDBRANCH  48  71
BRANCH  60  81
ATOM     81  C   UNL A   1      50.715  27.872  25.918  1.00  0.00    -0.014 A 
ATOM     82  C   UNL A   1      51.168  27.936  24.588  1.00  0.00     0.010 A 
ATOM     83  C   UNL A   1      51.652  27.702  26.954  1.00  0.00     0.010 A 
ATOM     84  C   UNL A   1      52.529  27.802  24.299  1.00  0.00     0.020 A 
ATOM     85  C   UNL A   1      53.016  27.595  26.670  1.00  0.00     0.020 A 
ATOM     86  C   UNL A   1      53.445  27.631  25.342  1.00  0.00     0.054 A 
BRANCH  86  87
ATOM     87  S   UNL A   1      55.210  27.502  24.944  1.00  0.00     0.124 S 
ATOM     88  O   UNL A   1      55.348  28.467  23.857  1.00  0.00    -0.237 OA
ATOM     89  O   UNL A   1      55.852  27.875  26.202  1.00  0.00    -0.237 OA
ATOM     90  O   UNL A   1      55.376  26.102  24.558  1.00  0.00    -0.744 OA
ENDBRANCH  86  87
ENDBRANCH  60  81
ENDBRANCH  34  35
ENDBRANCH  27  29
ENDBRANCH  26  27
ENDBRANCH  25  26
ENDBRANCH   1  25
TORSDOF 19
ENDMDL
MODEL 2
REMARK VINA RESULT:     -10.3      6.557     12.231
REMARK SMILES C[C@@H]1[C@@H](C(=O)OCCOCCOC(=O)c2ccc(-c3c4nc(c(-c5ccc(S(=O)(=O)[O-])cc5)c5ccc([nH]5)c(-c5ccc(S(=O)(=O)[O-])cc5)c5nc(c(-c6ccc(S(=O)(=O)[O-])cc6)c6ccc3[nH]6)C=C5)C=C4)cc2)CCN1C(=O)N1CCC[C@H]2CCC[C@@H]21
REMARK SMILES IDX 10 1 9 2 8 3 7 4 6 5 4 6 5 7 3 8 1 9 2 10 77 11 75 12 76 13
REMARK SMILES IDX 78 14 79 15 80 16 81 17 88 18 82 19 84 20 87 21 83 22 85 23
REMARK SMILES IDX 86 24 11 25 12 26 13 27 14 28 15 29 16 30 74 31 17 32 73 33
REMARK SMILES IDX 18 34 19 35 20 36 67 37 21 38 72 39 66 40 68 41 22 42 71 43
REMARK SMILES IDX 65 44 64 45 23 47 53 48 34 49 52 50 35 51 38 52 51 53 69 54
REMARK SMILES IDX 36 55 37 56 50 58 70 59 39 60 24 61 25 62 33 63 26 64 32 65
REMARK SMILES IDX 27 66 28 67 29 68 30 69 31 70 54 71 55 72 63 73 56 74 62 75
REMARK SMILES IDX 57 76 58 77 59 78 60 79 61 80 40 81 41 82 49 83 42 84 48 85
REMARK SMILES IDX 43 86 44 87 45 88 46 89 47 90
REMARK H PARENT 68 46 38 57
REMARK Flexibility Score: inf
ROOT
ATOM      1  C   UNL A   1      42.082  21.826  26.654  1.00  0.00     0.202 C 
ENDROOT
BRANCH   1   2
ATOM      2  O   UNL A   1      41.011  21.018  26.169  1.00  0.00    -0.374 OA
BRANCH   2   3
ATOM      3  C   UNL A   1      39.678  21.423  26.477  1.00  0.00     0.202 C 
BRANCH   3   4
ATOM      4  C   UNL A   1      38.632  21.305  25.365  1.00  0.00     0.261 C 
BRANCH   4   5
ATOM      5  O   UNL A   1      37.321  21.690  25.812  1.00  0.00    -0.463 OA
BRANCH   5   6
ATOM      6  C   UNL A   1      36.393  21.770  24.818  1.00  0.00     0.311 C 
ATOM      7  O   UNL A   1      36.633  22.144  23.680  1.00  0.00    -0.252 OA
BRANCH   6   8
ATOM      8  C   UNL A   1      35.072  21.176  25.277  1.00  0.00     0.123 C 
ATOM      9  C   UNL A   1      32.754  20.761  24.373  1.00  0.00     0.032 C 
ATOM     10  C   UNL A   1      33.937  21.731  24.406  1.00  0.00     0.098 C 
ATOM     11  N   UNL A   1      33.615  23.005  25.066  1.00  0.00    -0.321 N 
ATOM     12  C   UNL A   1      34.672  21.612  26.682  1.00  0.00     0.039 C 
ATOM     13  C   UNL A   1      34.035  22.981  26.463  1.00  0.00     0.122 C 
BRANCH  11  14
ATOM     14  C   UNL A   1      33.547  24.244  24.433  1.00  0.00     0.320 C 
ATOM     15  O   UNL A   1      34.423  24.640  23.665  1.00  0.00    -0.248 OA
BRANCH  14  16
ATOM     16  N   UNL A   1      32.379  24.946  24.628  1.00  0.00    -0.321 N 
ATOM     17  C   UNL A   1      31.092  24.372  24.258  1.00  0.00     0.121 C 
ATOM     18  C   UNL A   1      32.280  26.007  25.614  1.00  0.00     0.090 C 
ATOM     19  C   UNL A   1      30.139  25.439  23.710  1.00  0.00     0.022 C 
ATOM     20  C   UNL A   1      31.471  27.143  24.977  1.00  0.00     0.012 C 
ATOM     21  C   UNL A   1      33.531  26.746  26.081  1.00  0.00     0.025 C 
ATOM     22  C   UNL A   1      30.063  26.674  24.624  1.00  0.00     0.007 C 
ATOM     23  C   UNL A   1      31.590  28.265  25.994  1.00  0.00     0.006 C 
ATOM     24  C   UNL A   1      33.012  28.115  26.551  1.00  0.00     0.002 C 
ENDBRANCH  14  16
ENDBRANCH  11  14
ENDBRANCH   6   8
ENDBRANCH   5   6
ENDBRANCH   4   5
ENDBRANCH   3   4
ENDBRANCH   2   3
ENDBRANCH   1   2
BRANCH   1  25
ATOM     25  C   UNL A   1      42.392  23.120  25.892  1.00  0.00     0.261 C 
BRANCH  25  26
ATOM     26  O   UNL A   1      41.473  24.178  26.218  1.00  0.00    -0.460 OA
BRANCH  26  27
ATOM     27  C   UNL A   1      41.969  25.426  26.046  1.00  0.00     0.338 C 
ATOM     28  O   UNL A   1      42.249  25.966  24.982  1.00  0.00    -0.246 OA
BRANCH  27  29
ATOM     29  C   UNL A   1      41.961  26.158  27.324  1.00  0.00     0.060 A 
ATOM     30  C   UNL A   1      40.930  25.867  28.226  1.00  0.00     0.016 A 
ATOM     31  C   UNL A   1      42.891  27.161  27.607  1.00  0.00     0.016 A 
ATOM     32  C   UNL A   1      40.791  26.615  29.393  1.00  0.00     0.010 A 
ATOM     33  C   UNL A   1      42.742  27.918  28.774  1.00  0.00     0.010 A 
ATOM     34  C   UNL A   1      41.671  27.673  29.651  1.00  0.00    -0.014 A 
BRANCH  34  35
ATOM     35  C   UNL A   1      41.370  28.615  30.756  1.00  0.00     0.031 A 
ATOM     36  C   UNL A   1      42.206  28.562  32.007  1.00  0.00     0.074 A 
ATOM     37  C   UNL A   1      40.392  29.530  30.634  1.00  0.00     0.049 A 
ATOM     38  N   UNL A   1      42.114  29.279  33.095  1.00  0.00    -0.248 NA
ATOM     39  C   UNL A   1      43.292  27.567  32.031  1.00  0.00     0.031 C 
ATOM     40  C   UNL A   1      39.545  29.710  29.455  1.00  0.00     0.029 A 
ATOM     41  N   UNL A   1      39.947  30.481  31.518  1.00  0.00    -0.354 N 
ATOM     42  C   UNL A   1      43.121  28.821  33.937  1.00  0.00     0.074 A 
ATOM     43  C   UNL A   1      43.796  27.746  33.243  1.00  0.00     0.031 C 
ATOM     44  C   UNL A   1      38.677  30.710  29.692  1.00  0.00     0.029 A 
ATOM     45  C   UNL A   1      38.888  31.217  31.047  1.00  0.00     0.049 A 
ATOM     46  H   UNL A   1      40.351  30.622  32.405  1.00  0.00     0.167 HD
ATOM     47  C   UNL A   1      43.459  29.262  35.172  1.00  0.00     0.031 A 
ATOM     48  C   UNL A   1      38.158  32.178  31.647  1.00  0.00     0.031 A 
ATOM     49  C   UNL A   1      42.780  30.324  35.865  1.00  0.00     0.049 A 
ATOM     50  C   UNL A   1      38.507  32.602  33.050  1.00  0.00     0.074 A 
ATOM     51  C   UNL A   1      43.054  30.849  37.116  1.00  0.00     0.029 A 
ATOM     52  N   UNL A   1      41.686  31.018  35.369  1.00  0.00    -0.354 N 
ATOM     53  N   UNL A   1      39.476  32.173  33.824  1.00  0.00    -0.248 NA
ATOM     54  C   UNL A   1      37.668  33.645  33.657  1.00  0.00     0.031 C 
ATOM     55  C   UNL A   1      42.092  31.825  37.398  1.00  0.00     0.029 A 
ATOM     56  C   UNL A   1      41.257  31.949  36.299  1.00  0.00     0.049 A 
ATOM     57  H   UNL A   1      41.276  30.870  34.487  1.00  0.00     0.167 HD
ATOM     58  C   UNL A   1      39.379  32.914  34.998  1.00  0.00     0.074 A 
ATOM     59  C   UNL A   1      38.266  33.824  34.827  1.00  0.00     0.031 C 
ATOM     60  C   UNL A   1      40.145  32.848  36.115  1.00  0.00     0.031 A 
BRANCH  47  61
ATOM     61  C   UNL A   1      44.598  28.566  35.869  1.00  0.00    -0.014 A 
ATOM     62  C   UNL A   1      45.922  29.021  35.736  1.00  0.00     0.010 A 
ATOM     63  C   UNL A   1      44.336  27.458  36.696  1.00  0.00     0.010 A 
ATOM     64  C   UNL A   1      46.967  28.359  36.387  1.00  0.00     0.020 A 
ATOM     65  C   UNL A   1      45.374  26.810  37.370  1.00  0.00     0.020 A 
ATOM     66  C   UNL A   1      46.686  27.255  37.198  1.00  0.00     0.054 A 
BRANCH  66  67
ATOM     67  S   UNL A   1      48.058  26.424  38.046  1.00  0.00     0.124 S 
ATOM     68  O   UNL A   1      49.137  26.554  37.070  1.00  0.00    -0.237 OA
ATOM     69  O   UNL A   1      48.211  27.218  39.262  1.00  0.00    -0.237 OA
ATOM     70  O   UNL A   1      47.565  25.064  38.252  1.00  0.00    -0.744 OA
ENDBRANCH  66  67
ENDBRANCH  47  61
BRANCH  48  71
ATOM     71  C   UNL A   1      37.010  32.797  30.929  1.00  0.00    -0.014 A 
ATOM     72  C   UNL A   1      37.218  33.809  29.977  1.00  0.00     0.010 A 
ATOM     73  C   UNL A   1      35.697  32.370  31.198  1.00  0.00     0.010 A 
ATOM     74  C   UNL A   1      36.132  34.396  29.318  1.00  0.00     0.020 A 
ATOM     75  C   UNL A   1      34.612  32.934  30.522  1.00  0.00     0.020 A 
ATOM     76  C   UNL A   1      34.836  33.952  29.595  1.00  0.00     0.054 A 
BRANCH  76  77
ATOM     77  S   UNL A   1      33.445  34.690  28.692  1.00  0.00     0.124 S 
ATOM     78  O   UNL A   1      32.508  34.989  29.771  1.00  0.00    -0.237 OA
ATOM     79  O   UNL A   1      34.064  35.847  28.051  1.00  0.00    -0.237 OA
ATOM     80  O   UNL A   1      33.031  33.628  27.778  1.00  0.00    -0.744 OA
ENDBRANCH  76  77
ENDBRANCH  48  71
BRANCH  60  81
ATOM     81  C   UNL A   1      39.831  33.809  37.231  1.00  0.00    -0.014 A 
ATOM     82  C   UNL A   1      39.036  33.424  38.325  1.00  0.00     0.010 A 
ATOM     83  C   UNL A   1      40.388  35.100  37.209  1.00  0.00     0.010 A 
ATOM     84  C   UNL A   1      38.780  34.324  39.363  1.00  0.00     0.020 A 
ATOM     85  C   UNL A   1      40.156  35.994  38.258  1.00  0.00     0.020 A 
ATOM     86  C   UNL A   1      39.341  35.605  39.322  1.00  0.00     0.054 A 
BRANCH  86  87
ATOM     87  S   UNL A   1      39.027  36.741  40.701  1.00  0.00     0.124 S 
ATOM     88  O   UNL A   1      38.300  37.823  40.044  1.00  0.00    -0.237 OA
ATOM     89  O   UNL A   1      38.241  35.922  41.621  1.00  0.00    -0.237 OA
ATOM     90  O   UNL A   1      40.366  37.087  41.176  1.00  0.00    -0.744 OA
ENDBRANCH  86  87
ENDBRANCH  60  81
ENDBRANCH  34  35
ENDBRANCH  27  29
ENDBRANCH  26  27
ENDBRANCH  25  26
ENDBRANCH   1  25
TORSDOF 19
ENDMDL
MODEL 3
REMARK VINA RESULT:     -10.2      2.516      7.795
REMARK SMILES C[C@@H]1[C@@H](C(=O)OCCOCCOC(=O)c2ccc(-c3c4nc(c(-c5ccc(S(=O)(=O)[O-])cc5)c5ccc([nH]5)c(-c5ccc(S(=O)(=O)[O-])cc5)c5nc(c(-c6ccc(S(=O)(=O)[O-])cc6)c6ccc3[nH]6)C=C5)C=C4)cc2)CCN1C(=O)N1CCC[C@H]2CCC[C@@H]21
REMARK SMILES IDX 10 1 9 2 8 3 7 4 6 5 4 6 5 7 3 8 1 9 2 10 77 11 75 12 76 13
REMARK SMILES IDX 78 14 79 15 80 16 81 17 88 18 82 19 84 20 87 21 83 22 85 23
REMARK SMILES IDX 86 24 11 25 12 26 13 27 14 28 15 29 16 30 74 31 17 32 73 33
REMARK SMILES IDX 18 34 19 35 20 36 67 37 21 38 72 39 66 40 68 41 22 42 71 43
REMARK SMILES IDX 65 44 64 45 23 47 53 48 34 49 52 50 35 51 38 52 51 53 69 54
REMARK SMILES IDX 36 55 37 56 50 58 70 59 39 60 24 61 25 62 33 63 26 64 32 65
REMARK SMILES IDX 27 66 28 67 29 68 30 69 31 70 54 71 55 72 63 73 56 74 62 75
REMARK SMILES IDX 57 76 58 77 59 78 60 79 61 80 40 81 41 82 49 83 42 84 48 85
REMARK SMILES IDX 43 86 44 87 45 88 46 89 47 90
REMARK H PARENT 68 46 38 57
REMARK Flexibility Score: inf
ROOT
ATOM      1  C   UNL A   1      38.113  21.606  25.820  1.00  0.00     0.202 C 
ENDROOT
BRANCH   1   2
ATOM      2  O   UNL A   1      37.647  21.634  24.471  1.00  0.00    -0.374 OA
BRANCH   2   3
ATOM      3  C   UNL A   1      36.725  22.660  24.106  1.00  0.00     0.202 C 
BRANCH   3   4
ATOM      4  C   UNL A   1      36.294  23.641  25.199  1.00  0.00     0.261 C 
BRANCH   4   5
ATOM      5  O   UNL A   1      34.870  23.635  25.400  1.00  0.00    -0.463 OA
BRANCH   5   6
ATOM      6  C   UNL A   1      34.338  22.394  25.582  1.00  0.00     0.311 C 
ATOM      7  O   UNL A   1      34.570  21.679  26.546  1.00  0.00    -0.252 OA
BRANCH   6   8
ATOM      8  C   UNL A   1      33.298  22.101  24.514  1.00  0.00     0.123 C 
ATOM      9  C   UNL A   1      31.973  23.332  22.756  1.00  0.00     0.032 C 
ATOM     10  C   UNL A   1      32.540  23.392  24.176  1.00  0.00     0.098 C 
ATOM     11  N   UNL A   1      31.495  23.434  25.209  1.00  0.00    -0.321 N 
ATOM     12  C   UNL A   1      32.192  21.168  24.993  1.00  0.00     0.039 C 
ATOM     13  C   UNL A   1      31.236  22.098  25.734  1.00  0.00     0.122 C 
BRANCH  11  14
ATOM     14  C   UNL A   1      31.232  24.518  26.044  1.00  0.00     0.320 C 
ATOM     15  O   UNL A   1      31.400  24.466  27.262  1.00  0.00    -0.248 OA
BRANCH  14  16
ATOM     16  N   UNL A   1      30.889  25.688  25.406  1.00  0.00    -0.321 N 
ATOM     17  C   UNL A   1      29.505  25.963  25.045  1.00  0.00     0.121 C 
ATOM     18  C   UNL A   1      31.713  26.880  25.500  1.00  0.00     0.090 C 
ATOM     19  C   UNL A   1      29.411  26.709  23.709  1.00  0.00     0.022 C 
ATOM     20  C   UNL A   1      31.752  27.515  24.105  1.00  0.00     0.012 C 
ATOM     21  C   UNL A   1      33.199  26.768  25.828  1.00  0.00     0.025 C 
ATOM     22  C   UNL A   1      30.352  27.924  23.656  1.00  0.00     0.007 C 
ATOM     23  C   UNL A   1      32.780  28.622  24.258  1.00  0.00     0.006 C 
ATOM     24  C   UNL A   1      33.820  28.037  25.221  1.00  0.00     0.002 C 
ENDBRANCH  14  16
ENDBRANCH  11  14
ENDBRANCH   6   8
ENDBRANCH   5   6
ENDBRANCH   4   5
ENDBRANCH   3   4
ENDBRANCH   2   3
ENDBRANCH   1   2
BRANCH   1  25
ATOM     25  C   UNL A   1      39.626  21.501  26.043  1.00  0.00     0.261 C 
BRANCH  25  26
ATOM     26  O   UNL A   1      40.016  20.206  26.532  1.00  0.00    -0.460 OA
BRANCH  26  27
ATOM     27  C   UNL A   1      41.291  19.856  26.240  1.00  0.00     0.338 C 
ATOM     28  O   UNL A   1      41.672  18.795  25.762  1.00  0.00    -0.246 OA
BRANCH  27  29
ATOM     29  C   UNL A   1      42.186  21.015  26.400  1.00  0.00     0.060 A 
ATOM     30  C   UNL A   1      42.388  21.499  27.700  1.00  0.00     0.016 A 
ATOM     31  C   UNL A   1      42.758  21.665  25.304  1.00  0.00     0.016 A 
ATOM     32  C   UNL A   1      43.116  22.668  27.903  1.00  0.00     0.010 A 
ATOM     33  C   UNL A   1      43.480  22.845  25.511  1.00  0.00     0.010 A 
ATOM     34  C   UNL A   1      43.629  23.371  26.806  1.00  0.00    -0.014 A 
BRANCH  34  35
ATOM     35  C   UNL A   1      44.182  24.732  27.009  1.00  0.00     0.031 A 
ATOM     36  C   UNL A   1      43.253  25.842  27.424  1.00  0.00     0.074 A 
ATOM     37  C   UNL A   1      45.498  24.969  26.864  1.00  0.00     0.049 A 
ATOM     38  N   UNL A   1      43.517  27.102  27.645  1.00  0.00    -0.248 NA
ATOM     39  C   UNL A   1      41.839  25.479  27.615  1.00  0.00     0.031 C 
ATOM     40  C   UNL A   1      46.503  23.967  26.511  1.00  0.00     0.029 A 
ATOM     41  N   UNL A   1      46.212  26.133  26.996  1.00  0.00    -0.354 N 
ATOM     42  C   UNL A   1      42.305  27.687  27.995  1.00  0.00     0.074 A 
ATOM     43  C   UNL A   1      41.300  26.648  27.930  1.00  0.00     0.031 C 
ATOM     44  C   UNL A   1      47.708  24.563  26.449  1.00  0.00     0.029 A 
ATOM     45  C   UNL A   1      47.552  25.990  26.728  1.00  0.00     0.049 A 
ATOM     46  H   UNL A   1      45.803  26.989  27.259  1.00  0.00     0.167 HD
ATOM     47  C   UNL A   1      42.053  28.970  28.345  1.00  0.00     0.031 A 
ATOM     48  C   UNL A   1      48.538  26.908  26.692  1.00  0.00     0.031 A 
ATOM     49  C   UNL A   1      43.051  30.004  28.398  1.00  0.00     0.049 A 
ATOM     50  C   UNL A   1      48.219  28.345  27.016  1.00  0.00     0.074 A 
ATOM     51  C   UNL A   1      42.896  31.333  28.752  1.00  0.00     0.029 A 
ATOM     52  N   UNL A   1      44.389  29.827  28.081  1.00  0.00    -0.354 N 
ATOM     53  N   UNL A   1      47.071  28.877  27.365  1.00  0.00    -0.248 NA
ATOM     54  C   UNL A   1      49.332  29.303  26.948  1.00  0.00     0.031 C 
ATOM     55  C   UNL A   1      44.131  31.971  28.597  1.00  0.00     0.029 A 
ATOM     56  C   UNL A   1      45.067  31.027  28.205  1.00  0.00     0.049 A 
ATOM     57  H   UNL A   1      44.797  28.974  27.808  1.00  0.00     0.167 HD
ATOM     58  C   UNL A   1      47.331  30.226  27.584  1.00  0.00     0.074 A 
ATOM     59  C   UNL A   1      48.744  30.426  27.340  1.00  0.00     0.031 C 
ATOM     60  C   UNL A   1      46.476  31.211  27.957  1.00  0.00     0.031 A 
BRANCH  47  61
ATOM     61  C   UNL A   1      40.627  29.334  28.665  1.00  0.00    -0.014 A 
ATOM     62  C   UNL A   1      39.633  29.337  27.670  1.00  0.00     0.010 A 
ATOM     63  C   UNL A   1      40.269  29.648  29.989  1.00  0.00     0.010 A 
ATOM     64  C   UNL A   1      38.317  29.683  27.985  1.00  0.00     0.020 A 
ATOM     65  C   UNL A   1      38.948  29.969  30.314  1.00  0.00     0.020 A 
ATOM     66  C   UNL A   1      37.983  30.000  29.305  1.00  0.00     0.054 A 
BRANCH  66  67
ATOM     67  S   UNL A   1      36.263  30.428  29.691  1.00  0.00     0.124 S 
ATOM     68  O   UNL A   1      35.968  29.522  30.798  1.00  0.00    -0.237 OA
ATOM     69  O   UNL A   1      36.356  31.843  30.044  1.00  0.00    -0.237 OA
ATOM     70  O   UNL A   1      35.548  30.145  28.448  1.00  0.00    -0.744 OA
ENDBRANCH  66  67
ENDBRANCH  47  61
BRANCH  48  71
ATOM     71  C   UNL A   1      49.920  26.501  26.319  1.00  0.00    -0.014 A 
ATOM     72  C   UNL A   1      50.795  25.963  27.278  1.00  0.00     0.010 A 
ATOM     73  C   UNL A   1      50.366  26.650  24.993  1.00  0.00     0.010 A 
ATOM     74  C   UNL A   1      52.097  25.597  26.922  1.00  0.00     0.020 A 
ATOM     75  C   UNL A   1      51.657  26.261  24.628  1.00  0.00     0.020 A 
ATOM     76  C   UNL A   1      52.518  25.747  25.598  1.00  0.00     0.054 A 
BRANCH  76  77
ATOM     77  S   UNL A   1      54.194  25.219  25.146  1.00  0.00     0.124 S 
ATOM     78  O   UNL A   1      54.030  23.774  25.006  1.00  0.00    -0.237 OA
ATOM     79  O   UNL A   1      54.432  25.952  23.905  1.00  0.00    -0.237 OA
ATOM     80  O   UNL A   1      55.006  25.651  26.281  1.00  0.00    -0.744 OA
ENDBRANCH  76  77
ENDBRANCH  48  71
BRANCH  60  81
ATOM     81  C   UNL A   1      47.048  32.588  28.160  1.00  0.00    -0.014 A 
ATOM     82  C   UNL A   1      47.652  32.956  29.376  1.00  0.00     0.010 A 
ATOM     83  C   UNL A   1      47.031  33.510  27.098  1.00  0.00     0.010 A 
ATOM     84  C   UNL A   1      48.200  34.232  29.534  1.00  0.00     0.020 A 
ATOM     85  C   UNL A   1      47.602  34.776  27.243  1.00  0.00     0.020 A 
ATOM     86  C   UNL A   1      48.171  35.135  28.467  1.00  0.00     0.054 A 
BRANCH  86  87
ATOM     87  S   UNL A   1      48.926  36.770  28.683  1.00  0.00     0.124 S 
ATOM     88  O   UNL A   1      47.843  37.661  28.278  1.00  0.00    -0.237 OA
ATOM     89  O   UNL A   1      49.255  36.786  30.107  1.00  0.00    -0.237 OA
ATOM     90  O   UNL A   1      50.079  36.741  27.785  1.00  0.00    -0.744 OA
ENDBRANCH  86  87
ENDBRANCH  60  81
ENDBRANCH  34  35
ENDBRANCH  27  29
ENDBRANCH  26  27
ENDBRANCH  25  26
ENDBRANCH   1  25
TORSDOF 19
ENDMDL
