MODEL 1
REMARK VINA RESULT:      -9.2      0.000      0.000
REMARK SMILES O=C(OCCOCCOC(=O)c1ccc(-c2c3nc(c(-c4ccc(S(=O)(=O)[O-])cc4)c4ccc([nH]4)c(-c4ccc(S(=O)(=O)[O-])cc4)c4nc(c(-c5ccc(S(=O)(=O)[O-])cc5)c5ccc2[nH]5)C=C4)C=C3)cc1)C(=O)N1CC[N@@H+]2CCC[C@H]2C1
REMARK SMILES IDX 7 1 6 2 5 3 4 4 3 5 2 6 1 7 72 8 73 9 74 10 75 11 82 12
REMARK SMILES IDX 76 13 81 14 77 15 80 16 78 17 79 19 8 20 9 21 10 22 11 23
REMARK SMILES IDX 12 24 13 25 71 26 14 27 70 28 15 29 16 30 17 31 64 32 18 33
REMARK SMILES IDX 69 34 63 35 65 36 19 37 68 38 62 39 61 40 20 42 50 43 31 44
REMARK SMILES IDX 49 45 32 46 35 47 48 48 66 49 33 50 34 51 47 53 67 54 36 55
REMARK SMILES IDX 21 56 22 57 30 58 23 59 29 60 24 61 25 62 26 63 27 64 28 65
REMARK SMILES IDX 51 66 52 67 60 68 53 69 59 70 54 71 55 72 56 73 57 74 58 75
REMARK SMILES IDX 37 76 38 77 46 78 39 79 45 80 40 81 41 82 42 83 43 84 44 85
REMARK H PARENT 77 18 65 41 35 52
REMARK Flexibility Score: inf
ROOT
ATOM      1  C   UNL A   1      41.161  19.956  26.941  1.00  0.00     0.202 C 
ENDROOT
BRANCH   1   2
ATOM      2  O   UNL A   1      42.395  19.871  26.214  1.00  0.00    -0.374 OA
BRANCH   2   3
ATOM      3  C   UNL A   1      42.792  18.537  25.880  1.00  0.00     0.202 C 
BRANCH   3   4
ATOM      4  C   UNL A   1      44.304  18.457  25.667  1.00  0.00     0.262 C 
BRANCH   4   5
ATOM      5  O   UNL A   1      44.767  19.153  24.502  1.00  0.00    -0.456 OA
BRANCH   5   6
ATOM      6  C   UNL A   1      45.581  20.215  24.705  1.00  0.00     0.397 C 
ATOM      7  O   UNL A   1      46.796  20.134  24.811  1.00  0.00    -0.240 OA
BRANCH   6   8
ATOM      8  C   UNL A   1      44.917  21.523  24.266  1.00  0.00     0.332 C 
ATOM      9  O   UNL A   1      44.531  21.563  23.097  1.00  0.00    -0.261 OA
BRANCH   8  10
ATOM     10  N   UNL A   1      44.744  22.587  25.150  1.00  0.00    -0.321 N 
ATOM     11  C   UNL A   1      43.495  23.221  25.618  1.00  0.00     0.181 C 
ATOM     12  C   UNL A   1      45.952  23.247  25.646  1.00  0.00     0.185 C 
ATOM     13  C   UNL A   1      43.482  24.770  25.396  1.00  0.00     0.284 C 
ATOM     14  C   UNL A   1      45.893  24.699  25.185  1.00  0.00     0.204 C 
ATOM     15  N   UNL A   1      44.749  25.387  25.809  1.00  0.00    -0.330 N 
ATOM     16  C   UNL A   1      47.051  25.583  25.597  1.00  0.00     0.073 C 
ATOM     17  C   UNL A   1      44.928  26.784  25.425  1.00  0.00     0.262 C 
ATOM     18  H   UNL A   1      44.710  25.315  26.825  1.00  0.00     0.348 HD
ATOM     19  C   UNL A   1      46.428  26.983  25.666  1.00  0.00     0.068 C 
ENDBRANCH   8  10
ENDBRANCH   6   8
ENDBRANCH   5   6
ENDBRANCH   4   5
ENDBRANCH   3   4
ENDBRANCH   2   3
ENDBRANCH   1   2
BRANCH   1  20
ATOM     20  C   UNL A   1      40.071  20.695  26.171  1.00  0.00     0.261 C 
BRANCH  20  21
ATOM     21  O   UNL A   1      40.279  22.107  26.252  1.00  0.00    -0.460 OA
BRANCH  21  22
ATOM     22  C   UNL A   1      39.129  22.831  26.256  1.00  0.00     0.338 C 
ATOM     23  O   UNL A   1      38.013  22.441  25.948  1.00  0.00    -0.246 OA
BRANCH  22  24
ATOM     24  C   UNL A   1      39.388  24.153  26.866  1.00  0.00     0.060 A 
ATOM     25  C   UNL A   1      40.005  25.125  26.069  1.00  0.00     0.016 A 
ATOM     26  C   UNL A   1      38.998  24.456  28.176  1.00  0.00     0.016 A 
ATOM     27  C   UNL A   1      40.279  26.385  26.594  1.00  0.00     0.010 A 
ATOM     28  C   UNL A   1      39.267  25.720  28.700  1.00  0.00     0.010 A 
ATOM     29  C   UNL A   1      39.942  26.673  27.922  1.00  0.00    -0.014 A 
BRANCH  29  30
ATOM     30  C   UNL A   1      40.467  27.901  28.555  1.00  0.00     0.031 A 
ATOM     31  C   UNL A   1      41.917  27.931  28.951  1.00  0.00     0.074 A 
ATOM     32  C   UNL A   1      39.676  28.973  28.744  1.00  0.00     0.049 A 
ATOM     33  N   UNL A   1      42.599  28.892  29.514  1.00  0.00    -0.248 NA
ATOM     34  C   UNL A   1      42.701  26.714  28.675  1.00  0.00     0.031 C 
ATOM     35  C   UNL A   1      38.263  29.060  28.381  1.00  0.00     0.029 A 
ATOM     36  N   UNL A   1      39.959  30.195  29.298  1.00  0.00    -0.354 N 
ATOM     37  C   UNL A   1      43.893  28.401  29.650  1.00  0.00     0.074 A 
ATOM     38  C   UNL A   1      43.891  27.044  29.152  1.00  0.00     0.031 C 
ATOM     39  C   UNL A   1      37.798  30.274  28.729  1.00  0.00     0.029 A 
ATOM     40  C   UNL A   1      38.875  31.036  29.357  1.00  0.00     0.049 A 
ATOM     41  H   UNL A   1      40.855  30.446  29.620  1.00  0.00     0.167 HD
ATOM     42  C   UNL A   1      44.990  29.030  30.131  1.00  0.00     0.031 A 
ATOM     43  C   UNL A   1      38.766  32.275  29.876  1.00  0.00     0.031 A 
ATOM     44  C   UNL A   1      44.981  30.370  30.652  1.00  0.00     0.049 A 
ATOM     45  C   UNL A   1      39.988  32.931  30.466  1.00  0.00     0.074 A 
ATOM     46  C   UNL A   1      46.035  31.098  31.174  1.00  0.00     0.029 A 
ATOM     47  N   UNL A   1      43.860  31.183  30.716  1.00  0.00    -0.354 N 
ATOM     48  N   UNL A   1      41.210  32.462  30.564  1.00  0.00    -0.248 NA
ATOM     49  C   UNL A   1      39.819  34.288  31.000  1.00  0.00     0.031 C 
ATOM     50  C   UNL A   1      45.540  32.335  31.600  1.00  0.00     0.029 A 
ATOM     51  C   UNL A   1      44.190  32.399  31.288  1.00  0.00     0.049 A 
ATOM     52  H   UNL A   1      42.961  30.932  30.403  1.00  0.00     0.167 HD
ATOM     53  C   UNL A   1      41.959  33.477  31.153  1.00  0.00     0.074 A 
ATOM     54  C   UNL A   1      41.057  34.591  31.362  1.00  0.00     0.031 C 
ATOM     55  C   UNL A   1      43.272  33.489  31.495  1.00  0.00     0.031 A 
BRANCH  42  56
ATOM     56  C   UNL A   1      46.284  28.264  30.129  1.00  0.00    -0.014 A 
ATOM     57  C   UNL A   1      46.595  27.371  31.171  1.00  0.00     0.010 A 
ATOM     58  C   UNL A   1      47.184  28.410  29.058  1.00  0.00     0.010 A 
ATOM     59  C   UNL A   1      47.794  26.656  31.155  1.00  0.00     0.020 A 
ATOM     60  C   UNL A   1      48.375  27.677  29.027  1.00  0.00     0.020 A 
ATOM     61  C   UNL A   1      48.677  26.813  30.083  1.00  0.00     0.054 A 
BRANCH  61  62
ATOM     62  S   UNL A   1      50.208  25.842  30.070  1.00  0.00     0.124 S 
ATOM     63  O   UNL A   1      51.214  26.869  29.814  1.00  0.00    -0.237 OA
ATOM     64  O   UNL A   1      50.229  25.261  31.410  1.00  0.00    -0.237 OA
ATOM     65  O   UNL A   1      50.002  24.886  28.983  1.00  0.00    -0.744 OA
ENDBRANCH  61  62
ENDBRANCH  42  56
BRANCH  43  66
ATOM     66  C   UNL A   1      37.450  32.972  29.883  1.00  0.00    -0.014 A 
ATOM     67  C   UNL A   1      36.683  33.057  31.059  1.00  0.00     0.010 A 
ATOM     68  C   UNL A   1      36.945  33.534  28.696  1.00  0.00     0.010 A 
ATOM     69  C   UNL A   1      35.423  33.664  31.039  1.00  0.00     0.020 A 
ATOM     70  C   UNL A   1      35.700  34.167  28.679  1.00  0.00     0.020 A 
ATOM     71  C   UNL A   1      34.939  34.214  29.849  1.00  0.00     0.054 A 
BRANCH  71  72
ATOM     72  S   UNL A   1      33.317  35.027  29.852  1.00  0.00     0.124 S 
ATOM     73  O   UNL A   1      33.645  36.362  29.364  1.00  0.00    -0.237 OA
ATOM     74  O   UNL A   1      32.544  34.190  28.937  1.00  0.00    -0.237 OA
ATOM     75  O   UNL A   1      32.902  34.953  31.250  1.00  0.00    -0.744 OA
ENDBRANCH  71  72
ENDBRANCH  43  66
BRANCH  55  76
ATOM     76  C   UNL A   1      43.810  34.757  32.105  1.00  0.00    -0.014 A 
ATOM     77  C   UNL A   1      43.844  34.935  33.500  1.00  0.00     0.010 A 
ATOM     78  C   UNL A   1      44.307  35.773  31.271  1.00  0.00     0.010 A 
ATOM     79  C   UNL A   1      44.315  36.132  34.046  1.00  0.00     0.020 A 
ATOM     80  C   UNL A   1      44.810  36.958  31.815  1.00  0.00     0.020 A 
ATOM     81  C   UNL A   1      44.788  37.139  33.200  1.00  0.00     0.054 A 
BRANCH  81  82
ATOM     82  S   UNL A   1      45.399  38.681  33.931  1.00  0.00     0.124 S 
ATOM     83  O   UNL A   1      46.776  38.721  33.447  1.00  0.00    -0.237 OA
ATOM     84  O   UNL A   1      44.502  39.684  33.362  1.00  0.00    -0.237 OA
ATOM     85  O   UNL A   1      45.249  38.465  35.368  1.00  0.00    -0.744 OA
ENDBRANCH  81  82
ENDBRANCH  55  76
ENDBRANCH  29  30
ENDBRANCH  22  24
ENDBRANCH  21  22
ENDBRANCH  20  21
ENDBRANCH   1  20
TORSDOF 18
ENDMDL
MODEL 2
REMARK VINA RESULT:      -9.2      1.577      2.393
REMARK SMILES O=C(OCCOCCOC(=O)c1ccc(-c2c3nc(c(-c4ccc(S(=O)(=O)[O-])cc4)c4ccc([nH]4)c(-c4ccc(S(=O)(=O)[O-])cc4)c4nc(c(-c5ccc(S(=O)(=O)[O-])cc5)c5ccc2[nH]5)C=C4)C=C3)cc1)C(=O)N1CC[N@@H+]2CCC[C@H]2C1
REMARK SMILES IDX 7 1 6 2 5 3 4 4 3 5 2 6 1 7 72 8 73 9 74 10 75 11 82 12
REMARK SMILES IDX 76 13 81 14 77 15 80 16 78 17 79 19 8 20 9 21 10 22 11 23
REMARK SMILES IDX 12 24 13 25 71 26 14 27 70 28 15 29 16 30 17 31 64 32 18 33
REMARK SMILES IDX 69 34 63 35 65 36 19 37 68 38 62 39 61 40 20 42 50 43 31 44
REMARK SMILES IDX 49 45 32 46 35 47 48 48 66 49 33 50 34 51 47 53 67 54 36 55
REMARK SMILES IDX 21 56 22 57 30 58 23 59 29 60 24 61 25 62 26 63 27 64 28 65
REMARK SMILES IDX 51 66 52 67 60 68 53 69 59 70 54 71 55 72 56 73 57 74 58 75
REMARK SMILES IDX 37 76 38 77 46 78 39 79 45 80 40 81 41 82 42 83 43 84 44 85
REMARK H PARENT 77 18 65 41 35 52
REMARK Flexibility Score: inf
ROOT
ATOM      1  C   UNL A   1      40.933  20.310  27.626  1.00  0.00     0.202 C 
ENDROOT
BRANCH   1   2
ATOM      2  O   UNL A   1      42.142  19.540  27.549  1.00  0.00    -0.374 OA
BRANCH   2   3
ATOM      3  C   UNL A   1      42.333  18.867  26.301  1.00  0.00     0.202 C 
BRANCH   3   4
ATOM      4  C   UNL A   1      43.628  18.053  26.315  1.00  0.00     0.262 C 
BRANCH   4   5
ATOM      5  O   UNL A   1      44.362  18.103  25.086  1.00  0.00    -0.456 OA
BRANCH   5   6
ATOM      6  C   UNL A   1      45.327  19.047  24.985  1.00  0.00     0.397 C 
ATOM      7  O   UNL A   1      46.509  18.844  25.224  1.00  0.00    -0.240 OA
BRANCH   6   8
ATOM      8  C   UNL A   1      44.898  20.194  24.067  1.00  0.00     0.332 C 
ATOM      9  O   UNL A   1      44.527  19.868  22.938  1.00  0.00    -0.261 OA
BRANCH   8  10
ATOM     10  N   UNL A   1      44.906  21.519  24.500  1.00  0.00    -0.321 N 
ATOM     11  C   UNL A   1      45.922  22.569  24.280  1.00  0.00     0.181 C 
ATOM     12  C   UNL A   1      43.807  21.947  25.365  1.00  0.00     0.185 C 
ATOM     13  C   UNL A   1      46.412  23.227  25.611  1.00  0.00     0.284 C 
ATOM     14  C   UNL A   1      44.420  22.375  26.694  1.00  0.00     0.204 C 
ATOM     15  N   UNL A   1      45.289  23.550  26.501  1.00  0.00    -0.330 N 
ATOM     16  C   UNL A   1      43.457  22.869  27.751  1.00  0.00     0.073 C 
ATOM     17  C   UNL A   1      45.649  23.945  27.859  1.00  0.00     0.262 C 
ATOM     18  H   UNL A   1      44.846  24.333  26.023  1.00  0.00     0.348 HD
ATOM     19  C   UNL A   1      44.301  23.844  28.581  1.00  0.00     0.068 C 
ENDBRANCH   8  10
ENDBRANCH   6   8
ENDBRANCH   5   6
ENDBRANCH   4   5
ENDBRANCH   3   4
ENDBRANCH   2   3
ENDBRANCH   1   2
BRANCH   1  20
ATOM     20  C   UNL A   1      40.393  20.703  26.254  1.00  0.00     0.261 C 
BRANCH  20  21
ATOM     21  O   UNL A   1      40.479  22.118  26.075  1.00  0.00    -0.460 OA
BRANCH  21  22
ATOM     22  C   UNL A   1      39.319  22.775  26.337  1.00  0.00     0.338 C 
ATOM     23  O   UNL A   1      38.188  22.316  26.293  1.00  0.00    -0.246 OA
BRANCH  22  24
ATOM     24  C   UNL A   1      39.630  24.121  26.864  1.00  0.00     0.060 A 
ATOM     25  C   UNL A   1      40.089  25.083  25.955  1.00  0.00     0.016 A 
ATOM     26  C   UNL A   1      39.436  24.455  28.209  1.00  0.00     0.016 A 
ATOM     27  C   UNL A   1      40.403  26.365  26.397  1.00  0.00     0.010 A 
ATOM     28  C   UNL A   1      39.746  25.742  28.651  1.00  0.00     0.010 A 
ATOM     29  C   UNL A   1      40.266  26.687  27.752  1.00  0.00    -0.014 A 
BRANCH  29  30
ATOM     30  C   UNL A   1      40.845  27.946  28.264  1.00  0.00     0.031 A 
ATOM     31  C   UNL A   1      42.334  28.130  28.173  1.00  0.00     0.074 A 
ATOM     32  C   UNL A   1      40.059  28.913  28.769  1.00  0.00     0.049 A 
ATOM     33  N   UNL A   1      43.065  29.145  28.549  1.00  0.00    -0.248 NA
ATOM     34  C   UNL A   1      43.100  27.021  27.578  1.00  0.00     0.031 C 
ATOM     35  C   UNL A   1      38.603  28.849  28.887  1.00  0.00     0.029 A 
ATOM     36  N   UNL A   1      40.385  30.142  29.282  1.00  0.00    -0.354 N 
ATOM     37  C   UNL A   1      44.374  28.802  28.228  1.00  0.00     0.074 A 
ATOM     38  C   UNL A   1      44.343  27.470  27.668  1.00  0.00     0.031 C 
ATOM     39  C   UNL A   1      38.161  29.989  29.447  1.00  0.00     0.029 A 
ATOM     40  C   UNL A   1      39.303  30.851  29.744  1.00  0.00     0.049 A 
ATOM     41  H   UNL A   1      41.308  30.484  29.316  1.00  0.00     0.167 HD
ATOM     42  C   UNL A   1      45.500  29.538  28.371  1.00  0.00     0.031 A 
ATOM     43  C   UNL A   1      39.248  32.052  30.352  1.00  0.00     0.031 A 
ATOM     44  C   UNL A   1      45.531  30.851  28.955  1.00  0.00     0.049 A 
ATOM     45  C   UNL A   1      40.526  32.825  30.560  1.00  0.00     0.074 A 
ATOM     46  C   UNL A   1      46.621  31.678  29.158  1.00  0.00     0.029 A 
ATOM     47  N   UNL A   1      44.418  31.527  29.432  1.00  0.00    -0.354 N 
ATOM     48  N   UNL A   1      41.752  32.497  30.227  1.00  0.00    -0.248 NA
ATOM     49  C   UNL A   1      40.407  34.137  31.209  1.00  0.00     0.031 C 
ATOM     50  C   UNL A   1      46.173  32.836  29.803  1.00  0.00     0.029 A 
ATOM     51  C   UNL A   1      44.796  32.754  29.947  1.00  0.00     0.049 A 
ATOM     52  H   UNL A   1      43.496  31.184  29.409  1.00  0.00     0.167 HD
ATOM     53  C   UNL A   1      42.549  33.572  30.610  1.00  0.00     0.074 A 
ATOM     54  C   UNL A   1      41.660  34.569  31.173  1.00  0.00     0.031 C 
ATOM     55  C   UNL A   1      43.894  33.725  30.511  1.00  0.00     0.031 A 
BRANCH  42  56
ATOM     56  C   UNL A   1      46.791  28.925  27.901  1.00  0.00    -0.014 A 
ATOM     57  C   UNL A   1      47.170  28.994  26.548  1.00  0.00     0.010 A 
ATOM     58  C   UNL A   1      47.650  28.304  28.824  1.00  0.00     0.010 A 
ATOM     59  C   UNL A   1      48.376  28.431  26.122  1.00  0.00     0.020 A 
ATOM     60  C   UNL A   1      48.869  27.761  28.405  1.00  0.00     0.020 A 
ATOM     61  C   UNL A   1      49.218  27.818  27.054  1.00  0.00     0.054 A 
BRANCH  61  62
ATOM     62  S   UNL A   1      50.795  27.131  26.479  1.00  0.00     0.124 S 
ATOM     63  O   UNL A   1      50.643  25.716  26.805  1.00  0.00    -0.237 OA
ATOM     64  O   UNL A   1      50.782  27.453  25.054  1.00  0.00    -0.237 OA
ATOM     65  O   UNL A   1      51.793  27.849  27.268  1.00  0.00    -0.744 OA
ENDBRANCH  61  62
ENDBRANCH  42  56
BRANCH  43  66
ATOM     66  C   UNL A   1      37.946  32.592  30.830  1.00  0.00    -0.014 A 
ATOM     67  C   UNL A   1      37.079  33.270  29.955  1.00  0.00     0.010 A 
ATOM     68  C   UNL A   1      37.580  32.451  32.181  1.00  0.00     0.010 A 
ATOM     69  C   UNL A   1      35.885  33.823  30.430  1.00  0.00     0.020 A 
ATOM     70  C   UNL A   1      36.374  32.976  32.653  1.00  0.00     0.020 A 
ATOM     71  C   UNL A   1      35.540  33.673  31.776  1.00  0.00     0.054 A 
BRANCH  71  72
ATOM     72  S   UNL A   1      33.972  34.369  32.365  1.00  0.00     0.124 S 
ATOM     73  O   UNL A   1      33.399  33.246  33.100  1.00  0.00    -0.237 OA
ATOM     74  O   UNL A   1      34.413  35.499  33.178  1.00  0.00    -0.237 OA
ATOM     75  O   UNL A   1      33.277  34.733  31.133  1.00  0.00    -0.744 OA
ENDBRANCH  71  72
ENDBRANCH  43  66
BRANCH  55  76
ATOM     76  C   UNL A   1      44.474  35.026  31.000  1.00  0.00    -0.014 A 
ATOM     77  C   UNL A   1      44.591  36.137  30.146  1.00  0.00     0.010 A 
ATOM     78  C   UNL A   1      44.887  35.143  32.338  1.00  0.00     0.010 A 
ATOM     79  C   UNL A   1      45.162  37.325  30.609  1.00  0.00     0.020 A 
ATOM     80  C   UNL A   1      45.429  36.339  32.815  1.00  0.00     0.020 A 
ATOM     81  C   UNL A   1      45.585  37.416  31.939  1.00  0.00     0.054 A 
BRANCH  81  82
ATOM     82  S   UNL A   1      46.320  38.969  32.519  1.00  0.00     0.124 S 
ATOM     83  O   UNL A   1      45.299  39.944  32.147  1.00  0.00    -0.237 OA
ATOM     84  O   UNL A   1      46.475  38.735  33.953  1.00  0.00    -0.237 OA
ATOM     85  O   UNL A   1      47.571  39.059  31.770  1.00  0.00    -0.744 OA
ENDBRANCH  81  82
ENDBRANCH  55  76
ENDBRANCH  29  30
ENDBRANCH  22  24
ENDBRANCH  21  22
ENDBRANCH  20  21
ENDBRANCH   1  20
TORSDOF 18
ENDMDL
MODEL 3
REMARK VINA RESULT:      -9.0      4.342      5.684
REMARK SMILES O=C(OCCOCCOC(=O)c1ccc(-c2c3nc(c(-c4ccc(S(=O)(=O)[O-])cc4)c4ccc([nH]4)c(-c4ccc(S(=O)(=O)[O-])cc4)c4nc(c(-c5ccc(S(=O)(=O)[O-])cc5)c5ccc2[nH]5)C=C4)C=C3)cc1)C(=O)N1CC[N@@H+]2CCC[C@H]2C1
REMARK SMILES IDX 7 1 6 2 5 3 4 4 3 5 2 6 1 7 72 8 73 9 74 10 75 11 82 12
REMARK SMILES IDX 76 13 81 14 77 15 80 16 78 17 79 19 8 20 9 21 10 22 11 23
REMARK SMILES IDX 12 24 13 25 71 26 14 27 70 28 15 29 16 30 17 31 64 32 18 33
REMARK SMILES IDX 69 34 63 35 65 36 19 37 68 38 62 39 61 40 20 42 50 43 31 44
REMARK SMILES IDX 49 45 32 46 35 47 48 48 66 49 33 50 34 51 47 53 67 54 36 55
REMARK SMILES IDX 21 56 22 57 30 58 23 59 29 60 24 61 25 62 26 63 27 64 28 65
REMARK SMILES IDX 51 66 52 67 60 68 53 69 59 70 54 71 55 72 56 73 57 74 58 75
REMARK SMILES IDX 37 76 38 77 46 78 39 79 45 80 40 81 41 82 42 83 43 84 44 85
REMARK H PARENT 77 18 65 41 35 52
REMARK Flexibility Score: inf
ROOT
ATOM      1  C   UNL A   1      44.365  27.576  25.639  1.00  0.00     0.202 C 
ENDROOT
BRANCH   1   2
ATOM      2  O   UNL A   1      44.502  27.541  27.067  1.00  0.00    -0.374 OA
BRANCH   2   3
ATOM      3  C   UNL A   1      45.499  26.632  27.543  1.00  0.00     0.202 C 
BRANCH   3   4
ATOM      4  C   UNL A   1      44.854  25.373  28.126  1.00  0.00     0.262 C 
BRANCH   4   5
ATOM      5  O   UNL A   1      45.268  24.157  27.488  1.00  0.00    -0.456 OA
BRANCH   5   6
ATOM      6  C   UNL A   1      46.292  24.244  26.608  1.00  0.00     0.397 C 
ATOM      7  O   UNL A   1      47.454  23.985  26.884  1.00  0.00    -0.240 OA
BRANCH   6   8
ATOM      8  C   UNL A   1      45.796  24.178  25.161  1.00  0.00     0.332 C 
ATOM      9  O   UNL A   1      46.375  24.915  24.361  1.00  0.00    -0.261 OA
BRANCH   8  10
ATOM     10  N   UNL A   1      44.769  23.316  24.779  1.00  0.00    -0.321 N 
ATOM     11  C   UNL A   1      43.312  23.449  24.981  1.00  0.00     0.181 C 
ATOM     12  C   UNL A   1      45.156  22.051  24.155  1.00  0.00     0.185 C 
ATOM     13  C   UNL A   1      42.682  22.202  25.685  1.00  0.00     0.284 C 
ATOM     14  C   UNL A   1      44.644  20.931  25.054  1.00  0.00     0.204 C 
ATOM     15  N   UNL A   1      43.171  20.946  25.101  1.00  0.00    -0.330 N 
ATOM     16  C   UNL A   1      44.927  19.517  24.594  1.00  0.00     0.073 C 
ATOM     17  C   UNL A   1      42.832  19.732  25.835  1.00  0.00     0.262 C 
ATOM     18  H   UNL A   1      42.715  20.933  24.190  1.00  0.00     0.348 HD
ATOM     19  C   UNL A   1      43.770  18.706  25.192  1.00  0.00     0.068 C 
ENDBRANCH   8  10
ENDBRANCH   6   8
ENDBRANCH   5   6
ENDBRANCH   4   5
ENDBRANCH   3   4
ENDBRANCH   2   3
ENDBRANCH   1   2
BRANCH   1  20
ATOM     20  C   UNL A   1      43.143  26.809  25.143  1.00  0.00     0.261 C 
BRANCH  20  21
ATOM     21  O   UNL A   1      41.952  27.559  25.396  1.00  0.00    -0.460 OA
BRANCH  21  22
ATOM     22  C   UNL A   1      41.016  26.877  26.106  1.00  0.00     0.338 C 
ATOM     23  O   UNL A   1      40.570  25.767  25.860  1.00  0.00    -0.246 OA
BRANCH  22  24
ATOM     24  C   UNL A   1      40.720  27.614  27.354  1.00  0.00     0.060 A 
ATOM     25  C   UNL A   1      41.161  28.940  27.444  1.00  0.00     0.016 A 
ATOM     26  C   UNL A   1      39.989  27.039  28.399  1.00  0.00     0.016 A 
ATOM     27  C   UNL A   1      40.916  29.678  28.598  1.00  0.00     0.010 A 
ATOM     28  C   UNL A   1      39.738  27.781  29.554  1.00  0.00     0.010 A 
ATOM     29  C   UNL A   1      40.235  29.088  29.670  1.00  0.00    -0.014 A 
BRANCH  29  30
ATOM     30  C   UNL A   1      40.210  29.771  30.980  1.00  0.00     0.031 A 
ATOM     31  C   UNL A   1      41.303  29.458  31.964  1.00  0.00     0.074 A 
ATOM     32  C   UNL A   1      39.252  30.668  31.274  1.00  0.00     0.049 A 
ATOM     33  N   UNL A   1      41.492  29.932  33.166  1.00  0.00    -0.248 NA
ATOM     34  C   UNL A   1      42.318  28.481  31.533  1.00  0.00     0.031 C 
ATOM     35  C   UNL A   1      38.157  31.061  30.388  1.00  0.00     0.029 A 
ATOM     36  N   UNL A   1      39.051  31.409  32.409  1.00  0.00    -0.354 N 
ATOM     37  C   UNL A   1      42.651  29.320  33.631  1.00  0.00     0.074 A 
ATOM     38  C   UNL A   1      43.097  28.408  32.601  1.00  0.00     0.031 C 
ATOM     39  C   UNL A   1      37.391  31.969  31.020  1.00  0.00     0.029 A 
ATOM     40  C   UNL A   1      37.931  32.203  32.357  1.00  0.00     0.049 A 
ATOM     41  H   UNL A   1      39.653  31.377  33.188  1.00  0.00     0.167 HD
ATOM     42  C   UNL A   1      43.296  29.512  34.804  1.00  0.00     0.031 A 
ATOM     43  C   UNL A   1      37.398  33.014  33.293  1.00  0.00     0.031 A 
ATOM     44  C   UNL A   1      42.834  30.398  35.838  1.00  0.00     0.049 A 
ATOM     45  C   UNL A   1      38.100  33.161  34.619  1.00  0.00     0.074 A 
ATOM     46  C   UNL A   1      43.407  30.658  37.070  1.00  0.00     0.029 A 
ATOM     47  N   UNL A   1      41.684  31.169  35.758  1.00  0.00    -0.354 N 
ATOM     48  N   UNL A   1      39.209  32.594  35.032  1.00  0.00    -0.248 NA
ATOM     49  C   UNL A   1      37.488  34.071  35.595  1.00  0.00     0.031 C 
ATOM     50  C   UNL A   1      42.575  31.550  37.756  1.00  0.00     0.029 A 
ATOM     51  C   UNL A   1      41.517  31.891  36.926  1.00  0.00     0.049 A 
ATOM     52  H   UNL A   1      41.075  31.197  34.985  1.00  0.00     0.167 HD
ATOM     53  C   UNL A   1      39.436  33.095  36.311  1.00  0.00     0.074 A 
ATOM     54  C   UNL A   1      38.365  34.030  36.587  1.00  0.00     0.031 C 
ATOM     55  C   UNL A   1      40.437  32.808  37.182  1.00  0.00     0.031 A 
BRANCH  42  56
ATOM     56  C   UNL A   1      44.562  28.734  35.033  1.00  0.00    -0.014 A 
ATOM     57  C   UNL A   1      44.533  27.482  35.675  1.00  0.00     0.010 A 
ATOM     58  C   UNL A   1      45.791  29.240  34.572  1.00  0.00     0.010 A 
ATOM     59  C   UNL A   1      45.713  26.762  35.873  1.00  0.00     0.020 A 
ATOM     60  C   UNL A   1      46.970  28.510  34.748  1.00  0.00     0.020 A 
ATOM     61  C   UNL A   1      46.925  27.280  35.408  1.00  0.00     0.054 A 
BRANCH  61  62
ATOM     62  S   UNL A   1      48.434  26.304  35.646  1.00  0.00     0.124 S 
ATOM     63  O   UNL A   1      48.251  25.792  37.001  1.00  0.00    -0.237 OA
ATOM     64  O   UNL A   1      48.342  25.309  34.580  1.00  0.00    -0.237 OA
ATOM     65  O   UNL A   1      49.508  27.283  35.489  1.00  0.00    -0.744 OA
ENDBRANCH  61  62
ENDBRANCH  42  56
BRANCH  43  66
ATOM     66  C   UNL A   1      36.122  33.732  33.024  1.00  0.00    -0.014 A 
ATOM     67  C   UNL A   1      36.118  34.999  32.415  1.00  0.00     0.010 A 
ATOM     68  C   UNL A   1      34.897  33.154  33.405  1.00  0.00     0.010 A 
ATOM     69  C   UNL A   1      34.917  35.688  32.221  1.00  0.00     0.020 A 
ATOM     70  C   UNL A   1      33.691  33.826  33.186  1.00  0.00     0.020 A 
ATOM     71  C   UNL A   1      33.711  35.097  32.608  1.00  0.00     0.054 A 
BRANCH  71  72
ATOM     72  S   UNL A   1      32.160  35.992  32.317  1.00  0.00     0.124 S 
ATOM     73  O   UNL A   1      32.287  36.371  30.914  1.00  0.00    -0.237 OA
ATOM     74  O   UNL A   1      31.151  34.977  32.611  1.00  0.00    -0.237 OA
ATOM     75  O   UNL A   1      32.218  37.094  33.274  1.00  0.00    -0.744 OA
ENDBRANCH  71  72
ENDBRANCH  43  66
BRANCH  55  76
ATOM     76  C   UNL A   1      40.426  33.534  38.501  1.00  0.00    -0.014 A 
ATOM     77  C   UNL A   1      39.773  32.996  39.624  1.00  0.00     0.010 A 
ATOM     78  C   UNL A   1      41.099  34.763  38.623  1.00  0.00     0.010 A 
ATOM     79  C   UNL A   1      39.746  33.701  40.830  1.00  0.00     0.020 A 
ATOM     80  C   UNL A   1      41.102  35.456  39.836  1.00  0.00     0.020 A 
ATOM     81  C   UNL A   1      40.404  34.930  40.926  1.00  0.00     0.054 A 
BRANCH  81  82
ATOM     82  S   UNL A   1      40.359  35.826  42.502  1.00  0.00     0.124 S 
ATOM     83  O   UNL A   1      39.020  36.406  42.482  1.00  0.00    -0.237 OA
ATOM     84  O   UNL A   1      40.570  34.762  43.482  1.00  0.00    -0.237 OA
ATOM     85  O   UNL A   1      41.456  36.783  42.386  1.00  0.00    -0.744 OA
ENDBRANCH  81  82
ENDBRANCH  55  76
ENDBRANCH  29  30
ENDBRANCH  22  24
ENDBRANCH  21  22
ENDBRANCH  20  21
ENDBRANCH   1  20
TORSDOF 18
ENDMDL
