MODEL 1
REMARK VINA RESULT:     -10.8      0.000      0.000
REMARK SMILES Cc1oc(C)c(S(=O)(=O)Nn2c(C)ccc2C)c1C(=O)OCCOCCOC(=O)c1ccc(-c2c3nc(c(-c4ccc(S(=O)(=O)[O-])cc4)c4ccc([nH]4)c(-c4ccc(S(=O)(=O)[O-])cc4)c4nc(c(-c5ccc(S(=O)(=O)[O-])cc5)c5ccc2[nH]5)C=C4)C=C3)cc1
REMARK SMILES IDX 24 1 23 2 22 3 21 4 19 5 20 6 18 7 1 8 2 9 3 10 4 11 6 12
REMARK SMILES IDX 5 13 7 14 8 15 9 16 10 17 11 19 12 20 16 21 13 22 14 23
REMARK SMILES IDX 15 24 17 25 25 26 26 27 27 28 28 29 29 30 30 31 31 32 89 33
REMARK SMILES IDX 32 34 88 35 33 36 34 37 35 38 82 39 36 40 87 41 81 42 83 43
REMARK SMILES IDX 37 44 86 45 80 46 79 47 38 49 68 50 49 51 67 52 50 53 53 54
REMARK SMILES IDX 66 55 84 56 51 57 52 58 65 60 85 61 54 62 39 63 40 64 48 65
REMARK SMILES IDX 41 66 47 67 42 68 43 69 44 70 45 71 46 72 69 73 70 74 78 75
REMARK SMILES IDX 71 76 77 77 72 78 73 79 74 80 75 81 76 82 55 83 56 84 64 85
REMARK SMILES IDX 57 86 63 87 58 88 59 89 60 90 61 91 62 92
REMARK H PARENT 10 18 83 48 53 59
REMARK Flexibility Score: inf
ROOT
ATOM      1  O   UNL A   1      32.329  31.158  27.013  1.00  0.00    -0.374 OA
ENDROOT
BRANCH   1   2
ATOM      2  C   UNL A   1      32.302  29.774  26.660  1.00  0.00     0.202 C 
BRANCH   2   3
ATOM      3  C   UNL A   1      31.353  28.832  27.462  1.00  0.00     0.261 C 
BRANCH   3   4
ATOM      4  O   UNL A   1      31.695  27.433  27.357  1.00  0.00    -0.460 OA
BRANCH   4   5
ATOM      5  C   UNL A   1      31.526  26.799  26.140  1.00  0.00     0.343 C 
ATOM      6  O   UNL A   1      30.591  26.962  25.385  1.00  0.00    -0.246 OA
BRANCH   5   7
ATOM      7  C   UNL A   1      32.600  25.834  25.897  1.00  0.00     0.122 A 
ATOM      8  C   UNL A   1      34.361  27.524  24.860  1.00  0.00     0.088 C 
ATOM      9  C   UNL A   1      33.799  26.230  25.313  1.00  0.00     0.117 A 
ATOM     10  O   UNL A   1      34.641  25.183  25.170  1.00  0.00    -0.464 OA
ATOM     11  C   UNL A   1      34.019  24.085  25.660  1.00  0.00     0.122 A 
ATOM     12  C   UNL A   1      32.763  24.419  26.155  1.00  0.00     0.145 A 
ATOM     13  C   UNL A   1      34.816  22.841  25.551  1.00  0.00     0.089 C 
BRANCH  12  14
ATOM     14  S   UNL A   1      31.789  23.199  26.890  1.00  0.00     0.279 S 
ATOM     15  O   UNL A   1      32.641  22.630  27.916  1.00  0.00    -0.200 OA
ATOM     16  O   UNL A   1      30.603  23.929  27.289  1.00  0.00    -0.200 OA
BRANCH  14  17
ATOM     17  N   UNL A   1      31.274  21.881  26.048  1.00  0.00    -0.216 N 
ATOM     18  H   UNL A   1      30.620  21.288  26.483  1.00  0.00     0.202 HD
BRANCH  17  19
ATOM     19  N   UNL A   1      31.694  21.552  24.780  1.00  0.00    -0.256 N 
ATOM     20  C   UNL A   1      31.539  22.225  23.597  1.00  0.00     0.038 A 
ATOM     21  C   UNL A   1      32.433  20.410  24.597  1.00  0.00     0.038 A 
ATOM     22  C   UNL A   1      30.988  23.591  23.377  1.00  0.00     0.067 C 
ATOM     23  C   UNL A   1      31.986  21.347  22.624  1.00  0.00     0.025 A 
ATOM     24  C   UNL A   1      32.468  20.179  23.242  1.00  0.00     0.025 A 
ATOM     25  C   UNL A   1      32.973  19.561  25.690  1.00  0.00     0.067 C 
ENDBRANCH  17  19
ENDBRANCH  14  17
ENDBRANCH  12  14
ENDBRANCH   5   7
ENDBRANCH   4   5
ENDBRANCH   3   4
ENDBRANCH   2   3
ENDBRANCH   1   2
BRANCH   1  26
ATOM     26  C   UNL A   1      33.607  31.710  27.357  1.00  0.00     0.202 C 
BRANCH  26  27
ATOM     27  C   UNL A   1      33.628  33.111  28.026  1.00  0.00     0.261 C 
BRANCH  27  28
ATOM     28  O   UNL A   1      34.936  33.732  28.291  1.00  0.00    -0.460 OA
BRANCH  28  29
ATOM     29  C   UNL A   1      35.494  33.405  29.494  1.00  0.00     0.338 C 
ATOM     30  O   UNL A   1      34.995  33.797  30.548  1.00  0.00    -0.246 OA
BRANCH  29  31
ATOM     31  C   UNL A   1      36.714  32.454  29.514  1.00  0.00     0.060 A 
ATOM     32  C   UNL A   1      36.633  31.438  28.596  1.00  0.00     0.016 A 
ATOM     33  C   UNL A   1      37.885  32.356  30.303  1.00  0.00     0.016 A 
ATOM     34  C   UNL A   1      37.648  30.436  28.477  1.00  0.00     0.010 A 
ATOM     35  C   UNL A   1      38.928  31.238  30.179  1.00  0.00     0.010 A 
ATOM     36  C   UNL A   1      38.852  30.189  29.240  1.00  0.00    -0.014 A 
BRANCH  36  37
ATOM     37  C   UNL A   1      39.764  28.760  28.861  1.00  0.00     0.031 A 
ATOM     38  C   UNL A   1      40.275  28.337  30.187  1.00  0.00     0.074 A 
ATOM     39  C   UNL A   1      40.443  27.929  27.917  1.00  0.00     0.049 A 
ATOM     40  N   UNL A   1      41.261  29.055  30.605  1.00  0.00    -0.248 NA
ATOM     41  C   UNL A   1      39.567  27.598  31.236  1.00  0.00     0.031 C 
ATOM     42  C   UNL A   1      40.591  28.058  26.453  1.00  0.00     0.029 A 
ATOM     43  N   UNL A   1      41.295  26.737  28.092  1.00  0.00    -0.354 N 
ATOM     44  C   UNL A   1      41.241  29.031  31.971  1.00  0.00     0.074 A 
ATOM     45  C   UNL A   1      40.235  28.029  32.325  1.00  0.00     0.031 C 
ATOM     46  C   UNL A   1      41.267  27.001  25.885  1.00  0.00     0.029 A 
ATOM     47  C   UNL A   1      41.759  26.038  26.884  1.00  0.00     0.049 A 
ATOM     48  H   UNL A   1      41.546  26.418  28.990  1.00  0.00     0.167 HD
ATOM     49  C   UNL A   1      42.360  29.494  32.580  1.00  0.00     0.031 A 
ATOM     50  C   UNL A   1      42.582  24.889  26.706  1.00  0.00     0.031 A 
ATOM     51  C   UNL A   1      43.314  28.409  32.508  1.00  0.00     0.049 A 
ATOM     52  C   UNL A   1      43.601  25.038  27.756  1.00  0.00     0.074 A 
ATOM     53  C   UNL A   1      43.119  27.061  32.768  1.00  0.00     0.029 A 
ATOM     54  N   UNL A   1      44.290  28.501  31.528  1.00  0.00    -0.354 N 
ATOM     55  N   UNL A   1      44.542  25.929  27.672  1.00  0.00    -0.248 NA
ATOM     56  C   UNL A   1      43.717  24.099  28.866  1.00  0.00     0.031 C 
ATOM     57  C   UNL A   1      43.512  26.438  31.566  1.00  0.00     0.029 A 
ATOM     58  C   UNL A   1      44.337  27.299  30.848  1.00  0.00     0.049 A 
ATOM     59  H   UNL A   1      44.853  29.287  31.346  1.00  0.00     0.167 HD
ATOM     60  C   UNL A   1      44.977  26.014  28.960  1.00  0.00     0.074 A 
ATOM     61  C   UNL A   1      44.676  24.722  29.554  1.00  0.00     0.031 C 
ATOM     62  C   UNL A   1      44.949  27.239  29.544  1.00  0.00     0.031 A 
BRANCH  49  63
ATOM     63  C   UNL A   1      42.720  30.928  32.158  1.00  0.00    -0.014 A 
ATOM     64  C   UNL A   1      43.413  31.747  33.058  1.00  0.00     0.010 A 
ATOM     65  C   UNL A   1      42.338  31.511  30.920  1.00  0.00     0.010 A 
ATOM     66  C   UNL A   1      43.684  33.092  32.743  1.00  0.00     0.020 A 
ATOM     67  C   UNL A   1      42.571  32.856  30.612  1.00  0.00     0.020 A 
ATOM     68  C   UNL A   1      43.254  33.640  31.528  1.00  0.00     0.054 A 
BRANCH  68  69
ATOM     69  S   UNL A   1      43.577  35.391  31.179  1.00  0.00     0.124 S 
ATOM     70  O   UNL A   1      42.818  35.612  29.948  1.00  0.00    -0.237 OA
ATOM     71  O   UNL A   1      43.031  36.044  32.365  1.00  0.00    -0.237 OA
ATOM     72  O   UNL A   1      45.026  35.461  31.014  1.00  0.00    -0.744 OA
ENDBRANCH  68  69
ENDBRANCH  49  63
BRANCH  50  73
ATOM     73  C   UNL A   1      43.146  23.692  25.761  1.00  0.00    -0.014 A 
ATOM     74  C   UNL A   1      44.463  23.768  25.153  1.00  0.00     0.010 A 
ATOM     75  C   UNL A   1      42.687  22.361  25.861  1.00  0.00     0.010 A 
ATOM     76  C   UNL A   1      45.279  22.640  24.801  1.00  0.00     0.020 A 
ATOM     77  C   UNL A   1      43.490  21.218  25.482  1.00  0.00     0.020 A 
ATOM     78  C   UNL A   1      44.796  21.357  24.996  1.00  0.00     0.054 A 
BRANCH  78  79
ATOM     79  S   UNL A   1      45.913  19.901  24.750  1.00  0.00     0.124 S 
ATOM     80  O   UNL A   1      45.269  19.162  23.669  1.00  0.00    -0.237 OA
ATOM     81  O   UNL A   1      47.192  20.522  24.406  1.00  0.00    -0.237 OA
ATOM     82  O   UNL A   1      45.896  19.230  26.049  1.00  0.00    -0.744 OA
ENDBRANCH  78  79
ENDBRANCH  50  73
BRANCH  62  83
ATOM     83  C   UNL A   1      45.329  28.437  28.689  1.00  0.00    -0.014 A 
ATOM     84  C   UNL A   1      46.645  28.932  28.536  1.00  0.00     0.010 A 
ATOM     85  C   UNL A   1      44.299  29.158  28.063  1.00  0.00     0.010 A 
ATOM     86  C   UNL A   1      46.913  30.131  27.857  1.00  0.00     0.020 A 
ATOM     87  C   UNL A   1      44.561  30.337  27.346  1.00  0.00     0.020 A 
ATOM     88  C   UNL A   1      45.862  30.837  27.279  1.00  0.00     0.054 A 
BRANCH  88  89
ATOM     89  S   UNL A   1      46.207  32.424  26.467  1.00  0.00     0.124 S 
ATOM     90  O   UNL A   1      45.862  33.386  27.513  1.00  0.00    -0.237 OA
ATOM     91  O   UNL A   1      47.631  32.333  26.157  1.00  0.00    -0.237 OA
ATOM     92  O   UNL A   1      45.308  32.427  25.316  1.00  0.00    -0.744 OA
ENDBRANCH  88  89
ENDBRANCH  62  83
ENDBRANCH  36  37
ENDBRANCH  29  31
ENDBRANCH  28  29
ENDBRANCH  27  28
ENDBRANCH  26  27
ENDBRANCH   1  26
TORSDOF 20
ENDMDL
MODEL 2
REMARK VINA RESULT:     -10.2      7.287     13.166
REMARK SMILES Cc1oc(C)c(S(=O)(=O)Nn2c(C)ccc2C)c1C(=O)OCCOCCOC(=O)c1ccc(-c2c3nc(c(-c4ccc(S(=O)(=O)[O-])cc4)c4ccc([nH]4)c(-c4ccc(S(=O)(=O)[O-])cc4)c4nc(c(-c5ccc(S(=O)(=O)[O-])cc5)c5ccc2[nH]5)C=C4)C=C3)cc1
REMARK SMILES IDX 24 1 23 2 22 3 21 4 19 5 20 6 18 7 1 8 2 9 3 10 4 11 6 12
REMARK SMILES IDX 5 13 7 14 8 15 9 16 10 17 11 19 12 20 16 21 13 22 14 23
REMARK SMILES IDX 15 24 17 25 25 26 26 27 27 28 28 29 29 30 30 31 31 32 89 33
REMARK SMILES IDX 32 34 88 35 33 36 34 37 35 38 82 39 36 40 87 41 81 42 83 43
REMARK SMILES IDX 37 44 86 45 80 46 79 47 38 49 68 50 49 51 67 52 50 53 53 54
REMARK SMILES IDX 66 55 84 56 51 57 52 58 65 60 85 61 54 62 39 63 40 64 48 65
REMARK SMILES IDX 41 66 47 67 42 68 43 69 44 70 45 71 46 72 69 73 70 74 78 75
REMARK SMILES IDX 71 76 77 77 72 78 73 79 74 80 75 81 76 82 55 83 56 84 64 85
REMARK SMILES IDX 57 86 63 87 58 88 59 89 60 90 61 91 62 92
REMARK H PARENT 10 18 83 48 53 59
REMARK Flexibility Score: inf
ROOT
ATOM      1  O   UNL A   1      42.028  41.337  29.956  1.00  0.00    -0.374 OA
ENDROOT
BRANCH   1   2
ATOM      2  C   UNL A   1      42.715  40.540  28.990  1.00  0.00     0.202 C 
BRANCH   2   3
ATOM      3  C   UNL A   1      41.934  40.098  27.715  1.00  0.00     0.261 C 
BRANCH   3   4
ATOM      4  O   UNL A   1      42.150  40.955  26.573  1.00  0.00    -0.460 OA
BRANCH   4   5
ATOM      5  C   UNL A   1      43.363  40.886  25.913  1.00  0.00     0.343 C 
ATOM      6  O   UNL A   1      44.029  39.882  25.767  1.00  0.00    -0.246 OA
BRANCH   5   7
ATOM      7  C   UNL A   1      43.791  42.210  25.460  1.00  0.00     0.122 A 
ATOM      8  C   UNL A   1      45.343  42.802  27.527  1.00  0.00     0.088 C 
ATOM      9  C   UNL A   1      44.641  42.992  26.236  1.00  0.00     0.117 A 
ATOM     10  O   UNL A   1      44.897  44.176  25.637  1.00  0.00    -0.464 OA
ATOM     11  C   UNL A   1      44.231  44.194  24.459  1.00  0.00     0.122 A 
ATOM     12  C   UNL A   1      43.549  42.997  24.269  1.00  0.00     0.145 A 
ATOM     13  C   UNL A   1      44.398  45.450  23.690  1.00  0.00     0.089 C 
BRANCH  12  14
ATOM     14  S   UNL A   1      42.665  42.747  22.808  1.00  0.00     0.279 S 
ATOM     15  O   UNL A   1      41.906  41.535  23.050  1.00  0.00    -0.200 OA
ATOM     16  O   UNL A   1      41.954  43.998  22.642  1.00  0.00    -0.200 OA
BRANCH  14  17
ATOM     17  N   UNL A   1      43.426  42.441  21.381  1.00  0.00    -0.216 N 
ATOM     18  H   UNL A   1      43.553  41.499  21.123  1.00  0.00     0.202 HD
BRANCH  17  19
ATOM     19  N   UNL A   1      43.896  43.409  20.523  1.00  0.00    -0.256 N 
ATOM     20  C   UNL A   1      45.134  43.989  20.441  1.00  0.00     0.038 A 
ATOM     21  C   UNL A   1      43.070  43.882  19.534  1.00  0.00     0.038 A 
ATOM     22  C   UNL A   1      46.376  43.623  21.179  1.00  0.00     0.067 C 
ATOM     23  C   UNL A   1      44.986  45.022  19.532  1.00  0.00     0.025 A 
ATOM     24  C   UNL A   1      43.674  45.008  19.026  1.00  0.00     0.025 A 
ATOM     25  C   UNL A   1      41.740  43.317  19.194  1.00  0.00     0.067 C 
ENDBRANCH  17  19
ENDBRANCH  14  17
ENDBRANCH  12  14
ENDBRANCH   5   7
ENDBRANCH   4   5
ENDBRANCH   3   4
ENDBRANCH   2   3
ENDBRANCH   1   2
BRANCH   1  26
ATOM     26  C   UNL A   1      42.360  41.110  31.332  1.00  0.00     0.202 C 
BRANCH  26  27
ATOM     27  C   UNL A   1      43.843  41.296  31.753  1.00  0.00     0.261 C 
BRANCH  27  28
ATOM     28  O   UNL A   1      44.608  40.100  32.144  1.00  0.00    -0.460 OA
BRANCH  28  29
ATOM     29  C   UNL A   1      44.008  39.318  33.089  1.00  0.00     0.338 C 
ATOM     30  O   UNL A   1      43.666  39.789  34.172  1.00  0.00    -0.246 OA
BRANCH  29  31
ATOM     31  C   UNL A   1      43.683  37.846  32.740  1.00  0.00     0.060 A 
ATOM     32  C   UNL A   1      44.055  37.489  31.469  1.00  0.00     0.016 A 
ATOM     33  C   UNL A   1      43.036  36.784  33.416  1.00  0.00     0.016 A 
ATOM     34  C   UNL A   1      43.813  36.178  30.945  1.00  0.00     0.010 A 
ATOM     35  C   UNL A   1      42.751  35.407  32.803  1.00  0.00     0.010 A 
ATOM     36  C   UNL A   1      43.127  35.031  31.497  1.00  0.00    -0.014 A 
BRANCH  36  37
ATOM     37  C   UNL A   1      42.924  33.646  30.470  1.00  0.00     0.031 A 
ATOM     38  C   UNL A   1      41.495  33.732  30.085  1.00  0.00     0.074 A 
ATOM     39  C   UNL A   1      43.362  32.370  29.996  1.00  0.00     0.049 A 
ATOM     40  N   UNL A   1      40.692  33.361  31.022  1.00  0.00    -0.248 NA
ATOM     41  C   UNL A   1      40.884  34.577  29.054  1.00  0.00     0.031 C 
ATOM     42  C   UNL A   1      44.570  31.587  30.321  1.00  0.00     0.029 A 
ATOM     43  N   UNL A   1      42.719  31.377  29.114  1.00  0.00    -0.354 N 
ATOM     44  C   UNL A   1      39.512  34.026  30.846  1.00  0.00     0.074 A 
ATOM     45  C   UNL A   1      39.635  34.695  29.551  1.00  0.00     0.031 C 
ATOM     46  C   UNL A   1      44.669  30.422  29.593  1.00  0.00     0.029 A 
ATOM     47  C   UNL A   1      43.500  30.192  28.727  1.00  0.00     0.049 A 
ATOM     48  H   UNL A   1      41.797  31.503  28.793  1.00  0.00     0.167 HD
ATOM     49  C   UNL A   1      38.462  33.557  31.564  1.00  0.00     0.031 A 
ATOM     50  C   UNL A   1      43.182  29.066  27.914  1.00  0.00     0.031 A 
ATOM     51  C   UNL A   1      37.992  32.395  30.840  1.00  0.00     0.049 A 
ATOM     52  C   UNL A   1      41.779  28.789  28.257  1.00  0.00     0.074 A 
ATOM     53  C   UNL A   1      37.779  32.246  29.479  1.00  0.00     0.029 A 
ATOM     54  N   UNL A   1      38.372  31.157  31.335  1.00  0.00    -0.354 N 
ATOM     55  N   UNL A   1      41.445  28.268  29.399  1.00  0.00    -0.248 NA
ATOM     56  C   UNL A   1      40.699  28.927  27.286  1.00  0.00     0.031 C 
ATOM     57  C   UNL A   1      38.594  31.146  29.141  1.00  0.00     0.029 A 
ATOM     58  C   UNL A   1      38.866  30.405  30.287  1.00  0.00     0.049 A 
ATOM     59  H   UNL A   1      38.302  30.863  32.271  1.00  0.00     0.167 HD
ATOM     60  C   UNL A   1      40.117  28.560  29.474  1.00  0.00     0.074 A 
ATOM     61  C   UNL A   1      39.669  28.677  28.096  1.00  0.00     0.031 C 
ATOM     62  C   UNL A   1      39.698  29.259  30.560  1.00  0.00     0.031 A 
BRANCH  49  63
ATOM     63  C   UNL A   1      38.740  33.521  33.075  1.00  0.00    -0.014 A 
ATOM     64  C   UNL A   1      38.954  32.284  33.697  1.00  0.00     0.010 A 
ATOM     65  C   UNL A   1      38.734  34.669  33.912  1.00  0.00     0.010 A 
ATOM     66  C   UNL A   1      39.124  32.201  35.092  1.00  0.00     0.020 A 
ATOM     67  C   UNL A   1      38.867  34.594  35.302  1.00  0.00     0.020 A 
ATOM     68  C   UNL A   1      39.070  33.354  35.886  1.00  0.00     0.054 A 
BRANCH  68  69
ATOM     69  S   UNL A   1      39.245  33.201  37.686  1.00  0.00     0.124 S 
ATOM     70  O   UNL A   1      40.697  33.155  37.858  1.00  0.00    -0.237 OA
ATOM     71  O   UNL A   1      38.606  34.426  38.158  1.00  0.00    -0.237 OA
ATOM     72  O   UNL A   1      38.560  31.953  38.007  1.00  0.00    -0.744 OA
ENDBRANCH  68  69
ENDBRANCH  49  63
BRANCH  50  73
ATOM     73  C   UNL A   1      43.655  27.766  27.060  1.00  0.00    -0.014 A 
ATOM     74  C   UNL A   1      44.544  27.897  25.918  1.00  0.00     0.010 A 
ATOM     75  C   UNL A   1      43.683  26.465  27.605  1.00  0.00     0.010 A 
ATOM     76  C   UNL A   1      45.448  26.884  25.453  1.00  0.00     0.020 A 
ATOM     77  C   UNL A   1      44.570  25.426  27.124  1.00  0.00     0.020 A 
ATOM     78  C   UNL A   1      45.479  25.650  26.082  1.00  0.00     0.054 A 
BRANCH  78  79
ATOM     79  S   UNL A   1      46.783  24.415  25.634  1.00  0.00     0.124 S 
ATOM     80  O   UNL A   1      46.860  24.520  24.180  1.00  0.00    -0.237 OA
ATOM     81  O   UNL A   1      47.958  24.899  26.357  1.00  0.00    -0.237 OA
ATOM     82  O   UNL A   1      46.245  23.149  26.132  1.00  0.00    -0.744 OA
ENDBRANCH  78  79
ENDBRANCH  50  73
BRANCH  62  83
ATOM     83  C   UNL A   1      40.328  28.923  31.902  1.00  0.00    -0.014 A 
ATOM     84  C   UNL A   1      39.978  27.807  32.699  1.00  0.00     0.010 A 
ATOM     85  C   UNL A   1      41.272  29.816  32.434  1.00  0.00     0.010 A 
ATOM     86  C   UNL A   1      40.485  27.634  33.996  1.00  0.00     0.020 A 
ATOM     87  C   UNL A   1      41.816  29.630  33.714  1.00  0.00     0.020 A 
ATOM     88  C   UNL A   1      41.392  28.559  34.503  1.00  0.00     0.054 A 
BRANCH  88  89
ATOM     89  S   UNL A   1      41.987  28.369  36.208  1.00  0.00     0.124 S 
ATOM     90  O   UNL A   1      43.308  27.774  36.008  1.00  0.00    -0.237 OA
ATOM     91  O   UNL A   1      41.996  29.740  36.710  1.00  0.00    -0.237 OA
ATOM     92  O   UNL A   1      41.004  27.477  36.820  1.00  0.00    -0.744 OA
ENDBRANCH  88  89
ENDBRANCH  62  83
ENDBRANCH  36  37
ENDBRANCH  29  31
ENDBRANCH  28  29
ENDBRANCH  27  28
ENDBRANCH  26  27
ENDBRANCH   1  26
TORSDOF 20
ENDMDL
MODEL 3
REMARK VINA RESULT:     -10.2      5.149     10.078
REMARK SMILES Cc1oc(C)c(S(=O)(=O)Nn2c(C)ccc2C)c1C(=O)OCCOCCOC(=O)c1ccc(-c2c3nc(c(-c4ccc(S(=O)(=O)[O-])cc4)c4ccc([nH]4)c(-c4ccc(S(=O)(=O)[O-])cc4)c4nc(c(-c5ccc(S(=O)(=O)[O-])cc5)c5ccc2[nH]5)C=C4)C=C3)cc1
REMARK SMILES IDX 24 1 23 2 22 3 21 4 19 5 20 6 18 7 1 8 2 9 3 10 4 11 6 12
REMARK SMILES IDX 5 13 7 14 8 15 9 16 10 17 11 19 12 20 16 21 13 22 14 23
REMARK SMILES IDX 15 24 17 25 25 26 26 27 27 28 28 29 29 30 30 31 31 32 89 33
REMARK SMILES IDX 32 34 88 35 33 36 34 37 35 38 82 39 36 40 87 41 81 42 83 43
REMARK SMILES IDX 37 44 86 45 80 46 79 47 38 49 68 50 49 51 67 52 50 53 53 54
REMARK SMILES IDX 66 55 84 56 51 57 52 58 65 60 85 61 54 62 39 63 40 64 48 65
REMARK SMILES IDX 41 66 47 67 42 68 43 69 44 70 45 71 46 72 69 73 70 74 78 75
REMARK SMILES IDX 71 76 77 77 72 78 73 79 74 80 75 81 76 82 55 83 56 84 64 85
REMARK SMILES IDX 57 86 63 87 58 88 59 89 60 90 61 91 62 92
REMARK H PARENT 10 18 83 48 53 59
REMARK Flexibility Score: inf
ROOT
ATOM      1  O   UNL A   1      33.727  27.361  24.903  1.00  0.00    -0.374 OA
ENDROOT
BRANCH   1   2
ATOM      2  C   UNL A   1      33.799  28.296  23.824  1.00  0.00     0.202 C 
BRANCH   2   3
ATOM      3  C   UNL A   1      33.576  27.762  22.376  1.00  0.00     0.261 C 
BRANCH   3   4
ATOM      4  O   UNL A   1      32.191  27.514  22.052  1.00  0.00    -0.460 OA
BRANCH   4   5
ATOM      5  C   UNL A   1      31.828  26.253  21.616  1.00  0.00     0.343 C 
ATOM      6  O   UNL A   1      31.769  25.899  20.458  1.00  0.00    -0.246 OA
BRANCH   5   7
ATOM      7  C   UNL A   1      31.446  25.398  22.741  1.00  0.00     0.122 A 
ATOM      8  C   UNL A   1      29.552  26.960  23.743  1.00  0.00     0.088 C 
ATOM      9  C   UNL A   1      30.457  25.792  23.637  1.00  0.00     0.117 A 
ATOM     10  O   UNL A   1      30.274  24.862  24.600  1.00  0.00    -0.464 OA
ATOM     11  C   UNL A   1      31.128  23.842  24.355  1.00  0.00     0.122 A 
ATOM     12  C   UNL A   1      31.865  24.091  23.202  1.00  0.00     0.145 A 
ATOM     13  C   UNL A   1      31.059  22.745  25.350  1.00  0.00     0.089 C 
BRANCH  12  14
ATOM     14  S   UNL A   1      32.989  22.908  22.641  1.00  0.00     0.279 S 
ATOM     15  O   UNL A   1      32.233  21.670  22.634  1.00  0.00    -0.200 OA
ATOM     16  O   UNL A   1      33.439  23.462  21.381  1.00  0.00    -0.200 OA
BRANCH  14  17
ATOM     17  N   UNL A   1      34.340  22.525  23.500  1.00  0.00    -0.216 N 
ATOM     18  H   UNL A   1      35.200  22.520  23.021  1.00  0.00     0.202 HD
BRANCH  17  19
ATOM     19  N   UNL A   1      34.351  22.211  24.840  1.00  0.00    -0.256 N 
ATOM     20  C   UNL A   1      34.100  21.021  25.469  1.00  0.00     0.038 A 
ATOM     21  C   UNL A   1      34.707  23.177  25.748  1.00  0.00     0.038 A 
ATOM     22  C   UNL A   1      33.884  19.680  24.857  1.00  0.00     0.067 C 
ATOM     23  C   UNL A   1      34.065  21.329  26.819  1.00  0.00     0.025 A 
ATOM     24  C   UNL A   1      34.362  22.693  26.989  1.00  0.00     0.025 A 
ATOM     25  C   UNL A   1      35.251  24.514  25.399  1.00  0.00     0.067 C 
ENDBRANCH  17  19
ENDBRANCH  14  17
ENDBRANCH  12  14
ENDBRANCH   5   7
ENDBRANCH   4   5
ENDBRANCH   3   4
ENDBRANCH   2   3
ENDBRANCH   1   2
BRANCH   1  26
ATOM     26  C   UNL A   1      32.763  27.635  25.928  1.00  0.00     0.202 C 
BRANCH  26  27
ATOM     27  C   UNL A   1      33.012  28.868  26.838  1.00  0.00     0.261 C 
BRANCH  27  28
ATOM     28  O   UNL A   1      34.388  29.126  27.293  1.00  0.00    -0.460 OA
BRANCH  28  29
ATOM     29  C   UNL A   1      34.622  30.404  27.718  1.00  0.00     0.338 C 
ATOM     30  O   UNL A   1      34.035  31.355  27.206  1.00  0.00    -0.246 OA
BRANCH  29  31
ATOM     31  C   UNL A   1      35.574  30.625  28.918  1.00  0.00     0.060 A 
ATOM     32  C   UNL A   1      35.271  31.738  29.660  1.00  0.00     0.016 A 
ATOM     33  C   UNL A   1      36.730  29.969  29.403  1.00  0.00     0.016 A 
ATOM     34  C   UNL A   1      36.051  32.132  30.794  1.00  0.00     0.010 A 
ATOM     35  C   UNL A   1      37.570  30.450  30.594  1.00  0.00     0.010 A 
ATOM     36  C   UNL A   1      37.267  31.593  31.362  1.00  0.00    -0.014 A 
BRANCH  36  37
ATOM     37  C   UNL A   1      37.990  32.459  32.682  1.00  0.00     0.031 A 
ATOM     38  C   UNL A   1      39.008  33.297  32.005  1.00  0.00     0.074 A 
ATOM     39  C   UNL A   1      38.252  32.608  34.079  1.00  0.00     0.049 A 
ATOM     40  N   UNL A   1      40.056  32.637  31.648  1.00  0.00    -0.248 NA
ATOM     41  C   UNL A   1      38.810  34.563  31.292  1.00  0.00     0.031 C 
ATOM     42  C   UNL A   1      37.788  31.816  35.235  1.00  0.00     0.029 A 
ATOM     43  N   UNL A   1      39.138  33.528  34.819  1.00  0.00    -0.354 N 
ATOM     44  C   UNL A   1      40.594  33.267  30.562  1.00  0.00     0.074 A 
ATOM     45  C   UNL A   1      39.850  34.520  30.435  1.00  0.00     0.031 C 
ATOM     46  C   UNL A   1      38.208  32.328  36.443  1.00  0.00     0.029 A 
ATOM     47  C   UNL A   1      39.093  33.495  36.289  1.00  0.00     0.049 A 
ATOM     48  H   UNL A   1      39.741  34.145  34.344  1.00  0.00     0.167 HD
ATOM     49  C   UNL A   1      41.849  32.881  30.224  1.00  0.00     0.031 A 
ATOM     50  C   UNL A   1      39.808  34.227  37.280  1.00  0.00     0.031 A 
ATOM     51  C   UNL A   1      42.724  33.575  31.144  1.00  0.00     0.049 A 
ATOM     52  C   UNL A   1      41.160  34.332  36.712  1.00  0.00     0.074 A 
ATOM     53  C   UNL A   1      42.693  34.904  31.538  1.00  0.00     0.029 A 
ATOM     54  N   UNL A   1      43.214  32.841  32.212  1.00  0.00    -0.354 N 
ATOM     55  N   UNL A   1      41.958  33.309  36.655  1.00  0.00    -0.248 NA
ATOM     56  C   UNL A   1      41.746  35.612  36.329  1.00  0.00     0.031 C 
ATOM     57  C   UNL A   1      42.583  34.824  32.941  1.00  0.00     0.029 A 
ATOM     58  C   UNL A   1      43.019  33.572  33.367  1.00  0.00     0.049 A 
ATOM     59  H   UNL A   1      43.631  31.951  32.158  1.00  0.00     0.167 HD
ATOM     60  C   UNL A   1      42.875  33.707  35.732  1.00  0.00     0.074 A 
ATOM     61  C   UNL A   1      42.882  35.159  35.795  1.00  0.00     0.031 C 
ATOM     62  C   UNL A   1      43.049  32.909  34.647  1.00  0.00     0.031 A 
BRANCH  49  63
ATOM     63  C   UNL A   1      41.962  31.369  29.972  1.00  0.00    -0.014 A 
ATOM     64  C   UNL A   1      42.874  30.906  29.016  1.00  0.00     0.010 A 
ATOM     65  C   UNL A   1      41.147  30.394  30.609  1.00  0.00     0.010 A 
ATOM     66  C   UNL A   1      42.945  29.537  28.693  1.00  0.00     0.020 A 
ATOM     67  C   UNL A   1      41.185  29.037  30.272  1.00  0.00     0.020 A 
ATOM     68  C   UNL A   1      42.095  28.614  29.316  1.00  0.00     0.054 A 
BRANCH  68  69
ATOM     69  S   UNL A   1      42.181  26.866  28.839  1.00  0.00     0.124 S 
ATOM     70  O   UNL A   1      42.818  26.930  27.523  1.00  0.00    -0.237 OA
ATOM     71  O   UNL A   1      43.012  26.301  29.898  1.00  0.00    -0.237 OA
ATOM     72  O   UNL A   1      40.788  26.432  28.813  1.00  0.00    -0.744 OA
ENDBRANCH  68  69
ENDBRANCH  49  63
BRANCH  50  73
ATOM     73  C   UNL A   1      39.976  34.720  38.820  1.00  0.00    -0.014 A 
ATOM     74  C   UNL A   1      39.257  35.877  39.325  1.00  0.00     0.010 A 
ATOM     75  C   UNL A   1      40.373  33.851  39.859  1.00  0.00     0.010 A 
ATOM     76  C   UNL A   1      38.872  36.081  40.692  1.00  0.00     0.020 A 
ATOM     77  C   UNL A   1      40.015  34.063  41.246  1.00  0.00     0.020 A 
ATOM     78  C   UNL A   1      39.231  35.149  41.652  1.00  0.00     0.054 A 
BRANCH  78  79
ATOM     79  S   UNL A   1      38.560  35.288  43.372  1.00  0.00     0.124 S 
ATOM     80  O   UNL A   1      39.215  34.192  44.079  1.00  0.00    -0.237 OA
ATOM     81  O   UNL A   1      38.976  36.630  43.780  1.00  0.00    -0.237 OA
ATOM     82  O   UNL A   1      37.117  35.130  43.193  1.00  0.00    -0.744 OA
ENDBRANCH  78  79
ENDBRANCH  50  73
BRANCH  62  83
ATOM     83  C   UNL A   1      43.012  31.405  34.865  1.00  0.00    -0.014 A 
ATOM     84  C   UNL A   1      44.096  30.634  35.347  1.00  0.00     0.010 A 
ATOM     85  C   UNL A   1      41.850  30.709  34.493  1.00  0.00     0.010 A 
ATOM     86  C   UNL A   1      44.051  29.232  35.383  1.00  0.00     0.020 A 
ATOM     87  C   UNL A   1      41.780  29.309  34.563  1.00  0.00     0.020 A 
ATOM     88  C   UNL A   1      42.895  28.575  34.973  1.00  0.00     0.054 A 
BRANCH  88  89
ATOM     89  S   UNL A   1      42.871  26.760  34.952  1.00  0.00     0.124 S 
ATOM     90  O   UNL A   1      43.779  26.427  36.049  1.00  0.00    -0.237 OA
ATOM     91  O   UNL A   1      41.467  26.445  35.195  1.00  0.00    -0.237 OA
ATOM     92  O   UNL A   1      43.374  26.422  33.622  1.00  0.00    -0.744 OA
ENDBRANCH  88  89
ENDBRANCH  62  83
ENDBRANCH  36  37
ENDBRANCH  29  31
ENDBRANCH  28  29
ENDBRANCH  27  28
ENDBRANCH  26  27
ENDBRANCH   1  26
TORSDOF 20
ENDMDL
