MODEL 1
REMARK VINA RESULT:     -10.5      0.000      0.000
REMARK SMILES O=C(CNC(=O)N1CC(OCCOCCOC(=O)c2ccc(-c3c4nc(c(-c5ccc(S(=O)(=O)[O-])cc5)c5ccc([nH]5)c(-c5ccc(S(=O)(=O)[O-])cc5)c5nc(c(-c6ccc(S(=O)(=O)[O-])cc6)c6ccc3[nH]6)C=C5)C=C4)cc2)=Nc2ccccc21)N[C@H](C(=O)[O-])c1ccccc1
REMARK SMILES IDX 12 1 11 2 10 3 9 4 7 5 8 6 85 7 80 8 84 9 79 10 81 11 83 12
REMARK SMILES IDX 82 13 5 14 4 15 6 17 3 18 2 19 1 20 86 21 87 23 91 24 92 25
REMARK SMILES IDX 96 26 93 27 95 28 94 29 88 30 89 31 90 32 13 33 14 34 15 35
REMARK SMILES IDX 16 36 17 37 18 38 19 39 20 40 78 41 21 42 77 43 22 44 23 45
REMARK SMILES IDX 24 46 71 47 25 48 76 49 70 50 72 51 26 52 75 53 69 54 68 55
REMARK SMILES IDX 27 57 57 58 38 59 56 60 39 61 42 62 55 63 73 64 40 65 41 66
REMARK SMILES IDX 54 68 74 69 43 70 28 71 29 72 37 73 30 74 36 75 31 76 32 77
REMARK SMILES IDX 33 78 34 79 35 80 58 81 59 82 67 83 60 84 66 85 61 86 62 87
REMARK SMILES IDX 63 88 64 89 65 90 44 91 45 92 53 93 46 94 52 95 47 96 48 97
REMARK SMILES IDX 49 98 50 99 51 100
REMARK H PARENT 4 16 86 22 72 56 42 67
REMARK Flexibility Score: inf
ROOT
ATOM      1  C   UNL A   1      34.437  29.912  27.396  1.00  0.00     0.202 C 
ENDROOT
BRANCH   1   2
ATOM      2  C   UNL A   1      33.245  29.130  26.818  1.00  0.00     0.259 C 
BRANCH   2   3
ATOM      3  O   UNL A   1      32.955  29.516  25.451  1.00  0.00    -0.477 OA
BRANCH   3   4
ATOM      4  C   UNL A   1      31.679  29.381  25.020  1.00  0.00     0.209 C 
ATOM      5  N   UNL A   1      30.312  27.740  23.789  1.00  0.00    -0.283 N 
ATOM      6  C   UNL A   1      31.228  27.944  24.918  1.00  0.00     0.224 C 
ATOM      7  C   UNL A   1      29.442  28.840  23.494  1.00  0.00     0.072 A 
ATOM      8  C   UNL A   1      29.782  30.128  23.973  1.00  0.00     0.091 A 
ATOM      9  C   UNL A   1      28.262  28.699  22.757  1.00  0.00     0.029 A 
ATOM     10  N   UNL A   1      30.959  30.400  24.688  1.00  0.00    -0.214 NA
ATOM     11  C   UNL A   1      29.020  31.240  23.599  1.00  0.00     0.030 A 
ATOM     12  C   UNL A   1      27.513  29.820  22.383  1.00  0.00     0.002 A 
ATOM     13  C   UNL A   1      27.903  31.093  22.787  1.00  0.00     0.002 A 
BRANCH   5  14
ATOM     14  C   UNL A   1      30.252  26.459  23.297  1.00  0.00     0.322 C 
ATOM     15  N   UNL A   1      31.099  26.020  22.341  1.00  0.00    -0.329 N 
ATOM     16  H   UNL A   1      30.776  25.231  21.848  1.00  0.00     0.165 HD
ATOM     17  O   UNL A   1      29.468  25.625  23.761  1.00  0.00    -0.248 OA
BRANCH  15  18
ATOM     18  C   UNL A   1      32.407  26.506  21.907  1.00  0.00     0.218 C 
BRANCH  18  19
ATOM     19  C   UNL A   1      33.488  26.048  22.894  1.00  0.00     0.240 C 
ATOM     20  O   UNL A   1      34.110  26.847  23.585  1.00  0.00    -0.273 OA
ATOM     21  N   UNL A   1      33.641  24.680  22.907  1.00  0.00    -0.342 N 
ATOM     22  H   UNL A   1      33.375  24.170  22.108  1.00  0.00     0.164 HD
BRANCH  21  23
ATOM     23  C   UNL A   1      34.190  23.939  24.072  1.00  0.00     0.158 C 
BRANCH  23  24
ATOM     24  C   UNL A   1      33.093  23.590  25.073  1.00  0.00    -0.020 A 
ATOM     25  C   UNL A   1      32.651  24.481  26.061  1.00  0.00     0.006 A 
ATOM     26  C   UNL A   1      32.354  22.396  24.920  1.00  0.00     0.006 A 
ATOM     27  C   UNL A   1      31.559  24.179  26.885  1.00  0.00     0.000 A 
ATOM     28  C   UNL A   1      31.261  22.093  25.737  1.00  0.00     0.000 A 
ATOM     29  C   UNL A   1      30.865  22.984  26.725  1.00  0.00     0.000 A 
ENDBRANCH  23  24
BRANCH  23  30
ATOM     30  C   UNL A   1      35.381  22.977  23.686  1.00  0.00     0.068 C 
ATOM     31  O   UNL A   1      35.710  22.059  24.487  1.00  0.00    -0.548 OA
ATOM     32  O   UNL A   1      35.959  23.292  22.589  1.00  0.00    -0.548 OA
ENDBRANCH  23  30
ENDBRANCH  21  23
ENDBRANCH  18  19
ENDBRANCH  15  18
ENDBRANCH   5  14
ENDBRANCH   3   4
ENDBRANCH   2   3
ENDBRANCH   1   2
BRANCH   1  33
ATOM     33  O   UNL A   1      34.229  31.306  27.641  1.00  0.00    -0.374 OA
BRANCH  33  34
ATOM     34  C   UNL A   1      35.109  31.950  28.553  1.00  0.00     0.202 C 
BRANCH  34  35
ATOM     35  C   UNL A   1      35.312  31.339  29.936  1.00  0.00     0.261 C 
BRANCH  35  36
ATOM     36  O   UNL A   1      36.476  31.807  30.618  1.00  0.00    -0.460 OA
BRANCH  36  37
ATOM     37  C   UNL A   1      37.067  30.828  31.335  1.00  0.00     0.338 C 
ATOM     38  O   UNL A   1      36.533  30.043  32.118  1.00  0.00    -0.246 OA
BRANCH  37  39
ATOM     39  C   UNL A   1      38.459  30.656  30.914  1.00  0.00     0.060 A 
ATOM     40  C   UNL A   1      38.714  30.824  29.548  1.00  0.00     0.016 A 
ATOM     41  C   UNL A   1      39.474  30.273  31.796  1.00  0.00     0.016 A 
ATOM     42  C   UNL A   1      39.972  30.548  29.040  1.00  0.00     0.010 A 
ATOM     43  C   UNL A   1      40.742  29.998  31.283  1.00  0.00     0.010 A 
ATOM     44  C   UNL A   1      40.981  30.097  29.900  1.00  0.00    -0.014 A 
BRANCH  44  45
ATOM     45  C   UNL A   1      42.238  29.589  29.314  1.00  0.00     0.031 A 
ATOM     46  C   UNL A   1      43.411  30.521  29.211  1.00  0.00     0.074 A 
ATOM     47  C   UNL A   1      42.332  28.304  28.935  1.00  0.00     0.049 A 
ATOM     48  N   UNL A   1      44.599  30.300  28.711  1.00  0.00    -0.248 NA
ATOM     49  C   UNL A   1      43.226  31.882  29.744  1.00  0.00     0.031 C 
ATOM     50  C   UNL A   1      41.265  27.308  29.055  1.00  0.00     0.029 A 
ATOM     51  N   UNL A   1      43.375  27.614  28.373  1.00  0.00    -0.354 N 
ATOM     52  C   UNL A   1      45.294  31.495  28.855  1.00  0.00     0.074 A 
ATOM     53  C   UNL A   1      44.395  32.444  29.472  1.00  0.00     0.031 C 
ATOM     54  C   UNL A   1      41.708  26.134  28.573  1.00  0.00     0.029 A 
ATOM     55  C   UNL A   1      43.072  26.307  28.078  1.00  0.00     0.049 A 
ATOM     56  H   UNL A   1      44.255  28.017  28.198  1.00  0.00     0.167 HD
ATOM     57  C   UNL A   1      46.570  31.772  28.499  1.00  0.00     0.031 A 
ATOM     58  C   UNL A   1      43.807  25.365  27.455  1.00  0.00     0.031 A 
ATOM     59  C   UNL A   1      47.446  30.816  27.876  1.00  0.00     0.049 A 
ATOM     60  C   UNL A   1      45.201  25.716  27.009  1.00  0.00     0.074 A 
ATOM     61  C   UNL A   1      48.756  30.986  27.469  1.00  0.00     0.029 A 
ATOM     62  N   UNL A   1      47.093  29.510  27.567  1.00  0.00    -0.354 N 
ATOM     63  N   UNL A   1      45.851  26.848  27.153  1.00  0.00    -0.248 NA
ATOM     64  C   UNL A   1      45.966  24.667  26.322  1.00  0.00     0.031 C 
ATOM     65  C   UNL A   1      49.183  29.794  26.873  1.00  0.00     0.029 A 
ATOM     66  C   UNL A   1      48.156  28.866  26.960  1.00  0.00     0.049 A 
ATOM     67  H   UNL A   1      46.217  29.102  27.753  1.00  0.00     0.167 HD
ATOM     68  C   UNL A   1      47.111  26.637  26.606  1.00  0.00     0.074 A 
ATOM     69  C   UNL A   1      47.133  25.269  26.127  1.00  0.00     0.031 C 
ATOM     70  C   UNL A   1      48.156  27.495  26.513  1.00  0.00     0.031 A 
BRANCH  57  71
ATOM     71  C   UNL A   1      47.077  33.169  28.740  1.00  0.00    -0.014 A 
ATOM     72  C   UNL A   1      47.660  33.535  29.967  1.00  0.00     0.010 A 
ATOM     73  C   UNL A   1      47.000  34.122  27.708  1.00  0.00     0.010 A 
ATOM     74  C   UNL A   1      48.137  34.835  30.164  1.00  0.00     0.020 A 
ATOM     75  C   UNL A   1      47.496  35.416  27.893  1.00  0.00     0.020 A 
ATOM     76  C   UNL A   1      48.053  35.768  29.125  1.00  0.00     0.054 A 
BRANCH  76  77
ATOM     77  S   UNL A   1      48.730  37.432  29.384  1.00  0.00     0.124 S 
ATOM     78  O   UNL A   1      48.221  37.767  30.711  1.00  0.00    -0.237 OA
ATOM     79  O   UNL A   1      50.172  37.209  29.303  1.00  0.00    -0.237 OA
ATOM     80  O   UNL A   1      48.165  38.212  28.286  1.00  0.00    -0.744 OA
ENDBRANCH  76  77
ENDBRANCH  57  71
BRANCH  58  81
ATOM     81  C   UNL A   1      43.228  24.019  27.203  1.00  0.00    -0.014 A 
ATOM     82  C   UNL A   1      42.732  23.674  25.934  1.00  0.00     0.010 A 
ATOM     83  C   UNL A   1      43.186  23.061  28.235  1.00  0.00     0.010 A 
ATOM     84  C   UNL A   1      42.192  22.404  25.705  1.00  0.00     0.020 A 
ATOM     85  C   UNL A   1      42.670  21.783  28.004  1.00  0.00     0.020 A 
ATOM     86  C   UNL A   1      42.164  21.465  26.742  1.00  0.00     0.054 A 
BRANCH  86  87
ATOM     87  S   UNL A   1      41.498  19.810  26.410  1.00  0.00     0.124 S 
ATOM     88  O   UNL A   1      41.749  19.123  27.674  1.00  0.00    -0.237 OA
ATOM     89  O   UNL A   1      40.096  20.085  26.109  1.00  0.00    -0.237 OA
ATOM     90  O   UNL A   1      42.291  19.341  25.276  1.00  0.00    -0.744 OA
ENDBRANCH  86  87
ENDBRANCH  58  81
BRANCH  70  91
ATOM     91  C   UNL A   1      49.437  26.972  25.923  1.00  0.00    -0.014 A 
ATOM     92  C   UNL A   1      49.807  27.272  24.602  1.00  0.00     0.010 A 
ATOM     93  C   UNL A   1      50.332  26.266  26.748  1.00  0.00     0.010 A 
ATOM     94  C   UNL A   1      51.052  26.868  24.112  1.00  0.00     0.020 A 
ATOM     95  C   UNL A   1      51.585  25.879  26.269  1.00  0.00     0.020 A 
ATOM     96  C   UNL A   1      51.935  26.179  24.951  1.00  0.00     0.054 A 
BRANCH  96  97
ATOM     97  S   UNL A   1      53.580  25.742  24.320  1.00  0.00     0.124 S 
ATOM     98  O   UNL A   1      53.711  24.351  24.747  1.00  0.00    -0.237 OA
ATOM     99  O   UNL A   1      53.439  25.946  22.880  1.00  0.00    -0.237 OA
ATOM    100  O   UNL A   1      54.472  26.685  24.990  1.00  0.00    -0.744 OA
ENDBRANCH  96  97
ENDBRANCH  70  91
ENDBRANCH  44  45
ENDBRANCH  37  39
ENDBRANCH  36  37
ENDBRANCH  35  36
ENDBRANCH  34  35
ENDBRANCH  33  34
ENDBRANCH   1  33
TORSDOF 22
ENDMDL
MODEL 2
REMARK VINA RESULT:     -10.0      1.723      8.453
REMARK SMILES O=C(CNC(=O)N1CC(OCCOCCOC(=O)c2ccc(-c3c4nc(c(-c5ccc(S(=O)(=O)[O-])cc5)c5ccc([nH]5)c(-c5ccc(S(=O)(=O)[O-])cc5)c5nc(c(-c6ccc(S(=O)(=O)[O-])cc6)c6ccc3[nH]6)C=C5)C=C4)cc2)=Nc2ccccc21)N[C@H](C(=O)[O-])c1ccccc1
REMARK SMILES IDX 12 1 11 2 10 3 9 4 7 5 8 6 85 7 80 8 84 9 79 10 81 11 83 12
REMARK SMILES IDX 82 13 5 14 4 15 6 17 3 18 2 19 1 20 86 21 87 23 91 24 92 25
REMARK SMILES IDX 96 26 93 27 95 28 94 29 88 30 89 31 90 32 13 33 14 34 15 35
REMARK SMILES IDX 16 36 17 37 18 38 19 39 20 40 78 41 21 42 77 43 22 44 23 45
REMARK SMILES IDX 24 46 71 47 25 48 76 49 70 50 72 51 26 52 75 53 69 54 68 55
REMARK SMILES IDX 27 57 57 58 38 59 56 60 39 61 42 62 55 63 73 64 40 65 41 66
REMARK SMILES IDX 54 68 74 69 43 70 28 71 29 72 37 73 30 74 36 75 31 76 32 77
REMARK SMILES IDX 33 78 34 79 35 80 58 81 59 82 67 83 60 84 66 85 61 86 62 87
REMARK SMILES IDX 63 88 64 89 65 90 44 91 45 92 53 93 46 94 52 95 47 96 48 97
REMARK SMILES IDX 49 98 50 99 51 100
REMARK H PARENT 4 16 86 22 72 56 42 67
REMARK Flexibility Score: inf
ROOT
ATOM      1  C   UNL A   1      32.909  28.290  24.955  1.00  0.00     0.202 C 
ENDROOT
BRANCH   1   2
ATOM      2  C   UNL A   1      31.441  28.623  25.274  1.00  0.00     0.259 C 
BRANCH   2   3
ATOM      3  O   UNL A   1      30.540  28.146  24.244  1.00  0.00    -0.477 OA
BRANCH   3   4
ATOM      4  C   UNL A   1      30.795  26.932  23.702  1.00  0.00     0.209 C 
ATOM      5  N   UNL A   1      31.264  24.635  24.464  1.00  0.00    -0.283 N 
ATOM      6  C   UNL A   1      30.354  25.781  24.574  1.00  0.00     0.224 C 
ATOM      7  C   UNL A   1      31.854  24.438  23.172  1.00  0.00     0.072 A 
ATOM      8  C   UNL A   1      31.882  25.521  22.261  1.00  0.00     0.091 A 
ATOM      9  C   UNL A   1      32.400  23.217  22.766  1.00  0.00     0.029 A 
ATOM     10  N   UNL A   1      31.402  26.803  22.570  1.00  0.00    -0.214 NA
ATOM     11  C   UNL A   1      32.558  25.396  21.043  1.00  0.00     0.030 A 
ATOM     12  C   UNL A   1      33.080  23.106  21.548  1.00  0.00     0.002 A 
ATOM     13  C   UNL A   1      33.178  24.202  20.695  1.00  0.00     0.002 A 
BRANCH   5  14
ATOM     14  C   UNL A   1      31.273  23.778  25.537  1.00  0.00     0.322 C 
ATOM     15  N   UNL A   1      32.383  23.574  26.279  1.00  0.00    -0.329 N 
ATOM     16  H   UNL A   1      32.374  22.736  26.796  1.00  0.00     0.165 HD
ATOM     17  O   UNL A   1      30.245  23.212  25.920  1.00  0.00    -0.248 OA
BRANCH  15  18
ATOM     18  C   UNL A   1      33.594  24.373  26.453  1.00  0.00     0.218 C 
BRANCH  18  19
ATOM     19  C   UNL A   1      34.834  23.496  26.245  1.00  0.00     0.240 C 
ATOM     20  O   UNL A   1      34.817  22.292  26.477  1.00  0.00    -0.273 OA
ATOM     21  N   UNL A   1      35.908  24.210  25.767  1.00  0.00    -0.342 N 
ATOM     22  H   UNL A   1      35.945  25.179  25.942  1.00  0.00     0.164 HD
BRANCH  21  23
ATOM     23  C   UNL A   1      37.018  23.586  24.999  1.00  0.00     0.158 C 
BRANCH  23  24
ATOM     24  C   UNL A   1      38.226  23.319  25.892  1.00  0.00    -0.020 A 
ATOM     25  C   UNL A   1      38.698  24.244  26.833  1.00  0.00     0.006 A 
ATOM     26  C   UNL A   1      38.813  22.033  25.916  1.00  0.00     0.006 A 
ATOM     27  C   UNL A   1      39.731  23.922  27.723  1.00  0.00     0.000 A 
ATOM     28  C   UNL A   1      39.841  21.707  26.805  1.00  0.00     0.000 A 
ATOM     29  C   UNL A   1      40.305  22.654  27.707  1.00  0.00     0.000 A 
ENDBRANCH  23  24
BRANCH  23  30
ATOM     30  C   UNL A   1      36.512  22.607  23.869  1.00  0.00     0.068 C 
ATOM     31  O   UNL A   1      36.215  21.420  24.176  1.00  0.00    -0.548 OA
ATOM     32  O   UNL A   1      36.530  23.124  22.699  1.00  0.00    -0.548 OA
ENDBRANCH  23  30
ENDBRANCH  21  23
ENDBRANCH  18  19
ENDBRANCH  15  18
ENDBRANCH   5  14
ENDBRANCH   3   4
ENDBRANCH   2   3
ENDBRANCH   1   2
BRANCH   1  33
ATOM     33  O   UNL A   1      33.902  29.012  25.690  1.00  0.00    -0.374 OA
BRANCH  33  34
ATOM     34  C   UNL A   1      33.911  28.858  27.103  1.00  0.00     0.202 C 
BRANCH  34  35
ATOM     35  C   UNL A   1      34.859  29.720  27.931  1.00  0.00     0.261 C 
BRANCH  35  36
ATOM     36  O   UNL A   1      36.234  29.358  27.812  1.00  0.00    -0.460 OA
BRANCH  36  37
ATOM     37  C   UNL A   1      36.903  29.533  28.972  1.00  0.00     0.338 C 
ATOM     38  O   UNL A   1      36.455  29.468  30.116  1.00  0.00    -0.246 OA
BRANCH  37  39
ATOM     39  C   UNL A   1      38.343  29.617  28.722  1.00  0.00     0.060 A 
ATOM     40  C   UNL A   1      38.750  29.431  27.396  1.00  0.00     0.016 A 
ATOM     41  C   UNL A   1      39.279  29.798  29.746  1.00  0.00     0.016 A 
ATOM     42  C   UNL A   1      40.099  29.358  27.090  1.00  0.00     0.010 A 
ATOM     43  C   UNL A   1      40.638  29.729  29.435  1.00  0.00     0.010 A 
ATOM     44  C   UNL A   1      41.047  29.470  28.114  1.00  0.00    -0.014 A 
BRANCH  44  45
ATOM     45  C   UNL A   1      42.459  29.162  27.811  1.00  0.00     0.031 A 
ATOM     46  C   UNL A   1      42.827  27.748  27.460  1.00  0.00     0.074 A 
ATOM     47  C   UNL A   1      43.376  30.144  27.801  1.00  0.00     0.049 A 
ATOM     48  N   UNL A   1      44.002  27.246  27.184  1.00  0.00    -0.248 NA
ATOM     49  C   UNL A   1      41.727  26.770  27.409  1.00  0.00     0.031 C 
ATOM     50  C   UNL A   1      43.100  31.558  28.067  1.00  0.00     0.029 A 
ATOM     51  N   UNL A   1      44.723  30.104  27.556  1.00  0.00    -0.354 N 
ATOM     52  C   UNL A   1      43.785  25.894  26.944  1.00  0.00     0.074 A 
ATOM     53  C   UNL A   1      42.371  25.648  27.122  1.00  0.00     0.031 C 
ATOM     54  C   UNL A   1      44.249  32.250  27.977  1.00  0.00     0.029 A 
ATOM     55  C   UNL A   1      45.341  31.324  27.685  1.00  0.00     0.049 A 
ATOM     56  H   UNL A   1      45.202  29.280  27.310  1.00  0.00     0.167 HD
ATOM     57  C   UNL A   1      44.689  24.945  26.607  1.00  0.00     0.031 A 
ATOM     58  C   UNL A   1      46.646  31.650  27.602  1.00  0.00     0.031 A 
ATOM     59  C   UNL A   1      46.094  25.208  26.445  1.00  0.00     0.049 A 
ATOM     60  C   UNL A   1      47.642  30.565  27.291  1.00  0.00     0.074 A 
ATOM     61  C   UNL A   1      47.103  24.325  26.109  1.00  0.00     0.029 A 
ATOM     62  N   UNL A   1      46.686  26.453  26.613  1.00  0.00    -0.354 N 
ATOM     63  N   UNL A   1      47.426  29.290  27.062  1.00  0.00    -0.248 NA
ATOM     64  C   UNL A   1      49.056  30.957  27.221  1.00  0.00     0.031 C 
ATOM     65  C   UNL A   1      48.313  25.026  26.118  1.00  0.00     0.029 A 
ATOM     66  C   UNL A   1      48.049  26.358  26.404  1.00  0.00     0.049 A 
ATOM     67  H   UNL A   1      46.207  27.280  26.847  1.00  0.00     0.167 HD
ATOM     68  C   UNL A   1      48.669  28.735  26.788  1.00  0.00     0.074 A 
ATOM     69  C   UNL A   1      49.636  29.812  26.880  1.00  0.00     0.031 C 
ATOM     70  C   UNL A   1      48.984  27.453  26.482  1.00  0.00     0.031 A 
BRANCH  57  71
ATOM     71  C   UNL A   1      44.191  23.535  26.431  1.00  0.00    -0.014 A 
ATOM     72  C   UNL A   1      44.022  22.972  25.152  1.00  0.00     0.010 A 
ATOM     73  C   UNL A   1      43.922  22.748  27.565  1.00  0.00     0.010 A 
ATOM     74  C   UNL A   1      43.572  21.656  25.013  1.00  0.00     0.020 A 
ATOM     75  C   UNL A   1      43.494  21.424  27.430  1.00  0.00     0.020 A 
ATOM     76  C   UNL A   1      43.312  20.889  26.152  1.00  0.00     0.054 A 
BRANCH  76  77
ATOM     77  S   UNL A   1      42.784  19.164  25.947  1.00  0.00     0.124 S 
ATOM     78  O   UNL A   1      43.913  18.582  25.226  1.00  0.00    -0.237 OA
ATOM     79  O   UNL A   1      42.619  18.712  27.326  1.00  0.00    -0.237 OA
ATOM     80  O   UNL A   1      41.544  19.269  25.181  1.00  0.00    -0.744 OA
ENDBRANCH  76  77
ENDBRANCH  57  71
BRANCH  58  81
ATOM     81  C   UNL A   1      47.076  33.054  27.837  1.00  0.00    -0.014 A 
ATOM     82  C   UNL A   1      47.413  33.498  29.127  1.00  0.00     0.010 A 
ATOM     83  C   UNL A   1      47.170  33.956  26.759  1.00  0.00     0.010 A 
ATOM     84  C   UNL A   1      47.820  34.820  29.339  1.00  0.00     0.020 A 
ATOM     85  C   UNL A   1      47.600  35.270  26.962  1.00  0.00     0.020 A 
ATOM     86  C   UNL A   1      47.912  35.698  28.254  1.00  0.00     0.054 A 
BRANCH  86  87
ATOM     87  S   UNL A   1      48.483  37.395  28.545  1.00  0.00     0.124 S 
ATOM     88  O   UNL A   1      49.826  37.178  29.076  1.00  0.00    -0.237 OA
ATOM     89  O   UNL A   1      48.420  37.987  27.211  1.00  0.00    -0.237 OA
ATOM     90  O   UNL A   1      47.514  37.927  29.501  1.00  0.00    -0.744 OA
ENDBRANCH  86  87
ENDBRANCH  58  81
BRANCH  70  91
ATOM     91  C   UNL A   1      50.422  27.144  26.166  1.00  0.00    -0.014 A 
ATOM     92  C   UNL A   1      51.303  26.683  27.157  1.00  0.00     0.010 A 
ATOM     93  C   UNL A   1      50.858  27.208  24.830  1.00  0.00     0.010 A 
ATOM     94  C   UNL A   1      52.603  26.298  26.818  1.00  0.00     0.020 A 
ATOM     95  C   UNL A   1      52.149  26.804  24.484  1.00  0.00     0.020 A 
ATOM     96  C   UNL A   1      53.016  26.355  25.483  1.00  0.00     0.054 A 
BRANCH  96  97
ATOM     97  S   UNL A   1      54.678  25.767  25.054  1.00  0.00     0.124 S 
ATOM     98  O   UNL A   1      54.806  26.199  23.664  1.00  0.00    -0.237 OA
ATOM     99  O   UNL A   1      55.527  26.471  26.011  1.00  0.00    -0.237 OA
ATOM    100  O   UNL A   1      54.598  24.321  25.250  1.00  0.00    -0.744 OA
ENDBRANCH  96  97
ENDBRANCH  70  91
ENDBRANCH  44  45
ENDBRANCH  37  39
ENDBRANCH  36  37
ENDBRANCH  35  36
ENDBRANCH  34  35
ENDBRANCH  33  34
ENDBRANCH   1  33
TORSDOF 22
ENDMDL
MODEL 3
REMARK VINA RESULT:      -9.7      1.472      7.904
REMARK SMILES O=C(CNC(=O)N1CC(OCCOCCOC(=O)c2ccc(-c3c4nc(c(-c5ccc(S(=O)(=O)[O-])cc5)c5ccc([nH]5)c(-c5ccc(S(=O)(=O)[O-])cc5)c5nc(c(-c6ccc(S(=O)(=O)[O-])cc6)c6ccc3[nH]6)C=C5)C=C4)cc2)=Nc2ccccc21)N[C@H](C(=O)[O-])c1ccccc1
REMARK SMILES IDX 12 1 11 2 10 3 9 4 7 5 8 6 85 7 80 8 84 9 79 10 81 11 83 12
REMARK SMILES IDX 82 13 5 14 4 15 6 17 3 18 2 19 1 20 86 21 87 23 91 24 92 25
REMARK SMILES IDX 96 26 93 27 95 28 94 29 88 30 89 31 90 32 13 33 14 34 15 35
REMARK SMILES IDX 16 36 17 37 18 38 19 39 20 40 78 41 21 42 77 43 22 44 23 45
REMARK SMILES IDX 24 46 71 47 25 48 76 49 70 50 72 51 26 52 75 53 69 54 68 55
REMARK SMILES IDX 27 57 57 58 38 59 56 60 39 61 42 62 55 63 73 64 40 65 41 66
REMARK SMILES IDX 54 68 74 69 43 70 28 71 29 72 37 73 30 74 36 75 31 76 32 77
REMARK SMILES IDX 33 78 34 79 35 80 58 81 59 82 67 83 60 84 66 85 61 86 62 87
REMARK SMILES IDX 63 88 64 89 65 90 44 91 45 92 53 93 46 94 52 95 47 96 48 97
REMARK SMILES IDX 49 98 50 99 51 100
REMARK H PARENT 4 16 86 22 72 56 42 67
REMARK Flexibility Score: inf
ROOT
ATOM      1  C   UNL A   1      34.471  30.744  27.649  1.00  0.00     0.202 C 
ENDROOT
BRANCH   1   2
ATOM      2  C   UNL A   1      33.038  30.564  27.120  1.00  0.00     0.259 C 
BRANCH   2   3
ATOM      3  O   UNL A   1      32.919  29.405  26.257  1.00  0.00    -0.477 OA
BRANCH   3   4
ATOM      4  C   UNL A   1      31.757  29.244  25.582  1.00  0.00     0.209 C 
ATOM      5  N   UNL A   1      30.682  27.560  24.137  1.00  0.00    -0.283 N 
ATOM      6  C   UNL A   1      31.350  27.799  25.422  1.00  0.00     0.224 C 
ATOM      7  C   UNL A   1      29.879  28.642  23.650  1.00  0.00     0.072 A 
ATOM      8  C   UNL A   1      30.102  29.943  24.159  1.00  0.00     0.091 A 
ATOM      9  C   UNL A   1      28.873  28.469  22.693  1.00  0.00     0.029 A 
ATOM     10  N   UNL A   1      31.108  30.245  25.090  1.00  0.00    -0.214 NA
ATOM     11  C   UNL A   1      29.420  31.037  23.616  1.00  0.00     0.030 A 
ATOM     12  C   UNL A   1      28.203  29.572  22.152  1.00  0.00     0.002 A 
ATOM     13  C   UNL A   1      28.491  30.858  22.598  1.00  0.00     0.002 A 
BRANCH   5  14
ATOM     14  C   UNL A   1      30.736  26.269  23.671  1.00  0.00     0.322 C 
ATOM     15  N   UNL A   1      31.800  25.800  22.984  1.00  0.00    -0.329 N 
ATOM     16  H   UNL A   1      31.608  25.004  22.438  1.00  0.00     0.165 HD
ATOM     17  O   UNL A   1      29.844  25.453  23.925  1.00  0.00    -0.248 OA
BRANCH  15  18
ATOM     18  C   UNL A   1      33.184  26.263  22.905  1.00  0.00     0.218 C 
BRANCH  18  19
ATOM     19  C   UNL A   1      34.025  25.583  23.992  1.00  0.00     0.240 C 
ATOM     20  O   UNL A   1      34.171  26.084  25.101  1.00  0.00    -0.273 OA
ATOM     21  N   UNL A   1      34.551  24.383  23.574  1.00  0.00    -0.342 N 
ATOM     22  H   UNL A   1      34.679  24.236  22.608  1.00  0.00     0.164 HD
BRANCH  21  23
ATOM     23  C   UNL A   1      34.935  23.297  24.513  1.00  0.00     0.158 C 
BRANCH  23  24
ATOM     24  C   UNL A   1      34.165  22.013  24.219  1.00  0.00    -0.020 A 
ATOM     25  C   UNL A   1      34.364  20.824  24.935  1.00  0.00     0.006 A 
ATOM     26  C   UNL A   1      33.082  22.034  23.311  1.00  0.00     0.006 A 
ATOM     27  C   UNL A   1      33.556  19.699  24.725  1.00  0.00     0.000 A 
ATOM     28  C   UNL A   1      32.271  20.914  23.103  1.00  0.00     0.000 A 
ATOM     29  C   UNL A   1      32.511  19.743  23.808  1.00  0.00     0.000 A 
ENDBRANCH  23  24
BRANCH  23  30
ATOM     30  C   UNL A   1      36.459  23.346  24.924  1.00  0.00     0.068 C 
ATOM     31  O   UNL A   1      36.819  24.132  25.843  1.00  0.00    -0.548 OA
ATOM     32  O   UNL A   1      37.209  22.606  24.198  1.00  0.00    -0.548 OA
ENDBRANCH  23  30
ENDBRANCH  21  23
ENDBRANCH  18  19
ENDBRANCH  15  18
ENDBRANCH   5  14
ENDBRANCH   3   4
ENDBRANCH   2   3
ENDBRANCH   1   2
BRANCH   1  33
ATOM     33  O   UNL A   1      34.775  32.004  28.253  1.00  0.00    -0.374 OA
BRANCH  33  34
ATOM     34  C   UNL A   1      36.053  32.149  28.859  1.00  0.00     0.202 C 
BRANCH  34  35
ATOM     35  C   UNL A   1      36.270  31.588  30.261  1.00  0.00     0.261 C 
BRANCH  35  36
ATOM     36  O   UNL A   1      37.396  32.139  30.944  1.00  0.00    -0.460 OA
BRANCH  36  37
ATOM     37  C   UNL A   1      37.901  31.282  31.857  1.00  0.00     0.338 C 
ATOM     38  O   UNL A   1      37.287  30.657  32.721  1.00  0.00    -0.246 OA
BRANCH  37  39
ATOM     39  C   UNL A   1      39.309  31.001  31.570  1.00  0.00     0.060 A 
ATOM     40  C   UNL A   1      39.814  31.538  30.381  1.00  0.00     0.016 A 
ATOM     41  C   UNL A   1      40.098  30.185  32.386  1.00  0.00     0.016 A 
ATOM     42  C   UNL A   1      41.093  31.212  29.962  1.00  0.00     0.010 A 
ATOM     43  C   UNL A   1      41.388  29.860  31.965  1.00  0.00     0.010 A 
ATOM     44  C   UNL A   1      41.871  30.341  30.734  1.00  0.00    -0.014 A 
BRANCH  44  45
ATOM     45  C   UNL A   1      43.132  29.823  30.166  1.00  0.00     0.031 A 
ATOM     46  C   UNL A   1      43.127  28.462  29.529  1.00  0.00     0.074 A 
ATOM     47  C   UNL A   1      44.239  30.584  30.178  1.00  0.00     0.049 A 
ATOM     48  N   UNL A   1      44.118  27.800  28.991  1.00  0.00    -0.248 NA
ATOM     49  C   UNL A   1      41.836  27.754  29.487  1.00  0.00     0.031 C 
ATOM     50  C   UNL A   1      44.324  31.942  30.719  1.00  0.00     0.029 A 
ATOM     51  N   UNL A   1      45.505  30.324  29.721  1.00  0.00    -0.354 N 
ATOM     52  C   UNL A   1      43.573  26.594  28.564  1.00  0.00     0.074 A 
ATOM     53  C   UNL A   1      42.172  26.606  28.917  1.00  0.00     0.031 C 
ATOM     54  C   UNL A   1      45.580  32.394  30.567  1.00  0.00     0.029 A 
ATOM     55  C   UNL A   1      46.393  31.345  29.957  1.00  0.00     0.049 A 
ATOM     56  H   UNL A   1      45.753  29.486  29.268  1.00  0.00     0.167 HD
ATOM     57  C   UNL A   1      44.194  25.569  27.934  1.00  0.00     0.031 A 
ATOM     58  C   UNL A   1      47.719  31.412  29.726  1.00  0.00     0.031 A 
ATOM     59  C   UNL A   1      45.594  25.572  27.601  1.00  0.00     0.049 A 
ATOM     60  C   UNL A   1      48.400  30.233  29.084  1.00  0.00     0.074 A 
ATOM     61  C   UNL A   1      46.330  24.589  26.967  1.00  0.00     0.029 A 
ATOM     62  N   UNL A   1      46.467  26.614  27.881  1.00  0.00    -0.354 N 
ATOM     63  N   UNL A   1      47.877  29.099  28.680  1.00  0.00    -0.248 NA
ATOM     64  C   UNL A   1      49.848  30.340  28.860  1.00  0.00     0.031 C 
ATOM     65  C   UNL A   1      47.660  25.018  26.904  1.00  0.00     0.029 A 
ATOM     66  C   UNL A   1      47.739  26.291  27.448  1.00  0.00     0.049 A 
ATOM     67  H   UNL A   1      46.218  27.457  28.323  1.00  0.00     0.167 HD
ATOM     68  C   UNL A   1      48.922  28.372  28.125  1.00  0.00     0.074 A 
ATOM     69  C   UNL A   1      50.111  29.193  28.245  1.00  0.00     0.031 C 
ATOM     70  C   UNL A   1      48.900  27.139  27.562  1.00  0.00     0.031 A 
BRANCH  57  71
ATOM     71  C   UNL A   1      43.373  24.352  27.603  1.00  0.00    -0.014 A 
ATOM     72  C   UNL A   1      42.796  24.181  26.331  1.00  0.00     0.010 A 
ATOM     73  C   UNL A   1      43.207  23.343  28.570  1.00  0.00     0.010 A 
ATOM     74  C   UNL A   1      42.049  23.035  26.041  1.00  0.00     0.020 A 
ATOM     75  C   UNL A   1      42.481  22.185  28.276  1.00  0.00     0.020 A 
ATOM     76  C   UNL A   1      41.897  22.043  27.015  1.00  0.00     0.054 A 
BRANCH  76  77
ATOM     77  S   UNL A   1      40.972  20.538  26.597  1.00  0.00     0.124 S 
ATOM     78  O   UNL A   1      40.904  19.852  27.885  1.00  0.00    -0.237 OA
ATOM     79  O   UNL A   1      39.704  21.067  26.100  1.00  0.00    -0.237 OA
ATOM     80  O   UNL A   1      41.805  19.887  25.589  1.00  0.00    -0.744 OA
ENDBRANCH  76  77
ENDBRANCH  57  71
BRANCH  58  81
ATOM     81  C   UNL A   1      48.480  32.626  30.123  1.00  0.00    -0.014 A 
ATOM     82  C   UNL A   1      48.874  32.825  31.458  1.00  0.00     0.010 A 
ATOM     83  C   UNL A   1      48.834  33.589  29.158  1.00  0.00     0.010 A 
ATOM     84  C   UNL A   1      49.592  33.969  31.823  1.00  0.00     0.020 A 
ATOM     85  C   UNL A   1      49.574  34.720  29.513  1.00  0.00     0.020 A 
ATOM     86  C   UNL A   1      49.938  34.910  30.848  1.00  0.00     0.054 A 
BRANCH  86  87
ATOM     87  S   UNL A   1      50.908  36.363  31.336  1.00  0.00     0.124 S 
ATOM     88  O   UNL A   1      51.853  35.792  32.290  1.00  0.00    -0.237 OA
ATOM     89  O   UNL A   1      51.482  36.805  30.067  1.00  0.00    -0.237 OA
ATOM     90  O   UNL A   1      49.911  37.266  31.908  1.00  0.00    -0.744 OA
ENDBRANCH  86  87
ENDBRANCH  58  81
BRANCH  70  91
ATOM     91  C   UNL A   1      50.184  26.617  26.977  1.00  0.00    -0.014 A 
ATOM     92  C   UNL A   1      50.433  26.677  25.596  1.00  0.00     0.010 A 
ATOM     93  C   UNL A   1      51.198  26.167  27.843  1.00  0.00     0.010 A 
ATOM     94  C   UNL A   1      51.675  26.288  25.088  1.00  0.00     0.020 A 
ATOM     95  C   UNL A   1      52.448  25.798  27.342  1.00  0.00     0.020 A 
ATOM     96  C   UNL A   1      52.677  25.856  25.965  1.00  0.00     0.054 A 
BRANCH  96  97
ATOM     97  S   UNL A   1      54.310  25.441  25.292  1.00  0.00     0.124 S 
ATOM     98  O   UNL A   1      55.192  26.300  26.077  1.00  0.00    -0.237 OA
ATOM     99  O   UNL A   1      54.419  24.010  25.569  1.00  0.00    -0.237 OA
ATOM    100  O   UNL A   1      54.203  25.787  23.877  1.00  0.00    -0.744 OA
ENDBRANCH  96  97
ENDBRANCH  70  91
ENDBRANCH  44  45
ENDBRANCH  37  39
ENDBRANCH  36  37
ENDBRANCH  35  36
ENDBRANCH  34  35
ENDBRANCH  33  34
ENDBRANCH   1  33
TORSDOF 22
ENDMDL
