MODEL 1
REMARK VINA RESULT:      -9.6      0.000      0.000
REMARK SMILES CC[C@@H](C)N(C)C(=O)N1[C@@H](C(=O)OCCOCCOC(=O)c2ccc(-c3c4nc(c(-c5ccc(S(=O)(=O)[O-])cc5)c5ccc([nH]5)c(-c5ccc(S(=O)(=O)[O-])cc5)c5nc(c(-c6ccc(S(=O)(=O)[O-])cc6)c6ccc3[nH]6)C=C5)C=C4)cc2)CC[C@H]2CCCC[C@H]21
REMARK SMILES IDX 15 1 14 2 13 3 11 4 12 5 10 6 9 7 89 8 82 9 84 10 88 11
REMARK SMILES IDX 83 12 85 13 87 14 86 15 7 16 8 17 5 18 6 19 3 20 4 21 2 22
REMARK SMILES IDX 1 23 16 24 17 25 18 26 19 27 20 28 21 29 22 30 23 31 81 32
REMARK SMILES IDX 24 33 80 34 25 35 26 36 27 37 74 38 28 39 79 40 73 41 75 42
REMARK SMILES IDX 29 43 78 44 72 45 71 46 30 48 60 49 41 50 59 51 42 52 45 53
REMARK SMILES IDX 58 54 76 55 43 56 44 57 57 59 77 60 46 61 31 62 32 63 40 64
REMARK SMILES IDX 33 65 39 66 34 67 35 68 36 69 37 70 38 71 61 72 62 73 70 74
REMARK SMILES IDX 63 75 69 76 64 77 65 78 66 79 67 80 68 81 47 82 48 83 56 84
REMARK SMILES IDX 49 85 55 86 50 87 51 88 52 89 53 90 54 91
REMARK H PARENT 75 47 45 58
REMARK Flexibility Score: inf
ROOT
ATOM      1  C   UNL A   1      34.005  30.874  27.672  1.00  0.00     0.202 C 
ENDROOT
BRANCH   1   2
ATOM      2  C   UNL A   1      32.719  30.295  27.082  1.00  0.00     0.261 C 
BRANCH   2   3
ATOM      3  O   UNL A   1      32.883  28.945  26.627  1.00  0.00    -0.462 OA
BRANCH   3   4
ATOM      4  C   UNL A   1      31.792  28.141  26.767  1.00  0.00     0.329 C 
ATOM      5  O   UNL A   1      31.311  27.783  27.838  1.00  0.00    -0.250 OA
BRANCH   4   6
ATOM      6  C   UNL A   1      31.238  27.695  25.408  1.00  0.00     0.197 C 
ATOM      7  N   UNL A   1      31.547  26.325  24.959  1.00  0.00    -0.308 N 
ATOM      8  C   UNL A   1      30.897  25.940  23.692  1.00  0.00     0.091 C 
ATOM      9  C   UNL A   1      31.505  28.731  24.311  1.00  0.00     0.038 C 
ATOM     10  C   UNL A   1      30.979  26.979  22.559  1.00  0.00     0.012 C 
ATOM     11  C   UNL A   1      31.189  24.536  23.157  1.00  0.00     0.025 C 
ATOM     12  C   UNL A   1      30.684  28.397  23.066  1.00  0.00     0.008 C 
ATOM     13  C   UNL A   1      32.270  26.961  21.736  1.00  0.00     0.006 C 
ATOM     14  C   UNL A   1      32.374  24.387  22.204  1.00  0.00     0.002 C 
ATOM     15  C   UNL A   1      33.032  25.649  21.656  1.00  0.00     0.000 C 
BRANCH   7  16
ATOM     16  C   UNL A   1      32.757  25.764  25.332  1.00  0.00     0.320 C 
ATOM     17  O   UNL A   1      33.817  26.184  24.887  1.00  0.00    -0.248 OA
BRANCH  16  18
ATOM     18  N   UNL A   1      32.678  24.660  26.185  1.00  0.00    -0.325 N 
ATOM     19  C   UNL A   1      31.450  24.216  26.844  1.00  0.00     0.149 C 
BRANCH  18  20
ATOM     20  C   UNL A   1      33.792  23.682  26.241  1.00  0.00     0.083 C 
ATOM     21  C   UNL A   1      33.937  22.789  25.003  1.00  0.00     0.031 C 
BRANCH  20  22
ATOM     22  C   UNL A   1      33.715  22.869  27.548  1.00  0.00     0.021 C 
ATOM     23  C   UNL A   1      34.243  21.450  27.408  1.00  0.00     0.006 C 
ENDBRANCH  20  22
ENDBRANCH  18  20
ENDBRANCH  16  18
ENDBRANCH   7  16
ENDBRANCH   4   6
ENDBRANCH   3   4
ENDBRANCH   2   3
ENDBRANCH   1   2
BRANCH   1  24
ATOM     24  O   UNL A   1      33.962  32.241  28.072  1.00  0.00    -0.374 OA
BRANCH  24  25
ATOM     25  C   UNL A   1      35.045  32.715  28.872  1.00  0.00     0.202 C 
BRANCH  25  26
ATOM     26  C   UNL A   1      35.001  32.369  30.364  1.00  0.00     0.261 C 
BRANCH  26  27
ATOM     27  O   UNL A   1      36.290  31.964  30.863  1.00  0.00    -0.460 OA
BRANCH  27  28
ATOM     28  C   UNL A   1      36.579  30.653  30.698  1.00  0.00     0.338 C 
ATOM     29  O   UNL A   1      35.785  29.718  30.694  1.00  0.00    -0.246 OA
BRANCH  28  30
ATOM     30  C   UNL A   1      37.993  30.488  30.321  1.00  0.00     0.060 A 
ATOM     31  C   UNL A   1      38.289  30.309  28.962  1.00  0.00     0.016 A 
ATOM     32  C   UNL A   1      39.007  30.438  31.281  1.00  0.00     0.016 A 
ATOM     33  C   UNL A   1      39.595  30.040  28.560  1.00  0.00     0.010 A 
ATOM     34  C   UNL A   1      40.314  30.151  30.876  1.00  0.00     0.010 A 
ATOM     35  C   UNL A   1      40.608  29.922  29.519  1.00  0.00    -0.014 A 
BRANCH  35  36
ATOM     36  C   UNL A   1      41.951  29.436  29.123  1.00  0.00     0.031 A 
ATOM     37  C   UNL A   1      43.094  30.411  29.073  1.00  0.00     0.074 A 
ATOM     38  C   UNL A   1      42.145  28.142  28.815  1.00  0.00     0.049 A 
ATOM     39  N   UNL A   1      44.324  30.224  28.672  1.00  0.00    -0.248 NA
ATOM     40  C   UNL A   1      42.813  31.779  29.541  1.00  0.00     0.031 C 
ATOM     41  C   UNL A   1      41.127  27.094  28.881  1.00  0.00     0.029 A 
ATOM     42  N   UNL A   1      43.268  27.493  28.368  1.00  0.00    -0.354 N 
ATOM     43  C   UNL A   1      44.963  31.449  28.827  1.00  0.00     0.074 A 
ATOM     44  C   UNL A   1      43.979  32.378  29.342  1.00  0.00     0.031 C 
ATOM     45  C   UNL A   1      41.668  25.935  28.471  1.00  0.00     0.029 A 
ATOM     46  C   UNL A   1      43.054  26.168  28.070  1.00  0.00     0.049 A 
ATOM     47  H   UNL A   1      44.144  27.934  28.270  1.00  0.00     0.167 HD
ATOM     48  C   UNL A   1      46.251  31.770  28.564  1.00  0.00     0.031 A 
ATOM     49  C   UNL A   1      43.871  25.260  27.501  1.00  0.00     0.031 A 
ATOM     50  C   UNL A   1      47.216  30.845  28.030  1.00  0.00     0.049 A 
ATOM     51  C   UNL A   1      45.268  25.667  27.114  1.00  0.00     0.074 A 
ATOM     52  C   UNL A   1      48.551  31.067  27.739  1.00  0.00     0.029 A 
ATOM     53  N   UNL A   1      46.946  29.527  27.694  1.00  0.00    -0.354 N 
ATOM     54  N   UNL A   1      45.867  26.822  27.286  1.00  0.00    -0.248 NA
ATOM     55  C   UNL A   1      46.099  24.652  26.450  1.00  0.00     0.031 C 
ATOM     56  C   UNL A   1      49.071  29.901  27.168  1.00  0.00     0.029 A 
ATOM     57  C   UNL A   1      48.077  28.934  27.160  1.00  0.00     0.049 A 
ATOM     58  H   UNL A   1      46.079  29.079  27.817  1.00  0.00     0.167 HD
ATOM     59  C   UNL A   1      47.147  26.669  26.763  1.00  0.00     0.074 A 
ATOM     60  C   UNL A   1      47.243  25.304  26.287  1.00  0.00     0.031 C 
ATOM     61  C   UNL A   1      48.153  27.575  26.682  1.00  0.00     0.031 A 
BRANCH  48  62
ATOM     62  C   UNL A   1      46.680  33.192  28.809  1.00  0.00    -0.014 A 
ATOM     63  C   UNL A   1      46.558  34.174  27.811  1.00  0.00     0.010 A 
ATOM     64  C   UNL A   1      47.180  33.559  30.073  1.00  0.00     0.010 A 
ATOM     65  C   UNL A   1      46.961  35.489  28.059  1.00  0.00     0.020 A 
ATOM     66  C   UNL A   1      47.562  34.878  30.333  1.00  0.00     0.020 A 
ATOM     67  C   UNL A   1      47.464  35.833  29.317  1.00  0.00     0.054 A 
BRANCH  67  68
ATOM     68  S   UNL A   1      47.964  37.550  29.617  1.00  0.00     0.124 S 
ATOM     69  O   UNL A   1      49.402  37.410  29.840  1.00  0.00    -0.237 OA
ATOM     70  O   UNL A   1      47.584  38.216  28.374  1.00  0.00    -0.237 OA
ATOM     71  O   UNL A   1      47.187  37.939  30.792  1.00  0.00    -0.744 OA
ENDBRANCH  67  68
ENDBRANCH  48  62
BRANCH  49  72
ATOM     72  C   UNL A   1      43.369  23.887  27.220  1.00  0.00    -0.014 A 
ATOM     73  C   UNL A   1      43.319  22.917  28.236  1.00  0.00     0.010 A 
ATOM     74  C   UNL A   1      42.924  23.546  25.928  1.00  0.00     0.010 A 
ATOM     75  C   UNL A   1      42.844  21.630  27.963  1.00  0.00     0.020 A 
ATOM     76  C   UNL A   1      42.423  22.269  25.659  1.00  0.00     0.020 A 
ATOM     77  C   UNL A   1      42.395  21.316  26.677  1.00  0.00     0.054 A 
BRANCH  77  78
ATOM     78  S   UNL A   1      41.729  19.657  26.365  1.00  0.00     0.124 S 
ATOM     79  O   UNL A   1      42.421  19.278  25.136  1.00  0.00    -0.237 OA
ATOM     80  O   UNL A   1      42.126  18.926  27.566  1.00  0.00    -0.237 OA
ATOM     81  O   UNL A   1      40.291  19.883  26.229  1.00  0.00    -0.744 OA
ENDBRANCH  77  78
ENDBRANCH  49  72
BRANCH  61  82
ATOM     82  C   UNL A   1      49.450  27.126  26.065  1.00  0.00    -0.014 A 
ATOM     83  C   UNL A   1      49.624  27.124  24.671  1.00  0.00     0.010 A 
ATOM     84  C   UNL A   1      50.533  26.779  26.893  1.00  0.00     0.010 A 
ATOM     85  C   UNL A   1      50.856  26.770  24.114  1.00  0.00     0.020 A 
ATOM     86  C   UNL A   1      51.773  26.449  26.341  1.00  0.00     0.020 A 
ATOM     87  C   UNL A   1      51.925  26.439  24.953  1.00  0.00     0.054 A 
BRANCH  87  88
ATOM     88  S   UNL A   1      53.532  26.051  24.206  1.00  0.00     0.124 S 
ATOM     89  O   UNL A   1      53.332  26.465  22.820  1.00  0.00    -0.237 OA
ATOM     90  O   UNL A   1      54.454  26.880  24.982  1.00  0.00    -0.237 OA
ATOM     91  O   UNL A   1      53.673  24.612  24.413  1.00  0.00    -0.744 OA
ENDBRANCH  87  88
ENDBRANCH  61  82
ENDBRANCH  35  36
ENDBRANCH  28  30
ENDBRANCH  27  28
ENDBRANCH  26  27
ENDBRANCH  25  26
ENDBRANCH  24  25
ENDBRANCH   1  24
TORSDOF 21
ENDMDL
MODEL 2
REMARK VINA RESULT:      -9.4      6.376     11.283
REMARK SMILES CC[C@@H](C)N(C)C(=O)N1[C@@H](C(=O)OCCOCCOC(=O)c2ccc(-c3c4nc(c(-c5ccc(S(=O)(=O)[O-])cc5)c5ccc([nH]5)c(-c5ccc(S(=O)(=O)[O-])cc5)c5nc(c(-c6ccc(S(=O)(=O)[O-])cc6)c6ccc3[nH]6)C=C5)C=C4)cc2)CC[C@H]2CCCC[C@H]21
REMARK SMILES IDX 15 1 14 2 13 3 11 4 12 5 10 6 9 7 89 8 82 9 84 10 88 11
REMARK SMILES IDX 83 12 85 13 87 14 86 15 7 16 8 17 5 18 6 19 3 20 4 21 2 22
REMARK SMILES IDX 1 23 16 24 17 25 18 26 19 27 20 28 21 29 22 30 23 31 81 32
REMARK SMILES IDX 24 33 80 34 25 35 26 36 27 37 74 38 28 39 79 40 73 41 75 42
REMARK SMILES IDX 29 43 78 44 72 45 71 46 30 48 60 49 41 50 59 51 42 52 45 53
REMARK SMILES IDX 58 54 76 55 43 56 44 57 57 59 77 60 46 61 31 62 32 63 40 64
REMARK SMILES IDX 33 65 39 66 34 67 35 68 36 69 37 70 38 71 61 72 62 73 70 74
REMARK SMILES IDX 63 75 69 76 64 77 65 78 66 79 67 80 68 81 47 82 48 83 56 84
REMARK SMILES IDX 49 85 55 86 50 87 51 88 52 89 53 90 54 91
REMARK H PARENT 75 47 45 58
REMARK Flexibility Score: inf
ROOT
ATOM      1  C   UNL A   1      37.193  22.216  25.754  1.00  0.00     0.202 C 
ENDROOT
BRANCH   1   2
ATOM      2  C   UNL A   1      36.264  22.665  24.627  1.00  0.00     0.261 C 
BRANCH   2   3
ATOM      3  O   UNL A   1      35.324  23.661  25.053  1.00  0.00    -0.462 OA
BRANCH   3   4
ATOM      4  C   UNL A   1      34.727  24.372  24.056  1.00  0.00     0.329 C 
ATOM      5  O   UNL A   1      34.924  24.207  22.856  1.00  0.00    -0.250 OA
BRANCH   4   6
ATOM      6  C   UNL A   1      33.785  25.447  24.611  1.00  0.00     0.197 C 
ATOM      7  N   UNL A   1      32.398  25.051  24.915  1.00  0.00    -0.308 N 
ATOM      8  C   UNL A   1      31.585  26.115  25.536  1.00  0.00     0.091 C 
ATOM      9  C   UNL A   1      33.845  26.740  23.791  1.00  0.00     0.038 C 
ATOM     10  C   UNL A   1      31.685  27.501  24.874  1.00  0.00     0.012 C 
ATOM     11  C   UNL A   1      30.129  25.777  25.862  1.00  0.00     0.025 C 
ATOM     12  C   UNL A   1      33.138  27.868  24.542  1.00  0.00     0.008 C 
ATOM     13  C   UNL A   1      30.783  27.720  23.656  1.00  0.00     0.006 C 
ATOM     14  C   UNL A   1      29.087  26.076  24.784  1.00  0.00     0.002 C 
ATOM     15  C   UNL A   1      29.508  26.899  23.572  1.00  0.00     0.000 C 
BRANCH   7  16
ATOM     16  C   UNL A   1      31.804  24.070  24.138  1.00  0.00     0.320 C 
ATOM     17  O   UNL A   1      31.293  24.336  23.058  1.00  0.00    -0.248 OA
BRANCH  16  18
ATOM     18  N   UNL A   1      31.772  22.790  24.697  1.00  0.00    -0.325 N 
ATOM     19  C   UNL A   1      30.795  22.352  25.694  1.00  0.00     0.149 C 
BRANCH  18  20
ATOM     20  C   UNL A   1      32.558  21.691  24.086  1.00  0.00     0.083 C 
ATOM     21  C   UNL A   1      32.034  21.189  22.735  1.00  0.00     0.031 C 
BRANCH  20  22
ATOM     22  C   UNL A   1      32.750  20.549  25.103  1.00  0.00     0.021 C 
ATOM     23  C   UNL A   1      33.562  19.385  24.558  1.00  0.00     0.006 C 
ENDBRANCH  20  22
ENDBRANCH  18  20
ENDBRANCH  16  18
ENDBRANCH   7  16
ENDBRANCH   4   6
ENDBRANCH   3   4
ENDBRANCH   2   3
ENDBRANCH   1   2
BRANCH   1  24
ATOM     24  O   UNL A   1      38.577  22.105  25.431  1.00  0.00    -0.374 OA
BRANCH  24  25
ATOM     25  C   UNL A   1      39.500  22.136  26.519  1.00  0.00     0.202 C 
BRANCH  25  26
ATOM     26  C   UNL A   1      40.469  23.321  26.565  1.00  0.00     0.261 C 
BRANCH  26  27
ATOM     27  O   UNL A   1      39.784  24.584  26.467  1.00  0.00    -0.460 OA
BRANCH  27  28
ATOM     28  C   UNL A   1      40.591  25.664  26.354  1.00  0.00     0.338 C 
ATOM     29  O   UNL A   1      41.058  26.129  25.319  1.00  0.00    -0.246 OA
BRANCH  28  30
ATOM     30  C   UNL A   1      40.698  26.357  27.649  1.00  0.00     0.060 A 
ATOM     31  C   UNL A   1      39.702  26.110  28.604  1.00  0.00     0.016 A 
ATOM     32  C   UNL A   1      41.712  27.284  27.903  1.00  0.00     0.016 A 
ATOM     33  C   UNL A   1      39.692  26.819  29.803  1.00  0.00     0.010 A 
ATOM     34  C   UNL A   1      41.690  28.005  29.101  1.00  0.00     0.010 A 
ATOM     35  C   UNL A   1      40.665  27.798  30.042  1.00  0.00    -0.014 A 
BRANCH  35  36
ATOM     36  C   UNL A   1      40.542  28.693  31.215  1.00  0.00     0.031 A 
ATOM     37  C   UNL A   1      39.547  29.819  31.173  1.00  0.00     0.074 A 
ATOM     38  C   UNL A   1      41.307  28.501  32.304  1.00  0.00     0.049 A 
ATOM     39  N   UNL A   1      39.335  30.770  32.045  1.00  0.00    -0.248 NA
ATOM     40  C   UNL A   1      38.672  29.879  29.990  1.00  0.00     0.031 C 
ATOM     41  C   UNL A   1      42.266  27.410  32.483  1.00  0.00     0.029 A 
ATOM     42  N   UNL A   1      41.407  29.231  33.462  1.00  0.00    -0.354 N 
ATOM     43  C   UNL A   1      38.312  31.548  31.515  1.00  0.00     0.074 A 
ATOM     44  C   UNL A   1      37.959  30.970  30.237  1.00  0.00     0.031 C 
ATOM     45  C   UNL A   1      42.871  27.554  33.673  1.00  0.00     0.029 A 
ATOM     46  C   UNL A   1      42.377  28.769  34.319  1.00  0.00     0.049 A 
ATOM     47  H   UNL A   1      40.838  30.011  33.659  1.00  0.00     0.167 HD
ATOM     48  C   UNL A   1      37.723  32.645  32.047  1.00  0.00     0.031 A 
ATOM     49  C   UNL A   1      42.841  29.290  35.472  1.00  0.00     0.031 A 
ATOM     50  C   UNL A   1      38.098  33.227  33.309  1.00  0.00     0.049 A 
ATOM     51  C   UNL A   1      42.247  30.573  35.991  1.00  0.00     0.074 A 
ATOM     52  C   UNL A   1      37.555  34.331  33.942  1.00  0.00     0.029 A 
ATOM     53  N   UNL A   1      39.120  32.759  34.122  1.00  0.00    -0.354 N 
ATOM     54  N   UNL A   1      41.266  31.287  35.492  1.00  0.00    -0.248 NA
ATOM     55  C   UNL A   1      42.825  31.125  37.225  1.00  0.00     0.031 C 
ATOM     56  C   UNL A   1      38.291  34.568  35.108  1.00  0.00     0.029 A 
ATOM     57  C   UNL A   1      39.251  33.576  35.232  1.00  0.00     0.049 A 
ATOM     58  H   UNL A   1      39.670  31.964  33.938  1.00  0.00     0.167 HD
ATOM     59  C   UNL A   1      41.101  32.365  36.357  1.00  0.00     0.074 A 
ATOM     60  C   UNL A   1      42.070  32.198  37.421  1.00  0.00     0.031 C 
ATOM     61  C   UNL A   1      40.229  33.400  36.278  1.00  0.00     0.031 A 
BRANCH  48  62
ATOM     62  C   UNL A   1      36.640  33.313  31.243  1.00  0.00    -0.014 A 
ATOM     63  C   UNL A   1      36.885  33.794  29.945  1.00  0.00     0.010 A 
ATOM     64  C   UNL A   1      35.345  33.428  31.782  1.00  0.00     0.010 A 
ATOM     65  C   UNL A   1      35.865  34.411  29.215  1.00  0.00     0.020 A 
ATOM     66  C   UNL A   1      34.316  34.022  31.046  1.00  0.00     0.020 A 
ATOM     67  C   UNL A   1      34.587  34.524  29.771  1.00  0.00     0.054 A 
BRANCH  67  68
ATOM     68  S   UNL A   1      33.278  35.314  28.794  1.00  0.00     0.124 S 
ATOM     69  O   UNL A   1      32.432  35.890  29.837  1.00  0.00    -0.237 OA
ATOM     70  O   UNL A   1      34.020  36.277  27.984  1.00  0.00    -0.237 OA
ATOM     71  O   UNL A   1      32.682  34.206  28.051  1.00  0.00    -0.744 OA
ENDBRANCH  67  68
ENDBRANCH  48  62
BRANCH  49  72
ATOM     72  C   UNL A   1      43.962  28.621  36.188  1.00  0.00    -0.014 A 
ATOM     73  C   UNL A   1      43.715  27.571  37.088  1.00  0.00     0.010 A 
ATOM     74  C   UNL A   1      45.291  29.029  35.962  1.00  0.00     0.010 A 
ATOM     75  C   UNL A   1      44.775  26.947  37.756  1.00  0.00     0.020 A 
ATOM     76  C   UNL A   1      46.353  28.389  36.605  1.00  0.00     0.020 A 
ATOM     77  C   UNL A   1      46.088  27.357  37.506  1.00  0.00     0.054 A 
BRANCH  77  78
ATOM     78  S   UNL A   1      47.447  26.492  38.340  1.00  0.00     0.124 S 
ATOM     79  O   UNL A   1      48.619  27.170  37.792  1.00  0.00    -0.237 OA
ATOM     80  O   UNL A   1      47.168  26.753  39.750  1.00  0.00    -0.237 OA
ATOM     81  O   UNL A   1      47.276  25.102  37.925  1.00  0.00    -0.744 OA
ENDBRANCH  77  78
ENDBRANCH  49  72
BRANCH  61  82
ATOM     82  C   UNL A   1      40.270  34.433  37.372  1.00  0.00    -0.014 A 
ATOM     83  C   UNL A   1      39.481  34.295  38.527  1.00  0.00     0.010 A 
ATOM     84  C   UNL A   1      41.170  35.512  37.280  1.00  0.00     0.010 A 
ATOM     85  C   UNL A   1      39.581  35.225  39.565  1.00  0.00     0.020 A 
ATOM     86  C   UNL A   1      41.290  36.429  38.326  1.00  0.00     0.020 A 
ATOM     87  C   UNL A   1      40.488  36.284  39.460  1.00  0.00     0.054 A 
BRANCH  87  88
ATOM     88  S   UNL A   1      40.647  37.437  40.852  1.00  0.00     0.124 S 
ATOM     89  O   UNL A   1      42.013  37.925  40.690  1.00  0.00    -0.237 OA
ATOM     90  O   UNL A   1      39.595  38.415  40.580  1.00  0.00    -0.237 OA
ATOM     91  O   UNL A   1      40.421  36.597  42.026  1.00  0.00    -0.744 OA
ENDBRANCH  87  88
ENDBRANCH  61  82
ENDBRANCH  35  36
ENDBRANCH  28  30
ENDBRANCH  27  28
ENDBRANCH  26  27
ENDBRANCH  25  26
ENDBRANCH  24  25
ENDBRANCH   1  24
TORSDOF 21
ENDMDL
MODEL 3
REMARK VINA RESULT:      -9.4      5.384      7.995
REMARK SMILES CC[C@@H](C)N(C)C(=O)N1[C@@H](C(=O)OCCOCCOC(=O)c2ccc(-c3c4nc(c(-c5ccc(S(=O)(=O)[O-])cc5)c5ccc([nH]5)c(-c5ccc(S(=O)(=O)[O-])cc5)c5nc(c(-c6ccc(S(=O)(=O)[O-])cc6)c6ccc3[nH]6)C=C5)C=C4)cc2)CC[C@H]2CCCC[C@H]21
REMARK SMILES IDX 15 1 14 2 13 3 11 4 12 5 10 6 9 7 89 8 82 9 84 10 88 11
REMARK SMILES IDX 83 12 85 13 87 14 86 15 7 16 8 17 5 18 6 19 3 20 4 21 2 22
REMARK SMILES IDX 1 23 16 24 17 25 18 26 19 27 20 28 21 29 22 30 23 31 81 32
REMARK SMILES IDX 24 33 80 34 25 35 26 36 27 37 74 38 28 39 79 40 73 41 75 42
REMARK SMILES IDX 29 43 78 44 72 45 71 46 30 48 60 49 41 50 59 51 42 52 45 53
REMARK SMILES IDX 58 54 76 55 43 56 44 57 57 59 77 60 46 61 31 62 32 63 40 64
REMARK SMILES IDX 33 65 39 66 34 67 35 68 36 69 37 70 38 71 61 72 62 73 70 74
REMARK SMILES IDX 63 75 69 76 64 77 65 78 66 79 67 80 68 81 47 82 48 83 56 84
REMARK SMILES IDX 49 85 55 86 50 87 51 88 52 89 53 90 54 91
REMARK H PARENT 75 47 45 58
REMARK Flexibility Score: inf
ROOT
ATOM      1  C   UNL A   1      32.091  29.429  26.004  1.00  0.00     0.202 C 
ENDROOT
BRANCH   1   2
ATOM      2  C   UNL A   1      32.585  28.094  26.562  1.00  0.00     0.261 C 
BRANCH   2   3
ATOM      3  O   UNL A   1      31.527  27.310  27.129  1.00  0.00    -0.462 OA
BRANCH   3   4
ATOM      4  C   UNL A   1      31.024  26.331  26.326  1.00  0.00     0.329 C 
ATOM      5  O   UNL A   1      29.866  26.271  25.926  1.00  0.00    -0.250 OA
BRANCH   4   6
ATOM      6  C   UNL A   1      32.081  25.271  25.994  1.00  0.00     0.197 C 
ATOM      7  N   UNL A   1      32.406  25.048  24.573  1.00  0.00    -0.308 N 
ATOM      8  C   UNL A   1      33.499  24.085  24.344  1.00  0.00     0.091 C 
ATOM      9  C   UNL A   1      31.825  23.954  26.736  1.00  0.00     0.038 C 
ATOM     10  C   UNL A   1      33.417  22.779  25.155  1.00  0.00     0.012 C 
ATOM     11  C   UNL A   1      33.877  23.793  22.890  1.00  0.00     0.025 C 
ATOM     12  C   UNL A   1      33.047  23.043  26.621  1.00  0.00     0.008 C 
ATOM     13  C   UNL A   1      32.523  21.687  24.563  1.00  0.00     0.006 C 
ATOM     14  C   UNL A   1      33.160  22.629  22.205  1.00  0.00     0.002 C 
ATOM     15  C   UNL A   1      32.313  21.692  23.058  1.00  0.00     0.000 C 
BRANCH   7  16
ATOM     16  C   UNL A   1      31.405  25.220  23.631  1.00  0.00     0.320 C 
ATOM     17  O   UNL A   1      30.435  24.473  23.590  1.00  0.00    -0.248 OA
BRANCH  16  18
ATOM     18  N   UNL A   1      31.611  26.245  22.705  1.00  0.00    -0.325 N 
ATOM     19  C   UNL A   1      31.800  26.032  21.271  1.00  0.00     0.149 C 
BRANCH  18  20
ATOM     20  C   UNL A   1      31.355  27.655  23.087  1.00  0.00     0.083 C 
ATOM     21  C   UNL A   1      29.935  28.159  22.801  1.00  0.00     0.031 C 
BRANCH  20  22
ATOM     22  C   UNL A   1      32.437  28.571  22.483  1.00  0.00     0.021 C 
ATOM     23  C   UNL A   1      33.825  28.321  23.053  1.00  0.00     0.006 C 
ENDBRANCH  20  22
ENDBRANCH  18  20
ENDBRANCH  16  18
ENDBRANCH   7  16
ENDBRANCH   4   6
ENDBRANCH   3   4
ENDBRANCH   2   3
ENDBRANCH   1   2
BRANCH   1  24
ATOM     24  O   UNL A   1      32.217  30.561  26.860  1.00  0.00    -0.374 OA
BRANCH  24  25
ATOM     25  C   UNL A   1      31.433  31.708  26.536  1.00  0.00     0.202 C 
BRANCH  25  26
ATOM     26  C   UNL A   1      31.896  33.047  27.120  1.00  0.00     0.261 C 
BRANCH  26  27
ATOM     27  O   UNL A   1      33.158  32.930  27.804  1.00  0.00    -0.460 OA
BRANCH  27  28
ATOM     28  C   UNL A   1      33.490  33.992  28.573  1.00  0.00     0.338 C 
ATOM     29  O   UNL A   1      32.880  35.052  28.669  1.00  0.00    -0.246 OA
BRANCH  28  30
ATOM     30  C   UNL A   1      34.613  33.645  29.461  1.00  0.00     0.060 A 
ATOM     31  C   UNL A   1      35.870  34.191  29.166  1.00  0.00     0.016 A 
ATOM     32  C   UNL A   1      34.460  32.748  30.522  1.00  0.00     0.016 A 
ATOM     33  C   UNL A   1      36.988  33.812  29.905  1.00  0.00     0.010 A 
ATOM     34  C   UNL A   1      35.586  32.358  31.251  1.00  0.00     0.010 A 
ATOM     35  C   UNL A   1      36.858  32.865  30.928  1.00  0.00    -0.014 A 
BRANCH  35  36
ATOM     36  C   UNL A   1      38.067  32.306  31.578  1.00  0.00     0.031 A 
ATOM     37  C   UNL A   1      38.504  32.863  32.904  1.00  0.00     0.074 A 
ATOM     38  C   UNL A   1      38.761  31.315  30.993  1.00  0.00     0.049 A 
ATOM     39  N   UNL A   1      39.572  32.587  33.606  1.00  0.00    -0.248 NA
ATOM     40  C   UNL A   1      37.617  33.863  33.523  1.00  0.00     0.031 C 
ATOM     41  C   UNL A   1      38.401  30.657  29.737  1.00  0.00     0.029 A 
ATOM     42  N   UNL A   1      39.925  30.698  31.376  1.00  0.00    -0.354 N 
ATOM     43  C   UNL A   1      39.495  33.384  34.742  1.00  0.00     0.074 A 
ATOM     44  C   UNL A   1      38.284  34.169  34.627  1.00  0.00     0.031 C 
ATOM     45  C   UNL A   1      39.338  29.740  29.443  1.00  0.00     0.029 A 
ATOM     46  C   UNL A   1      40.384  29.779  30.463  1.00  0.00     0.049 A 
ATOM     47  H   UNL A   1      40.388  30.895  32.223  1.00  0.00     0.167 HD
ATOM     48  C   UNL A   1      40.355  33.456  35.785  1.00  0.00     0.031 A 
ATOM     49  C   UNL A   1      41.536  29.079  30.435  1.00  0.00     0.031 A 
ATOM     50  C   UNL A   1      41.569  32.689  35.878  1.00  0.00     0.049 A 
ATOM     51  C   UNL A   1      42.532  29.255  31.550  1.00  0.00     0.074 A 
ATOM     52  C   UNL A   1      42.504  32.678  36.899  1.00  0.00     0.029 A 
ATOM     53  N   UNL A   1      42.024  31.807  34.909  1.00  0.00    -0.354 N 
ATOM     54  N   UNL A   1      42.436  29.995  32.630  1.00  0.00    -0.248 NA
ATOM     55  C   UNL A   1      43.793  28.508  31.443  1.00  0.00     0.031 C 
ATOM     56  C   UNL A   1      43.554  31.837  36.518  1.00  0.00     0.029 A 
ATOM     57  C   UNL A   1      43.245  31.277  35.288  1.00  0.00     0.049 A 
ATOM     58  H   UNL A   1      41.548  31.589  34.076  1.00  0.00     0.167 HD
ATOM     59  C   UNL A   1      43.619  29.793  33.336  1.00  0.00     0.074 A 
ATOM     60  C   UNL A   1      44.404  28.846  32.570  1.00  0.00     0.031 C 
ATOM     61  C   UNL A   1      44.019  30.342  34.509  1.00  0.00     0.031 A 
BRANCH  48  62
ATOM     62  C   UNL A   1      40.034  34.428  36.888  1.00  0.00    -0.014 A 
ATOM     63  C   UNL A   1      39.307  34.030  38.023  1.00  0.00     0.010 A 
ATOM     64  C   UNL A   1      40.500  35.754  36.804  1.00  0.00     0.010 A 
ATOM     65  C   UNL A   1      39.020  34.948  39.037  1.00  0.00     0.020 A 
ATOM     66  C   UNL A   1      40.237  36.669  37.828  1.00  0.00     0.020 A 
ATOM     67  C   UNL A   1      39.483  36.263  38.932  1.00  0.00     0.054 A 
BRANCH  67  68
ATOM     68  S   UNL A   1      39.111  37.429  40.271  1.00  0.00     0.124 S 
ATOM     69  O   UNL A   1      38.469  36.561  41.255  1.00  0.00    -0.237 OA
ATOM     70  O   UNL A   1      40.434  37.925  40.640  1.00  0.00    -0.237 OA
ATOM     71  O   UNL A   1      38.233  38.413  39.642  1.00  0.00    -0.744 OA
ENDBRANCH  67  68
ENDBRANCH  48  62
BRANCH  49  72
ATOM     72  C   UNL A   1      41.828  28.183  29.282  1.00  0.00    -0.014 A 
ATOM     73  C   UNL A   1      42.514  28.664  28.154  1.00  0.00     0.010 A 
ATOM     74  C   UNL A   1      41.428  26.833  29.314  1.00  0.00     0.010 A 
ATOM     75  C   UNL A   1      42.786  27.815  27.076  1.00  0.00     0.020 A 
ATOM     76  C   UNL A   1      41.723  25.975  28.251  1.00  0.00     0.020 A 
ATOM     77  C   UNL A   1      42.392  26.474  27.133  1.00  0.00     0.054 A 
BRANCH  77  78
ATOM     78  S   UNL A   1      42.809  25.380  25.747  1.00  0.00     0.124 S 
ATOM     79  O   UNL A   1      42.330  26.147  24.601  1.00  0.00    -0.237 OA
ATOM     80  O   UNL A   1      44.260  25.261  25.865  1.00  0.00    -0.237 OA
ATOM     81  O   UNL A   1      42.065  24.157  26.039  1.00  0.00    -0.744 OA
ENDBRANCH  77  78
ENDBRANCH  49  72
BRANCH  61  82
ATOM     82  C   UNL A   1      45.362  29.931  35.049  1.00  0.00    -0.014 A 
ATOM     83  C   UNL A   1      46.527  30.637  34.704  1.00  0.00     0.010 A 
ATOM     84  C   UNL A   1      45.449  28.877  35.977  1.00  0.00     0.010 A 
ATOM     85  C   UNL A   1      47.758  30.288  35.266  1.00  0.00     0.020 A 
ATOM     86  C   UNL A   1      46.673  28.541  36.561  1.00  0.00     0.020 A 
ATOM     87  C   UNL A   1      47.822  29.244  36.195  1.00  0.00     0.054 A 
BRANCH  87  88
ATOM     88  S   UNL A   1      49.421  28.857  36.962  1.00  0.00     0.124 S 
ATOM     89  O   UNL A   1      49.695  30.072  37.725  1.00  0.00    -0.237 OA
ATOM     90  O   UNL A   1      49.114  27.671  37.759  1.00  0.00    -0.237 OA
ATOM     91  O   UNL A   1      50.305  28.624  35.823  1.00  0.00    -0.744 OA
ENDBRANCH  87  88
ENDBRANCH  61  82
ENDBRANCH  35  36
ENDBRANCH  28  30
ENDBRANCH  27  28
ENDBRANCH  26  27
ENDBRANCH  25  26
ENDBRANCH  24  25
ENDBRANCH   1  24
TORSDOF 21
ENDMDL
