MODEL 1
REMARK VINA RESULT:     -10.2      0.000      0.000
REMARK SMILES C[C@@H]1OCC[C@@H]1C(=O)Nc1ccc(C(=O)OCCOCCOC(=O)c2ccc(-c3c4nc(c(-c5ccc(S(=O)(=O)[O-])cc5)c5ccc([nH]5)c(-c5ccc(S(=O)(=O)[O-])cc5)c5nc(c(-c6ccc(S(=O)(=O)[O-])cc6)c6ccc3[nH]6)C=C5)C=C4)cc2)cc1F
REMARK SMILES IDX 20 1 19 2 18 3 17 4 16 5 14 6 15 7 13 8 10 9 11 10 86 11
REMARK SMILES IDX 12 12 85 13 87 14 9 15 7 16 8 17 6 19 1 20 2 21 3 22 4 23
REMARK SMILES IDX 5 24 21 25 22 26 23 27 24 28 25 29 26 30 84 31 27 32 83 33
REMARK SMILES IDX 28 34 29 35 30 36 77 37 31 38 82 39 76 40 78 41 32 42 81 43
REMARK SMILES IDX 75 44 74 45 33 47 63 48 44 49 62 50 45 51 48 52 61 53 79 54
REMARK SMILES IDX 46 55 47 56 60 58 80 59 49 60 34 61 35 62 43 63 36 64 42 65
REMARK SMILES IDX 37 66 38 67 39 68 40 69 41 70 64 71 65 72 73 73 66 74 72 75
REMARK SMILES IDX 67 76 68 77 69 78 70 79 71 80 50 81 51 82 59 83 52 84 58 85
REMARK SMILES IDX 53 86 54 87 55 88 56 89 57 90
REMARK H PARENT 9 18 78 46 48 57
REMARK Flexibility Score: inf
ROOT
ATOM      1  C   UNL A   1      35.625  31.954  31.151  1.00  0.00     0.202 C 
ENDROOT
BRANCH   1   2
ATOM      2  O   UNL A   1      34.569  32.227  30.227  1.00  0.00    -0.374 OA
BRANCH   2   3
ATOM      3  C   UNL A   1      34.947  32.602  28.903  1.00  0.00     0.202 C 
BRANCH   3   4
ATOM      4  C   UNL A   1      33.861  32.514  27.828  1.00  0.00     0.261 C 
BRANCH   4   5
ATOM      5  O   UNL A   1      33.443  31.162  27.619  1.00  0.00    -0.460 OA
BRANCH   5   6
ATOM      6  C   UNL A   1      32.334  30.992  26.857  1.00  0.00     0.338 C 
ATOM      7  O   UNL A   1      31.441  31.783  26.645  1.00  0.00    -0.246 OA
BRANCH   6   8
ATOM      8  C   UNL A   1      32.455  29.683  26.178  1.00  0.00     0.063 A 
ATOM      9  C   UNL A   1      32.688  27.192  24.841  1.00  0.00     0.077 A 
ATOM     10  C   UNL A   1      33.636  27.600  25.797  1.00  0.00     0.030 A 
ATOM     11  C   UNL A   1      31.606  28.063  24.628  1.00  0.00     0.147 A 
ATOM     12  C   UNL A   1      33.533  28.839  26.450  1.00  0.00     0.018 A 
ATOM     13  C   UNL A   1      31.480  29.275  25.286  1.00  0.00     0.057 A 
ATOM     14  F   UNL A   1      30.604  27.835  23.785  1.00  0.00    -0.205 F 
BRANCH   9  15
ATOM     15  N   UNL A   1      32.980  25.963  24.191  1.00  0.00    -0.323 N 
ATOM     16  C   UNL A   1      32.532  24.671  24.304  1.00  0.00     0.230 C 
ATOM     17  O   UNL A   1      32.933  23.848  23.478  1.00  0.00    -0.274 OA
ATOM     18  H   UNL A   1      33.666  26.061  23.493  1.00  0.00     0.170 HD
BRANCH  16  19
ATOM     19  C   UNL A   1      31.597  24.282  25.407  1.00  0.00     0.110 C 
ATOM     20  C   UNL A   1      33.650  23.437  26.741  1.00  0.00     0.039 C 
ATOM     21  C   UNL A   1      32.295  24.141  26.766  1.00  0.00     0.127 C 
ATOM     22  O   UNL A   1      31.406  23.344  27.581  1.00  0.00    -0.378 OA
ATOM     23  C   UNL A   1      30.293  22.963  26.760  1.00  0.00     0.161 C 
ATOM     24  C   UNL A   1      30.819  22.987  25.335  1.00  0.00     0.044 C 
ENDBRANCH  16  19
ENDBRANCH   9  15
ENDBRANCH   6   8
ENDBRANCH   5   6
ENDBRANCH   4   5
ENDBRANCH   3   4
ENDBRANCH   2   3
ENDBRANCH   1   2
BRANCH   1  25
ATOM     25  C   UNL A   1      36.289  30.576  31.070  1.00  0.00     0.261 C 
BRANCH  25  26
ATOM     26  O   UNL A   1      37.395  30.559  30.153  1.00  0.00    -0.460 OA
BRANCH  26  27
ATOM     27  C   UNL A   1      37.281  29.646  29.157  1.00  0.00     0.338 C 
ATOM     28  O   UNL A   1      36.264  29.321  28.569  1.00  0.00    -0.246 OA
BRANCH  27  29
ATOM     29  C   UNL A   1      38.622  29.209  28.733  1.00  0.00     0.060 A 
ATOM     30  C   UNL A   1      39.489  28.724  29.721  1.00  0.00     0.016 A 
ATOM     31  C   UNL A   1      39.047  29.337  27.410  1.00  0.00     0.016 A 
ATOM     32  C   UNL A   1      40.806  28.411  29.397  1.00  0.00     0.010 A 
ATOM     33  C   UNL A   1      40.371  29.027  27.089  1.00  0.00     0.010 A 
ATOM     34  C   UNL A   1      41.265  28.597  28.087  1.00  0.00    -0.014 A 
BRANCH  34  35
ATOM     35  C   UNL A   1      42.709  28.457  27.784  1.00  0.00     0.031 A 
ATOM     36  C   UNL A   1      43.631  29.614  28.050  1.00  0.00     0.074 A 
ATOM     37  C   UNL A   1      43.191  27.304  27.288  1.00  0.00     0.049 A 
ATOM     38  N   UNL A   1      44.916  29.715  27.831  1.00  0.00    -0.248 NA
ATOM     39  C   UNL A   1      43.021  30.816  28.638  1.00  0.00     0.031 C 
ATOM     40  C   UNL A   1      42.403  26.097  27.038  1.00  0.00     0.029 A 
ATOM     41  N   UNL A   1      44.463  26.963  26.906  1.00  0.00    -0.354 N 
ATOM     42  C   UNL A   1      45.267  30.998  28.234  1.00  0.00     0.074 A 
ATOM     43  C   UNL A   1      44.053  31.646  28.683  1.00  0.00     0.031 C 
ATOM     44  C   UNL A   1      43.214  25.143  26.551  1.00  0.00     0.029 A 
ATOM     45  C   UNL A   1      44.564  25.687  26.412  1.00  0.00     0.049 A 
ATOM     46  H   UNL A   1      45.231  27.575  26.980  1.00  0.00     0.167 HD
ATOM     47  C   UNL A   1      46.490  31.584  28.233  1.00  0.00     0.031 A 
ATOM     48  C   UNL A   1      45.621  25.035  25.889  1.00  0.00     0.031 A 
ATOM     49  C   UNL A   1      47.687  30.939  27.760  1.00  0.00     0.049 A 
ATOM     50  C   UNL A   1      46.950  25.734  25.809  1.00  0.00     0.074 A 
ATOM     51  C   UNL A   1      48.980  31.433  27.736  1.00  0.00     0.029 A 
ATOM     52  N   UNL A   1      47.737  29.666  27.207  1.00  0.00    -0.354 N 
ATOM     53  N   UNL A   1      47.277  26.936  26.224  1.00  0.00    -0.248 NA
ATOM     54  C   UNL A   1      48.055  24.988  25.193  1.00  0.00     0.031 C 
ATOM     55  C   UNL A   1      49.796  30.490  27.101  1.00  0.00     0.029 A 
ATOM     56  C   UNL A   1      49.029  29.375  26.800  1.00  0.00     0.049 A 
ATOM     57  H   UNL A   1      46.967  29.060  27.119  1.00  0.00     0.167 HD
ATOM     58  C   UNL A   1      48.633  27.079  25.946  1.00  0.00     0.074 A 
ATOM     59  C   UNL A   1      49.065  25.836  25.337  1.00  0.00     0.031 C 
ATOM     60  C   UNL A   1      49.445  28.139  26.181  1.00  0.00     0.031 A 
BRANCH  47  61
ATOM     61  C   UNL A   1      46.571  33.015  28.702  1.00  0.00    -0.014 A 
ATOM     62  C   UNL A   1      46.803  33.338  30.053  1.00  0.00     0.010 A 
ATOM     63  C   UNL A   1      46.401  34.058  27.774  1.00  0.00     0.010 A 
ATOM     64  C   UNL A   1      46.793  34.672  30.475  1.00  0.00     0.020 A 
ATOM     65  C   UNL A   1      46.425  35.394  28.185  1.00  0.00     0.020 A 
ATOM     66  C   UNL A   1      46.593  35.690  29.539  1.00  0.00     0.054 A 
BRANCH  66  67
ATOM     67  S   UNL A   1      46.553  37.409  30.118  1.00  0.00     0.124 S 
ATOM     68  O   UNL A   1      46.032  37.257  31.474  1.00  0.00    -0.237 OA
ATOM     69  O   UNL A   1      47.954  37.811  30.024  1.00  0.00    -0.237 OA
ATOM     70  O   UNL A   1      45.653  38.073  29.177  1.00  0.00    -0.744 OA
ENDBRANCH  66  67
ENDBRANCH  47  61
BRANCH  48  71
ATOM     71  C   UNL A   1      45.457  23.634  25.414  1.00  0.00    -0.014 A 
ATOM     72  C   UNL A   1      45.693  22.558  26.286  1.00  0.00     0.010 A 
ATOM     73  C   UNL A   1      45.017  23.370  24.103  1.00  0.00     0.010 A 
ATOM     74  C   UNL A   1      45.485  21.244  25.860  1.00  0.00     0.020 A 
ATOM     75  C   UNL A   1      44.781  22.058  23.683  1.00  0.00     0.020 A 
ATOM     76  C   UNL A   1      45.018  21.002  24.566  1.00  0.00     0.054 A 
BRANCH  76  77
ATOM     77  S   UNL A   1      44.664  19.292  24.073  1.00  0.00     0.124 S 
ATOM     78  O   UNL A   1      45.792  18.569  24.651  1.00  0.00    -0.237 OA
ATOM     79  O   UNL A   1      43.367  19.050  24.699  1.00  0.00    -0.237 OA
ATOM     80  O   UNL A   1      44.641  19.354  22.613  1.00  0.00    -0.744 OA
ENDBRANCH  76  77
ENDBRANCH  48  71
BRANCH  60  81
ATOM     81  C   UNL A   1      50.899  27.999  25.803  1.00  0.00    -0.014 A 
ATOM     82  C   UNL A   1      51.845  27.477  26.703  1.00  0.00     0.010 A 
ATOM     83  C   UNL A   1      51.312  28.343  24.502  1.00  0.00     0.010 A 
ATOM     84  C   UNL A   1      53.181  27.329  26.319  1.00  0.00     0.020 A 
ATOM     85  C   UNL A   1      52.640  28.166  24.103  1.00  0.00     0.020 A 
ATOM     86  C   UNL A   1      53.568  27.671  25.019  1.00  0.00     0.054 A 
BRANCH  86  87
ATOM     87  S   UNL A   1      55.298  27.420  24.531  1.00  0.00     0.124 S 
ATOM     88  O   UNL A   1      55.202  27.386  23.075  1.00  0.00    -0.237 OA
ATOM     89  O   UNL A   1      55.961  28.596  25.089  1.00  0.00    -0.237 OA
ATOM     90  O   UNL A   1      55.656  26.152  25.162  1.00  0.00    -0.744 OA
ENDBRANCH  86  87
ENDBRANCH  60  81
ENDBRANCH  34  35
ENDBRANCH  27  29
ENDBRANCH  26  27
ENDBRANCH  25  26
ENDBRANCH   1  25
TORSDOF 19
ENDMDL
MODEL 2
REMARK VINA RESULT:     -10.0      4.331     10.643
REMARK SMILES C[C@@H]1OCC[C@@H]1C(=O)Nc1ccc(C(=O)OCCOCCOC(=O)c2ccc(-c3c4nc(c(-c5ccc(S(=O)(=O)[O-])cc5)c5ccc([nH]5)c(-c5ccc(S(=O)(=O)[O-])cc5)c5nc(c(-c6ccc(S(=O)(=O)[O-])cc6)c6ccc3[nH]6)C=C5)C=C4)cc2)cc1F
REMARK SMILES IDX 20 1 19 2 18 3 17 4 16 5 14 6 15 7 13 8 10 9 11 10 86 11
REMARK SMILES IDX 12 12 85 13 87 14 9 15 7 16 8 17 6 19 1 20 2 21 3 22 4 23
REMARK SMILES IDX 5 24 21 25 22 26 23 27 24 28 25 29 26 30 84 31 27 32 83 33
REMARK SMILES IDX 28 34 29 35 30 36 77 37 31 38 82 39 76 40 78 41 32 42 81 43
REMARK SMILES IDX 75 44 74 45 33 47 63 48 44 49 62 50 45 51 48 52 61 53 79 54
REMARK SMILES IDX 46 55 47 56 60 58 80 59 49 60 34 61 35 62 43 63 36 64 42 65
REMARK SMILES IDX 37 66 38 67 39 68 40 69 41 70 64 71 65 72 73 73 66 74 72 75
REMARK SMILES IDX 67 76 68 77 69 78 70 79 71 80 50 81 51 82 59 83 52 84 58 85
REMARK SMILES IDX 53 86 54 87 55 88 56 89 57 90
REMARK H PARENT 9 18 78 46 48 57
REMARK Flexibility Score: inf
ROOT
ATOM      1  C   UNL A   1      36.500  20.949  25.388  1.00  0.00     0.202 C 
ENDROOT
BRANCH   1   2
ATOM      2  O   UNL A   1      35.237  21.605  25.258  1.00  0.00    -0.374 OA
BRANCH   2   3
ATOM      3  C   UNL A   1      34.170  21.125  26.076  1.00  0.00     0.202 C 
BRANCH   3   4
ATOM      4  C   UNL A   1      33.088  20.297  25.377  1.00  0.00     0.261 C 
BRANCH   4   5
ATOM      5  O   UNL A   1      32.110  21.136  24.757  1.00  0.00    -0.460 OA
BRANCH   5   6
ATOM      6  C   UNL A   1      32.245  21.321  23.419  1.00  0.00     0.338 C 
ATOM      7  O   UNL A   1      32.094  20.510  22.532  1.00  0.00    -0.246 OA
BRANCH   6   8
ATOM      8  C   UNL A   1      32.477  22.764  23.189  1.00  0.00     0.063 A 
ATOM      9  C   UNL A   1      32.908  25.538  22.786  1.00  0.00     0.077 A 
ATOM     10  C   UNL A   1      33.947  24.605  22.616  1.00  0.00     0.030 A 
ATOM     11  C   UNL A   1      31.648  25.012  23.117  1.00  0.00     0.147 A 
ATOM     12  C   UNL A   1      33.741  23.231  22.830  1.00  0.00     0.018 A 
ATOM     13  C   UNL A   1      31.427  23.657  23.303  1.00  0.00     0.057 A 
ATOM     14  F   UNL A   1      30.546  25.736  23.292  1.00  0.00    -0.205 F 
BRANCH   9  15
ATOM     15  N   UNL A   1      33.291  26.898  22.636  1.00  0.00    -0.323 N 
ATOM     16  C   UNL A   1      33.525  27.944  23.492  1.00  0.00     0.230 C 
ATOM     17  O   UNL A   1      33.967  28.992  23.015  1.00  0.00    -0.274 OA
ATOM     18  H   UNL A   1      33.421  27.149  21.693  1.00  0.00     0.170 HD
BRANCH  16  19
ATOM     19  C   UNL A   1      33.239  27.810  24.956  1.00  0.00     0.110 C 
ATOM     20  C   UNL A   1      31.156  29.309  24.604  1.00  0.00     0.039 C 
ATOM     21  C   UNL A   1      31.776  28.107  25.313  1.00  0.00     0.127 C 
ATOM     22  O   UNL A   1      31.769  28.387  26.730  1.00  0.00    -0.378 OA
ATOM     23  C   UNL A   1      33.129  28.343  27.187  1.00  0.00     0.161 C 
ATOM     24  C   UNL A   1      33.972  28.666  25.964  1.00  0.00     0.044 C 
ENDBRANCH  16  19
ENDBRANCH   9  15
ENDBRANCH   6   8
ENDBRANCH   5   6
ENDBRANCH   4   5
ENDBRANCH   3   4
ENDBRANCH   2   3
ENDBRANCH   1   2
BRANCH   1  25
ATOM     25  C   UNL A   1      37.740  21.715  24.914  1.00  0.00     0.261 C 
BRANCH  25  26
ATOM     26  O   UNL A   1      37.970  22.905  25.685  1.00  0.00    -0.460 OA
BRANCH  26  27
ATOM     27  C   UNL A   1      39.158  22.927  26.339  1.00  0.00     0.338 C 
ATOM     28  O   UNL A   1      40.018  22.064  26.331  1.00  0.00    -0.246 OA
BRANCH  27  29
ATOM     29  C   UNL A   1      39.366  24.256  26.938  1.00  0.00     0.060 A 
ATOM     30  C   UNL A   1      40.041  25.214  26.172  1.00  0.00     0.016 A 
ATOM     31  C   UNL A   1      38.973  24.536  28.248  1.00  0.00     0.016 A 
ATOM     32  C   UNL A   1      40.371  26.445  26.731  1.00  0.00     0.010 A 
ATOM     33  C   UNL A   1      39.311  25.770  28.809  1.00  0.00     0.010 A 
ATOM     34  C   UNL A   1      40.041  26.716  28.065  1.00  0.00    -0.014 A 
BRANCH  34  35
ATOM     35  C   UNL A   1      40.564  27.937  28.722  1.00  0.00     0.031 A 
ATOM     36  C   UNL A   1      42.001  27.978  29.162  1.00  0.00     0.074 A 
ATOM     37  C   UNL A   1      39.766  29.002  28.910  1.00  0.00     0.049 A 
ATOM     38  N   UNL A   1      42.651  28.930  29.779  1.00  0.00    -0.248 NA
ATOM     39  C   UNL A   1      42.809  26.784  28.870  1.00  0.00     0.031 C 
ATOM     40  C   UNL A   1      38.371  29.100  28.479  1.00  0.00     0.029 A 
ATOM     41  N   UNL A   1      40.018  30.207  29.517  1.00  0.00    -0.354 N 
ATOM     42  C   UNL A   1      43.940  28.444  29.968  1.00  0.00     0.074 A 
ATOM     43  C   UNL A   1      43.968  27.103  29.426  1.00  0.00     0.031 C 
ATOM     44  C   UNL A   1      37.892  30.305  28.828  1.00  0.00     0.029 A 
ATOM     45  C   UNL A   1      38.930  31.044  29.546  1.00  0.00     0.049 A 
ATOM     46  H   UNL A   1      40.895  30.448  29.893  1.00  0.00     0.167 HD
ATOM     47  C   UNL A   1      45.003  29.061  30.539  1.00  0.00     0.031 A 
ATOM     48  C   UNL A   1      38.781  32.261  30.105  1.00  0.00     0.031 A 
ATOM     49  C   UNL A   1      44.956  30.387  31.099  1.00  0.00     0.049 A 
ATOM     50  C   UNL A   1      39.947  32.890  30.818  1.00  0.00     0.074 A 
ATOM     51  C   UNL A   1      45.981  31.114  31.680  1.00  0.00     0.029 A 
ATOM     52  N   UNL A   1      43.818  31.180  31.167  1.00  0.00    -0.354 N 
ATOM     53  N   UNL A   1      41.170  32.435  30.961  1.00  0.00    -0.248 NA
ATOM     54  C   UNL A   1      39.713  34.199  31.441  1.00  0.00     0.031 C 
ATOM     55  C   UNL A   1      45.445  32.312  32.166  1.00  0.00     0.029 A 
ATOM     56  C   UNL A   1      44.105  32.369  31.818  1.00  0.00     0.049 A 
ATOM     57  H   UNL A   1      42.937  30.932  30.805  1.00  0.00     0.167 HD
ATOM     58  C   UNL A   1      41.860  33.416  31.667  1.00  0.00     0.074 A 
ATOM     59  C   UNL A   1      40.919  34.492  31.909  1.00  0.00     0.031 C 
ATOM     60  C   UNL A   1      43.156  33.427  32.068  1.00  0.00     0.031 A 
BRANCH  47  61
ATOM     61  C   UNL A   1      46.286  28.274  30.640  1.00  0.00    -0.014 A 
ATOM     62  C   UNL A   1      47.228  28.258  29.593  1.00  0.00     0.010 A 
ATOM     63  C   UNL A   1      46.550  27.526  31.803  1.00  0.00     0.010 A 
ATOM     64  C   UNL A   1      48.370  27.455  29.679  1.00  0.00     0.020 A 
ATOM     65  C   UNL A   1      47.708  26.750  31.908  1.00  0.00     0.020 A 
ATOM     66  C   UNL A   1      48.596  26.698  30.832  1.00  0.00     0.054 A 
BRANCH  66  67
ATOM     67  S   UNL A   1      50.069  25.642  30.905  1.00  0.00     0.124 S 
ATOM     68  O   UNL A   1      50.097  25.073  29.560  1.00  0.00    -0.237 OA
ATOM     69  O   UNL A   1      51.134  26.597  31.205  1.00  0.00    -0.237 OA
ATOM     70  O   UNL A   1      49.767  24.694  31.975  1.00  0.00    -0.744 OA
ENDBRANCH  66  67
ENDBRANCH  47  61
BRANCH  48  71
ATOM     71  C   UNL A   1      37.474  32.964  29.995  1.00  0.00    -0.014 A 
ATOM     72  C   UNL A   1      37.128  33.634  28.810  1.00  0.00     0.010 A 
ATOM     73  C   UNL A   1      36.550  32.925  31.056  1.00  0.00     0.010 A 
ATOM     74  C   UNL A   1      35.878  34.246  28.683  1.00  0.00     0.020 A 
ATOM     75  C   UNL A   1      35.289  33.512  30.921  1.00  0.00     0.020 A 
ATOM     76  C   UNL A   1      34.962  34.171  29.734  1.00  0.00     0.054 A 
BRANCH  76  77
ATOM     77  S   UNL A   1      33.312  34.890  29.504  1.00  0.00     0.124 S 
ATOM     78  O   UNL A   1      32.792  34.902  30.868  1.00  0.00    -0.237 OA
ATOM     79  O   UNL A   1      33.620  36.198  28.931  1.00  0.00    -0.237 OA
ATOM     80  O   UNL A   1      32.655  33.958  28.590  1.00  0.00    -0.744 OA
ENDBRANCH  76  77
ENDBRANCH  48  71
BRANCH  60  81
ATOM     81  C   UNL A   1      43.649  34.654  32.794  1.00  0.00    -0.014 A 
ATOM     82  C   UNL A   1      43.638  34.729  34.199  1.00  0.00     0.010 A 
ATOM     83  C   UNL A   1      44.187  35.725  32.057  1.00  0.00     0.010 A 
ATOM     84  C   UNL A   1      44.130  35.864  34.850  1.00  0.00     0.020 A 
ATOM     85  C   UNL A   1      44.709  36.848  32.705  1.00  0.00     0.020 A 
ATOM     86  C   UNL A   1      44.665  36.916  34.098  1.00  0.00     0.054 A 
BRANCH  86  87
ATOM     87  S   UNL A   1      45.342  38.355  34.971  1.00  0.00     0.124 S 
ATOM     88  O   UNL A   1      44.143  39.148  35.228  1.00  0.00    -0.237 OA
ATOM     89  O   UNL A   1      45.961  37.752  36.149  1.00  0.00    -0.237 OA
ATOM     90  O   UNL A   1      46.278  38.935  34.011  1.00  0.00    -0.744 OA
ENDBRANCH  86  87
ENDBRANCH  60  81
ENDBRANCH  34  35
ENDBRANCH  27  29
ENDBRANCH  26  27
ENDBRANCH  25  26
ENDBRANCH   1  25
TORSDOF 19
ENDMDL
MODEL 3
REMARK VINA RESULT:      -9.9      1.864      2.513
REMARK SMILES C[C@@H]1OCC[C@@H]1C(=O)Nc1ccc(C(=O)OCCOCCOC(=O)c2ccc(-c3c4nc(c(-c5ccc(S(=O)(=O)[O-])cc5)c5ccc([nH]5)c(-c5ccc(S(=O)(=O)[O-])cc5)c5nc(c(-c6ccc(S(=O)(=O)[O-])cc6)c6ccc3[nH]6)C=C5)C=C4)cc2)cc1F
REMARK SMILES IDX 20 1 19 2 18 3 17 4 16 5 14 6 15 7 13 8 10 9 11 10 86 11
REMARK SMILES IDX 12 12 85 13 87 14 9 15 7 16 8 17 6 19 1 20 2 21 3 22 4 23
REMARK SMILES IDX 5 24 21 25 22 26 23 27 24 28 25 29 26 30 84 31 27 32 83 33
REMARK SMILES IDX 28 34 29 35 30 36 77 37 31 38 82 39 76 40 78 41 32 42 81 43
REMARK SMILES IDX 75 44 74 45 33 47 63 48 44 49 62 50 45 51 48 52 61 53 79 54
REMARK SMILES IDX 46 55 47 56 60 58 80 59 49 60 34 61 35 62 43 63 36 64 42 65
REMARK SMILES IDX 37 66 38 67 39 68 40 69 41 70 64 71 65 72 73 73 66 74 72 75
REMARK SMILES IDX 67 76 68 77 69 78 70 79 71 80 50 81 51 82 59 83 52 84 58 85
REMARK SMILES IDX 53 86 54 87 55 88 56 89 57 90
REMARK H PARENT 9 18 78 46 48 57
REMARK Flexibility Score: inf
ROOT
ATOM      1  C   UNL A   1      34.753  32.943  30.137  1.00  0.00     0.202 C 
ENDROOT
BRANCH   1   2
ATOM      2  O   UNL A   1      34.022  32.329  29.073  1.00  0.00    -0.374 OA
BRANCH   2   3
ATOM      3  C   UNL A   1      34.753  31.988  27.895  1.00  0.00     0.202 C 
BRANCH   3   4
ATOM      4  C   UNL A   1      34.318  30.717  27.161  1.00  0.00     0.261 C 
BRANCH   4   5
ATOM      5  O   UNL A   1      33.017  30.294  27.578  1.00  0.00    -0.460 OA
BRANCH   5   6
ATOM      6  C   UNL A   1      31.998  30.575  26.727  1.00  0.00     0.338 C 
ATOM      7  O   UNL A   1      31.527  31.658  26.455  1.00  0.00    -0.246 OA
BRANCH   6   8
ATOM      8  C   UNL A   1      31.625  29.317  26.045  1.00  0.00     0.063 A 
ATOM      9  C   UNL A   1      30.884  26.895  24.767  1.00  0.00     0.077 A 
ATOM     10  C   UNL A   1      30.789  28.132  24.102  1.00  0.00     0.030 A 
ATOM     11  C   UNL A   1      31.408  26.930  26.070  1.00  0.00     0.147 A 
ATOM     12  C   UNL A   1      31.141  29.335  24.737  1.00  0.00     0.018 A 
ATOM     13  C   UNL A   1      31.783  28.106  26.696  1.00  0.00     0.057 A 
ATOM     14  F   UNL A   1      31.594  25.862  26.841  1.00  0.00    -0.205 F 
BRANCH   9  15
ATOM     15  N   UNL A   1      30.396  25.780  24.034  1.00  0.00    -0.323 N 
ATOM     16  C   UNL A   1      30.945  24.623  23.542  1.00  0.00     0.230 C 
ATOM     17  O   UNL A   1      30.185  23.795  23.035  1.00  0.00    -0.274 OA
ATOM     18  H   UNL A   1      29.436  25.855  23.832  1.00  0.00     0.170 HD
BRANCH  16  19
ATOM     19  C   UNL A   1      32.423  24.390  23.612  1.00  0.00     0.110 C 
ATOM     20  C   UNL A   1      32.624  25.469  21.266  1.00  0.00     0.039 C 
ATOM     21  C   UNL A   1      33.220  25.291  22.661  1.00  0.00     0.127 C 
ATOM     22  O   UNL A   1      34.507  24.653  22.505  1.00  0.00    -0.378 OA
ATOM     23  C   UNL A   1      34.470  23.420  23.239  1.00  0.00     0.161 C 
ATOM     24  C   UNL A   1      33.002  23.031  23.292  1.00  0.00     0.044 C 
ENDBRANCH  16  19
ENDBRANCH   9  15
ENDBRANCH   6   8
ENDBRANCH   5   6
ENDBRANCH   4   5
ENDBRANCH   3   4
ENDBRANCH   2   3
ENDBRANCH   1   2
BRANCH   1  25
ATOM     25  C   UNL A   1      35.350  32.017  31.203  1.00  0.00     0.261 C 
BRANCH  25  26
ATOM     26  O   UNL A   1      36.225  31.029  30.636  1.00  0.00    -0.460 OA
BRANCH  26  27
ATOM     27  C   UNL A   1      36.934  30.321  31.549  1.00  0.00     0.338 C 
ATOM     28  O   UNL A   1      36.498  29.726  32.519  1.00  0.00    -0.246 OA
BRANCH  27  29
ATOM     29  C   UNL A   1      38.333  30.204  31.104  1.00  0.00     0.060 A 
ATOM     30  C   UNL A   1      38.606  30.447  29.751  1.00  0.00     0.016 A 
ATOM     31  C   UNL A   1      39.345  29.796  31.974  1.00  0.00     0.016 A 
ATOM     32  C   UNL A   1      39.888  30.235  29.252  1.00  0.00     0.010 A 
ATOM     33  C   UNL A   1      40.629  29.577  31.468  1.00  0.00     0.010 A 
ATOM     34  C   UNL A   1      40.897  29.762  30.099  1.00  0.00    -0.014 A 
BRANCH  34  35
ATOM     35  C   UNL A   1      42.202  29.345  29.533  1.00  0.00     0.031 A 
ATOM     36  C   UNL A   1      43.333  30.335  29.487  1.00  0.00     0.074 A 
ATOM     37  C   UNL A   1      42.377  28.093  29.078  1.00  0.00     0.049 A 
ATOM     38  N   UNL A   1      44.541  30.190  29.008  1.00  0.00    -0.248 NA
ATOM     39  C   UNL A   1      43.062  31.666  30.053  1.00  0.00     0.031 C 
ATOM     40  C   UNL A   1      41.372  27.031  29.118  1.00  0.00     0.029 A 
ATOM     41  N   UNL A   1      43.467  27.505  28.489  1.00  0.00    -0.354 N 
ATOM     42  C   UNL A   1      45.170  31.415  29.196  1.00  0.00     0.074 A 
ATOM     43  C   UNL A   1      44.199  32.299  29.805  1.00  0.00     0.031 C 
ATOM     44  C   UNL A   1      41.896  25.916  28.584  1.00  0.00     0.029 A 
ATOM     45  C   UNL A   1      43.255  26.199  28.124  1.00  0.00     0.049 A 
ATOM     46  H   UNL A   1      44.321  27.974  28.344  1.00  0.00     0.167 HD
ATOM     47  C   UNL A   1      46.442  31.772  28.891  1.00  0.00     0.031 A 
ATOM     48  C   UNL A   1      44.058  25.333  27.474  1.00  0.00     0.031 A 
ATOM     49  C   UNL A   1      47.392  30.892  28.261  1.00  0.00     0.049 A 
ATOM     50  C   UNL A   1      45.435  25.777  27.059  1.00  0.00     0.074 A 
ATOM     51  C   UNL A   1      48.713  31.144  27.930  1.00  0.00     0.029 A 
ATOM     52  N   UNL A   1      47.120  29.594  27.848  1.00  0.00    -0.354 N 
ATOM     53  N   UNL A   1      46.030  26.927  27.272  1.00  0.00    -0.248 NA
ATOM     54  C   UNL A   1      46.249  24.803  26.320  1.00  0.00     0.031 C 
ATOM     55  C   UNL A   1      49.213  30.028  27.250  1.00  0.00     0.029 A 
ATOM     56  C   UNL A   1      48.232  29.049  27.227  1.00  0.00     0.049 A 
ATOM     57  H   UNL A   1      46.261  29.131  27.979  1.00  0.00     0.167 HD
ATOM     58  C   UNL A   1      47.300  26.806  26.717  1.00  0.00     0.074 A 
ATOM     59  C   UNL A   1      47.388  25.466  26.171  1.00  0.00     0.031 C 
ATOM     60  C   UNL A   1      48.303  27.718  26.673  1.00  0.00     0.031 A 
BRANCH  47  61
ATOM     61  C   UNL A   1      46.849  33.195  29.180  1.00  0.00    -0.014 A 
ATOM     62  C   UNL A   1      47.411  33.566  30.416  1.00  0.00     0.010 A 
ATOM     63  C   UNL A   1      46.655  34.183  28.197  1.00  0.00     0.010 A 
ATOM     64  C   UNL A   1      47.704  34.907  30.687  1.00  0.00     0.020 A 
ATOM     65  C   UNL A   1      46.980  35.519  28.451  1.00  0.00     0.020 A 
ATOM     66  C   UNL A   1      47.476  35.876  29.706  1.00  0.00     0.054 A 
BRANCH  66  67
ATOM     67  S   UNL A   1      47.835  37.611  30.095  1.00  0.00     0.124 S 
ATOM     68  O   UNL A   1      46.503  38.209  30.057  1.00  0.00    -0.237 OA
ATOM     69  O   UNL A   1      48.446  37.523  31.420  1.00  0.00    -0.237 OA
ATOM     70  O   UNL A   1      48.736  38.029  29.024  1.00  0.00    -0.744 OA
ENDBRANCH  66  67
ENDBRANCH  47  61
BRANCH  48  71
ATOM     71  C   UNL A   1      43.575  23.954  27.193  1.00  0.00    -0.014 A 
ATOM     72  C   UNL A   1      43.425  23.029  28.240  1.00  0.00     0.010 A 
ATOM     73  C   UNL A   1      43.216  23.574  25.886  1.00  0.00     0.010 A 
ATOM     74  C   UNL A   1      42.917  21.752  27.987  1.00  0.00     0.020 A 
ATOM     75  C   UNL A   1      42.683  22.308  25.635  1.00  0.00     0.020 A 
ATOM     76  C   UNL A   1      42.538  21.403  26.688  1.00  0.00     0.054 A 
BRANCH  76  77
ATOM     77  S   UNL A   1      41.792  19.773  26.408  1.00  0.00     0.124 S 
ATOM     78  O   UNL A   1      42.430  19.357  25.163  1.00  0.00    -0.237 OA
ATOM     79  O   UNL A   1      42.194  19.037  27.604  1.00  0.00    -0.237 OA
ATOM     80  O   UNL A   1      40.362  20.061  26.315  1.00  0.00    -0.744 OA
ENDBRANCH  76  77
ENDBRANCH  48  71
BRANCH  60  81
ATOM     81  C   UNL A   1      49.601  27.295  26.031  1.00  0.00    -0.014 A 
ATOM     82  C   UNL A   1      50.665  26.783  26.796  1.00  0.00     0.010 A 
ATOM     83  C   UNL A   1      49.734  27.357  24.632  1.00  0.00     0.010 A 
ATOM     84  C   UNL A   1      51.847  26.368  26.175  1.00  0.00     0.020 A 
ATOM     85  C   UNL A   1      50.902  26.914  24.004  1.00  0.00     0.020 A 
ATOM     86  C   UNL A   1      51.956  26.434  24.782  1.00  0.00     0.054 A 
BRANCH  86  87
ATOM     87  S   UNL A   1      53.482  25.842  23.999  1.00  0.00     0.124 S 
ATOM     88  O   UNL A   1      53.193  26.038  22.581  1.00  0.00    -0.237 OA
ATOM     89  O   UNL A   1      54.495  26.729  24.563  1.00  0.00    -0.237 OA
ATOM     90  O   UNL A   1      53.574  24.448  24.429  1.00  0.00    -0.744 OA
ENDBRANCH  86  87
ENDBRANCH  60  81
ENDBRANCH  34  35
ENDBRANCH  27  29
ENDBRANCH  26  27
ENDBRANCH  25  26
ENDBRANCH   1  25
TORSDOF 19
ENDMDL
