MODEL 1
REMARK VINA RESULT:     -10.0      0.000      0.000
REMARK SMILES CNC(=O)CCn1c(SCC(=O)OCCOCCOC(=O)c2ccc(-c3c4nc(c(-c5ccc(S(=O)(=O)[O-])cc5)c5ccc([nH]5)c(-c5ccc(S(=O)(=O)[O-])cc5)c5nc(c(-c6ccc(S(=O)(=O)[O-])cc6)c6ccc3[nH]6)C=C5)C=C4)cc2)nc2ccc(C)cc21
REMARK SMILES IDX 15 1 14 2 13 3 11 4 12 5 10 6 9 7 8 8 7 9 89 10 82 11 83 12
REMARK SMILES IDX 88 13 84 14 86 15 85 16 87 17 6 18 5 19 3 20 1 21 2 22 4 24
REMARK SMILES IDX 16 25 17 26 18 27 19 28 20 29 21 30 22 31 23 32 81 33 24 34
REMARK SMILES IDX 80 35 25 36 26 37 27 38 74 39 28 40 79 41 73 42 75 43 29 44
REMARK SMILES IDX 78 45 72 46 71 47 30 49 60 50 41 51 59 52 42 53 45 54 58 55
REMARK SMILES IDX 76 56 43 57 44 58 57 60 77 61 46 62 31 63 32 64 40 65 33 66
REMARK SMILES IDX 39 67 34 68 35 69 36 70 37 71 38 72 61 73 62 74 70 75 63 76
REMARK SMILES IDX 69 77 64 78 65 79 66 80 67 81 68 82 47 83 48 84 56 85 49 86
REMARK SMILES IDX 55 87 50 88 51 89 52 90 53 91 54 92
REMARK H PARENT 2 23 75 48 45 59
REMARK Flexibility Score: inf
ROOT
ATOM      1  C   UNL A   1      31.598  28.330  25.339  1.00  0.00     0.202 C 
ENDROOT
BRANCH   1   2
ATOM      2  C   UNL A   1      32.268  27.967  24.001  1.00  0.00     0.261 C 
BRANCH   2   3
ATOM      3  O   UNL A   1      32.824  26.641  23.954  1.00  0.00    -0.463 OA
BRANCH   3   4
ATOM      4  C   UNL A   1      32.500  25.924  22.845  1.00  0.00     0.316 C 
ATOM      5  O   UNL A   1      31.659  26.279  22.021  1.00  0.00    -0.251 OA
BRANCH   4   6
ATOM      6  C   UNL A   1      33.274  24.641  22.630  1.00  0.00     0.200 C 
BRANCH   6   7
ATOM      7  S   UNL A   1      34.569  24.218  23.820  1.00  0.00    -0.076 SA
BRANCH   7   8
ATOM      8  C   UNL A   1      34.173  22.597  24.314  1.00  0.00     0.169 A 
ATOM      9  N   UNL A   1      35.121  21.611  24.509  1.00  0.00    -0.318 N 
ATOM     10  C   UNL A   1      34.444  20.401  24.590  1.00  0.00     0.069 A 
ATOM     11  N   UNL A   1      32.953  22.112  24.375  1.00  0.00    -0.222 NA
ATOM     12  C   UNL A   1      33.106  20.750  24.424  1.00  0.00     0.090 A 
ATOM     13  C   UNL A   1      34.859  19.061  24.655  1.00  0.00     0.032 A 
ATOM     14  C   UNL A   1      32.152  19.744  24.204  1.00  0.00     0.031 A 
ATOM     15  C   UNL A   1      33.923  18.073  24.299  1.00  0.00    -0.049 A 
ATOM     16  C   UNL A   1      32.585  18.418  24.078  1.00  0.00     0.006 A 
ATOM     17  C   UNL A   1      34.401  16.669  24.047  1.00  0.00     0.044 C 
BRANCH   9  18
ATOM     18  C   UNL A   1      36.565  21.770  24.549  1.00  0.00     0.135 C 
BRANCH  18  19
ATOM     19  C   UNL A   1      37.207  21.922  25.926  1.00  0.00     0.122 C 
BRANCH  19  20
ATOM     20  C   UNL A   1      38.265  22.995  25.984  1.00  0.00     0.221 C 
ATOM     21  C   UNL A   1      40.134  21.339  26.397  1.00  0.00     0.142 C 
ATOM     22  N   UNL A   1      39.550  22.653  26.269  1.00  0.00    -0.359 N 
ATOM     23  H   UNL A   1      40.169  23.406  26.407  1.00  0.00     0.163 HD
ATOM     24  O   UNL A   1      37.973  24.179  25.821  1.00  0.00    -0.275 OA
ENDBRANCH  19  20
ENDBRANCH  18  19
ENDBRANCH   9  18
ENDBRANCH   7   8
ENDBRANCH   6   7
ENDBRANCH   4   6
ENDBRANCH   3   4
ENDBRANCH   2   3
ENDBRANCH   1   2
BRANCH   1  25
ATOM     25  O   UNL A   1      31.778  29.622  25.900  1.00  0.00    -0.374 OA
BRANCH  25  26
ATOM     26  C   UNL A   1      33.101  30.136  25.939  1.00  0.00     0.202 C 
BRANCH  26  27
ATOM     27  C   UNL A   1      34.194  29.287  26.603  1.00  0.00     0.261 C 
BRANCH  27  28
ATOM     28  O   UNL A   1      34.610  29.765  27.881  1.00  0.00    -0.460 OA
BRANCH  28  29
ATOM     29  C   UNL A   1      35.384  30.878  27.858  1.00  0.00     0.338 C 
ATOM     30  O   UNL A   1      35.045  32.035  27.664  1.00  0.00    -0.246 OA
BRANCH  29  31
ATOM     31  C   UNL A   1      36.627  30.487  28.519  1.00  0.00     0.060 A 
ATOM     32  C   UNL A   1      37.665  31.409  28.667  1.00  0.00     0.016 A 
ATOM     33  C   UNL A   1      36.835  29.102  28.577  1.00  0.00     0.016 A 
ATOM     34  C   UNL A   1      38.957  30.922  28.725  1.00  0.00     0.010 A 
ATOM     35  C   UNL A   1      38.130  28.625  28.593  1.00  0.00     0.010 A 
ATOM     36  C   UNL A   1      39.184  29.540  28.602  1.00  0.00    -0.014 A 
BRANCH  36  37
ATOM     37  C   UNL A   1      40.555  29.057  28.694  1.00  0.00     0.031 A 
ATOM     38  C   UNL A   1      40.973  28.860  30.102  1.00  0.00     0.074 A 
ATOM     39  C   UNL A   1      41.334  28.701  27.654  1.00  0.00     0.049 A 
ATOM     40  N   UNL A   1      41.929  29.461  30.721  1.00  0.00    -0.248 NA
ATOM     41  C   UNL A   1      40.114  28.032  30.967  1.00  0.00     0.031 C 
ATOM     42  C   UNL A   1      40.985  28.608  26.240  1.00  0.00     0.029 A 
ATOM     43  N   UNL A   1      42.610  28.225  27.672  1.00  0.00    -0.354 N 
ATOM     44  C   UNL A   1      41.905  28.972  32.019  1.00  0.00     0.074 A 
ATOM     45  C   UNL A   1      40.679  28.229  32.157  1.00  0.00     0.031 C 
ATOM     46  C   UNL A   1      41.920  27.883  25.586  1.00  0.00     0.029 A 
ATOM     47  C   UNL A   1      42.989  27.558  26.511  1.00  0.00     0.049 A 
ATOM     48  H   UNL A   1      43.213  28.343  28.441  1.00  0.00     0.167 HD
ATOM     49  C   UNL A   1      42.986  29.055  32.837  1.00  0.00     0.031 A 
ATOM     50  C   UNL A   1      44.055  26.729  26.354  1.00  0.00     0.031 A 
ATOM     51  C   UNL A   1      43.952  30.002  32.351  1.00  0.00     0.049 A 
ATOM     52  C   UNL A   1      45.019  27.056  27.434  1.00  0.00     0.074 A 
ATOM     53  C   UNL A   1      43.921  31.364  32.128  1.00  0.00     0.029 A 
ATOM     54  N   UNL A   1      45.010  29.515  31.619  1.00  0.00    -0.354 N 
ATOM     55  N   UNL A   1      45.662  28.187  27.492  1.00  0.00    -0.248 NA
ATOM     56  C   UNL A   1      44.905  26.335  28.693  1.00  0.00     0.031 C 
ATOM     57  C   UNL A   1      44.640  31.552  30.915  1.00  0.00     0.029 A 
ATOM     58  C   UNL A   1      45.146  30.314  30.510  1.00  0.00     0.049 A 
ATOM     59  H   UNL A   1      45.569  28.736  31.848  1.00  0.00     0.167 HD
ATOM     60  C   UNL A   1      45.621  28.543  28.831  1.00  0.00     0.074 A 
ATOM     61  C   UNL A   1      45.227  27.321  29.537  1.00  0.00     0.031 C 
ATOM     62  C   UNL A   1      45.619  29.852  29.220  1.00  0.00     0.031 A 
BRANCH  49  63
ATOM     63  C   UNL A   1      43.283  28.050  33.910  1.00  0.00    -0.014 A 
ATOM     64  C   UNL A   1      43.594  26.703  33.629  1.00  0.00     0.010 A 
ATOM     65  C   UNL A   1      43.484  28.493  35.231  1.00  0.00     0.010 A 
ATOM     66  C   UNL A   1      44.044  25.826  34.613  1.00  0.00     0.020 A 
ATOM     67  C   UNL A   1      43.979  27.631  36.218  1.00  0.00     0.020 A 
ATOM     68  C   UNL A   1      44.244  26.299  35.903  1.00  0.00     0.054 A 
BRANCH  68  69
ATOM     69  S   UNL A   1      44.915  25.153  37.129  1.00  0.00     0.124 S 
ATOM     70  O   UNL A   1      44.254  25.602  38.350  1.00  0.00    -0.237 OA
ATOM     71  O   UNL A   1      44.481  23.857  36.616  1.00  0.00    -0.237 OA
ATOM     72  O   UNL A   1      46.354  25.395  37.071  1.00  0.00    -0.744 OA
ENDBRANCH  68  69
ENDBRANCH  49  63
BRANCH  50  73
ATOM     73  C   UNL A   1      44.075  25.418  25.646  1.00  0.00    -0.014 A 
ATOM     74  C   UNL A   1      43.029  24.493  25.841  1.00  0.00     0.010 A 
ATOM     75  C   UNL A   1      45.261  24.942  25.049  1.00  0.00     0.010 A 
ATOM     76  C   UNL A   1      43.196  23.133  25.567  1.00  0.00     0.020 A 
ATOM     77  C   UNL A   1      45.438  23.573  24.774  1.00  0.00     0.020 A 
ATOM     78  C   UNL A   1      44.419  22.673  25.085  1.00  0.00     0.054 A 
BRANCH  78  79
ATOM     79  S   UNL A   1      44.681  20.877  24.999  1.00  0.00     0.124 S 
ATOM     80  O   UNL A   1      43.603  20.376  25.847  1.00  0.00    -0.237 OA
ATOM     81  O   UNL A   1      44.533  20.602  23.572  1.00  0.00    -0.237 OA
ATOM     82  O   UNL A   1      46.031  20.697  25.528  1.00  0.00    -0.744 OA
ENDBRANCH  78  79
ENDBRANCH  50  73
BRANCH  62  83
ATOM     83  C   UNL A   1      45.875  30.930  28.182  1.00  0.00    -0.014 A 
ATOM     84  C   UNL A   1      47.131  31.563  28.203  1.00  0.00     0.010 A 
ATOM     85  C   UNL A   1      44.874  31.469  27.346  1.00  0.00     0.010 A 
ATOM     86  C   UNL A   1      47.374  32.713  27.449  1.00  0.00     0.020 A 
ATOM     87  C   UNL A   1      45.121  32.609  26.561  1.00  0.00     0.020 A 
ATOM     88  C   UNL A   1      46.366  33.236  26.639  1.00  0.00     0.054 A 
BRANCH  88  89
ATOM     89  S   UNL A   1      46.721  34.753  25.711  1.00  0.00     0.124 S 
ATOM     90  O   UNL A   1      46.481  35.792  26.711  1.00  0.00    -0.237 OA
ATOM     91  O   UNL A   1      48.120  34.575  25.326  1.00  0.00    -0.237 OA
ATOM     92  O   UNL A   1      45.770  34.725  24.604  1.00  0.00    -0.744 OA
ENDBRANCH  88  89
ENDBRANCH  62  83
ENDBRANCH  36  37
ENDBRANCH  29  31
ENDBRANCH  28  29
ENDBRANCH  27  28
ENDBRANCH  26  27
ENDBRANCH  25  26
ENDBRANCH   1  25
TORSDOF 22
ENDMDL
MODEL 2
REMARK VINA RESULT:      -9.9      2.277      3.912
REMARK SMILES CNC(=O)CCn1c(SCC(=O)OCCOCCOC(=O)c2ccc(-c3c4nc(c(-c5ccc(S(=O)(=O)[O-])cc5)c5ccc([nH]5)c(-c5ccc(S(=O)(=O)[O-])cc5)c5nc(c(-c6ccc(S(=O)(=O)[O-])cc6)c6ccc3[nH]6)C=C5)C=C4)cc2)nc2ccc(C)cc21
REMARK SMILES IDX 15 1 14 2 13 3 11 4 12 5 10 6 9 7 8 8 7 9 89 10 82 11 83 12
REMARK SMILES IDX 88 13 84 14 86 15 85 16 87 17 6 18 5 19 3 20 1 21 2 22 4 24
REMARK SMILES IDX 16 25 17 26 18 27 19 28 20 29 21 30 22 31 23 32 81 33 24 34
REMARK SMILES IDX 80 35 25 36 26 37 27 38 74 39 28 40 79 41 73 42 75 43 29 44
REMARK SMILES IDX 78 45 72 46 71 47 30 49 60 50 41 51 59 52 42 53 45 54 58 55
REMARK SMILES IDX 76 56 43 57 44 58 57 60 77 61 46 62 31 63 32 64 40 65 33 66
REMARK SMILES IDX 39 67 34 68 35 69 36 70 37 71 38 72 61 73 62 74 70 75 63 76
REMARK SMILES IDX 69 77 64 78 65 79 66 80 67 81 68 82 47 83 48 84 56 85 49 86
REMARK SMILES IDX 55 87 50 88 51 89 52 90 53 91 54 92
REMARK H PARENT 2 23 75 48 45 59
REMARK Flexibility Score: inf
ROOT
ATOM      1  C   UNL A   1      34.396  31.277  27.531  1.00  0.00     0.202 C 
ENDROOT
BRANCH   1   2
ATOM      2  C   UNL A   1      34.767  29.783  27.528  1.00  0.00     0.261 C 
BRANCH   2   3
ATOM      3  O   UNL A   1      34.619  29.135  26.252  1.00  0.00    -0.463 OA
BRANCH   3   4
ATOM      4  C   UNL A   1      33.350  28.752  25.948  1.00  0.00     0.316 C 
ATOM      5  O   UNL A   1      32.780  29.040  24.897  1.00  0.00    -0.251 OA
BRANCH   4   6
ATOM      6  C   UNL A   1      32.651  27.888  26.975  1.00  0.00     0.200 C 
BRANCH   6   7
ATOM      7  S   UNL A   1      31.281  26.845  26.421  1.00  0.00    -0.076 SA
BRANCH   7   8
ATOM      8  C   UNL A   1      32.064  25.486  25.666  1.00  0.00     0.169 A 
ATOM      9  N   UNL A   1      31.646  24.941  24.467  1.00  0.00    -0.318 N 
ATOM     10  C   UNL A   1      32.285  23.717  24.329  1.00  0.00     0.069 A 
ATOM     11  N   UNL A   1      32.993  24.751  26.233  1.00  0.00    -0.222 NA
ATOM     12  C   UNL A   1      33.052  23.602  25.485  1.00  0.00     0.090 A 
ATOM     13  C   UNL A   1      32.174  22.665  23.405  1.00  0.00     0.032 A 
ATOM     14  C   UNL A   1      33.647  22.370  25.801  1.00  0.00     0.031 A 
ATOM     15  C   UNL A   1      32.657  21.403  23.796  1.00  0.00    -0.049 A 
ATOM     16  C   UNL A   1      33.385  21.264  24.983  1.00  0.00     0.006 A 
ATOM     17  C   UNL A   1      32.280  20.192  22.986  1.00  0.00     0.044 C 
BRANCH   9  18
ATOM     18  C   UNL A   1      30.666  25.487  23.543  1.00  0.00     0.135 C 
BRANCH  18  19
ATOM     19  C   UNL A   1      31.195  26.051  22.226  1.00  0.00     0.122 C 
BRANCH  19  20
ATOM     20  C   UNL A   1      31.212  27.558  22.177  1.00  0.00     0.221 C 
ATOM     21  C   UNL A   1      33.735  27.670  21.999  1.00  0.00     0.142 C 
ATOM     22  N   UNL A   1      32.405  28.212  22.145  1.00  0.00    -0.359 N 
ATOM     23  H   UNL A   1      32.354  29.191  22.231  1.00  0.00     0.163 HD
ATOM     24  O   UNL A   1      30.166  28.203  22.213  1.00  0.00    -0.275 OA
ENDBRANCH  19  20
ENDBRANCH  18  19
ENDBRANCH   9  18
ENDBRANCH   7   8
ENDBRANCH   6   7
ENDBRANCH   4   6
ENDBRANCH   3   4
ENDBRANCH   2   3
ENDBRANCH   1   2
BRANCH   1  25
ATOM     25  O   UNL A   1      35.403  32.263  27.361  1.00  0.00    -0.374 OA
BRANCH  25  26
ATOM     26  C   UNL A   1      35.792  33.001  28.511  1.00  0.00     0.202 C 
BRANCH  26  27
ATOM     27  C   UNL A   1      34.735  33.284  29.588  1.00  0.00     0.261 C 
BRANCH  27  28
ATOM     28  O   UNL A   1      35.254  33.892  30.769  1.00  0.00    -0.460 OA
BRANCH  28  29
ATOM     29  C   UNL A   1      35.027  33.209  31.918  1.00  0.00     0.338 C 
ATOM     30  O   UNL A   1      33.959  32.953  32.450  1.00  0.00    -0.246 OA
BRANCH  29  31
ATOM     31  C   UNL A   1      36.268  32.483  32.178  1.00  0.00     0.060 A 
ATOM     32  C   UNL A   1      37.496  33.143  32.110  1.00  0.00     0.016 A 
ATOM     33  C   UNL A   1      36.153  31.091  32.063  1.00  0.00     0.016 A 
ATOM     34  C   UNL A   1      38.610  32.399  31.771  1.00  0.00     0.010 A 
ATOM     35  C   UNL A   1      37.261  30.362  31.682  1.00  0.00     0.010 A 
ATOM     36  C   UNL A   1      38.469  31.031  31.477  1.00  0.00    -0.014 A 
BRANCH  36  37
ATOM     37  C   UNL A   1      39.667  30.271  31.149  1.00  0.00     0.031 A 
ATOM     38  C   UNL A   1      40.451  29.934  32.360  1.00  0.00     0.074 A 
ATOM     39  C   UNL A   1      39.990  29.803  29.928  1.00  0.00     0.049 A 
ATOM     40  N   UNL A   1      41.656  30.298  32.632  1.00  0.00    -0.248 NA
ATOM     41  C   UNL A   1      39.750  29.269  33.473  1.00  0.00     0.031 C 
ATOM     42  C   UNL A   1      39.207  29.842  28.696  1.00  0.00     0.029 A 
ATOM     43  N   UNL A   1      41.079  29.072  29.558  1.00  0.00    -0.354 N 
ATOM     44  C   UNL A   1      41.935  29.772  33.886  1.00  0.00     0.074 A 
ATOM     45  C   UNL A   1      40.685  29.296  34.420  1.00  0.00     0.031 C 
ATOM     46  C   UNL A   1      39.717  28.966  27.802  1.00  0.00     0.029 A 
ATOM     47  C   UNL A   1      40.928  28.388  28.355  1.00  0.00     0.049 A 
ATOM     48  H   UNL A   1      41.901  29.031  30.096  1.00  0.00     0.167 HD
ATOM     49  C   UNL A   1      43.209  29.596  34.322  1.00  0.00     0.031 A 
ATOM     50  C   UNL A   1      41.693  27.363  27.895  1.00  0.00     0.031 A 
ATOM     51  C   UNL A   1      44.152  30.339  33.532  1.00  0.00     0.049 A 
ATOM     52  C   UNL A   1      42.992  27.438  28.610  1.00  0.00     0.074 A 
ATOM     53  C   UNL A   1      44.340  31.686  33.293  1.00  0.00     0.029 A 
ATOM     54  N   UNL A   1      44.803  29.673  32.520  1.00  0.00    -0.354 N 
ATOM     55  N   UNL A   1      43.843  28.407  28.434  1.00  0.00    -0.248 NA
ATOM     56  C   UNL A   1      43.126  26.706  29.862  1.00  0.00     0.031 C 
ATOM     57  C   UNL A   1      44.669  31.770  31.912  1.00  0.00     0.029 A 
ATOM     58  C   UNL A   1      44.751  30.471  31.403  1.00  0.00     0.049 A 
ATOM     59  H   UNL A   1      45.229  28.787  32.584  1.00  0.00     0.167 HD
ATOM     60  C   UNL A   1      44.297  28.709  29.709  1.00  0.00     0.074 A 
ATOM     61  C   UNL A   1      43.894  27.569  30.535  1.00  0.00     0.031 C 
ATOM     62  C   UNL A   1      44.691  29.973  30.043  1.00  0.00     0.031 A 
BRANCH  49  63
ATOM     63  C   UNL A   1      43.608  28.508  35.275  1.00  0.00    -0.014 A 
ATOM     64  C   UNL A   1      43.782  27.167  34.873  1.00  0.00     0.010 A 
ATOM     65  C   UNL A   1      44.044  28.852  36.568  1.00  0.00     0.010 A 
ATOM     66  C   UNL A   1      44.325  26.204  35.721  1.00  0.00     0.020 A 
ATOM     67  C   UNL A   1      44.633  27.902  37.412  1.00  0.00     0.020 A 
ATOM     68  C   UNL A   1      44.758  26.581  36.985  1.00  0.00     0.054 A 
BRANCH  68  69
ATOM     69  S   UNL A   1      45.540  25.322  38.020  1.00  0.00     0.124 S 
ATOM     70  O   UNL A   1      45.122  24.090  37.357  1.00  0.00    -0.237 OA
ATOM     71  O   UNL A   1      46.956  25.655  37.900  1.00  0.00    -0.237 OA
ATOM     72  O   UNL A   1      44.955  25.552  39.338  1.00  0.00    -0.744 OA
ENDBRANCH  68  69
ENDBRANCH  49  63
BRANCH  50  73
ATOM     73  C   UNL A   1      41.216  26.106  27.252  1.00  0.00    -0.014 A 
ATOM     74  C   UNL A   1      40.119  25.407  27.796  1.00  0.00     0.010 A 
ATOM     75  C   UNL A   1      42.025  25.424  26.321  1.00  0.00     0.010 A 
ATOM     76  C   UNL A   1      39.905  24.053  27.518  1.00  0.00     0.020 A 
ATOM     77  C   UNL A   1      41.819  24.060  26.039  1.00  0.00     0.020 A 
ATOM     78  C   UNL A   1      40.789  23.374  26.683  1.00  0.00     0.054 A 
BRANCH  78  79
ATOM     79  S   UNL A   1      40.634  21.568  26.564  1.00  0.00     0.124 S 
ATOM     80  O   UNL A   1      39.338  21.421  25.905  1.00  0.00    -0.237 OA
ATOM     81  O   UNL A   1      41.792  21.201  25.754  1.00  0.00    -0.237 OA
ATOM     82  O   UNL A   1      40.684  21.122  27.954  1.00  0.00    -0.744 OA
ENDBRANCH  78  79
ENDBRANCH  50  73
BRANCH  62  83
ATOM     83  C   UNL A   1      44.832  31.016  28.948  1.00  0.00    -0.014 A 
ATOM     84  C   UNL A   1      46.134  31.418  28.601  1.00  0.00     0.010 A 
ATOM     85  C   UNL A   1      43.748  31.743  28.412  1.00  0.00     0.010 A 
ATOM     86  C   UNL A   1      46.355  32.526  27.781  1.00  0.00     0.020 A 
ATOM     87  C   UNL A   1      43.961  32.841  27.560  1.00  0.00     0.020 A 
ATOM     88  C   UNL A   1      45.268  33.238  27.271  1.00  0.00     0.054 A 
BRANCH  88  89
ATOM     89  S   UNL A   1      45.611  34.693  26.243  1.00  0.00     0.124 S 
ATOM     90  O   UNL A   1      46.854  35.198  26.824  1.00  0.00    -0.237 OA
ATOM     91  O   UNL A   1      45.740  34.118  24.906  1.00  0.00    -0.237 OA
ATOM     92  O   UNL A   1      44.442  35.548  26.436  1.00  0.00    -0.744 OA
ENDBRANCH  88  89
ENDBRANCH  62  83
ENDBRANCH  36  37
ENDBRANCH  29  31
ENDBRANCH  28  29
ENDBRANCH  27  28
ENDBRANCH  26  27
ENDBRANCH  25  26
ENDBRANCH   1  25
TORSDOF 22
ENDMDL
MODEL 3
REMARK VINA RESULT:      -9.8      3.813      6.671
REMARK SMILES CNC(=O)CCn1c(SCC(=O)OCCOCCOC(=O)c2ccc(-c3c4nc(c(-c5ccc(S(=O)(=O)[O-])cc5)c5ccc([nH]5)c(-c5ccc(S(=O)(=O)[O-])cc5)c5nc(c(-c6ccc(S(=O)(=O)[O-])cc6)c6ccc3[nH]6)C=C5)C=C4)cc2)nc2ccc(C)cc21
REMARK SMILES IDX 15 1 14 2 13 3 11 4 12 5 10 6 9 7 8 8 7 9 89 10 82 11 83 12
REMARK SMILES IDX 88 13 84 14 86 15 85 16 87 17 6 18 5 19 3 20 1 21 2 22 4 24
REMARK SMILES IDX 16 25 17 26 18 27 19 28 20 29 21 30 22 31 23 32 81 33 24 34
REMARK SMILES IDX 80 35 25 36 26 37 27 38 74 39 28 40 79 41 73 42 75 43 29 44
REMARK SMILES IDX 78 45 72 46 71 47 30 49 60 50 41 51 59 52 42 53 45 54 58 55
REMARK SMILES IDX 76 56 43 57 44 58 57 60 77 61 46 62 31 63 32 64 40 65 33 66
REMARK SMILES IDX 39 67 34 68 35 69 36 70 37 71 38 72 61 73 62 74 70 75 63 76
REMARK SMILES IDX 69 77 64 78 65 79 66 80 67 81 68 82 47 83 48 84 56 85 49 86
REMARK SMILES IDX 55 87 50 88 51 89 52 90 53 91 54 92
REMARK H PARENT 2 23 75 48 45 59
REMARK Flexibility Score: inf
ROOT
ATOM      1  C   UNL A   1      34.110  36.518  33.021  1.00  0.00     0.202 C 
ENDROOT
BRANCH   1   2
ATOM      2  C   UNL A   1      33.280  37.205  31.921  1.00  0.00     0.261 C 
BRANCH   2   3
ATOM      3  O   UNL A   1      32.535  36.300  31.086  1.00  0.00    -0.463 OA
BRANCH   3   4
ATOM      4  C   UNL A   1      32.978  36.211  29.803  1.00  0.00     0.316 C 
ATOM      5  O   UNL A   1      32.713  37.033  28.928  1.00  0.00    -0.251 OA
BRANCH   4   6
ATOM      6  C   UNL A   1      33.882  35.038  29.489  1.00  0.00     0.200 C 
BRANCH   6   7
ATOM      7  S   UNL A   1      33.324  33.837  28.258  1.00  0.00    -0.076 SA
BRANCH   7   8
ATOM      8  C   UNL A   1      34.702  32.799  28.027  1.00  0.00     0.169 A 
ATOM      9  N   UNL A   1      34.597  31.443  27.784  1.00  0.00    -0.318 N 
ATOM     10  C   UNL A   1      35.862  30.897  27.959  1.00  0.00     0.069 A 
ATOM     11  N   UNL A   1      35.949  33.158  28.234  1.00  0.00    -0.222 NA
ATOM     12  C   UNL A   1      36.655  31.985  28.315  1.00  0.00     0.090 A 
ATOM     13  C   UNL A   1      36.354  29.582  27.976  1.00  0.00     0.032 A 
ATOM     14  C   UNL A   1      37.950  31.763  28.809  1.00  0.00     0.031 A 
ATOM     15  C   UNL A   1      37.597  29.361  28.598  1.00  0.00    -0.049 A 
ATOM     16  C   UNL A   1      38.381  30.445  29.008  1.00  0.00     0.006 A 
ATOM     17  C   UNL A   1      38.014  27.952  28.922  1.00  0.00     0.044 C 
BRANCH   9  18
ATOM     18  C   UNL A   1      33.392  30.693  27.476  1.00  0.00     0.135 C 
BRANCH  18  19
ATOM     19  C   UNL A   1      33.290  30.087  26.078  1.00  0.00     0.122 C 
BRANCH  19  20
ATOM     20  C   UNL A   1      33.002  28.607  26.081  1.00  0.00     0.221 C 
ATOM     21  C   UNL A   1      31.185  28.808  24.330  1.00  0.00     0.142 C 
ATOM     22  N   UNL A   1      31.989  28.122  25.313  1.00  0.00    -0.359 N 
ATOM     23  H   UNL A   1      31.775  27.170  25.445  1.00  0.00     0.163 HD
ATOM     24  O   UNL A   1      33.639  27.841  26.801  1.00  0.00    -0.275 OA
ENDBRANCH  19  20
ENDBRANCH  18  19
ENDBRANCH   9  18
ENDBRANCH   7   8
ENDBRANCH   6   7
ENDBRANCH   4   6
ENDBRANCH   3   4
ENDBRANCH   2   3
ENDBRANCH   1   2
BRANCH   1  25
ATOM     25  O   UNL A   1      34.222  35.103  33.053  1.00  0.00    -0.374 OA
BRANCH  25  26
ATOM     26  C   UNL A   1      35.527  34.551  32.952  1.00  0.00     0.202 C 
BRANCH  26  27
ATOM     27  C   UNL A   1      35.769  33.143  33.517  1.00  0.00     0.261 C 
BRANCH  27  28
ATOM     28  O   UNL A   1      36.972  32.530  33.058  1.00  0.00    -0.460 OA
BRANCH  28  29
ATOM     29  C   UNL A   1      36.810  31.343  32.423  1.00  0.00     0.338 C 
ATOM     30  O   UNL A   1      36.019  31.056  31.540  1.00  0.00    -0.246 OA
BRANCH  29  31
ATOM     31  C   UNL A   1      38.036  30.597  32.701  1.00  0.00     0.060 A 
ATOM     32  C   UNL A   1      39.279  31.225  32.607  1.00  0.00     0.016 A 
ATOM     33  C   UNL A   1      37.888  29.204  32.631  1.00  0.00     0.016 A 
ATOM     34  C   UNL A   1      40.374  30.445  32.287  1.00  0.00     0.010 A 
ATOM     35  C   UNL A   1      38.977  28.438  32.269  1.00  0.00     0.010 A 
ATOM     36  C   UNL A   1      40.199  29.072  32.037  1.00  0.00    -0.014 A 
BRANCH  36  37
ATOM     37  C   UNL A   1      41.377  28.274  31.728  1.00  0.00     0.031 A 
ATOM     38  C   UNL A   1      42.050  27.792  32.958  1.00  0.00     0.074 A 
ATOM     39  C   UNL A   1      41.766  27.892  30.497  1.00  0.00     0.049 A 
ATOM     40  N   UNL A   1      43.249  28.062  33.344  1.00  0.00    -0.248 NA
ATOM     41  C   UNL A   1      41.235  27.078  33.956  1.00  0.00     0.031 C 
ATOM     42  C   UNL A   1      41.080  28.079  29.222  1.00  0.00     0.029 A 
ATOM     43  N   UNL A   1      42.840  27.133  30.141  1.00  0.00    -0.354 N 
ATOM     44  C   UNL A   1      43.406  27.418  34.563  1.00  0.00     0.074 A 
ATOM     45  C   UNL A   1      42.097  26.972  34.965  1.00  0.00     0.031 C 
ATOM     46  C   UNL A   1      41.610  27.253  28.292  1.00  0.00     0.029 A 
ATOM     47  C   UNL A   1      42.745  26.562  28.876  1.00  0.00     0.049 A 
ATOM     48  H   UNL A   1      43.617  27.000  30.731  1.00  0.00     0.167 HD
ATOM     49  C   UNL A   1      44.633  27.132  35.071  1.00  0.00     0.031 A 
ATOM     50  C   UNL A   1      43.489  25.536  28.383  1.00  0.00     0.031 A 
ATOM     51  C   UNL A   1      45.669  27.884  34.417  1.00  0.00     0.049 A 
ATOM     52  C   UNL A   1      44.732  25.476  29.190  1.00  0.00     0.074 A 
ATOM     53  C   UNL A   1      45.943  29.233  34.311  1.00  0.00     0.029 A 
ATOM     54  N   UNL A   1      46.359  27.268  33.398  1.00  0.00    -0.354 N 
ATOM     55  N   UNL A   1      45.643  26.406  29.160  1.00  0.00    -0.248 NA
ATOM     56  C   UNL A   1      44.735  24.635  30.379  1.00  0.00     0.031 C 
ATOM     57  C   UNL A   1      46.379  29.412  32.968  1.00  0.00     0.029 A 
ATOM     58  C   UNL A   1      46.432  28.158  32.354  1.00  0.00     0.049 A 
ATOM     59  H   UNL A   1      46.732  26.357  33.414  1.00  0.00     0.167 HD
ATOM     60  C   UNL A   1      46.015  26.573  30.485  1.00  0.00     0.074 A 
ATOM     61  C   UNL A   1      45.494  25.393  31.178  1.00  0.00     0.031 C 
ATOM     62  C   UNL A   1      46.448  27.780  30.955  1.00  0.00     0.031 A 
BRANCH  49  63
ATOM     63  C   UNL A   1      44.903  25.948  35.950  1.00  0.00    -0.014 A 
ATOM     64  C   UNL A   1      44.971  24.629  35.454  1.00  0.00     0.010 A 
ATOM     65  C   UNL A   1      45.324  26.157  37.276  1.00  0.00     0.010 A 
ATOM     66  C   UNL A   1      45.399  23.562  36.242  1.00  0.00     0.020 A 
ATOM     67  C   UNL A   1      45.800  25.100  38.063  1.00  0.00     0.020 A 
ATOM     68  C   UNL A   1      45.821  23.807  37.542  1.00  0.00     0.054 A 
BRANCH  68  69
ATOM     69  S   UNL A   1      46.455  22.412  38.500  1.00  0.00     0.124 S 
ATOM     70  O   UNL A   1      45.988  22.737  39.845  1.00  0.00    -0.237 OA
ATOM     71  O   UNL A   1      45.801  21.272  37.864  1.00  0.00    -0.237 OA
ATOM     72  O   UNL A   1      47.900  22.490  38.304  1.00  0.00    -0.744 OA
ENDBRANCH  68  69
ENDBRANCH  49  63
BRANCH  50  73
ATOM     73  C   UNL A   1      42.997  24.367  27.600  1.00  0.00    -0.014 A 
ATOM     74  C   UNL A   1      41.688  23.883  27.801  1.00  0.00     0.010 A 
ATOM     75  C   UNL A   1      43.900  23.533  26.910  1.00  0.00     0.010 A 
ATOM     76  C   UNL A   1      41.327  22.581  27.440  1.00  0.00     0.020 A 
ATOM     77  C   UNL A   1      43.546  22.220  26.547  1.00  0.00     0.020 A 
ATOM     78  C   UNL A   1      42.276  21.739  26.863  1.00  0.00     0.054 A 
BRANCH  78  79
ATOM     79  S   UNL A   1      41.847  19.986  26.659  1.00  0.00     0.124 S 
ATOM     80  O   UNL A   1      41.766  19.534  28.045  1.00  0.00    -0.237 OA
ATOM     81  O   UNL A   1      40.573  20.050  25.947  1.00  0.00    -0.237 OA
ATOM     82  O   UNL A   1      42.962  19.442  25.887  1.00  0.00    -0.744 OA
ENDBRANCH  78  79
ENDBRANCH  50  73
BRANCH  62  83
ATOM     83  C   UNL A   1      46.724  28.901  29.968  1.00  0.00    -0.014 A 
ATOM     84  C   UNL A   1      48.067  29.153  29.634  1.00  0.00     0.010 A 
ATOM     85  C   UNL A   1      45.748  29.822  29.534  1.00  0.00     0.010 A 
ATOM     86  C   UNL A   1      48.433  30.299  28.926  1.00  0.00     0.020 A 
ATOM     87  C   UNL A   1      46.105  30.963  28.793  1.00  0.00     0.020 A 
ATOM     88  C   UNL A   1      47.453  31.203  28.516  1.00  0.00     0.054 A 
BRANCH  88  89
ATOM     89  S   UNL A   1      47.986  32.695  27.633  1.00  0.00     0.124 S 
ATOM     90  O   UNL A   1      48.873  32.148  26.607  1.00  0.00    -0.237 OA
ATOM     91  O   UNL A   1      46.725  33.242  27.135  1.00  0.00    -0.237 OA
ATOM     92  O   UNL A   1      48.644  33.499  28.659  1.00  0.00    -0.744 OA
ENDBRANCH  88  89
ENDBRANCH  62  83
ENDBRANCH  36  37
ENDBRANCH  29  31
ENDBRANCH  28  29
ENDBRANCH  27  28
ENDBRANCH  26  27
ENDBRANCH  25  26
ENDBRANCH   1  25
TORSDOF 22
ENDMDL
