MODEL 1
REMARK VINA RESULT:      -8.8      0.000      0.000
REMARK SMILES Cc1cc(Cl)cc2c1O[C@H](C(F)(F)F)C(C(=O)OCCOCCOC(=O)c1ccc(-c3c4nc(c(-c5ccc(S(=O)(=O)[O-])cc5)c5ccc([nH]5)c(-c5ccc(S(=O)(=O)[O-])cc5)c5nc(c(-c6ccc(S(=O)(=O)[O-])cc6)c6ccc3[nH]6)C=C5)C=C4)cc1)=C2
REMARK SMILES IDX 22 1 21 2 20 3 19 4 18 5 16 6 17 7 15 8 1 9 2 10 3 11 8 12
REMARK SMILES IDX 4 13 7 14 9 15 5 16 6 17 87 18 10 19 11 20 12 21 13 22 14 23
REMARK SMILES IDX 23 24 24 25 25 26 26 27 27 28 28 29 86 30 29 31 85 32 30 33
REMARK SMILES IDX 31 34 32 35 79 36 33 37 84 38 78 39 80 40 34 41 83 42 77 43
REMARK SMILES IDX 76 44 35 46 65 47 46 48 64 49 47 50 50 51 63 52 81 53 48 54
REMARK SMILES IDX 49 55 62 57 82 58 51 59 36 60 37 61 45 62 38 63 44 64 39 65
REMARK SMILES IDX 40 66 41 67 42 68 43 69 66 70 67 71 75 72 68 73 74 74 69 75
REMARK SMILES IDX 70 76 71 77 72 78 73 79 52 80 53 81 61 82 54 83 60 84 55 85
REMARK SMILES IDX 56 86 57 87 58 88 59 89
REMARK H PARENT 80 45 50 56
REMARK Flexibility Score: inf
ROOT
ATOM      1  C   UNL A   1      33.518  34.271  28.065  1.00  0.00     0.202 C 
ENDROOT
BRANCH   1   2
ATOM      2  O   UNL A   1      32.545  35.053  28.759  1.00  0.00    -0.374 OA
BRANCH   2   3
ATOM      3  C   UNL A   1      33.015  36.001  29.716  1.00  0.00     0.202 C 
BRANCH   3   4
ATOM      4  C   UNL A   1      32.855  35.624  31.191  1.00  0.00     0.261 C 
BRANCH   4   5
ATOM      5  O   UNL A   1      34.122  35.576  31.867  1.00  0.00    -0.460 OA
BRANCH   5   6
ATOM      6  C   UNL A   1      34.757  34.384  31.792  1.00  0.00     0.338 C 
ATOM      7  O   UNL A   1      34.294  33.329  31.385  1.00  0.00    -0.246 OA
BRANCH   6   8
ATOM      8  C   UNL A   1      36.178  34.549  32.153  1.00  0.00     0.087 C 
ATOM      9  C   UNL A   1      40.695  34.780  34.544  1.00  0.00     0.048 C 
ATOM     10  C   UNL A   1      40.238  34.544  33.131  1.00  0.00    -0.007 A 
ATOM     11  C   UNL A   1      41.173  34.206  32.140  1.00  0.00     0.027 A 
ATOM     12  C   UNL A   1      38.879  34.639  32.788  1.00  0.00     0.131 A 
ATOM     13  C   UNL A   1      40.754  33.965  30.834  1.00  0.00     0.042 A 
ATOM     14  C   UNL A   1      38.465  34.358  31.482  1.00  0.00     0.019 A 
ATOM     15  O   UNL A   1      38.013  35.020  33.776  1.00  0.00    -0.475 OA
ATOM     16  Cl  UNL A   1      41.909  33.548  29.627  1.00  0.00    -0.084 Cl
ATOM     17  C   UNL A   1      39.407  34.038  30.499  1.00  0.00     0.032 A 
ATOM     18  C   UNL A   1      37.050  34.333  31.161  1.00  0.00     0.027 C 
ATOM     19  C   UNL A   1      36.577  34.908  33.558  1.00  0.00     0.316 C 
BRANCH  19  20
ATOM     20  C   UNL A   1      36.010  33.937  34.603  1.00  0.00     0.430 C 
ATOM     21  F   UNL A   1      34.883  34.433  35.168  1.00  0.00    -0.167 F 
ATOM     22  F   UNL A   1      35.684  32.744  34.059  1.00  0.00    -0.167 F 
ATOM     23  F   UNL A   1      36.894  33.703  35.601  1.00  0.00    -0.167 F 
ENDBRANCH  19  20
ENDBRANCH   6   8
ENDBRANCH   5   6
ENDBRANCH   4   5
ENDBRANCH   3   4
ENDBRANCH   2   3
ENDBRANCH   1   2
BRANCH   1  24
ATOM     24  C   UNL A   1      33.072  32.904  27.528  1.00  0.00     0.261 C 
BRANCH  24  25
ATOM     25  O   UNL A   1      33.555  31.817  28.336  1.00  0.00    -0.460 OA
BRANCH  25  26
ATOM     26  C   UNL A   1      34.164  30.823  27.644  1.00  0.00     0.338 C 
ATOM     27  O   UNL A   1      33.703  30.194  26.699  1.00  0.00    -0.246 OA
BRANCH  26  28
ATOM     28  C   UNL A   1      35.572  30.707  28.057  1.00  0.00     0.060 A 
ATOM     29  C   UNL A   1      36.023  29.448  28.477  1.00  0.00     0.016 A 
ATOM     30  C   UNL A   1      36.411  31.820  28.118  1.00  0.00     0.016 A 
ATOM     31  C   UNL A   1      37.304  29.309  29.005  1.00  0.00     0.010 A 
ATOM     32  C   UNL A   1      37.693  31.680  28.661  1.00  0.00     0.010 A 
ATOM     33  C   UNL A   1      38.131  30.431  29.138  1.00  0.00    -0.014 A 
BRANCH  33  34
ATOM     34  C   UNL A   1      39.386  30.320  29.919  1.00  0.00     0.031 A 
ATOM     35  C   UNL A   1      39.348  30.597  31.398  1.00  0.00     0.074 A 
ATOM     36  C   UNL A   1      40.530  29.926  29.333  1.00  0.00     0.049 A 
ATOM     37  N   UNL A   1      40.322  30.559  32.271  1.00  0.00    -0.248 NA
ATOM     38  C   UNL A   1      38.039  30.957  31.970  1.00  0.00     0.031 C 
ATOM     39  C   UNL A   1      40.678  29.570  27.921  1.00  0.00     0.029 A 
ATOM     40  N   UNL A   1      41.786  29.751  29.857  1.00  0.00    -0.354 N 
ATOM     41  C   UNL A   1      39.745  30.886  33.493  1.00  0.00     0.074 A 
ATOM     42  C   UNL A   1      38.344  31.151  33.245  1.00  0.00     0.031 C 
ATOM     43  C   UNL A   1      41.954  29.213  27.694  1.00  0.00     0.029 A 
ATOM     44  C   UNL A   1      42.718  29.347  28.932  1.00  0.00     0.049 A 
ATOM     45  H   UNL A   1      41.998  29.901  30.806  1.00  0.00     0.167 HD
ATOM     46  C   UNL A   1      40.327  30.948  34.714  1.00  0.00     0.031 A 
ATOM     47  C   UNL A   1      44.041  29.123  29.067  1.00  0.00     0.031 A 
ATOM     48  C   UNL A   1      41.723  30.701  34.956  1.00  0.00     0.049 A 
ATOM     49  C   UNL A   1      44.685  29.299  30.417  1.00  0.00     0.074 A 
ATOM     50  C   UNL A   1      42.408  30.747  36.158  1.00  0.00     0.029 A 
ATOM     51  N   UNL A   1      42.648  30.366  33.980  1.00  0.00    -0.354 N 
ATOM     52  N   UNL A   1      44.127  29.609  31.563  1.00  0.00    -0.248 NA
ATOM     53  C   UNL A   1      46.139  29.095  30.491  1.00  0.00     0.031 C 
ATOM     54  C   UNL A   1      43.758  30.492  35.900  1.00  0.00     0.029 A 
ATOM     55  C   UNL A   1      43.903  30.229  34.547  1.00  0.00     0.049 A 
ATOM     56  H   UNL A   1      42.443  30.244  33.025  1.00  0.00     0.167 HD
ATOM     57  C   UNL A   1      45.157  29.616  32.498  1.00  0.00     0.074 A 
ATOM     58  C   UNL A   1      46.370  29.266  31.786  1.00  0.00     0.031 C 
ATOM     59  C   UNL A   1      45.103  29.886  33.825  1.00  0.00     0.031 A 
BRANCH  46  60
ATOM     60  C   UNL A   1      39.456  31.321  35.884  1.00  0.00    -0.014 A 
ATOM     61  C   UNL A   1      38.371  30.511  36.263  1.00  0.00     0.010 A 
ATOM     62  C   UNL A   1      39.759  32.464  36.645  1.00  0.00     0.010 A 
ATOM     63  C   UNL A   1      37.588  30.853  37.369  1.00  0.00     0.020 A 
ATOM     64  C   UNL A   1      38.993  32.795  37.766  1.00  0.00     0.020 A 
ATOM     65  C   UNL A   1      37.905  31.993  38.115  1.00  0.00     0.054 A 
BRANCH  65  66
ATOM     66  S   UNL A   1      36.891  32.391  39.565  1.00  0.00     0.124 S 
ATOM     67  O   UNL A   1      37.009  31.171  40.360  1.00  0.00    -0.237 OA
ATOM     68  O   UNL A   1      37.566  33.565  40.112  1.00  0.00    -0.237 OA
ATOM     69  O   UNL A   1      35.566  32.642  39.004  1.00  0.00    -0.744 OA
ENDBRANCH  65  66
ENDBRANCH  46  60
BRANCH  47  70
ATOM     70  C   UNL A   1      44.849  28.717  27.884  1.00  0.00    -0.014 A 
ATOM     71  C   UNL A   1      45.595  29.668  27.168  1.00  0.00     0.010 A 
ATOM     72  C   UNL A   1      44.882  27.372  27.474  1.00  0.00     0.010 A 
ATOM     73  C   UNL A   1      46.354  29.283  26.059  1.00  0.00     0.020 A 
ATOM     74  C   UNL A   1      45.658  26.978  26.381  1.00  0.00     0.020 A 
ATOM     75  C   UNL A   1      46.383  27.939  25.675  1.00  0.00     0.054 A 
BRANCH  75  76
ATOM     76  S   UNL A   1      47.421  27.456  24.267  1.00  0.00     0.124 S 
ATOM     77  O   UNL A   1      48.732  27.952  24.670  1.00  0.00    -0.237 OA
ATOM     78  O   UNL A   1      47.271  26.003  24.251  1.00  0.00    -0.237 OA
ATOM     79  O   UNL A   1      46.808  28.149  23.136  1.00  0.00    -0.744 OA
ENDBRANCH  75  76
ENDBRANCH  47  70
BRANCH  59  80
ATOM     80  C   UNL A   1      46.385  29.802  34.609  1.00  0.00    -0.014 A 
ATOM     81  C   UNL A   1      46.815  28.585  35.168  1.00  0.00     0.010 A 
ATOM     82  C   UNL A   1      47.211  30.936  34.718  1.00  0.00     0.010 A 
ATOM     83  C   UNL A   1      48.038  28.509  35.838  1.00  0.00     0.020 A 
ATOM     84  C   UNL A   1      48.448  30.858  35.364  1.00  0.00     0.020 A 
ATOM     85  C   UNL A   1      48.849  29.646  35.928  1.00  0.00     0.054 A 
BRANCH  85  86
ATOM     86  S   UNL A   1      50.460  29.503  36.751  1.00  0.00     0.124 S 
ATOM     87  O   UNL A   1      50.392  30.575  37.740  1.00  0.00    -0.237 OA
ATOM     88  O   UNL A   1      50.423  28.146  37.292  1.00  0.00    -0.237 OA
ATOM     89  O   UNL A   1      51.421  29.711  35.671  1.00  0.00    -0.744 OA
ENDBRANCH  85  86
ENDBRANCH  59  80
ENDBRANCH  33  34
ENDBRANCH  26  28
ENDBRANCH  25  26
ENDBRANCH  24  25
ENDBRANCH   1  24
TORSDOF 18
ENDMDL
MODEL 2
REMARK VINA RESULT:      -8.7      6.636     10.458
REMARK SMILES Cc1cc(Cl)cc2c1O[C@H](C(F)(F)F)C(C(=O)OCCOCCOC(=O)c1ccc(-c3c4nc(c(-c5ccc(S(=O)(=O)[O-])cc5)c5ccc([nH]5)c(-c5ccc(S(=O)(=O)[O-])cc5)c5nc(c(-c6ccc(S(=O)(=O)[O-])cc6)c6ccc3[nH]6)C=C5)C=C4)cc1)=C2
REMARK SMILES IDX 22 1 21 2 20 3 19 4 18 5 16 6 17 7 15 8 1 9 2 10 3 11 8 12
REMARK SMILES IDX 4 13 7 14 9 15 5 16 6 17 87 18 10 19 11 20 12 21 13 22 14 23
REMARK SMILES IDX 23 24 24 25 25 26 26 27 27 28 28 29 86 30 29 31 85 32 30 33
REMARK SMILES IDX 31 34 32 35 79 36 33 37 84 38 78 39 80 40 34 41 83 42 77 43
REMARK SMILES IDX 76 44 35 46 65 47 46 48 64 49 47 50 50 51 63 52 81 53 48 54
REMARK SMILES IDX 49 55 62 57 82 58 51 59 36 60 37 61 45 62 38 63 44 64 39 65
REMARK SMILES IDX 40 66 41 67 42 68 43 69 66 70 67 71 75 72 68 73 74 74 69 75
REMARK SMILES IDX 70 76 71 77 72 78 73 79 52 80 53 81 61 82 54 83 60 84 55 85
REMARK SMILES IDX 56 86 57 87 58 88 59 89
REMARK H PARENT 80 45 50 56
REMARK Flexibility Score: inf
ROOT
ATOM      1  C   UNL A   1      33.382  29.996  27.552  1.00  0.00     0.202 C 
ENDROOT
BRANCH   1   2
ATOM      2  O   UNL A   1      33.271  28.697  26.969  1.00  0.00    -0.374 OA
BRANCH   2   3
ATOM      3  C   UNL A   1      31.978  28.096  26.928  1.00  0.00     0.202 C 
BRANCH   3   4
ATOM      4  C   UNL A   1      31.426  27.749  25.543  1.00  0.00     0.261 C 
BRANCH   4   5
ATOM      5  O   UNL A   1      31.724  26.391  25.179  1.00  0.00    -0.460 OA
BRANCH   5   6
ATOM      6  C   UNL A   1      32.862  26.235  24.465  1.00  0.00     0.338 C 
ATOM      7  O   UNL A   1      33.422  27.079  23.780  1.00  0.00    -0.246 OA
BRANCH   6   8
ATOM      8  C   UNL A   1      33.441  24.904  24.727  1.00  0.00     0.087 C 
ATOM      9  C   UNL A   1      34.642  19.931  24.748  1.00  0.00     0.048 C 
ATOM     10  C   UNL A   1      35.354  21.209  25.091  1.00  0.00    -0.007 A 
ATOM     11  C   UNL A   1      36.716  21.182  25.431  1.00  0.00     0.027 A 
ATOM     12  C   UNL A   1      34.680  22.441  25.058  1.00  0.00     0.131 A 
ATOM     13  C   UNL A   1      37.388  22.365  25.728  1.00  0.00     0.042 A 
ATOM     14  C   UNL A   1      35.374  23.627  25.321  1.00  0.00     0.019 A 
ATOM     15  O   UNL A   1      33.343  22.412  24.770  1.00  0.00    -0.475 OA
ATOM     16  Cl  UNL A   1      39.059  22.320  26.141  1.00  0.00    -0.084 Cl
ATOM     17  C   UNL A   1      36.727  23.587  25.675  1.00  0.00     0.032 A 
ATOM     18  C   UNL A   1      34.708  24.906  25.163  1.00  0.00     0.027 C 
ATOM     19  C   UNL A   1      32.640  23.655  24.485  1.00  0.00     0.316 C 
BRANCH  19  20
ATOM     20  C   UNL A   1      32.087  23.573  23.055  1.00  0.00     0.430 C 
ATOM     21  F   UNL A   1      32.941  24.138  22.168  1.00  0.00    -0.167 F 
ATOM     22  F   UNL A   1      31.901  22.294  22.659  1.00  0.00    -0.167 F 
ATOM     23  F   UNL A   1      30.901  24.213  22.939  1.00  0.00    -0.167 F 
ENDBRANCH  19  20
ENDBRANCH   6   8
ENDBRANCH   5   6
ENDBRANCH   4   5
ENDBRANCH   3   4
ENDBRANCH   2   3
ENDBRANCH   1   2
BRANCH   1  24
ATOM     24  C   UNL A   1      34.794  30.518  27.849  1.00  0.00     0.261 C 
BRANCH  24  25
ATOM     25  O   UNL A   1      35.680  29.476  28.295  1.00  0.00    -0.460 OA
BRANCH  25  26
ATOM     26  C   UNL A   1      36.397  29.778  29.404  1.00  0.00     0.338 C 
ATOM     27  O   UNL A   1      35.965  29.941  30.538  1.00  0.00    -0.246 OA
BRANCH  26  28
ATOM     28  C   UNL A   1      37.838  29.705  29.112  1.00  0.00     0.060 A 
ATOM     29  C   UNL A   1      38.224  29.606  27.768  1.00  0.00     0.016 A 
ATOM     30  C   UNL A   1      38.789  29.645  30.131  1.00  0.00     0.016 A 
ATOM     31  C   UNL A   1      39.561  29.398  27.442  1.00  0.00     0.010 A 
ATOM     32  C   UNL A   1      40.130  29.423  29.801  1.00  0.00     0.010 A 
ATOM     33  C   UNL A   1      40.515  29.265  28.458  1.00  0.00    -0.014 A 
BRANCH  33  34
ATOM     34  C   UNL A   1      41.882  28.803  28.114  1.00  0.00     0.031 A 
ATOM     35  C   UNL A   1      43.010  29.799  28.124  1.00  0.00     0.074 A 
ATOM     36  C   UNL A   1      42.125  27.507  27.850  1.00  0.00     0.049 A 
ATOM     37  N   UNL A   1      44.276  29.616  27.857  1.00  0.00    -0.248 NA
ATOM     38  C   UNL A   1      42.665  31.184  28.490  1.00  0.00     0.031 C 
ATOM     39  C   UNL A   1      41.127  26.438  27.869  1.00  0.00     0.029 A 
ATOM     40  N   UNL A   1      43.295  26.870  27.519  1.00  0.00    -0.354 N 
ATOM     41  C   UNL A   1      44.881  30.857  28.026  1.00  0.00     0.074 A 
ATOM     42  C   UNL A   1      43.838  31.793  28.386  1.00  0.00     0.031 C 
ATOM     43  C   UNL A   1      41.730  25.274  27.570  1.00  0.00     0.029 A 
ATOM     44  C   UNL A   1      43.146  25.520  27.305  1.00  0.00     0.049 A 
ATOM     45  H   UNL A   1      44.159  27.335  27.444  1.00  0.00     0.167 HD
ATOM     46  C   UNL A   1      46.189  31.185  27.904  1.00  0.00     0.031 A 
ATOM     47  C   UNL A   1      44.047  24.592  26.926  1.00  0.00     0.031 A 
ATOM     48  C   UNL A   1      47.222  30.258  27.529  1.00  0.00     0.049 A 
ATOM     49  C   UNL A   1      45.478  25.003  26.697  1.00  0.00     0.074 A 
ATOM     50  C   UNL A   1      48.577  30.498  27.371  1.00  0.00     0.029 A 
ATOM     51  N   UNL A   1      47.017  28.916  27.250  1.00  0.00    -0.354 N 
ATOM     52  N   UNL A   1      46.033  26.180  26.860  1.00  0.00    -0.248 NA
ATOM     53  C   UNL A   1      46.403  23.960  26.231  1.00  0.00     0.031 C 
ATOM     54  C   UNL A   1      49.181  29.312  26.945  1.00  0.00     0.029 A 
ATOM     55  C   UNL A   1      48.215  28.320  26.894  1.00  0.00     0.049 A 
ATOM     56  H   UNL A   1      46.149  28.455  27.297  1.00  0.00     0.167 HD
ATOM     57  C   UNL A   1      47.376  26.014  26.538  1.00  0.00     0.074 A 
ATOM     58  C   UNL A   1      47.552  24.620  26.184  1.00  0.00     0.031 C 
ATOM     59  C   UNL A   1      48.374  26.932  26.538  1.00  0.00     0.031 A 
BRANCH  46  60
ATOM     60  C   UNL A   1      46.575  32.618  28.157  1.00  0.00    -0.014 A 
ATOM     61  C   UNL A   1      46.982  33.041  29.434  1.00  0.00     0.010 A 
ATOM     62  C   UNL A   1      46.583  33.538  27.093  1.00  0.00     0.010 A 
ATOM     63  C   UNL A   1      47.367  34.368  29.649  1.00  0.00     0.020 A 
ATOM     64  C   UNL A   1      46.990  34.859  27.299  1.00  0.00     0.020 A 
ATOM     65  C   UNL A   1      47.369  35.268  28.579  1.00  0.00     0.054 A 
BRANCH  65  66
ATOM     66  S   UNL A   1      47.906  36.974  28.882  1.00  0.00     0.124 S 
ATOM     67  O   UNL A   1      49.360  36.850  28.816  1.00  0.00    -0.237 OA
ATOM     68  O   UNL A   1      47.287  37.704  27.779  1.00  0.00    -0.237 OA
ATOM     69  O   UNL A   1      47.368  37.278  30.206  1.00  0.00    -0.744 OA
ENDBRANCH  65  66
ENDBRANCH  46  60
BRANCH  47  70
ATOM     70  C   UNL A   1      43.619  23.180  26.729  1.00  0.00    -0.014 A 
ATOM     71  C   UNL A   1      43.832  22.534  25.499  1.00  0.00     0.010 A 
ATOM     72  C   UNL A   1      43.004  22.471  27.776  1.00  0.00     0.010 A 
ATOM     73  C   UNL A   1      43.430  21.207  25.318  1.00  0.00     0.020 A 
ATOM     74  C   UNL A   1      42.623  21.137  27.608  1.00  0.00     0.020 A 
ATOM     75  C   UNL A   1      42.832  20.516  26.375  1.00  0.00     0.054 A 
BRANCH  75  76
ATOM     76  S   UNL A   1      42.372  18.778  26.133  1.00  0.00     0.124 S 
ATOM     77  O   UNL A   1      43.293  18.363  25.080  1.00  0.00    -0.237 OA
ATOM     78  O   UNL A   1      42.617  18.201  27.452  1.00  0.00    -0.237 OA
ATOM     79  O   UNL A   1      40.965  18.847  25.745  1.00  0.00    -0.744 OA
ENDBRANCH  75  76
ENDBRANCH  47  70
BRANCH  59  80
ATOM     80  C   UNL A   1      49.754  26.466  26.158  1.00  0.00    -0.014 A 
ATOM     81  C   UNL A   1      50.283  26.731  24.883  1.00  0.00     0.010 A 
ATOM     82  C   UNL A   1      50.562  25.827  27.118  1.00  0.00     0.010 A 
ATOM     83  C   UNL A   1      51.589  26.349  24.568  1.00  0.00     0.020 A 
ATOM     84  C   UNL A   1      51.878  25.467  26.814  1.00  0.00     0.020 A 
ATOM     85  C   UNL A   1      52.380  25.722  25.537  1.00  0.00     0.054 A 
BRANCH  85  86
ATOM     86  S   UNL A   1      54.092  25.292  25.119  1.00  0.00     0.124 S 
ATOM     87  O   UNL A   1      54.828  25.834  26.257  1.00  0.00    -0.237 OA
ATOM     88  O   UNL A   1      54.045  23.834  25.038  1.00  0.00    -0.237 OA
ATOM     89  O   UNL A   1      54.321  25.973  23.847  1.00  0.00    -0.744 OA
ENDBRANCH  85  86
ENDBRANCH  59  80
ENDBRANCH  33  34
ENDBRANCH  26  28
ENDBRANCH  25  26
ENDBRANCH  24  25
ENDBRANCH   1  24
TORSDOF 18
ENDMDL
MODEL 3
REMARK VINA RESULT:      -8.7      6.598     10.136
REMARK SMILES Cc1cc(Cl)cc2c1O[C@H](C(F)(F)F)C(C(=O)OCCOCCOC(=O)c1ccc(-c3c4nc(c(-c5ccc(S(=O)(=O)[O-])cc5)c5ccc([nH]5)c(-c5ccc(S(=O)(=O)[O-])cc5)c5nc(c(-c6ccc(S(=O)(=O)[O-])cc6)c6ccc3[nH]6)C=C5)C=C4)cc1)=C2
REMARK SMILES IDX 22 1 21 2 20 3 19 4 18 5 16 6 17 7 15 8 1 9 2 10 3 11 8 12
REMARK SMILES IDX 4 13 7 14 9 15 5 16 6 17 87 18 10 19 11 20 12 21 13 22 14 23
REMARK SMILES IDX 23 24 24 25 25 26 26 27 27 28 28 29 86 30 29 31 85 32 30 33
REMARK SMILES IDX 31 34 32 35 79 36 33 37 84 38 78 39 80 40 34 41 83 42 77 43
REMARK SMILES IDX 76 44 35 46 65 47 46 48 64 49 47 50 50 51 63 52 81 53 48 54
REMARK SMILES IDX 49 55 62 57 82 58 51 59 36 60 37 61 45 62 38 63 44 64 39 65
REMARK SMILES IDX 40 66 41 67 42 68 43 69 66 70 67 71 75 72 68 73 74 74 69 75
REMARK SMILES IDX 70 76 71 77 72 78 73 79 52 80 53 81 61 82 54 83 60 84 55 85
REMARK SMILES IDX 56 86 57 87 58 88 59 89
REMARK H PARENT 80 45 50 56
REMARK Flexibility Score: inf
ROOT
ATOM      1  C   UNL A   1      34.008  30.447  27.169  1.00  0.00     0.202 C 
ENDROOT
BRANCH   1   2
ATOM      2  O   UNL A   1      32.808  29.893  26.626  1.00  0.00    -0.374 OA
BRANCH   2   3
ATOM      3  C   UNL A   1      32.764  29.654  25.221  1.00  0.00     0.202 C 
BRANCH   3   4
ATOM      4  C   UNL A   1      32.471  28.218  24.778  1.00  0.00     0.261 C 
BRANCH   4   5
ATOM      5  O   UNL A   1      32.939  27.260  25.740  1.00  0.00    -0.460 OA
BRANCH   5   6
ATOM      6  C   UNL A   1      31.982  26.439  26.230  1.00  0.00     0.338 C 
ATOM      7  O   UNL A   1      30.955  26.768  26.805  1.00  0.00    -0.246 OA
BRANCH   6   8
ATOM      8  C   UNL A   1      32.277  25.043  25.855  1.00  0.00     0.087 C 
ATOM      9  C   UNL A   1      32.426  20.414  23.681  1.00  0.00     0.048 C 
ATOM     10  C   UNL A   1      33.391  21.269  24.455  1.00  0.00    -0.007 A 
ATOM     11  C   UNL A   1      34.722  20.852  24.617  1.00  0.00     0.027 A 
ATOM     12  C   UNL A   1      32.985  22.496  25.005  1.00  0.00     0.131 A 
ATOM     13  C   UNL A   1      35.627  21.649  25.313  1.00  0.00     0.042 A 
ATOM     14  C   UNL A   1      33.911  23.307  25.669  1.00  0.00     0.019 A 
ATOM     15  O   UNL A   1      31.668  22.837  24.863  1.00  0.00    -0.475 OA
ATOM     16  Cl  UNL A   1      37.257  21.129  25.504  1.00  0.00    -0.084 Cl
ATOM     17  C   UNL A   1      35.230  22.874  25.839  1.00  0.00     0.032 A 
ATOM     18  C   UNL A   1      33.521  24.628  26.125  1.00  0.00     0.027 C 
ATOM     19  C   UNL A   1      31.233  24.187  25.193  1.00  0.00     0.316 C 
BRANCH  19  20
ATOM     20  C   UNL A   1      30.659  24.827  23.922  1.00  0.00     0.430 C 
ATOM     21  F   UNL A   1      30.099  23.893  23.116  1.00  0.00    -0.167 F 
ATOM     22  F   UNL A   1      29.694  25.730  24.204  1.00  0.00    -0.167 F 
ATOM     23  F   UNL A   1      31.614  25.461  23.204  1.00  0.00    -0.167 F 
ENDBRANCH  19  20
ENDBRANCH   6   8
ENDBRANCH   5   6
ENDBRANCH   4   5
ENDBRANCH   3   4
ENDBRANCH   2   3
ENDBRANCH   1   2
BRANCH   1  24
ATOM     24  C   UNL A   1      34.918  29.508  27.972  1.00  0.00     0.261 C 
BRANCH  24  25
ATOM     25  O   UNL A   1      36.165  30.130  28.329  1.00  0.00    -0.460 OA
BRANCH  25  26
ATOM     26  C   UNL A   1      36.843  29.508  29.324  1.00  0.00     0.338 C 
ATOM     27  O   UNL A   1      36.413  29.205  30.430  1.00  0.00    -0.246 OA
BRANCH  26  28
ATOM     28  C   UNL A   1      38.157  29.057  28.838  1.00  0.00     0.060 A 
ATOM     29  C   UNL A   1      39.026  28.467  29.766  1.00  0.00     0.016 A 
ATOM     30  C   UNL A   1      38.568  29.285  27.524  1.00  0.00     0.016 A 
ATOM     31  C   UNL A   1      40.328  28.145  29.393  1.00  0.00     0.010 A 
ATOM     32  C   UNL A   1      39.882  28.973  27.156  1.00  0.00     0.010 A 
ATOM     33  C   UNL A   1      40.776  28.434  28.099  1.00  0.00    -0.014 A 
BRANCH  33  34
ATOM     34  C   UNL A   1      42.221  28.316  27.787  1.00  0.00     0.031 A 
ATOM     35  C   UNL A   1      43.123  29.487  28.071  1.00  0.00     0.074 A 
ATOM     36  C   UNL A   1      42.731  27.168  27.310  1.00  0.00     0.049 A 
ATOM     37  N   UNL A   1      44.411  29.603  27.878  1.00  0.00    -0.248 NA
ATOM     38  C   UNL A   1      42.491  30.682  28.656  1.00  0.00     0.031 C 
ATOM     39  C   UNL A   1      41.969  25.946  27.052  1.00  0.00     0.029 A 
ATOM     40  N   UNL A   1      44.018  26.840  26.964  1.00  0.00    -0.354 N 
ATOM     41  C   UNL A   1      44.745  30.878  28.320  1.00  0.00     0.074 A 
ATOM     42  C   UNL A   1      43.521  31.510  28.761  1.00  0.00     0.031 C 
ATOM     43  C   UNL A   1      42.806  24.999  26.594  1.00  0.00     0.029 A 
ATOM     44  C   UNL A   1      44.153  25.556  26.494  1.00  0.00     0.049 A 
ATOM     45  H   UNL A   1      44.773  27.467  27.045  1.00  0.00     0.167 HD
ATOM     46  C   UNL A   1      45.964  31.465  28.366  1.00  0.00     0.031 A 
ATOM     47  C   UNL A   1      45.239  24.908  26.025  1.00  0.00     0.031 A 
ATOM     48  C   UNL A   1      47.178  30.843  27.912  1.00  0.00     0.049 A 
ATOM     49  C   UNL A   1      46.565  25.620  25.991  1.00  0.00     0.074 A 
ATOM     50  C   UNL A   1      48.462  31.361  27.911  1.00  0.00     0.029 A 
ATOM     51  N   UNL A   1      47.260  29.568  27.376  1.00  0.00    -0.354 N 
ATOM     52  N   UNL A   1      46.865  26.825  26.412  1.00  0.00    -0.248 NA
ATOM     53  C   UNL A   1      47.701  24.882  25.418  1.00  0.00     0.031 C 
ATOM     54  C   UNL A   1      49.311  30.418  27.324  1.00  0.00     0.029 A 
ATOM     55  C   UNL A   1      48.568  29.291  27.014  1.00  0.00     0.049 A 
ATOM     56  H   UNL A   1      46.501  28.950  27.267  1.00  0.00     0.167 HD
ATOM     57  C   UNL A   1      48.227  26.983  26.174  1.00  0.00     0.074 A 
ATOM     58  C   UNL A   1      48.695  25.745  25.586  1.00  0.00     0.031 C 
ATOM     59  C   UNL A   1      49.018  28.055  26.423  1.00  0.00     0.031 A 
BRANCH  46  60
ATOM     60  C   UNL A   1      46.043  32.868  28.908  1.00  0.00    -0.014 A 
ATOM     61  C   UNL A   1      46.368  33.104  30.255  1.00  0.00     0.010 A 
ATOM     62  C   UNL A   1      45.843  33.962  28.048  1.00  0.00     0.010 A 
ATOM     63  C   UNL A   1      46.466  34.412  30.740  1.00  0.00     0.020 A 
ATOM     64  C   UNL A   1      45.965  35.271  28.523  1.00  0.00     0.020 A 
ATOM     65  C   UNL A   1      46.265  35.487  29.869  1.00  0.00     0.054 A 
BRANCH  65  66
ATOM     66  S   UNL A   1      46.434  37.173  30.518  1.00  0.00     0.124 S 
ATOM     67  O   UNL A   1      47.695  37.090  31.250  1.00  0.00    -0.237 OA
ATOM     68  O   UNL A   1      46.466  37.981  29.302  1.00  0.00    -0.237 OA
ATOM     69  O   UNL A   1      45.244  37.346  31.347  1.00  0.00    -0.744 OA
ENDBRANCH  65  66
ENDBRANCH  46  60
BRANCH  47  70
ATOM     70  C   UNL A   1      45.113  23.507  25.538  1.00  0.00    -0.014 A 
ATOM     71  C   UNL A   1      44.716  23.243  24.216  1.00  0.00     0.010 A 
ATOM     72  C   UNL A   1      45.399  22.428  26.394  1.00  0.00     0.010 A 
ATOM     73  C   UNL A   1      44.600  21.926  23.761  1.00  0.00     0.020 A 
ATOM     74  C   UNL A   1      45.309  21.111  25.937  1.00  0.00     0.020 A 
ATOM     75  C   UNL A   1      44.902  20.868  24.625  1.00  0.00     0.054 A 
BRANCH  75  76
ATOM     76  S   UNL A   1      44.799  19.170  23.993  1.00  0.00     0.124 S 
ATOM     77  O   UNL A   1      44.518  19.387  22.578  1.00  0.00    -0.237 OA
ATOM     78  O   UNL A   1      46.125  18.640  24.301  1.00  0.00    -0.237 OA
ATOM     79  O   UNL A   1      43.708  18.582  24.767  1.00  0.00    -0.744 OA
ENDBRANCH  75  76
ENDBRANCH  47  70
BRANCH  59  80
ATOM     80  C   UNL A   1      50.479  27.943  26.077  1.00  0.00    -0.014 A 
ATOM     81  C   UNL A   1      51.413  27.481  27.020  1.00  0.00     0.010 A 
ATOM     82  C   UNL A   1      50.907  28.226  24.766  1.00  0.00     0.010 A 
ATOM     83  C   UNL A   1      52.755  27.320  26.663  1.00  0.00     0.020 A 
ATOM     84  C   UNL A   1      52.243  28.042  24.399  1.00  0.00     0.020 A 
ATOM     85  C   UNL A   1      53.161  27.599  25.354  1.00  0.00     0.054 A 
BRANCH  85  86
ATOM     86  S   UNL A   1      54.896  27.325  24.903  1.00  0.00     0.124 S 
ATOM     87  O   UNL A   1      55.153  28.436  23.991  1.00  0.00    -0.237 OA
ATOM     88  O   UNL A   1      55.578  27.402  26.193  1.00  0.00    -0.237 OA
ATOM     89  O   UNL A   1      54.890  26.001  24.286  1.00  0.00    -0.744 OA
ENDBRANCH  85  86
ENDBRANCH  59  80
ENDBRANCH  33  34
ENDBRANCH  26  28
ENDBRANCH  25  26
ENDBRANCH  24  25
ENDBRANCH   1  24
TORSDOF 18
ENDMDL
