MODEL 1
REMARK VINA RESULT:      -9.3      0.000      0.000
REMARK SMILES Cc1cc(C)n([C@@H](C(=O)OCCOCCOC(=O)c2ccc(-c3c4nc(c(-c5ccc(S(=O)(=O)[O-])cc5)c5ccc([nH]5)c(-c5ccc(S(=O)(=O)[O-])cc5)c5nc(c(-c6ccc(S(=O)(=O)[O-])cc6)c6ccc3[nH]6)C=C5)C=C4)cc2)C(C)C)n1
REMARK SMILES IDX 14 1 13 2 12 3 11 4 10 5 8 6 9 7 7 8 6 9 1 10 2 11 3 12
REMARK SMILES IDX 82 13 4 14 5 15 79 16 80 17 81 18 15 19 16 20 17 21 18 22
REMARK SMILES IDX 19 23 20 24 78 25 21 26 77 27 22 28 23 29 24 30 71 31 25 32
REMARK SMILES IDX 76 33 70 34 72 35 26 36 75 37 69 38 68 39 27 41 57 42 38 43
REMARK SMILES IDX 56 44 39 45 42 46 55 47 73 48 40 49 41 50 54 52 74 53 43 54
REMARK SMILES IDX 28 55 29 56 37 57 30 58 36 59 31 60 32 61 33 62 34 63 35 64
REMARK SMILES IDX 58 65 59 66 67 67 60 68 66 69 61 70 62 71 63 72 64 73 65 74
REMARK SMILES IDX 44 75 45 76 53 77 46 78 52 79 47 80 48 81 49 82 50 83 51 84
REMARK H PARENT 72 40 42 51
REMARK Flexibility Score: inf
ROOT
ATOM      1  C   UNL A   1      41.659  19.524  25.802  1.00  0.00     0.202 C 
ENDROOT
BRANCH   1   2
ATOM      2  O   UNL A   1      42.956  19.158  26.258  1.00  0.00    -0.374 OA
BRANCH   2   3
ATOM      3  C   UNL A   1      44.025  19.126  25.317  1.00  0.00     0.202 C 
BRANCH   3   4
ATOM      4  C   UNL A   1      44.795  20.425  25.045  1.00  0.00     0.261 C 
BRANCH   4   5
ATOM      5  O   UNL A   1      44.256  21.585  25.713  1.00  0.00    -0.462 OA
BRANCH   5   6
ATOM      6  C   UNL A   1      45.181  22.468  26.174  1.00  0.00     0.331 C 
ATOM      7  O   UNL A   1      46.386  22.337  25.957  1.00  0.00    -0.250 OA
BRANCH   6   8
ATOM      8  C   UNL A   1      44.649  23.650  26.982  1.00  0.00     0.219 C 
BRANCH   8   9
ATOM      9  N   UNL A   1      44.877  24.981  26.383  1.00  0.00    -0.255 N 
ATOM     10  C   UNL A   1      47.448  27.055  25.043  1.00  0.00     0.069 C 
ATOM     11  C   UNL A   1      46.179  26.438  25.499  1.00  0.00     0.060 A 
ATOM     12  C   UNL A   1      44.881  26.780  25.098  1.00  0.00     0.048 A 
ATOM     13  N   UNL A   1      46.176  25.381  26.316  1.00  0.00    -0.177 NA
ATOM     14  C   UNL A   1      44.059  25.796  25.611  1.00  0.00     0.037 A 
ATOM     15  C   UNL A   1      42.626  25.613  25.272  1.00  0.00     0.066 C 
ENDBRANCH   8   9
BRANCH   8  16
ATOM     16  C   UNL A   1      44.928  23.572  28.517  1.00  0.00     0.019 C 
ATOM     17  C   UNL A   1      44.821  24.973  29.140  1.00  0.00     0.010 C 
ATOM     18  C   UNL A   1      44.015  22.629  29.307  1.00  0.00     0.010 C 
ENDBRANCH   8  16
ENDBRANCH   6   8
ENDBRANCH   5   6
ENDBRANCH   4   5
ENDBRANCH   3   4
ENDBRANCH   2   3
ENDBRANCH   1   2
BRANCH   1  19
ATOM     19  C   UNL A   1      40.816  20.453  26.666  1.00  0.00     0.261 C 
BRANCH  19  20
ATOM     20  O   UNL A   1      40.927  21.821  26.306  1.00  0.00    -0.460 OA
BRANCH  20  21
ATOM     21  C   UNL A   1      39.740  22.471  26.347  1.00  0.00     0.338 C 
ATOM     22  O   UNL A   1      38.817  22.349  25.563  1.00  0.00    -0.246 OA
BRANCH  21  23
ATOM     23  C   UNL A   1      39.837  23.550  27.334  1.00  0.00     0.060 A 
ATOM     24  C   UNL A   1      38.823  24.506  27.291  1.00  0.00     0.016 A 
ATOM     25  C   UNL A   1      41.021  23.752  28.064  1.00  0.00     0.016 A 
ATOM     26  C   UNL A   1      39.070  25.741  27.843  1.00  0.00     0.010 A 
ATOM     27  C   UNL A   1      41.271  24.994  28.607  1.00  0.00     0.010 A 
ATOM     28  C   UNL A   1      40.316  25.991  28.437  1.00  0.00    -0.014 A 
BRANCH  28  29
ATOM     29  C   UNL A   1      40.486  27.274  29.082  1.00  0.00     0.031 A 
ATOM     30  C   UNL A   1      41.561  28.056  28.433  1.00  0.00     0.074 A 
ATOM     31  C   UNL A   1      39.750  27.723  30.112  1.00  0.00     0.049 A 
ATOM     32  N   UNL A   1      42.772  28.192  28.858  1.00  0.00    -0.248 NA
ATOM     33  C   UNL A   1      41.347  28.520  27.053  1.00  0.00     0.031 C 
ATOM     34  C   UNL A   1      38.520  27.170  30.676  1.00  0.00     0.029 A 
ATOM     35  N   UNL A   1      39.934  28.858  30.837  1.00  0.00    -0.354 N 
ATOM     36  C   UNL A   1      43.411  28.968  27.905  1.00  0.00     0.074 A 
ATOM     37  C   UNL A   1      42.571  28.949  26.736  1.00  0.00     0.031 C 
ATOM     38  C   UNL A   1      37.950  28.096  31.488  1.00  0.00     0.029 A 
ATOM     39  C   UNL A   1      38.846  29.236  31.611  1.00  0.00     0.049 A 
ATOM     40  H   UNL A   1      40.775  29.372  30.813  1.00  0.00     0.167 HD
ATOM     41  C   UNL A   1      44.433  29.796  28.255  1.00  0.00     0.031 A 
ATOM     42  C   UNL A   1      38.692  30.426  32.249  1.00  0.00     0.031 A 
ATOM     43  C   UNL A   1      44.944  29.481  29.564  1.00  0.00     0.049 A 
ATOM     44  C   UNL A   1      40.048  31.011  32.411  1.00  0.00     0.074 A 
ATOM     45  C   UNL A   1      45.534  28.374  30.140  1.00  0.00     0.029 A 
ATOM     46  N   UNL A   1      44.489  30.260  30.603  1.00  0.00    -0.354 N 
ATOM     47  N   UNL A   1      40.961  30.491  33.184  1.00  0.00    -0.248 NA
ATOM     48  C   UNL A   1      40.547  31.889  31.363  1.00  0.00     0.031 C 
ATOM     49  C   UNL A   1      45.011  28.321  31.463  1.00  0.00     0.029 A 
ATOM     50  C   UNL A   1      44.190  29.436  31.655  1.00  0.00     0.049 A 
ATOM     51  H   UNL A   1      44.393  31.240  30.592  1.00  0.00     0.167 HD
ATOM     52  C   UNL A   1      42.142  30.605  32.464  1.00  0.00     0.074 A 
ATOM     53  C   UNL A   1      41.842  31.555  31.393  1.00  0.00     0.031 C 
ATOM     54  C   UNL A   1      43.161  29.713  32.637  1.00  0.00     0.031 A 
BRANCH  41  55
ATOM     55  C   UNL A   1      44.635  31.148  27.621  1.00  0.00    -0.014 A 
ATOM     56  C   UNL A   1      45.827  31.385  26.911  1.00  0.00     0.010 A 
ATOM     57  C   UNL A   1      43.840  32.270  27.935  1.00  0.00     0.010 A 
ATOM     58  C   UNL A   1      46.232  32.686  26.593  1.00  0.00     0.020 A 
ATOM     59  C   UNL A   1      44.213  33.566  27.586  1.00  0.00     0.020 A 
ATOM     60  C   UNL A   1      45.424  33.768  26.942  1.00  0.00     0.054 A 
BRANCH  60  61
ATOM     61  S   UNL A   1      45.992  35.448  26.593  1.00  0.00     0.124 S 
ATOM     62  O   UNL A   1      44.734  36.184  26.532  1.00  0.00    -0.237 OA
ATOM     63  O   UNL A   1      46.838  35.730  27.748  1.00  0.00    -0.237 OA
ATOM     64  O   UNL A   1      46.703  35.311  25.324  1.00  0.00    -0.744 OA
ENDBRANCH  60  61
ENDBRANCH  41  55
BRANCH  42  65
ATOM     65  C   UNL A   1      37.456  31.239  32.407  1.00  0.00    -0.014 A 
ATOM     66  C   UNL A   1      37.292  32.105  33.507  1.00  0.00     0.010 A 
ATOM     67  C   UNL A   1      36.572  31.393  31.321  1.00  0.00     0.010 A 
ATOM     68  C   UNL A   1      36.331  33.133  33.488  1.00  0.00     0.020 A 
ATOM     69  C   UNL A   1      35.608  32.410  31.297  1.00  0.00     0.020 A 
ATOM     70  C   UNL A   1      35.510  33.294  32.369  1.00  0.00     0.054 A 
BRANCH  70  71
ATOM     71  S   UNL A   1      34.409  34.738  32.261  1.00  0.00     0.124 S 
ATOM     72  O   UNL A   1      33.180  34.239  32.871  1.00  0.00    -0.237 OA
ATOM     73  O   UNL A   1      35.130  35.748  33.029  1.00  0.00    -0.237 OA
ATOM     74  O   UNL A   1      34.325  34.999  30.825  1.00  0.00    -0.744 OA
ENDBRANCH  70  71
ENDBRANCH  42  65
BRANCH  54  75
ATOM     75  C   UNL A   1      43.127  28.802  33.841  1.00  0.00    -0.014 A 
ATOM     76  C   UNL A   1      42.515  27.533  33.866  1.00  0.00     0.010 A 
ATOM     77  C   UNL A   1      43.886  29.202  34.955  1.00  0.00     0.010 A 
ATOM     78  C   UNL A   1      42.641  26.703  34.993  1.00  0.00     0.020 A 
ATOM     79  C   UNL A   1      44.032  28.374  36.068  1.00  0.00     0.020 A 
ATOM     80  C   UNL A   1      43.400  27.131  36.087  1.00  0.00     0.054 A 
BRANCH  80  81
ATOM     81  S   UNL A   1      43.595  26.044  37.528  1.00  0.00     0.124 S 
ATOM     82  O   UNL A   1      42.240  25.539  37.731  1.00  0.00    -0.237 OA
ATOM     83  O   UNL A   1      44.571  25.062  37.065  1.00  0.00    -0.237 OA
ATOM     84  O   UNL A   1      44.082  26.941  38.577  1.00  0.00    -0.744 OA
ENDBRANCH  80  81
ENDBRANCH  54  75
ENDBRANCH  28  29
ENDBRANCH  21  23
ENDBRANCH  20  21
ENDBRANCH  19  20
ENDBRANCH   1  19
TORSDOF 19
ENDMDL
MODEL 2
REMARK VINA RESULT:      -9.1      1.029      2.307
REMARK SMILES Cc1cc(C)n([C@@H](C(=O)OCCOCCOC(=O)c2ccc(-c3c4nc(c(-c5ccc(S(=O)(=O)[O-])cc5)c5ccc([nH]5)c(-c5ccc(S(=O)(=O)[O-])cc5)c5nc(c(-c6ccc(S(=O)(=O)[O-])cc6)c6ccc3[nH]6)C=C5)C=C4)cc2)C(C)C)n1
REMARK SMILES IDX 14 1 13 2 12 3 11 4 10 5 8 6 9 7 7 8 6 9 1 10 2 11 3 12
REMARK SMILES IDX 82 13 4 14 5 15 79 16 80 17 81 18 15 19 16 20 17 21 18 22
REMARK SMILES IDX 19 23 20 24 78 25 21 26 77 27 22 28 23 29 24 30 71 31 25 32
REMARK SMILES IDX 76 33 70 34 72 35 26 36 75 37 69 38 68 39 27 41 57 42 38 43
REMARK SMILES IDX 56 44 39 45 42 46 55 47 73 48 40 49 41 50 54 52 74 53 43 54
REMARK SMILES IDX 28 55 29 56 37 57 30 58 36 59 31 60 32 61 33 62 34 63 35 64
REMARK SMILES IDX 58 65 59 66 67 67 60 68 66 69 61 70 62 71 63 72 64 73 65 74
REMARK SMILES IDX 44 75 45 76 53 77 46 78 52 79 47 80 48 81 49 82 50 83 51 84
REMARK H PARENT 72 40 42 51
REMARK Flexibility Score: inf
ROOT
ATOM      1  C   UNL A   1      42.908  19.965  26.103  1.00  0.00     0.202 C 
ENDROOT
BRANCH   1   2
ATOM      2  O   UNL A   1      43.665  19.772  24.914  1.00  0.00    -0.374 OA
BRANCH   2   3
ATOM      3  C   UNL A   1      44.888  20.486  24.762  1.00  0.00     0.202 C 
BRANCH   3   4
ATOM      4  C   UNL A   1      44.825  21.953  24.317  1.00  0.00     0.261 C 
BRANCH   4   5
ATOM      5  O   UNL A   1      45.994  22.728  24.656  1.00  0.00    -0.462 OA
BRANCH   5   6
ATOM      6  C   UNL A   1      45.747  24.008  25.041  1.00  0.00     0.331 C 
ATOM      7  O   UNL A   1      44.808  24.664  24.591  1.00  0.00    -0.250 OA
BRANCH   6   8
ATOM      8  C   UNL A   1      46.701  24.602  26.075  1.00  0.00     0.219 C 
BRANCH   8   9
ATOM      9  N   UNL A   1      46.183  24.657  27.457  1.00  0.00    -0.255 N 
ATOM     10  C   UNL A   1      44.038  22.932  29.723  1.00  0.00     0.069 C 
ATOM     11  C   UNL A   1      44.998  23.837  29.046  1.00  0.00     0.060 A 
ATOM     12  C   UNL A   1      45.938  24.680  29.655  1.00  0.00     0.048 A 
ATOM     13  N   UNL A   1      45.111  23.859  27.716  1.00  0.00    -0.177 NA
ATOM     14  C   UNL A   1      46.741  25.145  28.632  1.00  0.00     0.037 A 
ATOM     15  C   UNL A   1      48.006  25.899  28.810  1.00  0.00     0.066 C 
ENDBRANCH   8   9
BRANCH   8  16
ATOM     16  C   UNL A   1      47.449  25.893  25.611  1.00  0.00     0.019 C 
ATOM     17  C   UNL A   1      48.048  25.677  24.212  1.00  0.00     0.010 C 
ATOM     18  C   UNL A   1      46.601  27.169  25.573  1.00  0.00     0.010 C 
ENDBRANCH   8  16
ENDBRANCH   6   8
ENDBRANCH   5   6
ENDBRANCH   4   5
ENDBRANCH   3   4
ENDBRANCH   2   3
ENDBRANCH   1   2
BRANCH   1  19
ATOM     19  C   UNL A   1      41.472  20.459  25.984  1.00  0.00     0.261 C 
BRANCH  19  20
ATOM     20  O   UNL A   1      41.361  21.873  25.921  1.00  0.00    -0.460 OA
BRANCH  20  21
ATOM     21  C   UNL A   1      40.222  22.335  26.489  1.00  0.00     0.338 C 
ATOM     22  O   UNL A   1      39.147  21.766  26.528  1.00  0.00    -0.246 OA
BRANCH  21  23
ATOM     23  C   UNL A   1      40.412  23.750  26.820  1.00  0.00     0.060 A 
ATOM     24  C   UNL A   1      41.595  24.063  27.488  1.00  0.00     0.016 A 
ATOM     25  C   UNL A   1      39.345  24.660  26.728  1.00  0.00     0.016 A 
ATOM     26  C   UNL A   1      41.643  25.231  28.213  1.00  0.00     0.010 A 
ATOM     27  C   UNL A   1      39.391  25.824  27.464  1.00  0.00     0.010 A 
ATOM     28  C   UNL A   1      40.516  26.065  28.245  1.00  0.00    -0.014 A 
BRANCH  28  29
ATOM     29  C   UNL A   1      40.655  27.322  28.946  1.00  0.00     0.031 A 
ATOM     30  C   UNL A   1      41.788  28.107  28.409  1.00  0.00     0.074 A 
ATOM     31  C   UNL A   1      39.850  27.749  29.933  1.00  0.00     0.049 A 
ATOM     32  N   UNL A   1      42.965  28.207  28.929  1.00  0.00    -0.248 NA
ATOM     33  C   UNL A   1      41.687  28.622  27.034  1.00  0.00     0.031 C 
ATOM     34  C   UNL A   1      38.572  27.199  30.383  1.00  0.00     0.029 A 
ATOM     35  N   UNL A   1      39.995  28.854  30.710  1.00  0.00    -0.354 N 
ATOM     36  C   UNL A   1      43.686  29.004  28.055  1.00  0.00     0.074 A 
ATOM     37  C   UNL A   1      42.937  29.040  26.826  1.00  0.00     0.031 C 
ATOM     38  C   UNL A   1      37.956  28.106  31.181  1.00  0.00     0.029 A 
ATOM     39  C   UNL A   1      38.857  29.225  31.412  1.00  0.00     0.049 A 
ATOM     40  H   UNL A   1      40.842  29.354  30.768  1.00  0.00     0.167 HD
ATOM     41  C   UNL A   1      44.691  29.801  28.510  1.00  0.00     0.031 A 
ATOM     42  C   UNL A   1      38.672  30.395  32.079  1.00  0.00     0.031 A 
ATOM     43  C   UNL A   1      45.096  29.433  29.843  1.00  0.00     0.049 A 
ATOM     44  C   UNL A   1      40.021  30.950  32.364  1.00  0.00     0.074 A 
ATOM     45  C   UNL A   1      45.624  28.296  30.422  1.00  0.00     0.029 A 
ATOM     46  N   UNL A   1      44.574  30.184  30.871  1.00  0.00    -0.354 N 
ATOM     47  N   UNL A   1      40.864  30.388  33.184  1.00  0.00    -0.248 NA
ATOM     48  C   UNL A   1      40.611  31.855  31.389  1.00  0.00     0.031 C 
ATOM     49  C   UNL A   1      45.001  28.207  31.699  1.00  0.00     0.029 A 
ATOM     50  C   UNL A   1      44.184  29.329  31.868  1.00  0.00     0.049 A 
ATOM     51  H   UNL A   1      44.495  31.165  30.888  1.00  0.00     0.167 HD
ATOM     52  C   UNL A   1      42.098  30.506  32.561  1.00  0.00     0.074 A 
ATOM     53  C   UNL A   1      41.894  31.497  31.504  1.00  0.00     0.031 C 
ATOM     54  C   UNL A   1      43.088  29.591  32.778  1.00  0.00     0.031 A 
BRANCH  41  55
ATOM     55  C   UNL A   1      44.961  31.170  27.943  1.00  0.00    -0.014 A 
ATOM     56  C   UNL A   1      44.045  32.203  28.216  1.00  0.00     0.010 A 
ATOM     57  C   UNL A   1      45.913  31.407  26.930  1.00  0.00     0.010 A 
ATOM     58  C   UNL A   1      44.042  33.384  27.465  1.00  0.00     0.020 A 
ATOM     59  C   UNL A   1      45.947  32.597  26.205  1.00  0.00     0.020 A 
ATOM     60  C   UNL A   1      44.990  33.567  26.458  1.00  0.00     0.054 A 
BRANCH  60  61
ATOM     61  S   UNL A   1      44.931  35.063  25.446  1.00  0.00     0.124 S 
ATOM     62  O   UNL A   1      46.087  35.804  25.937  1.00  0.00    -0.237 OA
ATOM     63  O   UNL A   1      45.048  34.522  24.095  1.00  0.00    -0.237 OA
ATOM     64  O   UNL A   1      43.629  35.642  25.769  1.00  0.00    -0.744 OA
ENDBRANCH  60  61
ENDBRANCH  41  55
BRANCH  42  65
ATOM     65  C   UNL A   1      37.440  31.223  32.171  1.00  0.00    -0.014 A 
ATOM     66  C   UNL A   1      37.104  31.894  33.365  1.00  0.00     0.010 A 
ATOM     67  C   UNL A   1      36.757  31.602  30.999  1.00  0.00     0.010 A 
ATOM     68  C   UNL A   1      36.176  32.953  33.370  1.00  0.00     0.020 A 
ATOM     69  C   UNL A   1      35.827  32.651  30.996  1.00  0.00     0.020 A 
ATOM     70  C   UNL A   1      35.561  33.341  32.177  1.00  0.00     0.054 A 
BRANCH  70  71
ATOM     71  S   UNL A   1      34.517  34.829  32.146  1.00  0.00     0.124 S 
ATOM     72  O   UNL A   1      33.280  34.356  32.762  1.00  0.00    -0.237 OA
ATOM     73  O   UNL A   1      35.293  35.781  32.937  1.00  0.00    -0.237 OA
ATOM     74  O   UNL A   1      34.416  35.149  30.723  1.00  0.00    -0.744 OA
ENDBRANCH  70  71
ENDBRANCH  42  65
BRANCH  54  75
ATOM     75  C   UNL A   1      42.948  28.639  33.943  1.00  0.00    -0.014 A 
ATOM     76  C   UNL A   1      43.516  28.847  35.216  1.00  0.00     0.010 A 
ATOM     77  C   UNL A   1      42.072  27.553  33.768  1.00  0.00     0.010 A 
ATOM     78  C   UNL A   1      43.230  27.970  36.276  1.00  0.00     0.020 A 
ATOM     79  C   UNL A   1      41.769  26.691  34.821  1.00  0.00     0.020 A 
ATOM     80  C   UNL A   1      42.356  26.896  36.070  1.00  0.00     0.054 A 
BRANCH  80  81
ATOM     81  S   UNL A   1      41.956  25.783  37.446  1.00  0.00     0.124 S 
ATOM     82  O   UNL A   1      42.270  24.468  36.894  1.00  0.00    -0.237 OA
ATOM     83  O   UNL A   1      42.843  26.248  38.509  1.00  0.00    -0.237 OA
ATOM     84  O   UNL A   1      40.534  26.026  37.689  1.00  0.00    -0.744 OA
ENDBRANCH  80  81
ENDBRANCH  54  75
ENDBRANCH  28  29
ENDBRANCH  21  23
ENDBRANCH  20  21
ENDBRANCH  19  20
ENDBRANCH   1  19
TORSDOF 19
ENDMDL
MODEL 3
REMARK VINA RESULT:      -9.0      4.330     11.068
REMARK SMILES Cc1cc(C)n([C@@H](C(=O)OCCOCCOC(=O)c2ccc(-c3c4nc(c(-c5ccc(S(=O)(=O)[O-])cc5)c5ccc([nH]5)c(-c5ccc(S(=O)(=O)[O-])cc5)c5nc(c(-c6ccc(S(=O)(=O)[O-])cc6)c6ccc3[nH]6)C=C5)C=C4)cc2)C(C)C)n1
REMARK SMILES IDX 14 1 13 2 12 3 11 4 10 5 8 6 9 7 7 8 6 9 1 10 2 11 3 12
REMARK SMILES IDX 82 13 4 14 5 15 79 16 80 17 81 18 15 19 16 20 17 21 18 22
REMARK SMILES IDX 19 23 20 24 78 25 21 26 77 27 22 28 23 29 24 30 71 31 25 32
REMARK SMILES IDX 76 33 70 34 72 35 26 36 75 37 69 38 68 39 27 41 57 42 38 43
REMARK SMILES IDX 56 44 39 45 42 46 55 47 73 48 40 49 41 50 54 52 74 53 43 54
REMARK SMILES IDX 28 55 29 56 37 57 30 58 36 59 31 60 32 61 33 62 34 63 35 64
REMARK SMILES IDX 58 65 59 66 67 67 60 68 66 69 61 70 62 71 63 72 64 73 65 74
REMARK SMILES IDX 44 75 45 76 53 77 46 78 52 79 47 80 48 81 49 82 50 83 51 84
REMARK H PARENT 72 40 42 51
REMARK Flexibility Score: inf
ROOT
ATOM      1  C   UNL A   1      31.772  29.567  26.970  1.00  0.00     0.202 C 
ENDROOT
BRANCH   1   2
ATOM      2  O   UNL A   1      32.183  28.573  26.039  1.00  0.00    -0.374 OA
BRANCH   2   3
ATOM      3  C   UNL A   1      31.183  27.791  25.391  1.00  0.00     0.202 C 
BRANCH   3   4
ATOM      4  C   UNL A   1      30.829  26.422  25.986  1.00  0.00     0.261 C 
BRANCH   4   5
ATOM      5  O   UNL A   1      31.966  25.669  26.459  1.00  0.00    -0.462 OA
BRANCH   5   6
ATOM      6  C   UNL A   1      31.821  24.318  26.419  1.00  0.00     0.331 C 
ATOM      7  O   UNL A   1      31.207  23.693  27.285  1.00  0.00    -0.250 OA
BRANCH   6   8
ATOM      8  C   UNL A   1      32.462  23.601  25.233  1.00  0.00     0.219 C 
BRANCH   8   9
ATOM      9  N   UNL A   1      32.565  22.132  25.362  1.00  0.00    -0.255 N 
ATOM     10  C   UNL A   1      32.386  19.125  23.456  1.00  0.00     0.069 C 
ATOM     11  C   UNL A   1      32.549  20.171  24.494  1.00  0.00     0.060 A 
ATOM     12  C   UNL A   1      33.234  20.054  25.712  1.00  0.00     0.048 A 
ATOM     13  N   UNL A   1      32.100  21.414  24.304  1.00  0.00    -0.177 NA
ATOM     14  C   UNL A   1      33.303  21.333  26.227  1.00  0.00     0.037 A 
ATOM     15  C   UNL A   1      34.119  21.744  27.395  1.00  0.00     0.066 C 
ENDBRANCH   8   9
BRANCH   8  16
ATOM     16  C   UNL A   1      33.739  24.294  24.660  1.00  0.00     0.019 C 
ATOM     17  C   UNL A   1      33.348  25.259  23.529  1.00  0.00     0.010 C 
ATOM     18  C   UNL A   1      34.582  25.070  25.678  1.00  0.00     0.010 C 
ENDBRANCH   8  16
ENDBRANCH   6   8
ENDBRANCH   5   6
ENDBRANCH   4   5
ENDBRANCH   3   4
ENDBRANCH   2   3
ENDBRANCH   1   2
BRANCH   1  19
ATOM     19  C   UNL A   1      32.638  30.807  27.145  1.00  0.00     0.261 C 
BRANCH  19  20
ATOM     20  O   UNL A   1      34.025  30.523  27.249  1.00  0.00    -0.460 OA
BRANCH  20  21
ATOM     21  C   UNL A   1      34.689  31.425  28.009  1.00  0.00     0.338 C 
ATOM     22  O   UNL A   1      34.240  32.456  28.473  1.00  0.00    -0.246 OA
BRANCH  21  23
ATOM     23  C   UNL A   1      36.118  31.100  27.968  1.00  0.00     0.060 A 
ATOM     24  C   UNL A   1      36.444  29.864  27.409  1.00  0.00     0.016 A 
ATOM     25  C   UNL A   1      37.048  31.854  28.702  1.00  0.00     0.016 A 
ATOM     26  C   UNL A   1      37.656  29.304  27.735  1.00  0.00     0.010 A 
ATOM     27  C   UNL A   1      38.258  31.286  29.036  1.00  0.00     0.010 A 
ATOM     28  C   UNL A   1      38.522  29.993  28.597  1.00  0.00    -0.014 A 
BRANCH  28  29
ATOM     29  C   UNL A   1      39.820  29.399  28.830  1.00  0.00     0.031 A 
ATOM     30  C   UNL A   1      40.068  29.214  30.276  1.00  0.00     0.074 A 
ATOM     31  C   UNL A   1      40.682  29.029  27.868  1.00  0.00     0.049 A 
ATOM     32  N   UNL A   1      40.784  29.976  31.033  1.00  0.00    -0.248 NA
ATOM     33  C   UNL A   1      39.237  28.242  31.005  1.00  0.00     0.031 C 
ATOM     34  C   UNL A   1      40.466  28.925  26.426  1.00  0.00     0.029 A 
ATOM     35  N   UNL A   1      41.956  28.580  28.018  1.00  0.00    -0.354 N 
ATOM     36  C   UNL A   1      40.684  29.430  32.303  1.00  0.00     0.074 A 
ATOM     37  C   UNL A   1      39.567  28.523  32.267  1.00  0.00     0.031 C 
ATOM     38  C   UNL A   1      41.489  28.224  25.875  1.00  0.00     0.029 A 
ATOM     39  C   UNL A   1      42.491  27.962  26.897  1.00  0.00     0.049 A 
ATOM     40  H   UNL A   1      42.460  28.686  28.858  1.00  0.00     0.167 HD
ATOM     41  C   UNL A   1      41.706  29.550  33.193  1.00  0.00     0.031 A 
ATOM     42  C   UNL A   1      43.645  27.246  26.850  1.00  0.00     0.031 A 
ATOM     43  C   UNL A   1      42.648  30.561  32.783  1.00  0.00     0.049 A 
ATOM     44  C   UNL A   1      44.465  27.668  28.014  1.00  0.00     0.074 A 
ATOM     45  C   UNL A   1      42.580  31.919  32.551  1.00  0.00     0.029 A 
ATOM     46  N   UNL A   1      43.785  30.116  32.149  1.00  0.00    -0.354 N 
ATOM     47  N   UNL A   1      44.979  28.861  28.130  1.00  0.00    -0.248 NA
ATOM     48  C   UNL A   1      44.318  26.931  29.261  1.00  0.00     0.031 C 
ATOM     49  C   UNL A   1      43.422  32.145  31.424  1.00  0.00     0.029 A 
ATOM     50  C   UNL A   1      44.019  30.931  31.073  1.00  0.00     0.049 A 
ATOM     51  H   UNL A   1      44.335  29.346  32.420  1.00  0.00     0.167 HD
ATOM     52  C   UNL A   1      44.804  29.195  29.465  1.00  0.00     0.074 A 
ATOM     53  C   UNL A   1      44.475  27.935  30.130  1.00  0.00     0.031 C 
ATOM     54  C   UNL A   1      44.667  30.497  29.852  1.00  0.00     0.031 A 
BRANCH  41  55
ATOM     55  C   UNL A   1      42.080  28.452  34.154  1.00  0.00    -0.014 A 
ATOM     56  C   UNL A   1      41.875  28.666  35.530  1.00  0.00     0.010 A 
ATOM     57  C   UNL A   1      42.878  27.349  33.787  1.00  0.00     0.010 A 
ATOM     58  C   UNL A   1      42.495  27.855  36.488  1.00  0.00     0.020 A 
ATOM     59  C   UNL A   1      43.465  26.509  34.731  1.00  0.00     0.020 A 
ATOM     60  C   UNL A   1      43.293  26.786  36.078  1.00  0.00     0.054 A 
BRANCH  60  61
ATOM     61  S   UNL A   1      44.149  25.791  37.321  1.00  0.00     0.124 S 
ATOM     62  O   UNL A   1      45.530  26.234  37.162  1.00  0.00    -0.237 OA
ATOM     63  O   UNL A   1      43.485  26.206  38.553  1.00  0.00    -0.237 OA
ATOM     64  O   UNL A   1      43.877  24.417  36.904  1.00  0.00    -0.744 OA
ENDBRANCH  60  61
ENDBRANCH  41  55
BRANCH  42  65
ATOM     65  C   UNL A   1      43.930  25.998  26.092  1.00  0.00    -0.014 A 
ATOM     66  C   UNL A   1      45.252  25.541  25.917  1.00  0.00     0.010 A 
ATOM     67  C   UNL A   1      42.887  25.096  25.803  1.00  0.00     0.010 A 
ATOM     68  C   UNL A   1      45.519  24.211  25.541  1.00  0.00     0.020 A 
ATOM     69  C   UNL A   1      43.145  23.772  25.422  1.00  0.00     0.020 A 
ATOM     70  C   UNL A   1      44.461  23.326  25.320  1.00  0.00     0.054 A 
BRANCH  70  71
ATOM     71  S   UNL A   1      44.805  21.565  25.029  1.00  0.00     0.124 S 
ATOM     72  O   UNL A   1      46.177  21.431  25.511  1.00  0.00    -0.237 OA
ATOM     73  O   UNL A   1      43.785  20.902  25.837  1.00  0.00    -0.237 OA
ATOM     74  O   UNL A   1      44.639  21.416  23.584  1.00  0.00    -0.744 OA
ENDBRANCH  70  71
ENDBRANCH  42  65
BRANCH  54  75
ATOM     75  C   UNL A   1      45.033  31.586  28.870  1.00  0.00    -0.014 A 
ATOM     76  C   UNL A   1      44.141  32.159  27.943  1.00  0.00     0.010 A 
ATOM     77  C   UNL A   1      46.315  32.149  29.004  1.00  0.00     0.010 A 
ATOM     78  C   UNL A   1      44.537  33.252  27.154  1.00  0.00     0.020 A 
ATOM     79  C   UNL A   1      46.707  33.247  28.239  1.00  0.00     0.020 A 
ATOM     80  C   UNL A   1      45.820  33.789  27.309  1.00  0.00     0.054 A 
BRANCH  80  81
ATOM     81  S   UNL A   1      46.321  35.225  26.318  1.00  0.00     0.124 S 
ATOM     82  O   UNL A   1      46.401  34.668  24.970  1.00  0.00    -0.237 OA
ATOM     83  O   UNL A   1      45.234  36.173  26.544  1.00  0.00    -0.237 OA
ATOM     84  O   UNL A   1      47.605  35.618  26.899  1.00  0.00    -0.744 OA
ENDBRANCH  80  81
ENDBRANCH  54  75
ENDBRANCH  28  29
ENDBRANCH  21  23
ENDBRANCH  20  21
ENDBRANCH  19  20
ENDBRANCH   1  19
TORSDOF 19
ENDMDL
