MODEL 1
REMARK VINA RESULT:     -10.0      0.000      0.000
REMARK SMILES Cc1ccc(-c2cc(Cl)cc3c2O[C@H](C(F)(F)F)C(C(=O)OCCOCCOC(=O)c2ccc(-c4c5nc(c(-c6ccc(S(=O)(=O)[O-])cc6)c6ccc([nH]6)c(-c6ccc(S(=O)(=O)[O-])cc6)c6nc(c(-c7ccc(S(=O)(=O)[O-])cc7)c7ccc4[nH]7)C=C6)C=C5)cc2)=C3)cc1F
REMARK SMILES IDX 26 1 25 2 24 3 23 4 22 5 20 6 21 7 19 8 6 9 7 10 12 11 8 12
REMARK SMILES IDX 11 13 13 14 9 15 10 16 91 17 14 18 5 19 1 20 2 21 3 22 93 23
REMARK SMILES IDX 4 24 92 25 94 26 15 27 16 28 17 29 18 30 27 31 28 32 29 33
REMARK SMILES IDX 30 34 31 35 32 36 90 37 33 38 89 39 34 40 35 41 36 42 83 43
REMARK SMILES IDX 37 44 88 45 82 46 84 47 38 48 87 49 81 50 80 51 39 53 69 54
REMARK SMILES IDX 50 55 68 56 51 57 54 58 67 59 85 60 52 61 53 62 66 64 86 65
REMARK SMILES IDX 55 66 40 67 41 68 49 69 42 70 48 71 43 72 44 73 45 74 46 75
REMARK SMILES IDX 47 76 70 77 71 78 79 79 72 80 78 81 73 82 74 83 75 84 76 85
REMARK SMILES IDX 77 86 56 87 57 88 65 89 58 90 64 91 59 92 60 93 61 94 62 95
REMARK SMILES IDX 63 96
REMARK H PARENT 84 52 54 63
REMARK Flexibility Score: inf
ROOT
ATOM      1  C   UNL A   1      41.226  19.742  26.763  1.00  0.00     0.202 C 
ENDROOT
BRANCH   1   2
ATOM      2  O   UNL A   1      41.867  19.774  25.490  1.00  0.00    -0.374 OA
BRANCH   2   3
ATOM      3  C   UNL A   1      43.243  19.405  25.410  1.00  0.00     0.202 C 
BRANCH   3   4
ATOM      4  C   UNL A   1      44.290  20.522  25.456  1.00  0.00     0.261 C 
BRANCH   4   5
ATOM      5  O   UNL A   1      43.800  21.699  26.114  1.00  0.00    -0.460 OA
BRANCH   5   6
ATOM      6  C   UNL A   1      43.637  22.767  25.297  1.00  0.00     0.338 C 
ATOM      7  O   UNL A   1      42.731  22.949  24.500  1.00  0.00    -0.246 OA
BRANCH   6   8
ATOM      8  C   UNL A   1      44.658  23.788  25.602  1.00  0.00     0.087 C 
ATOM      9  C   UNL A   1      47.423  26.904  25.965  1.00  0.00     0.026 A 
ATOM     10  C   UNL A   1      46.931  28.204  26.186  1.00  0.00     0.033 A 
ATOM     11  C   UNL A   1      46.502  25.834  25.956  1.00  0.00     0.135 A 
ATOM     12  C   UNL A   1      45.571  28.428  26.394  1.00  0.00     0.042 A 
ATOM     13  C   UNL A   1      45.133  26.074  26.118  1.00  0.00     0.019 A 
ATOM     14  O   UNL A   1      47.007  24.567  25.820  1.00  0.00    -0.475 OA
ATOM     15  Cl  UNL A   1      44.996  30.027  26.659  1.00  0.00    -0.084 Cl
ATOM     16  C   UNL A   1      44.670  27.369  26.359  1.00  0.00     0.032 A 
ATOM     17  C   UNL A   1      44.184  24.989  25.957  1.00  0.00     0.027 C 
ATOM     18  C   UNL A   1      46.120  23.468  25.477  1.00  0.00     0.316 C 
BRANCH   9  19
ATOM     19  C   UNL A   1      48.859  26.706  25.694  1.00  0.00    -0.012 A 
ATOM     20  C   UNL A   1      53.061  26.111  24.844  1.00  0.00     0.047 C 
ATOM     21  C   UNL A   1      51.615  26.331  25.160  1.00  0.00    -0.015 A 
ATOM     22  C   UNL A   1      51.122  26.204  26.463  1.00  0.00     0.007 A 
ATOM     23  C   UNL A   1      50.723  26.656  24.139  1.00  0.00     0.126 A 
ATOM     24  C   UNL A   1      49.759  26.392  26.725  1.00  0.00     0.009 A 
ATOM     25  C   UNL A   1      49.368  26.846  24.392  1.00  0.00     0.048 A 
ATOM     26  F   UNL A   1      51.170  26.795  22.883  1.00  0.00    -0.207 F 
ENDBRANCH   9  19
BRANCH  18  27
ATOM     27  C   UNL A   1      46.500  22.956  24.080  1.00  0.00     0.430 C 
ATOM     28  F   UNL A   1      45.428  22.952  23.253  1.00  0.00    -0.167 F 
ATOM     29  F   UNL A   1      47.443  23.732  23.499  1.00  0.00    -0.167 F 
ATOM     30  F   UNL A   1      46.982  21.693  24.128  1.00  0.00    -0.167 F 
ENDBRANCH  18  27
ENDBRANCH   6   8
ENDBRANCH   5   6
ENDBRANCH   4   5
ENDBRANCH   3   4
ENDBRANCH   2   3
ENDBRANCH   1   2
BRANCH   1  31
ATOM     31  C   UNL A   1      40.266  20.879  27.138  1.00  0.00     0.261 C 
BRANCH  31  32
ATOM     32  O   UNL A   1      40.399  22.033  26.293  1.00  0.00    -0.460 OA
BRANCH  32  33
ATOM     33  C   UNL A   1      39.282  22.799  26.195  1.00  0.00     0.338 C 
ATOM     34  O   UNL A   1      38.184  22.449  25.788  1.00  0.00    -0.246 OA
BRANCH  33  35
ATOM     35  C   UNL A   1      39.521  24.096  26.851  1.00  0.00     0.060 A 
ATOM     36  C   UNL A   1      39.047  24.353  28.138  1.00  0.00     0.016 A 
ATOM     37  C   UNL A   1      40.275  25.057  26.165  1.00  0.00     0.016 A 
ATOM     38  C   UNL A   1      39.355  25.573  28.747  1.00  0.00     0.010 A 
ATOM     39  C   UNL A   1      40.580  26.274  26.775  1.00  0.00     0.010 A 
ATOM     40  C   UNL A   1      40.139  26.534  28.080  1.00  0.00    -0.014 A 
BRANCH  40  41
ATOM     41  C   UNL A   1      40.599  27.752  28.795  1.00  0.00     0.031 A 
ATOM     42  C   UNL A   1      41.997  27.864  29.328  1.00  0.00     0.074 A 
ATOM     43  C   UNL A   1      39.725  28.766  28.959  1.00  0.00     0.049 A 
ATOM     44  N   UNL A   1      42.567  28.887  29.908  1.00  0.00    -0.248 NA
ATOM     45  C   UNL A   1      42.869  26.685  29.195  1.00  0.00     0.031 C 
ATOM     46  C   UNL A   1      38.336  28.757  28.493  1.00  0.00     0.029 A 
ATOM     47  N   UNL A   1      39.874  30.003  29.535  1.00  0.00    -0.354 N 
ATOM     48  C   UNL A   1      43.871  28.492  30.185  1.00  0.00     0.074 A 
ATOM     49  C   UNL A   1      43.992  27.114  29.760  1.00  0.00     0.031 C 
ATOM     50  C   UNL A   1      37.779  29.949  28.753  1.00  0.00     0.029 A 
ATOM     51  C   UNL A   1      38.751  30.794  29.442  1.00  0.00     0.049 A 
ATOM     52  H   UNL A   1      40.706  30.297  29.972  1.00  0.00     0.167 HD
ATOM     53  C   UNL A   1      44.876  29.226  30.717  1.00  0.00     0.031 A 
ATOM     54  C   UNL A   1      38.528  32.059  29.853  1.00  0.00     0.031 A 
ATOM     55  C   UNL A   1      44.738  30.597  31.142  1.00  0.00     0.049 A 
ATOM     56  C   UNL A   1      39.648  32.823  30.509  1.00  0.00     0.074 A 
ATOM     57  C   UNL A   1      45.714  31.426  31.673  1.00  0.00     0.029 A 
ATOM     58  N   UNL A   1      43.571  31.342  31.087  1.00  0.00    -0.354 N 
ATOM     59  N   UNL A   1      40.892  32.454  30.699  1.00  0.00    -0.248 NA
ATOM     60  C   UNL A   1      39.341  34.176  30.992  1.00  0.00     0.031 C 
ATOM     61  C   UNL A   1      45.118  32.642  32.011  1.00  0.00     0.029 A 
ATOM     62  C   UNL A   1      43.794  32.608  31.605  1.00  0.00     0.049 A 
ATOM     63  H   UNL A   1      42.711  31.021  30.732  1.00  0.00     0.167 HD
ATOM     64  C   UNL A   1      41.523  33.543  31.292  1.00  0.00     0.074 A 
ATOM     65  C   UNL A   1      40.531  34.589  31.410  1.00  0.00     0.031 C 
ATOM     66  C   UNL A   1      42.808  33.657  31.704  1.00  0.00     0.031 A 
BRANCH  53  67
ATOM     67  C   UNL A   1      46.245  28.605  30.841  1.00  0.00    -0.014 A 
ATOM     68  C   UNL A   1      47.129  28.623  29.745  1.00  0.00     0.010 A 
ATOM     69  C   UNL A   1      46.571  27.829  31.968  1.00  0.00     0.010 A 
ATOM     70  C   UNL A   1      48.276  27.826  29.745  1.00  0.00     0.020 A 
ATOM     71  C   UNL A   1      47.734  27.054  31.984  1.00  0.00     0.020 A 
ATOM     72  C   UNL A   1      48.561  27.030  30.859  1.00  0.00     0.054 A 
BRANCH  72  73
ATOM     73  S   UNL A   1      49.997  25.924  30.797  1.00  0.00     0.124 S 
ATOM     74  O   UNL A   1      50.073  25.439  32.172  1.00  0.00    -0.237 OA
ATOM     75  O   UNL A   1      49.592  24.937  29.800  1.00  0.00    -0.237 OA
ATOM     76  O   UNL A   1      51.090  26.802  30.383  1.00  0.00    -0.744 OA
ENDBRANCH  72  73
ENDBRANCH  53  67
BRANCH  54  77
ATOM     77  C   UNL A   1      37.204  32.699  29.603  1.00  0.00    -0.014 A 
ATOM     78  C   UNL A   1      37.006  33.538  28.491  1.00  0.00     0.010 A 
ATOM     79  C   UNL A   1      36.138  32.500  30.500  1.00  0.00     0.010 A 
ATOM     80  C   UNL A   1      35.790  34.199  28.304  1.00  0.00     0.020 A 
ATOM     81  C   UNL A   1      34.905  33.128  30.295  1.00  0.00     0.020 A 
ATOM     82  C   UNL A   1      34.748  33.994  29.212  1.00  0.00     0.054 A 
BRANCH  82  83
ATOM     83  S   UNL A   1      33.182  34.873  28.953  1.00  0.00     0.124 S 
ATOM     84  O   UNL A   1      33.644  36.154  28.422  1.00  0.00    -0.237 OA
ATOM     85  O   UNL A   1      32.487  34.011  28.002  1.00  0.00    -0.237 OA
ATOM     86  O   UNL A   1      32.594  34.925  30.289  1.00  0.00    -0.744 OA
ENDBRANCH  82  83
ENDBRANCH  54  77
BRANCH  66  87
ATOM     87  C   UNL A   1      43.256  34.963  32.317  1.00  0.00    -0.014 A 
ATOM     88  C   UNL A   1      42.876  35.281  33.635  1.00  0.00     0.010 A 
ATOM     89  C   UNL A   1      43.919  35.933  31.546  1.00  0.00     0.010 A 
ATOM     90  C   UNL A   1      43.100  36.559  34.152  1.00  0.00     0.020 A 
ATOM     91  C   UNL A   1      44.181  37.202  32.074  1.00  0.00     0.020 A 
ATOM     92  C   UNL A   1      43.741  37.516  33.362  1.00  0.00     0.054 A 
BRANCH  92  93
ATOM     93  S   UNL A   1      43.968  39.189  34.027  1.00  0.00     0.124 S 
ATOM     94  O   UNL A   1      45.231  39.593  33.419  1.00  0.00    -0.237 OA
ATOM     95  O   UNL A   1      42.782  39.890  33.542  1.00  0.00    -0.237 OA
ATOM     96  O   UNL A   1      44.011  38.980  35.473  1.00  0.00    -0.744 OA
ENDBRANCH  92  93
ENDBRANCH  66  87
ENDBRANCH  40  41
ENDBRANCH  33  35
ENDBRANCH  32  33
ENDBRANCH  31  32
ENDBRANCH   1  31
TORSDOF 19
ENDMDL
MODEL 2
REMARK VINA RESULT:      -9.5      5.351     12.555
REMARK SMILES Cc1ccc(-c2cc(Cl)cc3c2O[C@H](C(F)(F)F)C(C(=O)OCCOCCOC(=O)c2ccc(-c4c5nc(c(-c6ccc(S(=O)(=O)[O-])cc6)c6ccc([nH]6)c(-c6ccc(S(=O)(=O)[O-])cc6)c6nc(c(-c7ccc(S(=O)(=O)[O-])cc7)c7ccc4[nH]7)C=C6)C=C5)cc2)=C3)cc1F
REMARK SMILES IDX 26 1 25 2 24 3 23 4 22 5 20 6 21 7 19 8 6 9 7 10 12 11 8 12
REMARK SMILES IDX 11 13 13 14 9 15 10 16 91 17 14 18 5 19 1 20 2 21 3 22 93 23
REMARK SMILES IDX 4 24 92 25 94 26 15 27 16 28 17 29 18 30 27 31 28 32 29 33
REMARK SMILES IDX 30 34 31 35 32 36 90 37 33 38 89 39 34 40 35 41 36 42 83 43
REMARK SMILES IDX 37 44 88 45 82 46 84 47 38 48 87 49 81 50 80 51 39 53 69 54
REMARK SMILES IDX 50 55 68 56 51 57 54 58 67 59 85 60 52 61 53 62 66 64 86 65
REMARK SMILES IDX 55 66 40 67 41 68 49 69 42 70 48 71 43 72 44 73 45 74 46 75
REMARK SMILES IDX 47 76 70 77 71 78 79 79 72 80 78 81 73 82 74 83 75 84 76 85
REMARK SMILES IDX 77 86 56 87 57 88 65 89 58 90 64 91 59 92 60 93 61 94 62 95
REMARK SMILES IDX 63 96
REMARK H PARENT 84 52 54 63
REMARK Flexibility Score: inf
ROOT
ATOM      1  C   UNL A   1      33.749  30.747  27.642  1.00  0.00     0.202 C 
ENDROOT
BRANCH   1   2
ATOM      2  O   UNL A   1      33.202  30.815  26.327  1.00  0.00    -0.374 OA
BRANCH   2   3
ATOM      3  C   UNL A   1      33.145  29.621  25.549  1.00  0.00     0.202 C 
BRANCH   3   4
ATOM      4  C   UNL A   1      31.924  28.713  25.715  1.00  0.00     0.261 C 
BRANCH   4   5
ATOM      5  O   UNL A   1      32.151  27.395  25.194  1.00  0.00    -0.460 OA
BRANCH   5   6
ATOM      6  C   UNL A   1      31.539  26.408  25.889  1.00  0.00     0.338 C 
ATOM      7  O   UNL A   1      30.418  26.436  26.372  1.00  0.00    -0.246 OA
BRANCH   6   8
ATOM      8  C   UNL A   1      32.375  25.192  25.870  1.00  0.00     0.087 C 
ATOM      9  C   UNL A   1      34.937  21.933  25.321  1.00  0.00     0.026 A 
ATOM     10  C   UNL A   1      36.322  22.148  25.459  1.00  0.00     0.033 A 
ATOM     11  C   UNL A   1      34.063  23.001  25.617  1.00  0.00     0.135 A 
ATOM     12  C   UNL A   1      36.815  23.382  25.879  1.00  0.00     0.042 A 
ATOM     13  C   UNL A   1      34.570  24.250  25.993  1.00  0.00     0.019 A 
ATOM     14  O   UNL A   1      32.716  22.751  25.557  1.00  0.00    -0.475 OA
ATOM     15  Cl  UNL A   1      38.511  23.620  26.035  1.00  0.00    -0.084 Cl
ATOM     16  C   UNL A   1      35.945  24.435  26.144  1.00  0.00     0.032 A 
ATOM     17  C   UNL A   1      33.671  25.379  26.147  1.00  0.00     0.027 C 
ATOM     18  C   UNL A   1      31.776  23.858  25.524  1.00  0.00     0.316 C 
BRANCH   9  19
ATOM     19  C   UNL A   1      34.449  20.634  24.822  1.00  0.00    -0.012 A 
ATOM     20  C   UNL A   1      33.070  16.804  23.351  1.00  0.00     0.047 C 
ATOM     21  C   UNL A   1      33.522  18.134  23.869  1.00  0.00    -0.015 A 
ATOM     22  C   UNL A   1      32.740  19.283  23.719  1.00  0.00     0.007 A 
ATOM     23  C   UNL A   1      34.757  18.247  24.506  1.00  0.00     0.126 A 
ATOM     24  C   UNL A   1      33.199  20.518  24.193  1.00  0.00     0.009 A 
ATOM     25  C   UNL A   1      35.220  19.470  24.980  1.00  0.00     0.048 A 
ATOM     26  F   UNL A   1      35.523  17.159  24.673  1.00  0.00    -0.207 F 
ENDBRANCH   9  19
BRANCH  18  27
ATOM     27  C   UNL A   1      31.072  23.858  24.160  1.00  0.00     0.430 C 
ATOM     28  F   UNL A   1      30.542  22.642  23.885  1.00  0.00    -0.167 F 
ATOM     29  F   UNL A   1      30.057  24.750  24.118  1.00  0.00    -0.167 F 
ATOM     30  F   UNL A   1      31.929  24.164  23.158  1.00  0.00    -0.167 F 
ENDBRANCH  18  27
ENDBRANCH   6   8
ENDBRANCH   5   6
ENDBRANCH   4   5
ENDBRANCH   3   4
ENDBRANCH   2   3
ENDBRANCH   1   2
BRANCH   1  31
ATOM     31  C   UNL A   1      35.085  30.023  27.852  1.00  0.00     0.261 C 
BRANCH  31  32
ATOM     32  O   UNL A   1      35.994  30.746  28.698  1.00  0.00    -0.460 OA
BRANCH  32  33
ATOM     33  C   UNL A   1      36.634  29.988  29.625  1.00  0.00     0.338 C 
ATOM     34  O   UNL A   1      36.127  29.386  30.560  1.00  0.00    -0.246 OA
BRANCH  33  35
ATOM     35  C   UNL A   1      38.042  29.817  29.228  1.00  0.00     0.060 A 
ATOM     36  C   UNL A   1      39.058  29.738  30.182  1.00  0.00     0.016 A 
ATOM     37  C   UNL A   1      38.336  29.691  27.863  1.00  0.00     0.016 A 
ATOM     38  C   UNL A   1      40.371  29.507  29.762  1.00  0.00     0.010 A 
ATOM     39  C   UNL A   1      39.647  29.462  27.448  1.00  0.00     0.010 A 
ATOM     40  C   UNL A   1      40.673  29.348  28.396  1.00  0.00    -0.014 A 
BRANCH  40  41
ATOM     41  C   UNL A   1      42.038  28.940  27.974  1.00  0.00     0.031 A 
ATOM     42  C   UNL A   1      43.171  29.923  27.936  1.00  0.00     0.074 A 
ATOM     43  C   UNL A   1      42.241  27.654  27.622  1.00  0.00     0.049 A 
ATOM     44  N   UNL A   1      44.430  29.704  27.662  1.00  0.00    -0.248 NA
ATOM     45  C   UNL A   1      42.858  31.328  28.246  1.00  0.00     0.031 C 
ATOM     46  C   UNL A   1      41.207  26.617  27.607  1.00  0.00     0.029 A 
ATOM     47  N   UNL A   1      43.379  26.993  27.231  1.00  0.00    -0.354 N 
ATOM     48  C   UNL A   1      45.069  30.931  27.792  1.00  0.00     0.074 A 
ATOM     49  C   UNL A   1      44.048  31.905  28.116  1.00  0.00     0.031 C 
ATOM     50  C   UNL A   1      41.768  25.443  27.282  1.00  0.00     0.029 A 
ATOM     51  C   UNL A   1      43.190  25.646  27.020  1.00  0.00     0.049 A 
ATOM     52  H   UNL A   1      44.249  27.440  27.115  1.00  0.00     0.167 HD
ATOM     53  C   UNL A   1      46.389  31.207  27.679  1.00  0.00     0.031 A 
ATOM     54  C   UNL A   1      44.061  24.679  26.667  1.00  0.00     0.031 A 
ATOM     55  C   UNL A   1      47.395  30.227  27.350  1.00  0.00     0.049 A 
ATOM     56  C   UNL A   1      45.512  25.035  26.478  1.00  0.00     0.074 A 
ATOM     57  C   UNL A   1      48.763  30.416  27.237  1.00  0.00     0.029 A 
ATOM     58  N   UNL A   1      47.155  28.888  27.084  1.00  0.00    -0.354 N 
ATOM     59  N   UNL A   1      46.106  26.188  26.673  1.00  0.00    -0.248 NA
ATOM     60  C   UNL A   1      46.412  23.961  26.037  1.00  0.00     0.031 C 
ATOM     61  C   UNL A   1      49.338  29.213  26.827  1.00  0.00     0.029 A 
ATOM     62  C   UNL A   1      48.345  28.248  26.775  1.00  0.00     0.049 A 
ATOM     63  H   UNL A   1      46.271  28.455  27.112  1.00  0.00     0.167 HD
ATOM     64  C   UNL A   1      47.454  25.967  26.411  1.00  0.00     0.074 A 
ATOM     65  C   UNL A   1      47.591  24.569  26.065  1.00  0.00     0.031 C 
ATOM     66  C   UNL A   1      48.482  26.849  26.451  1.00  0.00     0.031 A 
BRANCH  53  67
ATOM     67  C   UNL A   1      46.866  32.611  27.956  1.00  0.00    -0.014 A 
ATOM     68  C   UNL A   1      47.077  33.036  29.282  1.00  0.00     0.010 A 
ATOM     69  C   UNL A   1      46.904  33.562  26.920  1.00  0.00     0.010 A 
ATOM     70  C   UNL A   1      47.250  34.391  29.574  1.00  0.00     0.020 A 
ATOM     71  C   UNL A   1      47.107  34.916  27.206  1.00  0.00     0.020 A 
ATOM     72  C   UNL A   1      47.244  35.325  28.534  1.00  0.00     0.054 A 
BRANCH  72  73
ATOM     73  S   UNL A   1      47.363  37.088  28.945  1.00  0.00     0.124 S 
ATOM     74  O   UNL A   1      46.169  37.635  28.307  1.00  0.00    -0.237 OA
ATOM     75  O   UNL A   1      47.351  37.074  30.405  1.00  0.00    -0.237 OA
ATOM     76  O   UNL A   1      48.633  37.495  28.345  1.00  0.00    -0.744 OA
ENDBRANCH  72  73
ENDBRANCH  53  67
BRANCH  54  77
ATOM     77  C   UNL A   1      43.590  23.270  26.525  1.00  0.00    -0.014 A 
ATOM     78  C   UNL A   1      43.154  22.539  27.646  1.00  0.00     0.010 A 
ATOM     79  C   UNL A   1      43.609  22.637  25.269  1.00  0.00     0.010 A 
ATOM     80  C   UNL A   1      42.790  21.196  27.523  1.00  0.00     0.020 A 
ATOM     81  C   UNL A   1      43.207  21.305  25.134  1.00  0.00     0.020 A 
ATOM     82  C   UNL A   1      42.824  20.585  26.267  1.00  0.00     0.054 A 
BRANCH  82  83
ATOM     83  S   UNL A   1      42.358  18.837  26.136  1.00  0.00     0.124 S 
ATOM     84  O   UNL A   1      42.520  18.381  27.515  1.00  0.00    -0.237 OA
ATOM     85  O   UNL A   1      40.982  18.911  25.654  1.00  0.00    -0.237 OA
ATOM     86  O   UNL A   1      43.322  18.296  25.182  1.00  0.00    -0.744 OA
ENDBRANCH  82  83
ENDBRANCH  54  77
BRANCH  66  87
ATOM     87  C   UNL A   1      49.872  26.354  26.128  1.00  0.00    -0.014 A 
ATOM     88  C   UNL A   1      50.684  25.837  27.156  1.00  0.00     0.010 A 
ATOM     89  C   UNL A   1      50.425  26.536  24.850  1.00  0.00     0.010 A 
ATOM     90  C   UNL A   1      52.035  25.565  26.927  1.00  0.00     0.020 A 
ATOM     91  C   UNL A   1      51.767  26.227  24.605  1.00  0.00     0.020 A 
ATOM     92  C   UNL A   1      52.571  25.775  25.655  1.00  0.00     0.054 A 
BRANCH  92  93
ATOM     93  S   UNL A   1      54.341  25.474  25.392  1.00  0.00     0.124 S 
ATOM     94  O   UNL A   1      54.935  26.062  26.588  1.00  0.00    -0.237 OA
ATOM     95  O   UNL A   1      54.408  24.017  25.305  1.00  0.00    -0.237 OA
ATOM     96  O   UNL A   1      54.627  26.178  24.143  1.00  0.00    -0.744 OA
ENDBRANCH  92  93
ENDBRANCH  66  87
ENDBRANCH  40  41
ENDBRANCH  33  35
ENDBRANCH  32  33
ENDBRANCH  31  32
ENDBRANCH   1  31
TORSDOF 19
ENDMDL
MODEL 3
REMARK VINA RESULT:      -9.2      5.297     12.165
REMARK SMILES Cc1ccc(-c2cc(Cl)cc3c2O[C@H](C(F)(F)F)C(C(=O)OCCOCCOC(=O)c2ccc(-c4c5nc(c(-c6ccc(S(=O)(=O)[O-])cc6)c6ccc([nH]6)c(-c6ccc(S(=O)(=O)[O-])cc6)c6nc(c(-c7ccc(S(=O)(=O)[O-])cc7)c7ccc4[nH]7)C=C6)C=C5)cc2)=C3)cc1F
REMARK SMILES IDX 26 1 25 2 24 3 23 4 22 5 20 6 21 7 19 8 6 9 7 10 12 11 8 12
REMARK SMILES IDX 11 13 13 14 9 15 10 16 91 17 14 18 5 19 1 20 2 21 3 22 93 23
REMARK SMILES IDX 4 24 92 25 94 26 15 27 16 28 17 29 18 30 27 31 28 32 29 33
REMARK SMILES IDX 30 34 31 35 32 36 90 37 33 38 89 39 34 40 35 41 36 42 83 43
REMARK SMILES IDX 37 44 88 45 82 46 84 47 38 48 87 49 81 50 80 51 39 53 69 54
REMARK SMILES IDX 50 55 68 56 51 57 54 58 67 59 85 60 52 61 53 62 66 64 86 65
REMARK SMILES IDX 55 66 40 67 41 68 49 69 42 70 48 71 43 72 44 73 45 74 46 75
REMARK SMILES IDX 47 76 70 77 71 78 79 79 72 80 78 81 73 82 74 83 75 84 76 85
REMARK SMILES IDX 77 86 56 87 57 88 65 89 58 90 64 91 59 92 60 93 61 94 62 95
REMARK SMILES IDX 63 96
REMARK H PARENT 84 52 54 63
REMARK Flexibility Score: inf
ROOT
ATOM      1  C   UNL A   1      33.568  30.924  27.956  1.00  0.00     0.202 C 
ENDROOT
BRANCH   1   2
ATOM      2  O   UNL A   1      32.651  31.056  26.871  1.00  0.00    -0.374 OA
BRANCH   2   3
ATOM      3  C   UNL A   1      32.801  30.194  25.744  1.00  0.00     0.202 C 
BRANCH   3   4
ATOM      4  C   UNL A   1      31.532  29.715  25.033  1.00  0.00     0.261 C 
BRANCH   4   5
ATOM      5  O   UNL A   1      31.807  28.705  24.053  1.00  0.00    -0.460 OA
BRANCH   5   6
ATOM      6  C   UNL A   1      31.135  27.544  24.244  1.00  0.00     0.338 C 
ATOM      7  O   UNL A   1      29.939  27.414  24.446  1.00  0.00    -0.246 OA
BRANCH   6   8
ATOM      8  C   UNL A   1      32.045  26.402  24.033  1.00  0.00     0.087 C 
ATOM      9  C   UNL A   1      34.322  22.900  23.829  1.00  0.00     0.026 A 
ATOM     10  C   UNL A   1      33.739  21.764  23.237  1.00  0.00     0.033 A 
ATOM     11  C   UNL A   1      33.601  24.114  23.798  1.00  0.00     0.135 A 
ATOM     12  C   UNL A   1      32.485  21.837  22.633  1.00  0.00     0.042 A 
ATOM     13  C   UNL A   1      32.323  24.166  23.231  1.00  0.00     0.019 A 
ATOM     14  O   UNL A   1      34.217  25.228  24.306  1.00  0.00    -0.475 OA
ATOM     15  Cl  UNL A   1      31.793  20.433  21.920  1.00  0.00    -0.084 Cl
ATOM     16  C   UNL A   1      31.773  23.032  22.630  1.00  0.00     0.032 A 
ATOM     17  C   UNL A   1      31.533  25.378  23.339  1.00  0.00     0.027 C 
ATOM     18  C   UNL A   1      33.434  26.414  24.605  1.00  0.00     0.316 C 
BRANCH   9  19
ATOM     19  C   UNL A   1      35.625  22.778  24.509  1.00  0.00    -0.012 A 
ATOM     20  C   UNL A   1      39.442  22.364  26.507  1.00  0.00     0.047 C 
ATOM     21  C   UNL A   1      38.130  22.532  25.808  1.00  0.00    -0.015 A 
ATOM     22  C   UNL A   1      37.416  23.733  25.867  1.00  0.00     0.007 A 
ATOM     23  C   UNL A   1      37.586  21.469  25.088  1.00  0.00     0.126 A 
ATOM     24  C   UNL A   1      36.178  23.853  25.222  1.00  0.00     0.009 A 
ATOM     25  C   UNL A   1      36.358  21.582  24.444  1.00  0.00     0.048 A 
ATOM     26  F   UNL A   1      38.254  20.310  25.006  1.00  0.00    -0.207 F 
ENDBRANCH   9  19
BRANCH  18  27
ATOM     27  C   UNL A   1      33.450  26.637  26.124  1.00  0.00     0.430 C 
ATOM     28  F   UNL A   1      32.230  27.015  26.575  1.00  0.00    -0.167 F 
ATOM     29  F   UNL A   1      33.787  25.511  26.794  1.00  0.00    -0.167 F 
ATOM     30  F   UNL A   1      34.330  27.602  26.475  1.00  0.00    -0.167 F 
ENDBRANCH  18  27
ENDBRANCH   6   8
ENDBRANCH   5   6
ENDBRANCH   4   5
ENDBRANCH   3   4
ENDBRANCH   2   3
ENDBRANCH   1   2
BRANCH   1  31
ATOM     31  C   UNL A   1      35.032  30.578  27.651  1.00  0.00     0.261 C 
BRANCH  31  32
ATOM     32  O   UNL A   1      35.946  31.051  28.653  1.00  0.00    -0.460 OA
BRANCH  32  33
ATOM     33  C   UNL A   1      36.491  30.080  29.429  1.00  0.00     0.338 C 
ATOM     34  O   UNL A   1      35.901  29.331  30.194  1.00  0.00    -0.246 OA
BRANCH  33  35
ATOM     35  C   UNL A   1      37.910  29.906  29.070  1.00  0.00     0.060 A 
ATOM     36  C   UNL A   1      38.911  29.941  30.040  1.00  0.00     0.016 A 
ATOM     37  C   UNL A   1      38.227  29.662  27.726  1.00  0.00     0.016 A 
ATOM     38  C   UNL A   1      40.236  29.704  29.662  1.00  0.00     0.010 A 
ATOM     39  C   UNL A   1      39.550  29.426  27.352  1.00  0.00     0.010 A 
ATOM     40  C   UNL A   1      40.563  29.425  28.320  1.00  0.00    -0.014 A 
BRANCH  40  41
ATOM     41  C   UNL A   1      41.943  29.012  27.957  1.00  0.00     0.031 A 
ATOM     42  C   UNL A   1      43.077  29.995  27.952  1.00  0.00     0.074 A 
ATOM     43  C   UNL A   1      42.160  27.723  27.629  1.00  0.00     0.049 A 
ATOM     44  N   UNL A   1      44.346  29.773  27.729  1.00  0.00    -0.248 NA
ATOM     45  C   UNL A   1      42.753  31.404  28.232  1.00  0.00     0.031 C 
ATOM     46  C   UNL A   1      41.127  26.685  27.587  1.00  0.00     0.029 A 
ATOM     47  N   UNL A   1      43.312  27.057  27.291  1.00  0.00    -0.354 N 
ATOM     48  C   UNL A   1      44.979  31.002  27.869  1.00  0.00     0.074 A 
ATOM     49  C   UNL A   1      43.947  31.979  28.141  1.00  0.00     0.031 C 
ATOM     50  C   UNL A   1      41.699  25.507  27.298  1.00  0.00     0.029 A 
ATOM     51  C   UNL A   1      43.131  25.707  27.089  1.00  0.00     0.049 A 
ATOM     52  H   UNL A   1      44.186  27.503  27.203  1.00  0.00     0.167 HD
ATOM     53  C   UNL A   1      46.303  31.277  27.804  1.00  0.00     0.031 A 
ATOM     54  C   UNL A   1      44.015  24.736  26.782  1.00  0.00     0.031 A 
ATOM     55  C   UNL A   1      47.320  30.293  27.526  1.00  0.00     0.049 A 
ATOM     56  C   UNL A   1      45.472  25.090  26.645  1.00  0.00     0.074 A 
ATOM     57  C   UNL A   1      48.692  30.481  27.464  1.00  0.00     0.029 A 
ATOM     58  N   UNL A   1      47.091  28.951  27.268  1.00  0.00    -0.354 N 
ATOM     59  N   UNL A   1      46.058  26.245  26.849  1.00  0.00    -0.248 NA
ATOM     60  C   UNL A   1      46.389  24.011  26.253  1.00  0.00     0.031 C 
ATOM     61  C   UNL A   1      49.282  29.273  27.092  1.00  0.00     0.029 A 
ATOM     62  C   UNL A   1      48.292  28.308  27.014  1.00  0.00     0.049 A 
ATOM     63  H   UNL A   1      46.207  28.518  27.267  1.00  0.00     0.167 HD
ATOM     64  C   UNL A   1      47.416  26.022  26.643  1.00  0.00     0.074 A 
ATOM     65  C   UNL A   1      47.566  24.619  26.320  1.00  0.00     0.031 C 
ATOM     66  C   UNL A   1      48.441  26.904  26.712  1.00  0.00     0.031 A 
BRANCH  53  67
ATOM     67  C   UNL A   1      46.770  32.684  28.082  1.00  0.00    -0.014 A 
ATOM     68  C   UNL A   1      47.107  33.538  27.014  1.00  0.00     0.010 A 
ATOM     69  C   UNL A   1      47.069  33.084  29.397  1.00  0.00     0.010 A 
ATOM     70  C   UNL A   1      47.793  34.732  27.250  1.00  0.00     0.020 A 
ATOM     71  C   UNL A   1      47.728  34.293  29.639  1.00  0.00     0.020 A 
ATOM     72  C   UNL A   1      48.117  35.092  28.561  1.00  0.00     0.054 A 
BRANCH  72  73
ATOM     73  S   UNL A   1      49.100  36.592  28.837  1.00  0.00     0.124 S 
ATOM     74  O   UNL A   1      48.668  37.004  30.169  1.00  0.00    -0.237 OA
ATOM     75  O   UNL A   1      50.470  36.093  28.742  1.00  0.00    -0.237 OA
ATOM     76  O   UNL A   1      48.691  37.476  27.747  1.00  0.00    -0.744 OA
ENDBRANCH  72  73
ENDBRANCH  53  67
BRANCH  54  77
ATOM     77  C   UNL A   1      43.549  23.326  26.639  1.00  0.00    -0.014 A 
ATOM     78  C   UNL A   1      43.123  22.589  27.761  1.00  0.00     0.010 A 
ATOM     79  C   UNL A   1      43.564  22.696  25.381  1.00  0.00     0.010 A 
ATOM     80  C   UNL A   1      42.764  21.245  27.637  1.00  0.00     0.020 A 
ATOM     81  C   UNL A   1      43.167  21.362  25.245  1.00  0.00     0.020 A 
ATOM     82  C   UNL A   1      42.794  20.638  26.379  1.00  0.00     0.054 A 
BRANCH  82  83
ATOM     83  S   UNL A   1      42.335  18.888  26.246  1.00  0.00     0.124 S 
ATOM     84  O   UNL A   1      40.977  18.975  25.714  1.00  0.00    -0.237 OA
ATOM     85  O   UNL A   1      43.340  18.365  25.325  1.00  0.00    -0.237 OA
ATOM     86  O   UNL A   1      42.439  18.402  27.620  1.00  0.00    -0.744 OA
ENDBRANCH  82  83
ENDBRANCH  54  77
BRANCH  66  87
ATOM     87  C   UNL A   1      49.842  26.405  26.450  1.00  0.00    -0.014 A 
ATOM     88  C   UNL A   1      50.627  25.935  27.521  1.00  0.00     0.010 A 
ATOM     89  C   UNL A   1      50.432  26.541  25.182  1.00  0.00     0.010 A 
ATOM     90  C   UNL A   1      51.985  25.662  27.342  1.00  0.00     0.020 A 
ATOM     91  C   UNL A   1      51.783  26.232  24.989  1.00  0.00     0.020 A 
ATOM     92  C   UNL A   1      52.557  25.825  26.079  1.00  0.00     0.054 A 
BRANCH  92  93
ATOM     93  S   UNL A   1      54.336  25.526  25.879  1.00  0.00     0.124 S 
ATOM     94  O   UNL A   1      54.370  24.620  24.736  1.00  0.00    -0.237 OA
ATOM     95  O   UNL A   1      54.860  26.867  25.636  1.00  0.00    -0.237 OA
ATOM     96  O   UNL A   1      54.730  24.934  27.156  1.00  0.00    -0.744 OA
ENDBRANCH  92  93
ENDBRANCH  66  87
ENDBRANCH  40  41
ENDBRANCH  33  35
ENDBRANCH  32  33
ENDBRANCH  31  32
ENDBRANCH   1  31
TORSDOF 19
ENDMDL
