MODEL 1
REMARK VINA RESULT:     -10.7      0.000      0.000
REMARK SMILES CC1=C2C(=O)CC(C)(C)CC2=N[C@@H]1C(=O)OCCOCCOC(=O)c1ccc(-c2c3nc(c(-c4ccc(S(=O)(=O)[O-])cc4)c4ccc([nH]4)c(-c4ccc(S(=O)(=O)[O-])cc4)c4nc(c(-c5ccc(S(=O)(=O)[O-])cc5)c5ccc2[nH]5)C=C4)C=C3)cc1
REMARK SMILES IDX 20 1 19 2 18 3 17 4 16 5 14 6 15 7 13 8 1 9 2 10 3 11 4 12
REMARK SMILES IDX 11 13 12 14 5 15 6 16 10 17 7 18 8 19 9 20 21 21 22 22 23 23
REMARK SMILES IDX 24 24 25 25 26 26 84 27 27 28 83 29 28 30 29 31 30 32 77 33
REMARK SMILES IDX 31 34 82 35 76 36 78 37 32 38 81 39 75 40 74 41 33 43 63 44
REMARK SMILES IDX 44 45 62 46 45 47 48 48 61 49 79 50 46 51 47 52 60 54 80 55
REMARK SMILES IDX 49 56 34 57 35 58 43 59 36 60 42 61 37 62 38 63 39 64 40 65
REMARK SMILES IDX 41 66 64 67 65 68 73 69 66 70 72 71 67 72 68 73 69 74 70 75
REMARK SMILES IDX 71 76 50 77 51 78 59 79 52 80 58 81 53 82 54 83 55 84 56 85
REMARK SMILES IDX 57 86
REMARK H PARENT 78 42 48 53
REMARK Flexibility Score: inf
ROOT
ATOM      1  C   UNL A   1      33.690  34.523  27.994  1.00  0.00     0.202 C 
ENDROOT
BRANCH   1   2
ATOM      2  O   UNL A   1      33.915  35.676  28.791  1.00  0.00    -0.374 OA
BRANCH   2   3
ATOM      3  C   UNL A   1      32.990  36.078  29.794  1.00  0.00     0.202 C 
BRANCH   3   4
ATOM      4  C   UNL A   1      33.302  35.896  31.287  1.00  0.00     0.261 C 
BRANCH   4   5
ATOM      5  O   UNL A   1      33.759  34.597  31.709  1.00  0.00    -0.461 OA
BRANCH   5   6
ATOM      6  C   UNL A   1      34.638  34.696  32.741  1.00  0.00     0.335 C 
ATOM      7  O   UNL A   1      35.277  35.725  32.969  1.00  0.00    -0.249 OA
BRANCH   6   8
ATOM      8  C   UNL A   1      34.809  33.392  33.589  1.00  0.00     0.242 C 
ATOM      9  C   UNL A   1      36.124  34.111  35.813  1.00  0.00     0.043 C 
ATOM     10  C   UNL A   1      35.948  33.273  34.599  1.00  0.00    -0.025 C 
ATOM     11  C   UNL A   1      36.855  32.384  34.180  1.00  0.00     0.040 C 
ATOM     12  C   UNL A   1      38.171  31.887  34.605  1.00  0.00     0.165 C 
ATOM     13  C   UNL A   1      36.519  32.403  32.779  1.00  0.00     0.048 C 
ATOM     14  N   UNL A   1      35.251  32.435  32.490  1.00  0.00    -0.269 NA
ATOM     15  O   UNL A   1      38.291  31.181  35.601  1.00  0.00    -0.294 OA
ATOM     16  C   UNL A   1      39.330  32.184  33.664  1.00  0.00     0.088 C 
ATOM     17  C   UNL A   1      37.634  32.705  31.815  1.00  0.00     0.063 C 
ATOM     18  C   UNL A   1      38.943  33.184  32.544  1.00  0.00    -0.023 C 
ATOM     19  C   UNL A   1      38.869  34.599  33.182  1.00  0.00     0.012 C 
ATOM     20  C   UNL A   1      40.045  33.272  31.473  1.00  0.00     0.012 C 
ENDBRANCH   6   8
ENDBRANCH   5   6
ENDBRANCH   4   5
ENDBRANCH   3   4
ENDBRANCH   2   3
ENDBRANCH   1   2
BRANCH   1  21
ATOM     21  C   UNL A   1      34.137  33.161  28.485  1.00  0.00     0.261 C 
BRANCH  21  22
ATOM     22  O   UNL A   1      35.186  32.629  27.705  1.00  0.00    -0.460 OA
BRANCH  22  23
ATOM     23  C   UNL A   1      35.123  31.279  27.621  1.00  0.00     0.338 C 
ATOM     24  O   UNL A   1      34.220  30.613  27.154  1.00  0.00    -0.246 OA
BRANCH  23  25
ATOM     25  C   UNL A   1      36.225  30.735  28.413  1.00  0.00     0.060 A 
ATOM     26  C   UNL A   1      37.234  31.645  28.715  1.00  0.00     0.016 A 
ATOM     27  C   UNL A   1      36.406  29.344  28.482  1.00  0.00     0.016 A 
ATOM     28  C   UNL A   1      38.507  31.158  28.851  1.00  0.00     0.010 A 
ATOM     29  C   UNL A   1      37.682  28.862  28.594  1.00  0.00     0.010 A 
ATOM     30  C   UNL A   1      38.719  29.782  28.694  1.00  0.00    -0.014 A 
BRANCH  30  31
ATOM     31  C   UNL A   1      40.068  29.301  28.853  1.00  0.00     0.031 A 
ATOM     32  C   UNL A   1      40.371  29.082  30.284  1.00  0.00     0.074 A 
ATOM     33  C   UNL A   1      40.874  29.007  27.821  1.00  0.00     0.049 A 
ATOM     34  N   UNL A   1      41.089  29.833  31.050  1.00  0.00    -0.248 NA
ATOM     35  C   UNL A   1      39.562  28.080  31.004  1.00  0.00     0.031 C 
ATOM     36  C   UNL A   1      40.554  28.927  26.394  1.00  0.00     0.029 A 
ATOM     37  N   UNL A   1      42.166  28.605  27.859  1.00  0.00    -0.354 N 
ATOM     38  C   UNL A   1      41.030  29.226  32.296  1.00  0.00     0.074 A 
ATOM     39  C   UNL A   1      39.890  28.348  32.267  1.00  0.00     0.031 C 
ATOM     40  C   UNL A   1      41.543  28.255  25.757  1.00  0.00     0.029 A 
ATOM     41  C   UNL A   1      42.617  27.985  26.702  1.00  0.00     0.049 A 
ATOM     42  H   UNL A   1      42.741  28.741  28.647  1.00  0.00     0.167 HD
ATOM     43  C   UNL A   1      42.113  29.220  33.118  1.00  0.00     0.031 A 
ATOM     44  C   UNL A   1      43.748  27.237  26.590  1.00  0.00     0.031 A 
ATOM     45  C   UNL A   1      43.063  30.241  32.749  1.00  0.00     0.049 A 
ATOM     46  C   UNL A   1      44.613  27.589  27.750  1.00  0.00     0.074 A 
ATOM     47  C   UNL A   1      42.991  31.614  32.600  1.00  0.00     0.029 A 
ATOM     48  N   UNL A   1      44.174  29.842  32.042  1.00  0.00    -0.354 N 
ATOM     49  N   UNL A   1      45.152  28.766  27.908  1.00  0.00    -0.248 NA
ATOM     50  C   UNL A   1      44.465  26.803  28.967  1.00  0.00     0.031 C 
ATOM     51  C   UNL A   1      43.760  31.899  31.435  1.00  0.00     0.029 A 
ATOM     52  C   UNL A   1      44.333  30.707  30.988  1.00  0.00     0.049 A 
ATOM     53  H   UNL A   1      44.751  29.072  32.253  1.00  0.00     0.167 HD
ATOM     54  C   UNL A   1      45.007  29.046  29.260  1.00  0.00     0.074 A 
ATOM     55  C   UNL A   1      44.644  27.768  29.875  1.00  0.00     0.031 C 
ATOM     56  C   UNL A   1      44.910  30.332  29.713  1.00  0.00     0.031 A 
BRANCH  43  57
ATOM     57  C   UNL A   1      42.490  28.000  33.921  1.00  0.00    -0.014 A 
ATOM     58  C   UNL A   1      42.590  28.109  35.318  1.00  0.00     0.010 A 
ATOM     59  C   UNL A   1      43.006  26.822  33.334  1.00  0.00     0.010 A 
ATOM     60  C   UNL A   1      43.218  27.112  36.078  1.00  0.00     0.020 A 
ATOM     61  C   UNL A   1      43.590  25.804  34.081  1.00  0.00     0.020 A 
ATOM     62  C   UNL A   1      43.717  25.968  35.450  1.00  0.00     0.054 A 
BRANCH  62  63
ATOM     63  S   UNL A   1      44.582  24.719  36.426  1.00  0.00     0.124 S 
ATOM     64  O   UNL A   1      43.989  24.907  37.746  1.00  0.00    -0.237 OA
ATOM     65  O   UNL A   1      44.218  23.486  35.734  1.00  0.00    -0.237 OA
ATOM     66  O   UNL A   1      45.986  25.103  36.305  1.00  0.00    -0.744 OA
ENDBRANCH  62  63
ENDBRANCH  43  57
BRANCH  44  67
ATOM     67  C   UNL A   1      43.952  25.984  25.810  1.00  0.00    -0.014 A 
ATOM     68  C   UNL A   1      45.248  25.576  25.435  1.00  0.00     0.010 A 
ATOM     69  C   UNL A   1      42.916  25.034  25.707  1.00  0.00     0.010 A 
ATOM     70  C   UNL A   1      45.512  24.247  25.056  1.00  0.00     0.020 A 
ATOM     71  C   UNL A   1      43.170  23.711  25.321  1.00  0.00     0.020 A 
ATOM     72  C   UNL A   1      44.473  23.315  25.028  1.00  0.00     0.054 A 
BRANCH  72  73
ATOM     73  S   UNL A   1      44.851  21.557  24.751  1.00  0.00     0.124 S 
ATOM     74  O   UNL A   1      46.260  21.479  25.124  1.00  0.00    -0.237 OA
ATOM     75  O   UNL A   1      43.921  20.884  25.651  1.00  0.00    -0.237 OA
ATOM     76  O   UNL A   1      44.576  21.367  23.327  1.00  0.00    -0.744 OA
ENDBRANCH  72  73
ENDBRANCH  44  67
BRANCH  56  77
ATOM     77  C   UNL A   1      45.237  31.462  28.760  1.00  0.00    -0.014 A 
ATOM     78  C   UNL A   1      46.532  31.973  28.535  1.00  0.00     0.010 A 
ATOM     79  C   UNL A   1      44.186  31.939  27.957  1.00  0.00     0.010 A 
ATOM     80  C   UNL A   1      46.756  32.960  27.560  1.00  0.00     0.020 A 
ATOM     81  C   UNL A   1      44.405  32.906  26.973  1.00  0.00     0.020 A 
ATOM     82  C   UNL A   1      45.685  33.424  26.789  1.00  0.00     0.054 A 
BRANCH  82  83
ATOM     83  S   UNL A   1      45.970  34.695  25.524  1.00  0.00     0.124 S 
ATOM     84  O   UNL A   1      45.072  34.281  24.449  1.00  0.00    -0.237 OA
ATOM     85  O   UNL A   1      45.599  35.929  26.214  1.00  0.00    -0.237 OA
ATOM     86  O   UNL A   1      47.394  34.570  25.219  1.00  0.00    -0.744 OA
ENDBRANCH  82  83
ENDBRANCH  56  77
ENDBRANCH  30  31
ENDBRANCH  23  25
ENDBRANCH  22  23
ENDBRANCH  21  22
ENDBRANCH   1  21
TORSDOF 17
ENDMDL
MODEL 2
REMARK VINA RESULT:     -10.5      3.952      6.573
REMARK SMILES CC1=C2C(=O)CC(C)(C)CC2=N[C@@H]1C(=O)OCCOCCOC(=O)c1ccc(-c2c3nc(c(-c4ccc(S(=O)(=O)[O-])cc4)c4ccc([nH]4)c(-c4ccc(S(=O)(=O)[O-])cc4)c4nc(c(-c5ccc(S(=O)(=O)[O-])cc5)c5ccc2[nH]5)C=C4)C=C3)cc1
REMARK SMILES IDX 20 1 19 2 18 3 17 4 16 5 14 6 15 7 13 8 1 9 2 10 3 11 4 12
REMARK SMILES IDX 11 13 12 14 5 15 6 16 10 17 7 18 8 19 9 20 21 21 22 22 23 23
REMARK SMILES IDX 24 24 25 25 26 26 84 27 27 28 83 29 28 30 29 31 30 32 77 33
REMARK SMILES IDX 31 34 82 35 76 36 78 37 32 38 81 39 75 40 74 41 33 43 63 44
REMARK SMILES IDX 44 45 62 46 45 47 48 48 61 49 79 50 46 51 47 52 60 54 80 55
REMARK SMILES IDX 49 56 34 57 35 58 43 59 36 60 42 61 37 62 38 63 39 64 40 65
REMARK SMILES IDX 41 66 64 67 65 68 73 69 66 70 72 71 67 72 68 73 69 74 70 75
REMARK SMILES IDX 71 76 50 77 51 78 59 79 52 80 58 81 53 82 54 83 55 84 56 85
REMARK SMILES IDX 57 86
REMARK H PARENT 78 42 48 53
REMARK Flexibility Score: inf
ROOT
ATOM      1  C   UNL A   1      32.278  29.535  26.602  1.00  0.00     0.202 C 
ENDROOT
BRANCH   1   2
ATOM      2  O   UNL A   1      31.574  29.587  25.370  1.00  0.00    -0.374 OA
BRANCH   2   3
ATOM      3  C   UNL A   1      32.040  28.895  24.218  1.00  0.00     0.202 C 
BRANCH   3   4
ATOM      4  C   UNL A   1      32.852  27.597  24.340  1.00  0.00     0.261 C 
BRANCH   4   5
ATOM      5  O   UNL A   1      32.314  26.423  23.702  1.00  0.00    -0.461 OA
BRANCH   5   6
ATOM      6  C   UNL A   1      32.285  25.368  24.558  1.00  0.00     0.335 C 
ATOM      7  O   UNL A   1      32.789  25.413  25.682  1.00  0.00    -0.249 OA
BRANCH   6   8
ATOM      8  C   UNL A   1      31.604  24.078  23.992  1.00  0.00     0.242 C 
ATOM      9  C   UNL A   1      30.796  22.660  26.120  1.00  0.00     0.043 C 
ATOM     10  C   UNL A   1      31.532  22.809  24.838  1.00  0.00    -0.025 C 
ATOM     11  C   UNL A   1      32.333  21.863  24.334  1.00  0.00     0.040 C 
ATOM     12  C   UNL A   1      32.783  20.512  24.694  1.00  0.00     0.165 C 
ATOM     13  C   UNL A   1      33.202  22.724  23.572  1.00  0.00     0.048 C 
ATOM     14  N   UNL A   1      32.628  23.699  22.930  1.00  0.00    -0.269 NA
ATOM     15  O   UNL A   1      32.019  19.554  24.642  1.00  0.00    -0.294 OA
ATOM     16  C   UNL A   1      34.268  20.362  24.991  1.00  0.00     0.088 C 
ATOM     17  C   UNL A   1      34.677  22.617  23.844  1.00  0.00     0.063 C 
ATOM     18  C   UNL A   1      34.992  21.729  25.104  1.00  0.00    -0.023 C 
ATOM     19  C   UNL A   1      34.602  22.355  26.472  1.00  0.00     0.012 C 
ATOM     20  C   UNL A   1      36.518  21.548  25.154  1.00  0.00     0.012 C 
ENDBRANCH   6   8
ENDBRANCH   5   6
ENDBRANCH   4   5
ENDBRANCH   3   4
ENDBRANCH   2   3
ENDBRANCH   1   2
BRANCH   1  21
ATOM     21  C   UNL A   1      33.069  30.736  27.077  1.00  0.00     0.261 C 
BRANCH  21  22
ATOM     22  O   UNL A   1      34.459  30.484  27.104  1.00  0.00    -0.460 OA
BRANCH  22  23
ATOM     23  C   UNL A   1      35.135  31.439  27.784  1.00  0.00     0.338 C 
ATOM     24  O   UNL A   1      35.029  32.643  27.663  1.00  0.00    -0.246 OA
BRANCH  23  25
ATOM     25  C   UNL A   1      36.204  30.777  28.529  1.00  0.00     0.060 A 
ATOM     26  C   UNL A   1      37.173  31.632  29.049  1.00  0.00     0.016 A 
ATOM     27  C   UNL A   1      36.415  29.400  28.360  1.00  0.00     0.016 A 
ATOM     28  C   UNL A   1      38.449  31.147  29.169  1.00  0.00     0.010 A 
ATOM     29  C   UNL A   1      37.694  28.923  28.458  1.00  0.00     0.010 A 
ATOM     30  C   UNL A   1      38.702  29.824  28.782  1.00  0.00    -0.014 A 
BRANCH  30  31
ATOM     31  C   UNL A   1      40.051  29.341  28.931  1.00  0.00     0.031 A 
ATOM     32  C   UNL A   1      40.365  29.125  30.360  1.00  0.00     0.074 A 
ATOM     33  C   UNL A   1      40.848  29.043  27.893  1.00  0.00     0.049 A 
ATOM     34  N   UNL A   1      41.091  29.875  31.118  1.00  0.00    -0.248 NA
ATOM     35  C   UNL A   1      39.560  28.125  31.088  1.00  0.00     0.031 C 
ATOM     36  C   UNL A   1      40.516  28.961  26.469  1.00  0.00     0.029 A 
ATOM     37  N   UNL A   1      42.140  28.639  27.922  1.00  0.00    -0.354 N 
ATOM     38  C   UNL A   1      41.040  29.272  32.367  1.00  0.00     0.074 A 
ATOM     39  C   UNL A   1      39.899  28.395  32.348  1.00  0.00     0.031 C 
ATOM     40  C   UNL A   1      41.500  28.286  25.825  1.00  0.00     0.029 A 
ATOM     41  C   UNL A   1      42.580  28.016  26.763  1.00  0.00     0.049 A 
ATOM     42  H   UNL A   1      42.721  28.775  28.705  1.00  0.00     0.167 HD
ATOM     43  C   UNL A   1      42.130  29.266  33.179  1.00  0.00     0.031 A 
ATOM     44  C   UNL A   1      43.709  27.266  26.643  1.00  0.00     0.031 A 
ATOM     45  C   UNL A   1      43.079  30.284  32.801  1.00  0.00     0.049 A 
ATOM     46  C   UNL A   1      44.584  27.619  27.795  1.00  0.00     0.074 A 
ATOM     47  C   UNL A   1      43.008  31.656  32.650  1.00  0.00     0.029 A 
ATOM     48  N   UNL A   1      44.184  29.881  32.086  1.00  0.00    -0.354 N 
ATOM     49  N   UNL A   1      45.126  28.795  27.946  1.00  0.00    -0.248 NA
ATOM     50  C   UNL A   1      44.445  26.835  29.015  1.00  0.00     0.031 C 
ATOM     51  C   UNL A   1      43.768  31.938  31.478  1.00  0.00     0.029 A 
ATOM     52  C   UNL A   1      44.335  30.744  31.029  1.00  0.00     0.049 A 
ATOM     53  H   UNL A   1      44.761  29.111  32.294  1.00  0.00     0.167 HD
ATOM     54  C   UNL A   1      44.993  29.078  29.299  1.00  0.00     0.074 A 
ATOM     55  C   UNL A   1      44.632  27.802  29.919  1.00  0.00     0.031 C 
ATOM     56  C   UNL A   1      44.901  30.365  29.750  1.00  0.00     0.031 A 
BRANCH  43  57
ATOM     57  C   UNL A   1      42.511  28.046  33.982  1.00  0.00    -0.014 A 
ATOM     58  C   UNL A   1      42.592  28.150  35.381  1.00  0.00     0.010 A 
ATOM     59  C   UNL A   1      43.049  26.877  33.397  1.00  0.00     0.010 A 
ATOM     60  C   UNL A   1      43.222  27.157  36.144  1.00  0.00     0.020 A 
ATOM     61  C   UNL A   1      43.635  25.863  34.147  1.00  0.00     0.020 A 
ATOM     62  C   UNL A   1      43.742  26.022  35.518  1.00  0.00     0.054 A 
BRANCH  62  63
ATOM     63  S   UNL A   1      44.610  24.779  36.500  1.00  0.00     0.124 S 
ATOM     64  O   UNL A   1      46.000  25.195  36.350  1.00  0.00    -0.237 OA
ATOM     65  O   UNL A   1      44.025  24.974  37.823  1.00  0.00    -0.237 OA
ATOM     66  O   UNL A   1      44.255  23.520  35.847  1.00  0.00    -0.744 OA
ENDBRANCH  62  63
ENDBRANCH  43  57
BRANCH  44  67
ATOM     67  C   UNL A   1      43.905  26.011  25.864  1.00  0.00    -0.014 A 
ATOM     68  C   UNL A   1      45.191  25.628  25.432  1.00  0.00     0.010 A 
ATOM     69  C   UNL A   1      42.887  25.038  25.816  1.00  0.00     0.010 A 
ATOM     70  C   UNL A   1      45.466  24.302  25.052  1.00  0.00     0.020 A 
ATOM     71  C   UNL A   1      43.152  23.717  25.429  1.00  0.00     0.020 A 
ATOM     72  C   UNL A   1      44.448  23.347  25.079  1.00  0.00     0.054 A 
BRANCH  72  73
ATOM     73  S   UNL A   1      44.853  21.596  24.798  1.00  0.00     0.124 S 
ATOM     74  O   UNL A   1      46.274  21.548  25.124  1.00  0.00    -0.237 OA
ATOM     75  O   UNL A   1      43.966  20.910  25.733  1.00  0.00    -0.237 OA
ATOM     76  O   UNL A   1      44.533  21.392  23.385  1.00  0.00    -0.744 OA
ENDBRANCH  72  73
ENDBRANCH  44  67
BRANCH  56  77
ATOM     77  C   UNL A   1      45.223  31.493  28.792  1.00  0.00    -0.014 A 
ATOM     78  C   UNL A   1      46.494  32.088  28.651  1.00  0.00     0.010 A 
ATOM     79  C   UNL A   1      44.207  31.875  27.899  1.00  0.00     0.010 A 
ATOM     80  C   UNL A   1      46.724  33.066  27.668  1.00  0.00     0.020 A 
ATOM     81  C   UNL A   1      44.434  32.832  26.907  1.00  0.00     0.020 A 
ATOM     82  C   UNL A   1      45.687  33.434  26.805  1.00  0.00     0.054 A 
BRANCH  82  83
ATOM     83  S   UNL A   1      45.980  34.692  25.529  1.00  0.00     0.124 S 
ATOM     84  O   UNL A   1      45.599  35.928  26.207  1.00  0.00    -0.237 OA
ATOM     85  O   UNL A   1      47.407  34.543  25.248  1.00  0.00    -0.237 OA
ATOM     86  O   UNL A   1      45.097  34.292  24.435  1.00  0.00    -0.744 OA
ENDBRANCH  82  83
ENDBRANCH  56  77
ENDBRANCH  30  31
ENDBRANCH  23  25
ENDBRANCH  22  23
ENDBRANCH  21  22
ENDBRANCH   1  21
TORSDOF 17
ENDMDL
MODEL 3
REMARK VINA RESULT:     -10.4      4.071     10.941
REMARK SMILES CC1=C2C(=O)CC(C)(C)CC2=N[C@@H]1C(=O)OCCOCCOC(=O)c1ccc(-c2c3nc(c(-c4ccc(S(=O)(=O)[O-])cc4)c4ccc([nH]4)c(-c4ccc(S(=O)(=O)[O-])cc4)c4nc(c(-c5ccc(S(=O)(=O)[O-])cc5)c5ccc2[nH]5)C=C4)C=C3)cc1
REMARK SMILES IDX 20 1 19 2 18 3 17 4 16 5 14 6 15 7 13 8 1 9 2 10 3 11 4 12
REMARK SMILES IDX 11 13 12 14 5 15 6 16 10 17 7 18 8 19 9 20 21 21 22 22 23 23
REMARK SMILES IDX 24 24 25 25 26 26 84 27 27 28 83 29 28 30 29 31 30 32 77 33
REMARK SMILES IDX 31 34 82 35 76 36 78 37 32 38 81 39 75 40 74 41 33 43 63 44
REMARK SMILES IDX 44 45 62 46 45 47 48 48 61 49 79 50 46 51 47 52 60 54 80 55
REMARK SMILES IDX 49 56 34 57 35 58 43 59 36 60 42 61 37 62 38 63 39 64 40 65
REMARK SMILES IDX 41 66 64 67 65 68 73 69 66 70 72 71 67 72 68 73 69 74 70 75
REMARK SMILES IDX 71 76 50 77 51 78 59 79 52 80 58 81 53 82 54 83 55 84 56 85
REMARK SMILES IDX 57 86
REMARK H PARENT 78 42 48 53
REMARK Flexibility Score: inf
ROOT
ATOM      1  C   UNL A   1      37.062  21.082  25.087  1.00  0.00     0.202 C 
ENDROOT
BRANCH   1   2
ATOM      2  O   UNL A   1      36.177  22.152  25.381  1.00  0.00    -0.374 OA
BRANCH   2   3
ATOM      3  C   UNL A   1      34.781  21.937  25.548  1.00  0.00     0.202 C 
BRANCH   3   4
ATOM      4  C   UNL A   1      34.004  22.591  26.700  1.00  0.00     0.261 C 
BRANCH   4   5
ATOM      5  O   UNL A   1      33.351  23.844  26.424  1.00  0.00    -0.461 OA
BRANCH   5   6
ATOM      6  C   UNL A   1      32.016  23.767  26.668  1.00  0.00     0.335 C 
ATOM      7  O   UNL A   1      31.561  23.300  27.714  1.00  0.00    -0.249 OA
BRANCH   6   8
ATOM      8  C   UNL A   1      31.101  24.275  25.504  1.00  0.00     0.242 C 
ATOM      9  C   UNL A   1      32.732  24.796  23.441  1.00  0.00     0.043 C 
ATOM     10  C   UNL A   1      31.672  25.174  24.410  1.00  0.00    -0.025 C 
ATOM     11  C   UNL A   1      31.177  26.412  24.515  1.00  0.00     0.040 C 
ATOM     12  C   UNL A   1      31.369  27.720  23.874  1.00  0.00     0.165 C 
ATOM     13  C   UNL A   1      30.773  26.348  25.897  1.00  0.00     0.048 C 
ATOM     14  N   UNL A   1      30.215  25.238  26.283  1.00  0.00    -0.269 NA
ATOM     15  O   UNL A   1      30.993  27.924  22.725  1.00  0.00    -0.294 OA
ATOM     16  C   UNL A   1      31.926  28.822  24.765  1.00  0.00     0.088 C 
ATOM     17  C   UNL A   1      31.311  27.412  26.814  1.00  0.00     0.063 C 
ATOM     18  C   UNL A   1      32.427  28.285  26.131  1.00  0.00    -0.023 C 
ATOM     19  C   UNL A   1      33.778  27.560  25.883  1.00  0.00     0.012 C 
ATOM     20  C   UNL A   1      32.748  29.437  27.097  1.00  0.00     0.012 C 
ENDBRANCH   6   8
ENDBRANCH   5   6
ENDBRANCH   4   5
ENDBRANCH   3   4
ENDBRANCH   2   3
ENDBRANCH   1   2
BRANCH   1  21
ATOM     21  C   UNL A   1      38.522  21.172  25.483  1.00  0.00     0.261 C 
BRANCH  21  22
ATOM     22  O   UNL A   1      38.813  22.363  26.184  1.00  0.00    -0.460 OA
BRANCH  22  23
ATOM     23  C   UNL A   1      40.036  22.326  26.763  1.00  0.00     0.338 C 
ATOM     24  O   UNL A   1      40.576  21.367  27.279  1.00  0.00    -0.246 OA
BRANCH  23  25
ATOM     25  C   UNL A   1      40.510  23.703  26.885  1.00  0.00     0.060 A 
ATOM     26  C   UNL A   1      41.624  23.870  27.704  1.00  0.00     0.016 A 
ATOM     27  C   UNL A   1      39.657  24.761  26.533  1.00  0.00     0.016 A 
ATOM     28  C   UNL A   1      41.744  25.057  28.376  1.00  0.00     0.010 A 
ATOM     29  C   UNL A   1      39.765  25.938  27.224  1.00  0.00     0.010 A 
ATOM     30  C   UNL A   1      40.758  26.035  28.192  1.00  0.00    -0.014 A 
BRANCH  30  31
ATOM     31  C   UNL A   1      40.920  27.276  28.905  1.00  0.00     0.031 A 
ATOM     32  C   UNL A   1      42.073  28.031  28.369  1.00  0.00     0.074 A 
ATOM     33  C   UNL A   1      40.066  27.703  29.850  1.00  0.00     0.049 A 
ATOM     34  N   UNL A   1      43.238  28.157  28.908  1.00  0.00    -0.248 NA
ATOM     35  C   UNL A   1      42.010  28.453  26.956  1.00  0.00     0.031 C 
ATOM     36  C   UNL A   1      38.763  27.155  30.230  1.00  0.00     0.029 A 
ATOM     37  N   UNL A   1      40.156  28.817  30.613  1.00  0.00    -0.354 N 
ATOM     38  C   UNL A   1      43.969  28.912  28.002  1.00  0.00     0.074 A 
ATOM     39  C   UNL A   1      43.273  28.824  26.746  1.00  0.00     0.031 C 
ATOM     40  C   UNL A   1      38.088  28.083  30.952  1.00  0.00     0.029 A 
ATOM     41  C   UNL A   1      38.962  29.222  31.194  1.00  0.00     0.049 A 
ATOM     42  H   UNL A   1      41.001  29.304  30.745  1.00  0.00     0.167 HD
ATOM     43  C   UNL A   1      44.873  29.831  28.434  1.00  0.00     0.031 A 
ATOM     44  C   UNL A   1      38.718  30.442  31.744  1.00  0.00     0.031 A 
ATOM     45  C   UNL A   1      45.268  29.584  29.799  1.00  0.00     0.049 A 
ATOM     46  C   UNL A   1      40.044  31.060  32.024  1.00  0.00     0.074 A 
ATOM     47  C   UNL A   1      45.820  28.503  30.461  1.00  0.00     0.029 A 
ATOM     48  N   UNL A   1      44.696  30.371  30.773  1.00  0.00    -0.354 N 
ATOM     49  N   UNL A   1      40.877  30.592  32.910  1.00  0.00    -0.248 NA
ATOM     50  C   UNL A   1      40.640  31.882  30.980  1.00  0.00     0.031 C 
ATOM     51  C   UNL A   1      45.139  28.449  31.711  1.00  0.00     0.029 A 
ATOM     52  C   UNL A   1      44.278  29.545  31.786  1.00  0.00     0.049 A 
ATOM     53  H   UNL A   1      44.602  31.351  30.746  1.00  0.00     0.167 HD
ATOM     54  C   UNL A   1      42.125  30.682  32.309  1.00  0.00     0.074 A 
ATOM     55  C   UNL A   1      41.925  31.553  31.149  1.00  0.00     0.031 C 
ATOM     56  C   UNL A   1      43.134  29.818  32.632  1.00  0.00     0.031 A 
BRANCH  43  57
ATOM     57  C   UNL A   1      45.009  31.179  27.771  1.00  0.00    -0.014 A 
ATOM     58  C   UNL A   1      46.241  31.535  27.197  1.00  0.00     0.010 A 
ATOM     59  C   UNL A   1      44.056  32.212  27.924  1.00  0.00     0.010 A 
ATOM     60  C   UNL A   1      46.517  32.863  26.842  1.00  0.00     0.020 A 
ATOM     61  C   UNL A   1      44.300  33.524  27.533  1.00  0.00     0.020 A 
ATOM     62  C   UNL A   1      45.543  33.848  27.017  1.00  0.00     0.054 A 
BRANCH  62  63
ATOM     63  S   UNL A   1      45.928  35.566  26.618  1.00  0.00     0.124 S 
ATOM     64  O   UNL A   1      44.601  36.171  26.587  1.00  0.00    -0.237 OA
ATOM     65  O   UNL A   1      46.780  35.955  27.739  1.00  0.00    -0.237 OA
ATOM     66  O   UNL A   1      46.609  35.473  25.329  1.00  0.00    -0.744 OA
ENDBRANCH  62  63
ENDBRANCH  43  57
BRANCH  44  67
ATOM     67  C   UNL A   1      37.473  31.256  31.666  1.00  0.00    -0.014 A 
ATOM     68  C   UNL A   1      36.602  31.340  32.772  1.00  0.00     0.010 A 
ATOM     69  C   UNL A   1      37.298  32.194  30.629  1.00  0.00     0.010 A 
ATOM     70  C   UNL A   1      35.654  32.375  32.875  1.00  0.00     0.020 A 
ATOM     71  C   UNL A   1      36.350  33.222  30.721  1.00  0.00     0.020 A 
ATOM     72  C   UNL A   1      35.554  33.327  31.859  1.00  0.00     0.054 A 
BRANCH  72  73
ATOM     73  S   UNL A   1      34.486  34.781  32.093  1.00  0.00     0.124 S 
ATOM     74  O   UNL A   1      33.356  34.223  32.830  1.00  0.00    -0.237 OA
ATOM     75  O   UNL A   1      35.344  35.690  32.846  1.00  0.00    -0.237 OA
ATOM     76  O   UNL A   1      34.184  35.209  30.727  1.00  0.00    -0.744 OA
ENDBRANCH  72  73
ENDBRANCH  44  67
BRANCH  56  77
ATOM     77  C   UNL A   1      42.968  28.934  33.851  1.00  0.00    -0.014 A 
ATOM     78  C   UNL A   1      43.185  29.352  35.180  1.00  0.00     0.010 A 
ATOM     79  C   UNL A   1      42.437  27.650  33.636  1.00  0.00     0.010 A 
ATOM     80  C   UNL A   1      42.914  28.490  36.257  1.00  0.00     0.020 A 
ATOM     81  C   UNL A   1      42.148  26.796  34.702  1.00  0.00     0.020 A 
ATOM     82  C   UNL A   1      42.401  27.214  36.007  1.00  0.00     0.054 A 
BRANCH  82  83
ATOM     83  S   UNL A   1      42.044  26.099  37.396  1.00  0.00     0.124 S 
ATOM     84  O   UNL A   1      43.077  26.457  38.364  1.00  0.00    -0.237 OA
ATOM     85  O   UNL A   1      40.679  26.467  37.765  1.00  0.00    -0.237 OA
ATOM     86  O   UNL A   1      42.181  24.764  36.815  1.00  0.00    -0.744 OA
ENDBRANCH  82  83
ENDBRANCH  56  77
ENDBRANCH  30  31
ENDBRANCH  23  25
ENDBRANCH  22  23
ENDBRANCH  21  22
ENDBRANCH   1  21
TORSDOF 17
ENDMDL
