MODEL 1
REMARK VINA RESULT:     -10.4      0.000      0.000
REMARK SMILES O=C(OCCOCCOC(=O)[C@@H]1C=C[C@@H]([NH+]2CC3(CC3)C2)C1)c1ccc(-c2c3nc(c(-c4ccc(S(=O)(=O)[O-])cc4)c4ccc([nH]4)c(-c4ccc(S(=O)(=O)[O-])cc4)c4nc(c(-c5ccc(S(=O)(=O)[O-])cc5)c5ccc2[nH]5)C=C4)C=C3)cc1
REMARK SMILES IDX 5 1 4 2 3 3 2 4 1 5 23 6 24 7 82 8 25 9 81 10 26 11 27 12
REMARK SMILES IDX 28 13 75 14 29 15 80 16 74 17 76 18 30 19 79 20 73 21 72 22
REMARK SMILES IDX 31 24 61 25 42 26 60 27 43 28 46 29 59 30 77 31 44 32 45 33
REMARK SMILES IDX 58 35 78 36 47 37 32 38 33 39 41 40 34 41 40 42 35 43 36 44
REMARK SMILES IDX 37 45 38 46 39 47 62 48 63 49 71 50 64 51 70 52 65 53 66 54
REMARK SMILES IDX 67 55 68 56 69 57 48 58 49 59 57 60 50 61 56 62 51 63 52 64
REMARK SMILES IDX 53 65 54 66 55 67 6 68 7 69 8 70 9 71 10 72 11 73 12 74
REMARK SMILES IDX 13 75 22 76 14 77 15 78 16 79 17 80 21 81 18 83 19 84 20 85
REMARK H PARENT 76 23 46 34 16 82
REMARK Flexibility Score: inf
ROOT
ATOM      1  C   UNL A   1      38.930  21.964  26.087  1.00  0.00     0.202 C 
ENDROOT
BRANCH   1   2
ATOM      2  C   UNL A   1      39.843  22.989  26.754  1.00  0.00     0.261 C 
BRANCH   2   3
ATOM      3  O   UNL A   1      39.600  24.286  26.204  1.00  0.00    -0.460 OA
BRANCH   3   4
ATOM      4  C   UNL A   1      40.441  25.340  26.330  1.00  0.00     0.338 C 
ATOM      5  O   UNL A   1      41.226  25.594  25.420  1.00  0.00    -0.246 OA
BRANCH   4   6
ATOM      6  C   UNL A   1      40.375  26.268  27.495  1.00  0.00     0.060 A 
ATOM      7  C   UNL A   1      39.529  26.113  28.597  1.00  0.00     0.016 A 
ATOM      8  C   UNL A   1      41.290  27.328  27.506  1.00  0.00     0.016 A 
ATOM      9  C   UNL A   1      39.565  26.964  29.673  1.00  0.00     0.010 A 
ATOM     10  C   UNL A   1      41.343  28.198  28.595  1.00  0.00     0.010 A 
ATOM     11  C   UNL A   1      40.477  28.002  29.675  1.00  0.00    -0.014 A 
BRANCH  11  12
ATOM     12  C   UNL A   1      40.353  28.943  30.784  1.00  0.00     0.031 A 
ATOM     13  C   UNL A   1      41.367  28.851  31.871  1.00  0.00     0.074 A 
ATOM     14  C   UNL A   1      39.477  29.957  30.676  1.00  0.00     0.049 A 
ATOM     15  N   UNL A   1      41.430  29.511  32.990  1.00  0.00    -0.248 NA
ATOM     16  C   UNL A   1      42.469  27.890  31.667  1.00  0.00     0.031 C 
ATOM     17  C   UNL A   1      38.610  30.207  29.516  1.00  0.00     0.029 A 
ATOM     18  N   UNL A   1      39.202  30.986  31.525  1.00  0.00    -0.354 N 
ATOM     19  C   UNL A   1      42.542  29.007  33.649  1.00  0.00     0.074 A 
ATOM     20  C   UNL A   1      43.135  27.999  32.804  1.00  0.00     0.031 C 
ATOM     21  C   UNL A   1      37.907  31.329  29.729  1.00  0.00     0.029 A 
ATOM     22  C   UNL A   1      38.207  31.815  31.068  1.00  0.00     0.049 A 
ATOM     23  H   UNL A   1      39.670  31.124  32.380  1.00  0.00     0.167 HD
ATOM     24  C   UNL A   1      42.993  29.356  34.874  1.00  0.00     0.031 A 
ATOM     25  C   UNL A   1      37.574  32.815  31.706  1.00  0.00     0.031 A 
ATOM     26  C   UNL A   1      42.343  30.360  35.667  1.00  0.00     0.049 A 
ATOM     27  C   UNL A   1      38.011  33.100  33.116  1.00  0.00     0.074 A 
ATOM     28  C   UNL A   1      42.623  30.765  36.955  1.00  0.00     0.029 A 
ATOM     29  N   UNL A   1      41.266  31.124  35.224  1.00  0.00    -0.354 N 
ATOM     30  N   UNL A   1      38.988  32.545  33.799  1.00  0.00    -0.248 NA
ATOM     31  C   UNL A   1      37.260  34.122  33.849  1.00  0.00     0.031 C 
ATOM     32  C   UNL A   1      41.678  31.733  37.312  1.00  0.00     0.029 A 
ATOM     33  C   UNL A   1      40.855  31.985  36.221  1.00  0.00     0.049 A 
ATOM     34  H   UNL A   1      40.858  31.058  34.331  1.00  0.00     0.167 HD
ATOM     35  C   UNL A   1      38.985  33.165  35.040  1.00  0.00     0.074 A 
ATOM     36  C   UNL A   1      37.916  34.149  35.002  1.00  0.00     0.031 C 
ATOM     37  C   UNL A   1      39.782  32.947  36.116  1.00  0.00     0.031 A 
BRANCH  24  38
ATOM     38  C   UNL A   1      44.139  28.560  35.431  1.00  0.00    -0.014 A 
ATOM     39  C   UNL A   1      43.939  27.374  36.161  1.00  0.00     0.010 A 
ATOM     40  C   UNL A   1      45.448  29.049  35.269  1.00  0.00     0.010 A 
ATOM     41  C   UNL A   1      45.023  26.719  36.755  1.00  0.00     0.020 A 
ATOM     42  C   UNL A   1      46.536  28.382  35.837  1.00  0.00     0.020 A 
ATOM     43  C   UNL A   1      46.314  27.230  36.592  1.00  0.00     0.054 A 
BRANCH  43  44
ATOM     44  S   UNL A   1      47.701  26.362  37.374  1.00  0.00     0.124 S 
ATOM     45  O   UNL A   1      47.112  25.059  37.677  1.00  0.00    -0.237 OA
ATOM     46  O   UNL A   1      48.713  26.363  36.321  1.00  0.00    -0.237 OA
ATOM     47  O   UNL A   1      48.016  27.187  38.538  1.00  0.00    -0.744 OA
ENDBRANCH  43  44
ENDBRANCH  24  38
BRANCH  25  48
ATOM     48  C   UNL A   1      36.439  33.526  31.056  1.00  0.00    -0.014 A 
ATOM     49  C   UNL A   1      35.274  33.844  31.773  1.00  0.00     0.010 A 
ATOM     50  C   UNL A   1      36.527  33.910  29.703  1.00  0.00     0.010 A 
ATOM     51  C   UNL A   1      34.217  34.517  31.148  1.00  0.00     0.020 A 
ATOM     52  C   UNL A   1      35.489  34.611  29.084  1.00  0.00     0.020 A 
ATOM     53  C   UNL A   1      34.333  34.899  29.808  1.00  0.00     0.054 A 
BRANCH  53  54
ATOM     54  S   UNL A   1      32.964  35.801  29.030  1.00  0.00     0.124 S 
ATOM     55  O   UNL A   1      33.663  36.879  28.339  1.00  0.00    -0.237 OA
ATOM     56  O   UNL A   1      32.364  34.782  28.171  1.00  0.00    -0.237 OA
ATOM     57  O   UNL A   1      32.137  36.215  30.162  1.00  0.00    -0.744 OA
ENDBRANCH  53  54
ENDBRANCH  25  48
BRANCH  37  58
ATOM     58  C   UNL A   1      39.554  33.827  37.309  1.00  0.00    -0.014 A 
ATOM     59  C   UNL A   1      38.759  33.402  38.386  1.00  0.00     0.010 A 
ATOM     60  C   UNL A   1      40.214  35.067  37.376  1.00  0.00     0.010 A 
ATOM     61  C   UNL A   1      38.609  34.220  39.506  1.00  0.00     0.020 A 
ATOM     62  C   UNL A   1      40.093  35.870  38.507  1.00  0.00     0.020 A 
ATOM     63  C   UNL A   1      39.281  35.446  39.561  1.00  0.00     0.054 A 
BRANCH  63  64
ATOM     64  S   UNL A   1      39.121  36.459  41.053  1.00  0.00     0.124 S 
ATOM     65  O   UNL A   1      38.821  37.774  40.495  1.00  0.00    -0.237 OA
ATOM     66  O   UNL A   1      38.021  35.809  41.762  1.00  0.00    -0.237 OA
ATOM     67  O   UNL A   1      40.427  36.337  41.697  1.00  0.00    -0.744 OA
ENDBRANCH  63  64
ENDBRANCH  37  58
ENDBRANCH  11  12
ENDBRANCH   4   6
ENDBRANCH   3   4
ENDBRANCH   2   3
ENDBRANCH   1   2
BRANCH   1  68
ATOM     68  O   UNL A   1      37.884  22.518  25.295  1.00  0.00    -0.374 OA
BRANCH  68  69
ATOM     69  C   UNL A   1      36.634  22.794  25.916  1.00  0.00     0.202 C 
BRANCH  69  70
ATOM     70  C   UNL A   1      35.872  23.806  25.065  1.00  0.00     0.261 C 
BRANCH  70  71
ATOM     71  O   UNL A   1      34.505  23.378  24.998  1.00  0.00    -0.463 OA
BRANCH  71  72
ATOM     72  C   UNL A   1      33.940  23.438  23.755  1.00  0.00     0.313 C 
ATOM     73  O   UNL A   1      34.438  23.942  22.753  1.00  0.00    -0.252 OA
BRANCH  72  74
ATOM     74  C   UNL A   1      32.568  22.798  23.833  1.00  0.00     0.128 C 
ATOM     75  C   UNL A   1      32.024  22.297  25.138  1.00  0.00    -0.010 C 
ATOM     76  C   UNL A   1      32.649  21.533  23.017  1.00  0.00     0.089 C 
ATOM     77  C   UNL A   1      32.058  20.964  25.229  1.00  0.00     0.033 C 
ATOM     78  C   UNL A   1      32.684  20.357  24.013  1.00  0.00     0.208 C 
BRANCH  78  79
ATOM     79  N   UNL A   1      32.049  19.096  23.608  1.00  0.00    -0.328 N 
ATOM     80  C   UNL A   1      32.837  18.312  22.635  1.00  0.00     0.275 C 
ATOM     81  C   UNL A   1      32.277  18.057  24.634  1.00  0.00     0.275 C 
ATOM     82  H   UNL A   1      31.114  19.409  23.348  1.00  0.00     0.348 HD
ATOM     83  C   UNL A   1      33.388  17.560  23.789  1.00  0.00     0.068 C 
ATOM     84  C   UNL A   1      34.824  17.428  24.227  1.00  0.00     0.020 C 
ATOM     85  C   UNL A   1      34.047  16.224  23.792  1.00  0.00     0.020 C 
ENDBRANCH  78  79
ENDBRANCH  72  74
ENDBRANCH  71  72
ENDBRANCH  70  71
ENDBRANCH  69  70
ENDBRANCH  68  69
ENDBRANCH   1  68
TORSDOF 18
ENDMDL
MODEL 2
REMARK VINA RESULT:     -10.4      4.787     10.414
REMARK SMILES O=C(OCCOCCOC(=O)[C@@H]1C=C[C@@H]([NH+]2CC3(CC3)C2)C1)c1ccc(-c2c3nc(c(-c4ccc(S(=O)(=O)[O-])cc4)c4ccc([nH]4)c(-c4ccc(S(=O)(=O)[O-])cc4)c4nc(c(-c5ccc(S(=O)(=O)[O-])cc5)c5ccc2[nH]5)C=C4)C=C3)cc1
REMARK SMILES IDX 5 1 4 2 3 3 2 4 1 5 23 6 24 7 82 8 25 9 81 10 26 11 27 12
REMARK SMILES IDX 28 13 75 14 29 15 80 16 74 17 76 18 30 19 79 20 73 21 72 22
REMARK SMILES IDX 31 24 61 25 42 26 60 27 43 28 46 29 59 30 77 31 44 32 45 33
REMARK SMILES IDX 58 35 78 36 47 37 32 38 33 39 41 40 34 41 40 42 35 43 36 44
REMARK SMILES IDX 37 45 38 46 39 47 62 48 63 49 71 50 64 51 70 52 65 53 66 54
REMARK SMILES IDX 67 55 68 56 69 57 48 58 49 59 57 60 50 61 56 62 51 63 52 64
REMARK SMILES IDX 53 65 54 66 55 67 6 68 7 69 8 70 9 71 10 72 11 73 12 74
REMARK SMILES IDX 13 75 22 76 14 77 15 78 16 79 17 80 21 81 18 83 19 84 20 85
REMARK H PARENT 76 23 46 34 16 82
REMARK Flexibility Score: inf
ROOT
ATOM      1  C   UNL A   1      33.739  27.470  26.232  1.00  0.00     0.202 C 
ENDROOT
BRANCH   1   2
ATOM      2  C   UNL A   1      33.511  28.979  26.210  1.00  0.00     0.261 C 
BRANCH   2   3
ATOM      3  O   UNL A   1      33.580  29.500  27.539  1.00  0.00    -0.460 OA
BRANCH   3   4
ATOM      4  C   UNL A   1      34.506  30.392  27.964  1.00  0.00     0.338 C 
ATOM      5  O   UNL A   1      34.161  31.546  28.208  1.00  0.00    -0.246 OA
BRANCH   4   6
ATOM      6  C   UNL A   1      35.915  29.994  28.246  1.00  0.00     0.060 A 
ATOM      7  C   UNL A   1      36.367  29.437  29.445  1.00  0.00     0.016 A 
ATOM      8  C   UNL A   1      36.827  30.126  27.191  1.00  0.00     0.016 A 
ATOM      9  C   UNL A   1      37.665  29.026  29.618  1.00  0.00     0.010 A 
ATOM     10  C   UNL A   1      38.148  29.706  27.348  1.00  0.00     0.010 A 
ATOM     11  C   UNL A   1      38.553  29.154  28.567  1.00  0.00    -0.014 A 
BRANCH  11  12
ATOM     12  C   UNL A   1      39.942  28.829  28.878  1.00  0.00     0.031 A 
ATOM     13  C   UNL A   1      40.723  29.841  29.644  1.00  0.00     0.074 A 
ATOM     14  C   UNL A   1      40.380  27.580  28.646  1.00  0.00     0.049 A 
ATOM     15  N   UNL A   1      41.981  29.826  29.973  1.00  0.00    -0.248 NA
ATOM     16  C   UNL A   1      39.982  31.028  30.115  1.00  0.00     0.031 C 
ATOM     17  C   UNL A   1      39.569  26.488  28.090  1.00  0.00     0.029 A 
ATOM     18  N   UNL A   1      41.592  27.006  28.885  1.00  0.00    -0.354 N 
ATOM     19  C   UNL A   1      42.198  31.024  30.638  1.00  0.00     0.074 A 
ATOM     20  C   UNL A   1      40.944  31.737  30.682  1.00  0.00     0.031 C 
ATOM     21  C   UNL A   1      40.312  25.372  28.043  1.00  0.00     0.029 A 
ATOM     22  C   UNL A   1      41.664  25.697  28.475  1.00  0.00     0.049 A 
ATOM     23  H   UNL A   1      42.343  27.480  29.311  1.00  0.00     0.167 HD
ATOM     24  C   UNL A   1      43.368  31.481  31.136  1.00  0.00     0.031 A 
ATOM     25  C   UNL A   1      42.733  24.886  28.404  1.00  0.00     0.031 A 
ATOM     26  C   UNL A   1      44.583  30.722  31.044  1.00  0.00     0.049 A 
ATOM     27  C   UNL A   1      44.049  25.461  28.848  1.00  0.00     0.074 A 
ATOM     28  C   UNL A   1      45.861  31.079  31.421  1.00  0.00     0.029 A 
ATOM     29  N   UNL A   1      44.655  29.430  30.530  1.00  0.00    -0.354 N 
ATOM     30  N   UNL A   1      44.291  26.644  29.369  1.00  0.00    -0.248 NA
ATOM     31  C   UNL A   1      45.232  24.615  28.681  1.00  0.00     0.031 C 
ATOM     32  C   UNL A   1      46.715  30.025  31.080  1.00  0.00     0.029 A 
ATOM     33  C   UNL A   1      45.960  28.981  30.559  1.00  0.00     0.049 A 
ATOM     34  H   UNL A   1      43.888  28.913  30.194  1.00  0.00     0.167 HD
ATOM     35  C   UNL A   1      45.656  26.680  29.614  1.00  0.00     0.074 A 
ATOM     36  C   UNL A   1      46.179  25.389  29.197  1.00  0.00     0.031 C 
ATOM     37  C   UNL A   1      46.414  27.679  30.131  1.00  0.00     0.031 A 
BRANCH  24  38
ATOM     38  C   UNL A   1      43.376  32.878  31.688  1.00  0.00    -0.014 A 
ATOM     39  C   UNL A   1      43.618  34.001  30.874  1.00  0.00     0.010 A 
ATOM     40  C   UNL A   1      43.195  33.064  33.070  1.00  0.00     0.010 A 
ATOM     41  C   UNL A   1      43.723  35.275  31.441  1.00  0.00     0.020 A 
ATOM     42  C   UNL A   1      43.270  34.339  33.637  1.00  0.00     0.020 A 
ATOM     43  C   UNL A   1      43.553  35.435  32.820  1.00  0.00     0.054 A 
BRANCH  43  44
ATOM     44  S   UNL A   1      43.696  37.098  33.530  1.00  0.00     0.124 S 
ATOM     45  O   UNL A   1      42.499  37.175  34.365  1.00  0.00    -0.237 OA
ATOM     46  O   UNL A   1      44.962  37.027  34.254  1.00  0.00    -0.237 OA
ATOM     47  O   UNL A   1      43.696  37.975  32.361  1.00  0.00    -0.744 OA
ENDBRANCH  43  44
ENDBRANCH  24  38
BRANCH  25  48
ATOM     48  C   UNL A   1      42.606  23.520  27.823  1.00  0.00    -0.014 A 
ATOM     49  C   UNL A   1      42.000  22.478  28.543  1.00  0.00     0.010 A 
ATOM     50  C   UNL A   1      43.081  23.258  26.523  1.00  0.00     0.010 A 
ATOM     51  C   UNL A   1      41.885  21.201  27.981  1.00  0.00     0.020 A 
ATOM     52  C   UNL A   1      42.939  21.994  25.945  1.00  0.00     0.020 A 
ATOM     53  C   UNL A   1      42.352  20.968  26.685  1.00  0.00     0.054 A 
BRANCH  53  54
ATOM     54  S   UNL A   1      42.160  19.313  25.964  1.00  0.00     0.124 S 
ATOM     55  O   UNL A   1      42.663  18.456  27.033  1.00  0.00    -0.237 OA
ATOM     56  O   UNL A   1      40.722  19.242  25.719  1.00  0.00    -0.237 OA
ATOM     57  O   UNL A   1      42.989  19.364  24.760  1.00  0.00    -0.744 OA
ENDBRANCH  53  54
ENDBRANCH  25  48
BRANCH  37  58
ATOM     58  C   UNL A   1      47.874  27.385  30.316  1.00  0.00    -0.014 A 
ATOM     59  C   UNL A   1      48.817  27.729  29.335  1.00  0.00     0.010 A 
ATOM     60  C   UNL A   1      48.305  26.826  31.532  1.00  0.00     0.010 A 
ATOM     61  C   UNL A   1      50.174  27.493  29.558  1.00  0.00     0.020 A 
ATOM     62  C   UNL A   1      49.662  26.620  31.772  1.00  0.00     0.020 A 
ATOM     63  C   UNL A   1      50.586  26.945  30.777  1.00  0.00     0.054 A 
BRANCH  63  64
ATOM     64  S   UNL A   1      52.359  26.709  31.067  1.00  0.00     0.124 S 
ATOM     65  O   UNL A   1      52.747  27.997  31.632  1.00  0.00    -0.237 OA
ATOM     66  O   UNL A   1      52.382  25.580  31.995  1.00  0.00    -0.237 OA
ATOM     67  O   UNL A   1      52.892  26.424  29.737  1.00  0.00    -0.744 OA
ENDBRANCH  63  64
ENDBRANCH  37  58
ENDBRANCH  11  12
ENDBRANCH   4   6
ENDBRANCH   3   4
ENDBRANCH   2   3
ENDBRANCH   1   2
BRANCH   1  68
ATOM     68  O   UNL A   1      32.689  26.696  25.659  1.00  0.00    -0.374 OA
BRANCH  68  69
ATOM     69  C   UNL A   1      31.344  27.033  25.978  1.00  0.00     0.202 C 
BRANCH  69  70
ATOM     70  C   UNL A   1      30.421  25.942  25.442  1.00  0.00     0.261 C 
BRANCH  70  71
ATOM     71  O   UNL A   1      31.067  24.680  25.657  1.00  0.00    -0.463 OA
BRANCH  71  72
ATOM     72  C   UNL A   1      31.101  23.855  24.568  1.00  0.00     0.313 C 
ATOM     73  O   UNL A   1      30.690  24.118  23.443  1.00  0.00    -0.252 OA
BRANCH  72  74
ATOM     74  C   UNL A   1      31.708  22.535  25.000  1.00  0.00     0.128 C 
ATOM     75  C   UNL A   1      32.357  22.388  26.345  1.00  0.00    -0.010 C 
ATOM     76  C   UNL A   1      32.861  22.278  24.063  1.00  0.00     0.089 C 
ATOM     77  C   UNL A   1      33.691  22.361  26.270  1.00  0.00     0.033 C 
ATOM     78  C   UNL A   1      34.155  22.541  24.859  1.00  0.00     0.208 C 
BRANCH  78  79
ATOM     79  N   UNL A   1      35.336  21.731  24.533  1.00  0.00    -0.328 N 
ATOM     80  C   UNL A   1      36.461  22.508  23.972  1.00  0.00     0.275 C 
ATOM     81  C   UNL A   1      36.126  21.466  25.755  1.00  0.00     0.275 C 
ATOM     82  H   UNL A   1      34.926  20.982  23.976  1.00  0.00     0.348 HD
ATOM     83  C   UNL A   1      37.006  22.587  25.350  1.00  0.00     0.068 C 
ATOM     84  C   UNL A   1      37.292  23.813  26.179  1.00  0.00     0.020 C 
ATOM     85  C   UNL A   1      38.400  22.889  25.776  1.00  0.00     0.020 C 
ENDBRANCH  78  79
ENDBRANCH  72  74
ENDBRANCH  71  72
ENDBRANCH  70  71
ENDBRANCH  69  70
ENDBRANCH  68  69
ENDBRANCH   1  68
TORSDOF 18
ENDMDL
MODEL 3
REMARK VINA RESULT:     -10.3      3.099      8.388
REMARK SMILES O=C(OCCOCCOC(=O)[C@@H]1C=C[C@@H]([NH+]2CC3(CC3)C2)C1)c1ccc(-c2c3nc(c(-c4ccc(S(=O)(=O)[O-])cc4)c4ccc([nH]4)c(-c4ccc(S(=O)(=O)[O-])cc4)c4nc(c(-c5ccc(S(=O)(=O)[O-])cc5)c5ccc2[nH]5)C=C4)C=C3)cc1
REMARK SMILES IDX 5 1 4 2 3 3 2 4 1 5 23 6 24 7 82 8 25 9 81 10 26 11 27 12
REMARK SMILES IDX 28 13 75 14 29 15 80 16 74 17 76 18 30 19 79 20 73 21 72 22
REMARK SMILES IDX 31 24 61 25 42 26 60 27 43 28 46 29 59 30 77 31 44 32 45 33
REMARK SMILES IDX 58 35 78 36 47 37 32 38 33 39 41 40 34 41 40 42 35 43 36 44
REMARK SMILES IDX 37 45 38 46 39 47 62 48 63 49 71 50 64 51 70 52 65 53 66 54
REMARK SMILES IDX 67 55 68 56 69 57 48 58 49 59 57 60 50 61 56 62 51 63 52 64
REMARK SMILES IDX 53 65 54 66 55 67 6 68 7 69 8 70 9 71 10 72 11 73 12 74
REMARK SMILES IDX 13 75 22 76 14 77 15 78 16 79 17 80 21 81 18 83 19 84 20 85
REMARK H PARENT 76 23 46 34 16 82
REMARK Flexibility Score: inf
ROOT
ATOM      1  C   UNL A   1      32.984  29.007  25.204  1.00  0.00     0.202 C 
ENDROOT
BRANCH   1   2
ATOM      2  C   UNL A   1      34.044  29.118  26.297  1.00  0.00     0.261 C 
BRANCH   2   3
ATOM      3  O   UNL A   1      33.645  30.096  27.261  1.00  0.00    -0.460 OA
BRANCH   3   4
ATOM      4  C   UNL A   1      34.471  31.029  27.791  1.00  0.00     0.338 C 
ATOM      5  O   UNL A   1      34.140  32.212  27.758  1.00  0.00    -0.246 OA
BRANCH   4   6
ATOM      6  C   UNL A   1      35.725  30.659  28.506  1.00  0.00     0.060 A 
ATOM      7  C   UNL A   1      35.880  29.538  29.327  1.00  0.00     0.016 A 
ATOM      8  C   UNL A   1      36.846  31.464  28.266  1.00  0.00     0.016 A 
ATOM      9  C   UNL A   1      37.082  29.212  29.902  1.00  0.00     0.010 A 
ATOM     10  C   UNL A   1      38.077  31.142  28.839  1.00  0.00     0.010 A 
ATOM     11  C   UNL A   1      38.182  30.010  29.653  1.00  0.00    -0.014 A 
BRANCH  11  12
ATOM     12  C   UNL A   1      39.382  29.679  30.414  1.00  0.00     0.031 A 
ATOM     13  C   UNL A   1      40.288  28.645  29.842  1.00  0.00     0.074 A 
ATOM     14  C   UNL A   1      39.712  30.449  31.466  1.00  0.00     0.049 A 
ATOM     15  N   UNL A   1      41.364  28.124  30.355  1.00  0.00    -0.248 NA
ATOM     16  C   UNL A   1      39.944  28.135  28.500  1.00  0.00     0.031 C 
ATOM     17  C   UNL A   1      38.954  31.618  31.931  1.00  0.00     0.029 A 
ATOM     18  N   UNL A   1      40.786  30.395  32.303  1.00  0.00    -0.354 N 
ATOM     19  C   UNL A   1      41.792  27.184  29.428  1.00  0.00     0.074 A 
ATOM     20  C   UNL A   1      40.875  27.215  28.315  1.00  0.00     0.031 C 
ATOM     21  C   UNL A   1      39.598  32.174  32.967  1.00  0.00     0.029 A 
ATOM     22  C   UNL A   1      40.753  31.349  33.290  1.00  0.00     0.049 A 
ATOM     23  H   UNL A   1      41.513  29.738  32.210  1.00  0.00     0.167 HD
ATOM     24  C   UNL A   1      42.853  26.355  29.537  1.00  0.00     0.031 A 
ATOM     25  C   UNL A   1      41.545  31.485  34.368  1.00  0.00     0.031 A 
ATOM     26  C   UNL A   1      43.717  26.370  30.683  1.00  0.00     0.049 A 
ATOM     27  C   UNL A   1      42.643  30.471  34.532  1.00  0.00     0.074 A 
ATOM     28  C   UNL A   1      44.777  25.540  30.982  1.00  0.00     0.029 A 
ATOM     29  N   UNL A   1      43.606  27.283  31.728  1.00  0.00    -0.354 N 
ATOM     30  N   UNL A   1      42.985  29.496  33.719  1.00  0.00    -0.248 NA
ATOM     31  C   UNL A   1      43.446  30.555  35.753  1.00  0.00     0.031 C 
ATOM     32  C   UNL A   1      45.271  25.916  32.237  1.00  0.00     0.029 A 
ATOM     33  C   UNL A   1      44.566  27.026  32.686  1.00  0.00     0.049 A 
ATOM     34  H   UNL A   1      42.940  28.007  31.777  1.00  0.00     0.167 HD
ATOM     35  C   UNL A   1      44.061  28.859  34.319  1.00  0.00     0.074 A 
ATOM     36  C   UNL A   1      44.319  29.575  35.558  1.00  0.00     0.031 C 
ATOM     37  C   UNL A   1      44.772  27.783  33.898  1.00  0.00     0.031 A 
BRANCH  24  38
ATOM     38  C   UNL A   1      43.027  25.323  28.458  1.00  0.00    -0.014 A 
ATOM     39  C   UNL A   1      42.425  24.053  28.537  1.00  0.00     0.010 A 
ATOM     40  C   UNL A   1      43.864  25.616  27.367  1.00  0.00     0.010 A 
ATOM     41  C   UNL A   1      42.696  23.082  27.567  1.00  0.00     0.020 A 
ATOM     42  C   UNL A   1      44.114  24.658  26.380  1.00  0.00     0.020 A 
ATOM     43  C   UNL A   1      43.542  23.390  26.497  1.00  0.00     0.054 A 
BRANCH  43  44
ATOM     44  S   UNL A   1      43.878  22.113  25.254  1.00  0.00     0.124 S 
ATOM     45  O   UNL A   1      42.750  21.203  25.442  1.00  0.00    -0.237 OA
ATOM     46  O   UNL A   1      43.869  22.872  24.006  1.00  0.00    -0.237 OA
ATOM     47  O   UNL A   1      45.179  21.579  25.648  1.00  0.00    -0.744 OA
ENDBRANCH  43  44
ENDBRANCH  24  38
BRANCH  25  48
ATOM     48  C   UNL A   1      41.266  32.540  35.380  1.00  0.00    -0.014 A 
ATOM     49  C   UNL A   1      40.305  32.348  36.386  1.00  0.00     0.010 A 
ATOM     50  C   UNL A   1      41.986  33.752  35.355  1.00  0.00     0.010 A 
ATOM     51  C   UNL A   1      40.059  33.348  37.334  1.00  0.00     0.020 A 
ATOM     52  C   UNL A   1      41.767  34.740  36.318  1.00  0.00     0.020 A 
ATOM     53  C   UNL A   1      40.794  34.537  37.295  1.00  0.00     0.054 A 
BRANCH  53  54
ATOM     54  S   UNL A   1      40.481  35.805  38.555  1.00  0.00     0.124 S 
ATOM     55  O   UNL A   1      41.819  36.043  39.086  1.00  0.00    -0.237 OA
ATOM     56  O   UNL A   1      39.909  36.895  37.768  1.00  0.00    -0.237 OA
ATOM     57  O   UNL A   1      39.549  35.155  39.474  1.00  0.00    -0.744 OA
ENDBRANCH  53  54
ENDBRANCH  25  48
BRANCH  37  58
ATOM     58  C   UNL A   1      45.923  27.360  34.763  1.00  0.00    -0.014 A 
ATOM     59  C   UNL A   1      47.199  27.923  34.605  1.00  0.00     0.010 A 
ATOM     60  C   UNL A   1      45.690  26.438  35.800  1.00  0.00     0.010 A 
ATOM     61  C   UNL A   1      48.236  27.549  35.460  1.00  0.00     0.020 A 
ATOM     62  C   UNL A   1      46.715  26.089  36.675  1.00  0.00     0.020 A 
ATOM     63  C   UNL A   1      47.985  26.639  36.492  1.00  0.00     0.054 A 
BRANCH  63  64
ATOM     64  S   UNL A   1      49.333  26.220  37.627  1.00  0.00     0.124 S 
ATOM     65  O   UNL A   1      50.210  25.423  36.774  1.00  0.00    -0.237 OA
ATOM     66  O   UNL A   1      49.848  27.533  38.009  1.00  0.00    -0.237 OA
ATOM     67  O   UNL A   1      48.667  25.483  38.699  1.00  0.00    -0.744 OA
ENDBRANCH  63  64
ENDBRANCH  37  58
ENDBRANCH  11  12
ENDBRANCH   4   6
ENDBRANCH   3   4
ENDBRANCH   2   3
ENDBRANCH   1   2
BRANCH   1  68
ATOM     68  O   UNL A   1      32.283  27.767  25.172  1.00  0.00    -0.374 OA
BRANCH  68  69
ATOM     69  C   UNL A   1      31.312  27.509  26.180  1.00  0.00     0.202 C 
BRANCH  69  70
ATOM     70  C   UNL A   1      30.743  26.108  25.970  1.00  0.00     0.261 C 
BRANCH  70  71
ATOM     71  O   UNL A   1      31.350  25.242  26.938  1.00  0.00    -0.463 OA
BRANCH  71  72
ATOM     72  C   UNL A   1      31.093  23.911  26.765  1.00  0.00     0.313 C 
ATOM     73  O   UNL A   1      30.255  23.248  27.367  1.00  0.00    -0.252 OA
BRANCH  72  74
ATOM     74  C   UNL A   1      32.052  23.382  25.717  1.00  0.00     0.128 C 
ATOM     75  C   UNL A   1      32.096  21.920  25.380  1.00  0.00    -0.010 C 
ATOM     76  C   UNL A   1      33.438  23.624  26.258  1.00  0.00     0.089 C 
ATOM     77  C   UNL A   1      33.168  21.309  25.894  1.00  0.00     0.033 C 
ATOM     78  C   UNL A   1      33.991  22.257  26.707  1.00  0.00     0.208 C 
BRANCH  78  79
ATOM     79  N   UNL A   1      35.435  22.024  26.575  1.00  0.00    -0.328 N 
ATOM     80  C   UNL A   1      35.806  21.192  25.412  1.00  0.00     0.275 C 
ATOM     81  C   UNL A   1      36.086  23.194  25.949  1.00  0.00     0.275 C 
ATOM     82  H   UNL A   1      35.679  21.701  27.511  1.00  0.00     0.348 HD
ATOM     83  C   UNL A   1      36.033  22.455  24.667  1.00  0.00     0.068 C 
ATOM     84  C   UNL A   1      35.356  22.938  23.409  1.00  0.00     0.020 C 
ATOM     85  C   UNL A   1      36.829  22.665  23.426  1.00  0.00     0.020 C 
ENDBRANCH  78  79
ENDBRANCH  72  74
ENDBRANCH  71  72
ENDBRANCH  70  71
ENDBRANCH  69  70
ENDBRANCH  68  69
ENDBRANCH   1  68
TORSDOF 18
ENDMDL
