MODEL 1
REMARK VINA RESULT:     -11.1      0.000      0.000
REMARK SMILES Cc1cc(C)n(C)c(=O)c1C(=O)[NH+]1CCC2(CC1)C[NH2+][C@@H](C(=O)OCCOCCOC(=O)c1ccc(-c3c4nc(c(-c5ccc(S(=O)(=O)[O-])cc5)c5ccc([nH]5)c(-c5ccc(S(=O)(=O)[O-])cc5)c5nc(c(-c6ccc(S(=O)(=O)[O-])cc6)c6ccc3[nH]6)C=C5)C=C4)cc1)C2
REMARK SMILES IDX 28 1 27 2 26 3 25 4 24 5 22 6 23 7 21 8 13 9 14 10 18 11
REMARK SMILES IDX 15 13 17 14 16 15 19 16 93 17 20 18 11 21 12 22 10 23 1 24
REMARK SMILES IDX 2 25 3 26 4 27 8 28 5 29 6 30 9 31 7 32 29 33 30 34 31 35
REMARK SMILES IDX 32 36 33 37 34 38 92 39 35 40 91 41 36 42 37 43 38 44 85 45
REMARK SMILES IDX 39 46 90 47 84 48 86 49 40 50 89 51 83 52 82 53 41 55 71 56
REMARK SMILES IDX 52 57 70 58 53 59 56 60 69 61 87 62 54 63 55 64 68 66 88 67
REMARK SMILES IDX 57 68 42 69 43 70 51 71 44 72 50 73 45 74 46 75 47 76 48 77
REMARK SMILES IDX 49 78 72 79 73 80 81 81 74 82 80 83 75 84 76 85 77 86 78 87
REMARK SMILES IDX 79 88 58 89 59 90 67 91 60 92 66 93 61 94 62 95 63 96 64 97
REMARK SMILES IDX 65 98
REMARK H PARENT 13 12 20 19 20 20 86 54 56 65
REMARK Flexibility Score: inf
ROOT
ATOM      1  C   UNL A   1      43.073  22.226  27.155  1.00  0.00     0.202 C 
ENDROOT
BRANCH   1   2
ATOM      2  O   UNL A   1      42.379  20.997  27.358  1.00  0.00    -0.374 OA
BRANCH   2   3
ATOM      3  C   UNL A   1      40.959  21.062  27.503  1.00  0.00     0.202 C 
BRANCH   3   4
ATOM      4  C   UNL A   1      40.123  20.598  26.308  1.00  0.00     0.261 C 
BRANCH   4   5
ATOM      5  O   UNL A   1      39.108  21.563  25.991  1.00  0.00    -0.459 OA
BRANCH   5   6
ATOM      6  C   UNL A   1      37.967  21.066  25.448  1.00  0.00     0.364 C 
ATOM      7  O   UNL A   1      37.830  19.928  25.005  1.00  0.00    -0.245 OA
BRANCH   6   8
ATOM      8  C   UNL A   1      36.826  22.081  25.429  1.00  0.00     0.294 C 
ATOM      9  N   UNL A   1      32.989  24.419  22.698  1.00  0.00    -0.267 N 
ATOM     10  C   UNL A   1      34.335  24.921  22.936  1.00  0.00     0.271 C 
ATOM     11  C   UNL A   1      32.930  22.969  22.568  1.00  0.00     0.271 C 
ATOM     12  H   UNL A   1      32.161  24.275  22.187  1.00  0.00     0.357 HD
ATOM     13  C   UNL A   1      34.742  24.489  24.336  1.00  0.00     0.075 C 
ATOM     14  C   UNL A   1      33.583  22.227  23.752  1.00  0.00     0.075 C 
ATOM     15  C   UNL A   1      34.741  22.950  24.514  1.00  0.00     0.036 C 
ATOM     16  C   UNL A   1      34.675  22.634  26.037  1.00  0.00     0.268 C 
ATOM     17  C   UNL A   1      36.123  22.368  24.103  1.00  0.00     0.090 C 
ATOM     18  N   UNL A   1      35.709  21.636  26.274  1.00  0.00    -0.334 N 
ATOM     19  H   UNL A   1      35.390  20.708  25.995  1.00  0.00     0.347 HD
ATOM     20  H   UNL A   1      35.966  21.559  27.259  1.00  0.00     0.347 HD
BRANCH   9  21
ATOM     21  C   UNL A   1      31.954  25.346  22.616  1.00  0.00     0.350 C 
ATOM     22  O   UNL A   1      31.439  25.615  21.525  1.00  0.00    -0.225 OA
BRANCH  21  23
ATOM     23  C   UNL A   1      31.514  26.157  23.801  1.00  0.00     0.147 A 
ATOM     24  C   UNL A   1      30.677  24.151  25.150  1.00  0.00     0.045 C 
ATOM     25  C   UNL A   1      31.009  25.593  24.921  1.00  0.00    -0.027 A 
ATOM     26  C   UNL A   1      30.869  26.370  26.136  1.00  0.00     0.026 A 
ATOM     27  C   UNL A   1      31.437  27.574  26.276  1.00  0.00     0.018 A 
ATOM     28  C   UNL A   1      31.996  27.589  23.893  1.00  0.00     0.267 A 
ATOM     29  C   UNL A   1      31.397  28.234  27.628  1.00  0.00     0.064 C 
ATOM     30  N   UNL A   1      32.041  28.171  25.176  1.00  0.00    -0.315 N 
ATOM     31  O   UNL A   1      32.343  28.197  22.880  1.00  0.00    -0.268 OA
ATOM     32  C   UNL A   1      32.719  29.454  25.314  1.00  0.00     0.153 C 
ENDBRANCH  21  23
ENDBRANCH   9  21
ENDBRANCH   6   8
ENDBRANCH   5   6
ENDBRANCH   4   5
ENDBRANCH   3   4
ENDBRANCH   2   3
ENDBRANCH   1   2
BRANCH   1  33
ATOM     33  C   UNL A   1      42.786  22.995  25.858  1.00  0.00     0.261 C 
BRANCH  33  34
ATOM     34  O   UNL A   1      41.886  24.099  26.056  1.00  0.00    -0.460 OA
BRANCH  34  35
ATOM     35  C   UNL A   1      42.461  25.321  25.940  1.00  0.00     0.338 C 
ATOM     36  O   UNL A   1      43.180  25.713  25.029  1.00  0.00    -0.246 OA
BRANCH  35  37
ATOM     37  C   UNL A   1      41.952  26.227  26.983  1.00  0.00     0.060 A 
ATOM     38  C   UNL A   1      42.568  27.480  27.104  1.00  0.00     0.016 A 
ATOM     39  C   UNL A   1      40.960  25.833  27.883  1.00  0.00     0.016 A 
ATOM     40  C   UNL A   1      42.228  28.327  28.155  1.00  0.00     0.010 A 
ATOM     41  C   UNL A   1      40.629  26.681  28.947  1.00  0.00     0.010 A 
ATOM     42  C   UNL A   1      41.288  27.913  29.108  1.00  0.00    -0.014 A 
BRANCH  42  43
ATOM     43  C   UNL A   1      41.130  28.703  30.352  1.00  0.00     0.031 A 
ATOM     44  C   UNL A   1      40.040  29.739  30.421  1.00  0.00     0.074 A 
ATOM     45  C   UNL A   1      41.899  28.459  31.429  1.00  0.00     0.049 A 
ATOM     46  N   UNL A   1      39.713  30.530  31.410  1.00  0.00    -0.248 NA
ATOM     47  C   UNL A   1      39.204  29.898  29.220  1.00  0.00     0.031 C 
ATOM     48  C   UNL A   1      42.944  27.437  31.508  1.00  0.00     0.029 A 
ATOM     49  N   UNL A   1      41.909  29.047  32.670  1.00  0.00    -0.354 N 
ATOM     50  C   UNL A   1      38.633  31.277  30.952  1.00  0.00     0.074 A 
ATOM     51  C   UNL A   1      38.381  30.869  29.588  1.00  0.00     0.031 C 
ATOM     52  C   UNL A   1      43.488  27.467  32.736  1.00  0.00     0.029 A 
ATOM     53  C   UNL A   1      42.857  28.528  33.518  1.00  0.00     0.049 A 
ATOM     54  H   UNL A   1      41.295  29.772  32.925  1.00  0.00     0.167 HD
ATOM     55  C   UNL A   1      37.907  32.211  31.613  1.00  0.00     0.031 A 
ATOM     56  C   UNL A   1      43.185  28.876  34.779  1.00  0.00     0.031 A 
ATOM     57  C   UNL A   1      38.168  32.627  32.964  1.00  0.00     0.049 A 
ATOM     58  C   UNL A   1      42.431  29.990  35.457  1.00  0.00     0.074 A 
ATOM     59  C   UNL A   1      37.492  33.571  33.718  1.00  0.00     0.029 A 
ATOM     60  N   UNL A   1      39.187  32.131  33.763  1.00  0.00    -0.354 N 
ATOM     61  N   UNL A   1      41.412  30.687  35.011  1.00  0.00    -0.248 NA
ATOM     62  C   UNL A   1      42.870  30.362  36.810  1.00  0.00     0.031 C 
ATOM     63  C   UNL A   1      38.137  33.685  34.954  1.00  0.00     0.029 A 
ATOM     64  C   UNL A   1      39.177  32.770  34.991  1.00  0.00     0.049 A 
ATOM     65  H   UNL A   1      39.823  31.430  33.496  1.00  0.00     0.167 HD
ATOM     66  C   UNL A   1      41.077  31.567  36.035  1.00  0.00     0.074 A 
ATOM     67  C   UNL A   1      41.990  31.305  37.129  1.00  0.00     0.031 C 
ATOM     68  C   UNL A   1      40.100  32.505  36.067  1.00  0.00     0.031 A 
BRANCH  55  69
ATOM     69  C   UNL A   1      36.774  32.865  30.869  1.00  0.00    -0.014 A 
ATOM     70  C   UNL A   1      37.010  33.927  29.978  1.00  0.00     0.010 A 
ATOM     71  C   UNL A   1      35.463  32.380  31.028  1.00  0.00     0.010 A 
ATOM     72  C   UNL A   1      35.950  34.512  29.279  1.00  0.00     0.020 A 
ATOM     73  C   UNL A   1      34.404  32.947  30.312  1.00  0.00     0.020 A 
ATOM     74  C   UNL A   1      34.654  34.017  29.452  1.00  0.00     0.054 A 
BRANCH  74  75
ATOM     75  S   UNL A   1      33.303  34.776  28.508  1.00  0.00     0.124 S 
ATOM     76  O   UNL A   1      32.520  35.414  29.563  1.00  0.00    -0.237 OA
ATOM     77  O   UNL A   1      34.011  35.687  27.614  1.00  0.00    -0.237 OA
ATOM     78  O   UNL A   1      32.656  33.642  27.853  1.00  0.00    -0.744 OA
ENDBRANCH  74  75
ENDBRANCH  55  69
BRANCH  56  79
ATOM     79  C   UNL A   1      44.292  28.168  35.478  1.00  0.00    -0.014 A 
ATOM     80  C   UNL A   1      44.022  27.094  36.343  1.00  0.00     0.010 A 
ATOM     81  C   UNL A   1      45.627  28.559  35.269  1.00  0.00     0.010 A 
ATOM     82  C   UNL A   1      45.067  26.425  36.987  1.00  0.00     0.020 A 
ATOM     83  C   UNL A   1      46.676  27.876  35.891  1.00  0.00     0.020 A 
ATOM     84  C   UNL A   1      46.389  26.816  36.752  1.00  0.00     0.054 A 
BRANCH  84  85
ATOM     85  S   UNL A   1      47.730  25.890  37.548  1.00  0.00     0.124 S 
ATOM     86  O   UNL A   1      48.909  26.643  37.134  1.00  0.00    -0.237 OA
ATOM     87  O   UNL A   1      47.381  25.988  38.964  1.00  0.00    -0.237 OA
ATOM     88  O   UNL A   1      47.609  24.551  36.975  1.00  0.00    -0.744 OA
ENDBRANCH  84  85
ENDBRANCH  56  79
BRANCH  68  89
ATOM     89  C   UNL A   1      39.951  33.319  37.326  1.00  0.00    -0.014 A 
ATOM     90  C   UNL A   1      40.623  34.543  37.481  1.00  0.00     0.010 A 
ATOM     91  C   UNL A   1      39.062  32.891  38.331  1.00  0.00     0.010 A 
ATOM     92  C   UNL A   1      40.426  35.316  38.628  1.00  0.00     0.020 A 
ATOM     93  C   UNL A   1      38.842  33.674  39.467  1.00  0.00     0.020 A 
ATOM     94  C   UNL A   1      39.534  34.879  39.613  1.00  0.00     0.054 A 
BRANCH  94  95
ATOM     95  S   UNL A   1      39.255  35.931  41.064  1.00  0.00     0.124 S 
ATOM     96  O   UNL A   1      40.228  35.401  42.016  1.00  0.00    -0.237 OA
ATOM     97  O   UNL A   1      39.542  37.268  40.549  1.00  0.00    -0.237 OA
ATOM     98  O   UNL A   1      37.855  35.688  41.406  1.00  0.00    -0.744 OA
ENDBRANCH  94  95
ENDBRANCH  68  89
ENDBRANCH  42  43
ENDBRANCH  35  37
ENDBRANCH  34  35
ENDBRANCH  33  34
ENDBRANCH   1  33
TORSDOF 19
ENDMDL
MODEL 2
REMARK VINA RESULT:     -10.8      1.774      2.596
REMARK SMILES Cc1cc(C)n(C)c(=O)c1C(=O)[NH+]1CCC2(CC1)C[NH2+][C@@H](C(=O)OCCOCCOC(=O)c1ccc(-c3c4nc(c(-c5ccc(S(=O)(=O)[O-])cc5)c5ccc([nH]5)c(-c5ccc(S(=O)(=O)[O-])cc5)c5nc(c(-c6ccc(S(=O)(=O)[O-])cc6)c6ccc3[nH]6)C=C5)C=C4)cc1)C2
REMARK SMILES IDX 28 1 27 2 26 3 25 4 24 5 22 6 23 7 21 8 13 9 14 10 18 11
REMARK SMILES IDX 15 13 17 14 16 15 19 16 93 17 20 18 11 21 12 22 10 23 1 24
REMARK SMILES IDX 2 25 3 26 4 27 8 28 5 29 6 30 9 31 7 32 29 33 30 34 31 35
REMARK SMILES IDX 32 36 33 37 34 38 92 39 35 40 91 41 36 42 37 43 38 44 85 45
REMARK SMILES IDX 39 46 90 47 84 48 86 49 40 50 89 51 83 52 82 53 41 55 71 56
REMARK SMILES IDX 52 57 70 58 53 59 56 60 69 61 87 62 54 63 55 64 68 66 88 67
REMARK SMILES IDX 57 68 42 69 43 70 51 71 44 72 50 73 45 74 46 75 47 76 48 77
REMARK SMILES IDX 49 78 72 79 73 80 81 81 74 82 80 83 75 84 76 85 77 86 78 87
REMARK SMILES IDX 79 88 58 89 59 90 67 91 60 92 66 93 61 94 62 95 63 96 64 97
REMARK SMILES IDX 65 98
REMARK H PARENT 13 12 20 19 20 20 86 54 56 65
REMARK Flexibility Score: inf
ROOT
ATOM      1  C   UNL A   1      42.593  23.917  27.129  1.00  0.00     0.202 C 
ENDROOT
BRANCH   1   2
ATOM      2  O   UNL A   1      43.367  22.782  26.745  1.00  0.00    -0.374 OA
BRANCH   2   3
ATOM      3  C   UNL A   1      42.672  21.685  26.148  1.00  0.00     0.202 C 
BRANCH   3   4
ATOM      4  C   UNL A   1      41.876  20.780  27.090  1.00  0.00     0.261 C 
BRANCH   4   5
ATOM      5  O   UNL A   1      40.500  21.188  27.147  1.00  0.00    -0.459 OA
BRANCH   5   6
ATOM      6  C   UNL A   1      39.717  20.775  26.118  1.00  0.00     0.364 C 
ATOM      7  O   UNL A   1      39.777  19.672  25.580  1.00  0.00    -0.245 OA
BRANCH   6   8
ATOM      8  C   UNL A   1      38.720  21.839  25.665  1.00  0.00     0.294 C 
ATOM      9  N   UNL A   1      33.765  23.044  24.381  1.00  0.00    -0.267 N 
ATOM     10  C   UNL A   1      34.856  22.712  23.476  1.00  0.00     0.271 C 
ATOM     11  C   UNL A   1      33.829  22.326  25.647  1.00  0.00     0.271 C 
ATOM     12  H   UNL A   1      32.833  23.065  24.696  1.00  0.00     0.357 HD
ATOM     13  C   UNL A   1      36.133  23.287  24.069  1.00  0.00     0.075 C 
ATOM     14  C   UNL A   1      35.189  22.473  26.359  1.00  0.00     0.075 C 
ATOM     15  C   UNL A   1      36.454  22.714  25.472  1.00  0.00     0.036 C 
ATOM     16  C   UNL A   1      37.443  23.685  26.182  1.00  0.00     0.268 C 
ATOM     17  C   UNL A   1      37.290  21.412  25.335  1.00  0.00     0.090 C 
ATOM     18  N   UNL A   1      38.501  22.840  26.719  1.00  0.00    -0.334 N 
ATOM     19  H   UNL A   1      38.204  22.393  27.587  1.00  0.00     0.347 HD
ATOM     20  H   UNL A   1      39.346  23.363  26.949  1.00  0.00     0.347 HD
BRANCH   9  21
ATOM     21  C   UNL A   1      32.818  23.967  23.948  1.00  0.00     0.350 C 
ATOM     22  O   UNL A   1      31.904  23.619  23.192  1.00  0.00    -0.225 OA
BRANCH  21  23
ATOM     23  C   UNL A   1      32.934  25.433  24.254  1.00  0.00     0.147 A 
ATOM     24  C   UNL A   1      33.283  26.144  21.821  1.00  0.00     0.045 C 
ATOM     25  C   UNL A   1      33.081  26.367  23.288  1.00  0.00    -0.027 A 
ATOM     26  C   UNL A   1      32.900  27.772  23.591  1.00  0.00     0.026 A 
ATOM     27  C   UNL A   1      32.359  28.184  24.745  1.00  0.00     0.018 A 
ATOM     28  C   UNL A   1      32.497  25.903  25.625  1.00  0.00     0.267 A 
ATOM     29  C   UNL A   1      32.038  29.646  24.907  1.00  0.00     0.064 C 
ATOM     30  N   UNL A   1      32.112  27.254  25.748  1.00  0.00    -0.315 N 
ATOM     31  O   UNL A   1      32.472  25.121  26.574  1.00  0.00    -0.268 OA
ATOM     32  C   UNL A   1      31.469  27.663  26.990  1.00  0.00     0.153 C 
ENDBRANCH  21  23
ENDBRANCH   9  21
ENDBRANCH   6   8
ENDBRANCH   5   6
ENDBRANCH   4   5
ENDBRANCH   3   4
ENDBRANCH   2   3
ENDBRANCH   1   2
BRANCH   1  33
ATOM     33  C   UNL A   1      41.546  24.429  26.131  1.00  0.00     0.261 C 
BRANCH  33  34
ATOM     34  O   UNL A   1      40.579  25.302  26.740  1.00  0.00    -0.460 OA
BRANCH  34  35
ATOM     35  C   UNL A   1      40.783  26.620  26.502  1.00  0.00     0.338 C 
ATOM     36  O   UNL A   1      41.000  27.148  25.419  1.00  0.00    -0.246 OA
BRANCH  35  37
ATOM     37  C   UNL A   1      40.520  27.407  27.719  1.00  0.00     0.060 A 
ATOM     38  C   UNL A   1      41.084  28.687  27.793  1.00  0.00     0.016 A 
ATOM     39  C   UNL A   1      39.816  26.876  28.802  1.00  0.00     0.016 A 
ATOM     40  C   UNL A   1      40.988  29.426  28.969  1.00  0.00     0.010 A 
ATOM     41  C   UNL A   1      39.732  27.615  29.988  1.00  0.00     0.010 A 
ATOM     42  C   UNL A   1      40.350  28.876  30.088  1.00  0.00    -0.014 A 
BRANCH  42  43
ATOM     43  C   UNL A   1      40.482  29.556  31.399  1.00  0.00     0.031 A 
ATOM     44  C   UNL A   1      39.437  30.561  31.804  1.00  0.00     0.074 A 
ATOM     45  C   UNL A   1      41.478  29.237  32.246  1.00  0.00     0.049 A 
ATOM     46  N   UNL A   1      39.347  31.261  32.905  1.00  0.00    -0.248 NA
ATOM     47  C   UNL A   1      38.348  30.803  30.844  1.00  0.00     0.031 C 
ATOM     48  C   UNL A   1      42.512  28.233  31.995  1.00  0.00     0.029 A 
ATOM     49  N   UNL A   1      41.773  29.719  33.497  1.00  0.00    -0.354 N 
ATOM     50  C   UNL A   1      38.191  32.022  32.773  1.00  0.00     0.074 A 
ATOM     51  C   UNL A   1      37.632  31.725  31.472  1.00  0.00     0.031 C 
ATOM     52  C   UNL A   1      43.324  28.170  33.064  1.00  0.00     0.029 A 
ATOM     53  C   UNL A   1      42.890  29.149  34.058  1.00  0.00     0.049 A 
ATOM     54  H   UNL A   1      41.235  30.409  33.947  1.00  0.00     0.167 HD
ATOM     55  C   UNL A   1      37.637  32.883  33.659  1.00  0.00     0.031 A 
ATOM     56  C   UNL A   1      43.499  29.397  35.235  1.00  0.00     0.031 A 
ATOM     57  C   UNL A   1      38.201  33.190  34.946  1.00  0.00     0.049 A 
ATOM     58  C   UNL A   1      42.922  30.436  36.161  1.00  0.00     0.074 A 
ATOM     59  C   UNL A   1      37.718  34.055  35.913  1.00  0.00     0.029 A 
ATOM     60  N   UNL A   1      39.376  32.649  35.445  1.00  0.00    -0.354 N 
ATOM     61  N   UNL A   1      41.829  31.148  36.021  1.00  0.00    -0.248 NA
ATOM     62  C   UNL A   1      43.660  30.703  37.404  1.00  0.00     0.031 C 
ATOM     63  C   UNL A   1      38.629  34.078  36.972  1.00  0.00     0.029 A 
ATOM     64  C   UNL A   1      39.650  33.182  36.692  1.00  0.00     0.049 A 
ATOM     65  H   UNL A   1      39.934  31.985  34.980  1.00  0.00     0.167 HD
ATOM     66  C   UNL A   1      41.738  31.933  37.166  1.00  0.00     0.074 A 
ATOM     67  C   UNL A   1      42.877  31.598  37.995  1.00  0.00     0.031 C 
ATOM     68  C   UNL A   1      40.795  32.847  37.502  1.00  0.00     0.031 A 
BRANCH  55  69
ATOM     69  C   UNL A   1      36.364  33.576  33.254  1.00  0.00    -0.014 A 
ATOM     70  C   UNL A   1      35.113  32.964  33.447  1.00  0.00     0.010 A 
ATOM     71  C   UNL A   1      36.417  34.876  32.718  1.00  0.00     0.010 A 
ATOM     72  C   UNL A   1      33.938  33.628  33.084  1.00  0.00     0.020 A 
ATOM     73  C   UNL A   1      35.243  35.553  32.377  1.00  0.00     0.020 A 
ATOM     74  C   UNL A   1      34.011  34.919  32.551  1.00  0.00     0.054 A 
BRANCH  74  75
ATOM     75  S   UNL A   1      32.468  35.768  32.119  1.00  0.00     0.124 S 
ATOM     76  O   UNL A   1      32.466  35.665  30.661  1.00  0.00    -0.237 OA
ATOM     77  O   UNL A   1      31.459  34.967  32.806  1.00  0.00    -0.237 OA
ATOM     78  O   UNL A   1      32.654  37.118  32.645  1.00  0.00    -0.744 OA
ENDBRANCH  74  75
ENDBRANCH  55  69
BRANCH  56  79
ATOM     79  C   UNL A   1      44.737  28.655  35.599  1.00  0.00    -0.014 A 
ATOM     80  C   UNL A   1      45.992  29.082  35.132  1.00  0.00     0.010 A 
ATOM     81  C   UNL A   1      44.665  27.522  36.431  1.00  0.00     0.010 A 
ATOM     82  C   UNL A   1      47.152  28.388  35.488  1.00  0.00     0.020 A 
ATOM     83  C   UNL A   1      45.826  26.841  36.809  1.00  0.00     0.020 A 
ATOM     84  C   UNL A   1      47.063  27.275  36.330  1.00  0.00     0.054 A 
BRANCH  84  85
ATOM     85  S   UNL A   1      48.589  26.432  36.831  1.00  0.00     0.124 S 
ATOM     86  O   UNL A   1      48.273  26.011  38.192  1.00  0.00    -0.237 OA
ATOM     87  O   UNL A   1      48.692  25.359  35.844  1.00  0.00    -0.237 OA
ATOM     88  O   UNL A   1      49.609  27.473  36.717  1.00  0.00    -0.744 OA
ENDBRANCH  84  85
ENDBRANCH  56  79
BRANCH  68  89
ATOM     89  C   UNL A   1      40.939  33.549  38.826  1.00  0.00    -0.014 A 
ATOM     90  C   UNL A   1      40.605  32.903  40.028  1.00  0.00     0.010 A 
ATOM     91  C   UNL A   1      41.495  34.842  38.873  1.00  0.00     0.010 A 
ATOM     92  C   UNL A   1      40.803  33.545  41.253  1.00  0.00     0.020 A 
ATOM     93  C   UNL A   1      41.719  35.477  40.097  1.00  0.00     0.020 A 
ATOM     94  C   UNL A   1      41.363  34.827  41.281  1.00  0.00     0.054 A 
BRANCH  94  95
ATOM     95  S   UNL A   1      41.662  35.613  42.888  1.00  0.00     0.124 S 
ATOM     96  O   UNL A   1      41.280  36.998  42.626  1.00  0.00    -0.237 OA
ATOM     97  O   UNL A   1      40.769  34.872  43.776  1.00  0.00    -0.237 OA
ATOM     98  O   UNL A   1      43.088  35.394  43.123  1.00  0.00    -0.744 OA
ENDBRANCH  94  95
ENDBRANCH  68  89
ENDBRANCH  42  43
ENDBRANCH  35  37
ENDBRANCH  34  35
ENDBRANCH  33  34
ENDBRANCH   1  33
TORSDOF 19
ENDMDL
MODEL 3
REMARK VINA RESULT:     -10.7      6.381     12.035
REMARK SMILES Cc1cc(C)n(C)c(=O)c1C(=O)[NH+]1CCC2(CC1)C[NH2+][C@@H](C(=O)OCCOCCOC(=O)c1ccc(-c3c4nc(c(-c5ccc(S(=O)(=O)[O-])cc5)c5ccc([nH]5)c(-c5ccc(S(=O)(=O)[O-])cc5)c5nc(c(-c6ccc(S(=O)(=O)[O-])cc6)c6ccc3[nH]6)C=C5)C=C4)cc1)C2
REMARK SMILES IDX 28 1 27 2 26 3 25 4 24 5 22 6 23 7 21 8 13 9 14 10 18 11
REMARK SMILES IDX 15 13 17 14 16 15 19 16 93 17 20 18 11 21 12 22 10 23 1 24
REMARK SMILES IDX 2 25 3 26 4 27 8 28 5 29 6 30 9 31 7 32 29 33 30 34 31 35
REMARK SMILES IDX 32 36 33 37 34 38 92 39 35 40 91 41 36 42 37 43 38 44 85 45
REMARK SMILES IDX 39 46 90 47 84 48 86 49 40 50 89 51 83 52 82 53 41 55 71 56
REMARK SMILES IDX 52 57 70 58 53 59 56 60 69 61 87 62 54 63 55 64 68 66 88 67
REMARK SMILES IDX 57 68 42 69 43 70 51 71 44 72 50 73 45 74 46 75 47 76 48 77
REMARK SMILES IDX 49 78 72 79 73 80 81 81 74 82 80 83 75 84 76 85 77 86 78 87
REMARK SMILES IDX 79 88 58 89 59 90 67 91 60 92 66 93 61 94 62 95 63 96 64 97
REMARK SMILES IDX 65 98
REMARK H PARENT 13 12 20 19 20 20 86 54 56 65
REMARK Flexibility Score: inf
ROOT
ATOM      1  C   UNL A   1      35.873  31.536  28.826  1.00  0.00     0.202 C 
ENDROOT
BRANCH   1   2
ATOM      2  O   UNL A   1      34.772  32.329  29.264  1.00  0.00    -0.374 OA
BRANCH   2   3
ATOM      3  C   UNL A   1      34.278  33.320  28.361  1.00  0.00     0.202 C 
BRANCH   3   4
ATOM      4  C   UNL A   1      32.995  32.978  27.600  1.00  0.00     0.261 C 
BRANCH   4   5
ATOM      5  O   UNL A   1      32.846  31.557  27.465  1.00  0.00    -0.459 OA
BRANCH   5   6
ATOM      6  C   UNL A   1      31.998  31.139  26.490  1.00  0.00     0.364 C 
ATOM      7  O   UNL A   1      31.053  31.787  26.048  1.00  0.00    -0.245 OA
BRANCH   6   8
ATOM      8  C   UNL A   1      32.328  29.740  25.975  1.00  0.00     0.294 C 
ATOM      9  N   UNL A   1      31.071  24.636  25.833  1.00  0.00    -0.267 N 
ATOM     10  C   UNL A   1      32.045  25.281  26.702  1.00  0.00     0.271 C 
ATOM     11  C   UNL A   1      29.920  25.477  25.533  1.00  0.00     0.271 C 
ATOM     12  H   UNL A   1      30.375  23.983  25.592  1.00  0.00     0.357 HD
ATOM     13  C   UNL A   1      32.703  26.395  25.902  1.00  0.00     0.075 C 
ATOM     14  C   UNL A   1      30.311  26.861  24.976  1.00  0.00     0.075 C 
ATOM     15  C   UNL A   1      31.691  27.457  25.406  1.00  0.00     0.036 C 
ATOM     16  C   UNL A   1      32.340  28.240  24.228  1.00  0.00     0.268 C 
ATOM     17  C   UNL A   1      31.505  28.558  26.488  1.00  0.00     0.090 C 
ATOM     18  N   UNL A   1      32.116  29.648  24.523  1.00  0.00    -0.334 N 
ATOM     19  H   UNL A   1      31.165  29.924  24.277  1.00  0.00     0.347 HD
ATOM     20  H   UNL A   1      32.733  30.266  23.995  1.00  0.00     0.347 HD
BRANCH   9  21
ATOM     21  C   UNL A   1      31.336  23.336  25.412  1.00  0.00     0.350 C 
ATOM     22  O   UNL A   1      30.587  22.407  25.737  1.00  0.00    -0.225 OA
BRANCH  21  23
ATOM     23  C   UNL A   1      32.595  22.976  24.677  1.00  0.00     0.147 A 
ATOM     24  C   UNL A   1      32.130  24.499  22.674  1.00  0.00     0.045 C 
ATOM     25  C   UNL A   1      32.940  23.550  23.502  1.00  0.00    -0.027 A 
ATOM     26  C   UNL A   1      34.280  23.395  22.975  1.00  0.00     0.026 A 
ATOM     27  C   UNL A   1      35.280  22.899  23.715  1.00  0.00     0.018 A 
ATOM     28  C   UNL A   1      33.676  22.247  25.446  1.00  0.00     0.267 A 
ATOM     29  C   UNL A   1      36.677  22.940  23.156  1.00  0.00     0.064 C 
ATOM     30  N   UNL A   1      34.997  22.365  24.967  1.00  0.00    -0.315 N 
ATOM     31  O   UNL A   1      33.395  21.596  26.452  1.00  0.00    -0.268 OA
ATOM     32  C   UNL A   1      36.072  21.872  25.818  1.00  0.00     0.153 C 
ENDBRANCH  21  23
ENDBRANCH   9  21
ENDBRANCH   6   8
ENDBRANCH   5   6
ENDBRANCH   4   5
ENDBRANCH   3   4
ENDBRANCH   2   3
ENDBRANCH   1   2
BRANCH   1  33
ATOM     33  C   UNL A   1      35.586  30.081  28.435  1.00  0.00     0.261 C 
BRANCH  33  34
ATOM     34  O   UNL A   1      36.785  29.330  28.171  1.00  0.00    -0.460 OA
BRANCH  34  35
ATOM     35  C   UNL A   1      37.547  29.084  29.264  1.00  0.00     0.338 C 
ATOM     36  O   UNL A   1      37.168  28.638  30.340  1.00  0.00    -0.246 OA
BRANCH  35  37
ATOM     37  C   UNL A   1      38.974  29.243  28.940  1.00  0.00     0.060 A 
ATOM     38  C   UNL A   1      39.327  29.280  27.586  1.00  0.00     0.016 A 
ATOM     39  C   UNL A   1      39.958  29.265  29.932  1.00  0.00     0.016 A 
ATOM     40  C   UNL A   1      40.668  29.290  27.213  1.00  0.00     0.010 A 
ATOM     41  C   UNL A   1      41.306  29.261  29.555  1.00  0.00     0.010 A 
ATOM     42  C   UNL A   1      41.666  29.236  28.195  1.00  0.00    -0.014 A 
BRANCH  42  43
ATOM     43  C   UNL A   1      43.068  28.985  27.784  1.00  0.00     0.031 A 
ATOM     44  C   UNL A   1      44.083  30.082  27.958  1.00  0.00     0.074 A 
ATOM     45  C   UNL A   1      43.448  27.778  27.326  1.00  0.00     0.049 A 
ATOM     46  N   UNL A   1      45.361  30.077  27.682  1.00  0.00    -0.248 NA
ATOM     47  C   UNL A   1      43.594  31.350  28.526  1.00  0.00     0.031 C 
ATOM     48  C   UNL A   1      42.572  26.617  27.175  1.00  0.00     0.029 A 
ATOM     49  N   UNL A   1      44.678  27.328  26.915  1.00  0.00    -0.354 N 
ATOM     50  C   UNL A   1      45.830  31.335  28.045  1.00  0.00     0.074 A 
ATOM     51  C   UNL A   1      44.694  32.089  28.529  1.00  0.00     0.031 C 
ATOM     52  C   UNL A   1      43.296  25.584  26.710  1.00  0.00     0.029 A 
ATOM     53  C   UNL A   1      44.676  26.019  26.500  1.00  0.00     0.049 A 
ATOM     54  H   UNL A   1      45.485  27.892  26.917  1.00  0.00     0.167 HD
ATOM     55  C   UNL A   1      47.094  31.817  27.991  1.00  0.00     0.031 A 
ATOM     56  C   UNL A   1      45.671  25.259  25.998  1.00  0.00     0.031 A 
ATOM     57  C   UNL A   1      48.221  31.073  27.495  1.00  0.00     0.049 A 
ATOM     58  C   UNL A   1      47.048  25.851  25.850  1.00  0.00     0.074 A 
ATOM     59  C   UNL A   1      49.541  31.477  27.394  1.00  0.00     0.029 A 
ATOM     60  N   UNL A   1      48.161  29.774  27.011  1.00  0.00    -0.354 N 
ATOM     61  N   UNL A   1      47.475  27.042  26.197  1.00  0.00    -0.248 NA
ATOM     62  C   UNL A   1      48.079  24.994  25.245  1.00  0.00     0.031 C 
ATOM     63  C   UNL A   1      50.269  30.442  26.798  1.00  0.00     0.029 A 
ATOM     64  C   UNL A   1      49.414  29.372  26.583  1.00  0.00     0.049 A 
ATOM     65  H   UNL A   1      47.348  29.222  26.977  1.00  0.00     0.167 HD
ATOM     66  C   UNL A   1      48.827  27.072  25.869  1.00  0.00     0.074 A 
ATOM     67  C   UNL A   1      49.151  25.775  25.312  1.00  0.00     0.031 C 
ATOM     68  C   UNL A   1      49.719  28.081  26.020  1.00  0.00     0.031 A 
BRANCH  55  69
ATOM     69  C   UNL A   1      47.322  33.229  28.459  1.00  0.00    -0.014 A 
ATOM     70  C   UNL A   1      47.242  34.311  27.565  1.00  0.00     0.010 A 
ATOM     71  C   UNL A   1      47.570  33.481  29.821  1.00  0.00     0.010 A 
ATOM     72  C   UNL A   1      47.436  35.618  28.018  1.00  0.00     0.020 A 
ATOM     73  C   UNL A   1      47.740  34.790  30.282  1.00  0.00     0.020 A 
ATOM     74  C   UNL A   1      47.683  35.849  29.375  1.00  0.00     0.054 A 
BRANCH  74  75
ATOM     75  S   UNL A   1      47.899  37.559  29.939  1.00  0.00     0.124 S 
ATOM     76  O   UNL A   1      47.100  38.300  28.966  1.00  0.00    -0.237 OA
ATOM     77  O   UNL A   1      47.359  37.519  31.294  1.00  0.00    -0.237 OA
ATOM     78  O   UNL A   1      49.341  37.776  29.851  1.00  0.00    -0.744 OA
ENDBRANCH  74  75
ENDBRANCH  55  69
BRANCH  56  79
ATOM     79  C   UNL A   1      45.395  23.856  25.584  1.00  0.00    -0.014 A 
ATOM     80  C   UNL A   1      45.640  22.789  26.464  1.00  0.00     0.010 A 
ATOM     81  C   UNL A   1      44.870  23.584  24.307  1.00  0.00     0.010 A 
ATOM     82  C   UNL A   1      45.367  21.474  26.075  1.00  0.00     0.020 A 
ATOM     83  C   UNL A   1      44.572  22.273  23.924  1.00  0.00     0.020 A 
ATOM     84  C   UNL A   1      44.829  21.225  24.808  1.00  0.00     0.054 A 
BRANCH  84  85
ATOM     85  S   UNL A   1      44.422  19.517  24.352  1.00  0.00     0.124 S 
ATOM     86  O   UNL A   1      43.064  19.378  24.867  1.00  0.00    -0.237 OA
ATOM     87  O   UNL A   1      44.547  19.544  22.896  1.00  0.00    -0.237 OA
ATOM     88  O   UNL A   1      45.438  18.726  25.043  1.00  0.00    -0.744 OA
ENDBRANCH  84  85
ENDBRANCH  56  79
BRANCH  68  89
ATOM     89  C   UNL A   1      51.140  27.830  25.587  1.00  0.00    -0.014 A 
ATOM     90  C   UNL A   1      52.059  27.204  26.446  1.00  0.00     0.010 A 
ATOM     91  C   UNL A   1      51.535  28.149  24.274  1.00  0.00     0.010 A 
ATOM     92  C   UNL A   1      53.355  26.922  26.008  1.00  0.00     0.020 A 
ATOM     93  C   UNL A   1      52.822  27.844  23.823  1.00  0.00     0.020 A 
ATOM     94  C   UNL A   1      53.728  27.240  24.698  1.00  0.00     0.054 A 
BRANCH  94  95
ATOM     95  S   UNL A   1      55.400  26.810  24.139  1.00  0.00     0.124 S 
ATOM     96  O   UNL A   1      55.621  25.526  24.800  1.00  0.00    -0.237 OA
ATOM     97  O   UNL A   1      55.245  26.751  22.687  1.00  0.00    -0.237 OA
ATOM     98  O   UNL A   1      56.225  27.912  24.628  1.00  0.00    -0.744 OA
ENDBRANCH  94  95
ENDBRANCH  68  89
ENDBRANCH  42  43
ENDBRANCH  35  37
ENDBRANCH  34  35
ENDBRANCH  33  34
ENDBRANCH   1  33
TORSDOF 19
ENDMDL
