MODEL 1
REMARK VINA RESULT:     -10.0      0.000      0.000
REMARK SMILES CC(C)CN(CC(N)=O)C(=O)N1CC[C@H](C(=O)OCCOCCOC(=O)c2ccc(-c3c4nc(c(-c5ccc(S(=O)(=O)[O-])cc5)c5ccc([nH]5)c(-c5ccc(S(=O)(=O)[O-])cc5)c5nc(c(-c6ccc(S(=O)(=O)[O-])cc6)c6ccc3[nH]6)C=C5)C=C4)cc2)[C@@H]1C
REMARK SMILES IDX 20 1 19 2 18 3 16 4 17 5 15 6 12 7 13 8 87 9 14 10 88 11
REMARK SMILES IDX 10 12 11 13 5 14 4 15 2 16 1 17 3 18 6 19 7 20 8 21 9 22
REMARK SMILES IDX 21 25 22 26 23 27 24 28 25 29 26 30 27 31 28 32 86 33 29 34
REMARK SMILES IDX 85 35 30 36 31 37 32 38 79 39 33 40 84 41 78 42 80 43 34 44
REMARK SMILES IDX 83 45 77 46 76 47 35 49 65 50 46 51 64 52 47 53 50 54 63 55
REMARK SMILES IDX 81 56 48 57 49 58 62 60 82 61 51 62 36 63 37 64 45 65 38 66
REMARK SMILES IDX 44 67 39 68 40 69 41 70 42 71 43 72 66 73 67 74 75 75 68 76
REMARK SMILES IDX 74 77 69 78 70 79 71 80 72 81 73 82 52 83 53 84 61 85 54 86
REMARK SMILES IDX 60 87 55 88 56 89 57 90 58 91 59 92
REMARK H PARENT 8 23 8 24 80 48 50 59
REMARK Flexibility Score: inf
ROOT
ATOM      1  C   UNL A   1      38.546  21.978  25.766  1.00  0.00     0.202 C 
ENDROOT
BRANCH   1   2
ATOM      2  C   UNL A   1      37.506  21.148  25.007  1.00  0.00     0.261 C 
BRANCH   2   3
ATOM      3  O   UNL A   1      36.225  21.804  25.071  1.00  0.00    -0.463 OA
BRANCH   3   4
ATOM      4  C   UNL A   1      35.879  22.581  24.028  1.00  0.00     0.311 C 
ATOM      5  O   UNL A   1      36.663  23.009  23.188  1.00  0.00    -0.252 OA
BRANCH   4   6
ATOM      6  C   UNL A   1      34.392  22.868  23.963  1.00  0.00     0.123 C 
ATOM      7  N   UNL A   1      32.530  23.671  25.211  1.00  0.00    -0.321 N 
ATOM      8  C   UNL A   1      32.696  22.303  25.625  1.00  0.00     0.122 C 
ATOM      9  C   UNL A   1      33.753  24.146  24.556  1.00  0.00     0.098 C 
ATOM     10  C   UNL A   1      33.599  21.692  24.578  1.00  0.00     0.039 C 
ATOM     11  C   UNL A   1      34.551  25.074  25.474  1.00  0.00     0.032 C 
BRANCH   7  12
ATOM     12  C   UNL A   1      31.707  24.475  25.971  1.00  0.00     0.320 C 
ATOM     13  O   UNL A   1      31.466  24.167  27.138  1.00  0.00    -0.248 OA
BRANCH  12  14
ATOM     14  N   UNL A   1      31.108  25.548  25.340  1.00  0.00    -0.315 N 
BRANCH  14  15
ATOM     15  C   UNL A   1      30.848  26.758  26.129  1.00  0.00     0.125 C 
BRANCH  15  16
ATOM     16  C   UNL A   1      32.124  27.591  26.412  1.00  0.00     0.002 C 
ATOM     17  C   UNL A   1      32.540  28.477  25.232  1.00  0.00     0.009 C 
ATOM     18  C   UNL A   1      31.911  28.482  27.638  1.00  0.00     0.009 C 
ENDBRANCH  15  16
ENDBRANCH  14  15
BRANCH  14  19
ATOM     19  C   UNL A   1      30.671  25.566  23.941  1.00  0.00     0.221 C 
BRANCH  19  20
ATOM     20  C   UNL A   1      29.532  26.571  23.696  1.00  0.00     0.237 C 
ATOM     21  N   UNL A   1      29.883  27.711  23.021  1.00  0.00    -0.368 N 
ATOM     22  O   UNL A   1      28.370  26.403  24.047  1.00  0.00    -0.273 OA
ATOM     23  H   UNL A   1      30.817  27.848  22.739  1.00  0.00     0.159 HD
ATOM     24  H   UNL A   1      29.202  28.392  22.819  1.00  0.00     0.159 HD
ENDBRANCH  19  20
ENDBRANCH  14  19
ENDBRANCH  12  14
ENDBRANCH   7  12
ENDBRANCH   4   6
ENDBRANCH   3   4
ENDBRANCH   2   3
ENDBRANCH   1   2
BRANCH   1  25
ATOM     25  O   UNL A   1      39.685  21.238  26.218  1.00  0.00    -0.374 OA
BRANCH  25  26
ATOM     26  C   UNL A   1      40.517  21.877  27.184  1.00  0.00     0.202 C 
BRANCH  26  27
ATOM     27  C   UNL A   1      41.767  22.580  26.645  1.00  0.00     0.261 C 
BRANCH  27  28
ATOM     28  O   UNL A   1      42.120  23.703  27.466  1.00  0.00    -0.460 OA
BRANCH  28  29
ATOM     29  C   UNL A   1      42.155  24.881  26.807  1.00  0.00     0.338 C 
ATOM     30  O   UNL A   1      42.532  25.063  25.656  1.00  0.00    -0.246 OA
BRANCH  29  31
ATOM     31  C   UNL A   1      41.497  25.937  27.600  1.00  0.00     0.060 A 
ATOM     32  C   UNL A   1      42.187  27.149  27.718  1.00  0.00     0.016 A 
ATOM     33  C   UNL A   1      40.287  25.742  28.272  1.00  0.00     0.016 A 
ATOM     34  C   UNL A   1      41.736  28.123  28.600  1.00  0.00     0.010 A 
ATOM     35  C   UNL A   1      39.828  26.729  29.153  1.00  0.00     0.010 A 
ATOM     36  C   UNL A   1      40.592  27.890  29.372  1.00  0.00    -0.014 A 
BRANCH  36  37
ATOM     37  C   UNL A   1      40.349  28.767  30.545  1.00  0.00     0.031 A 
ATOM     38  C   UNL A   1      41.235  28.617  31.756  1.00  0.00     0.074 A 
ATOM     39  C   UNL A   1      39.436  29.753  30.492  1.00  0.00     0.049 A 
ATOM     40  N   UNL A   1      41.270  29.331  32.852  1.00  0.00    -0.248 NA
ATOM     41  C   UNL A   1      42.214  27.516  31.729  1.00  0.00     0.031 C 
ATOM     42  C   UNL A   1      38.553  30.029  29.359  1.00  0.00     0.029 A 
ATOM     43  N   UNL A   1      39.117  30.721  31.411  1.00  0.00    -0.354 N 
ATOM     44  C   UNL A   1      42.267  28.766  33.640  1.00  0.00     0.074 A 
ATOM     45  C   UNL A   1      42.782  27.624  32.919  1.00  0.00     0.031 C 
ATOM     46  C   UNL A   1      37.800  31.105  29.645  1.00  0.00     0.029 A 
ATOM     47  C   UNL A   1      38.129  31.577  30.989  1.00  0.00     0.049 A 
ATOM     48  H   UNL A   1      39.555  30.795  32.290  1.00  0.00     0.167 HD
ATOM     49  C   UNL A   1      42.725  29.167  34.851  1.00  0.00     0.031 A 
ATOM     50  C   UNL A   1      37.552  32.621  31.617  1.00  0.00     0.031 A 
ATOM     51  C   UNL A   1      42.205  30.298  35.571  1.00  0.00     0.049 A 
ATOM     52  C   UNL A   1      38.039  33.014  32.988  1.00  0.00     0.074 A 
ATOM     53  C   UNL A   1      42.604  30.793  36.801  1.00  0.00     0.029 A 
ATOM     54  N   UNL A   1      41.170  31.110  35.131  1.00  0.00    -0.354 N 
ATOM     55  N   UNL A   1      38.996  32.481  33.711  1.00  0.00    -0.248 NA
ATOM     56  C   UNL A   1      37.380  34.166  33.618  1.00  0.00     0.031 C 
ATOM     57  C   UNL A   1      41.770  31.866  37.131  1.00  0.00     0.029 A 
ATOM     58  C   UNL A   1      40.901  32.088  36.073  1.00  0.00     0.049 A 
ATOM     59  H   UNL A   1      40.696  31.005  34.274  1.00  0.00     0.167 HD
ATOM     60  C   UNL A   1      39.079  33.256  34.864  1.00  0.00     0.074 A 
ATOM     61  C   UNL A   1      38.086  34.303  34.731  1.00  0.00     0.031 C 
ATOM     62  C   UNL A   1      39.905  33.120  35.932  1.00  0.00     0.031 A 
BRANCH  49  63
ATOM     63  C   UNL A   1      43.822  28.351  35.486  1.00  0.00    -0.014 A 
ATOM     64  C   UNL A   1      43.534  27.254  36.320  1.00  0.00     0.010 A 
ATOM     65  C   UNL A   1      45.166  28.670  35.220  1.00  0.00     0.010 A 
ATOM     66  C   UNL A   1      44.568  26.518  36.907  1.00  0.00     0.020 A 
ATOM     67  C   UNL A   1      46.204  27.916  35.779  1.00  0.00     0.020 A 
ATOM     68  C   UNL A   1      45.897  26.855  36.632  1.00  0.00     0.054 A 
BRANCH  68  69
ATOM     69  S   UNL A   1      47.219  25.867  37.385  1.00  0.00     0.124 S 
ATOM     70  O   UNL A   1      47.052  24.579  36.715  1.00  0.00    -0.237 OA
ATOM     71  O   UNL A   1      48.421  26.612  37.023  1.00  0.00    -0.237 OA
ATOM     72  O   UNL A   1      46.890  25.874  38.809  1.00  0.00    -0.744 OA
ENDBRANCH  68  69
ENDBRANCH  49  63
BRANCH  50  73
ATOM     73  C   UNL A   1      36.449  33.372  30.955  1.00  0.00    -0.014 A 
ATOM     74  C   UNL A   1      36.585  33.848  29.639  1.00  0.00     0.010 A 
ATOM     75  C   UNL A   1      35.251  33.620  31.649  1.00  0.00     0.010 A 
ATOM     76  C   UNL A   1      35.552  34.576  29.039  1.00  0.00     0.020 A 
ATOM     77  C   UNL A   1      34.205  34.318  31.042  1.00  0.00     0.020 A 
ATOM     78  C   UNL A   1      34.367  34.803  29.744  1.00  0.00     0.054 A 
BRANCH  78  79
ATOM     79  S   UNL A   1      33.022  35.707  28.928  1.00  0.00     0.124 S 
ATOM     80  O   UNL A   1      33.753  36.692  28.136  1.00  0.00    -0.237 OA
ATOM     81  O   UNL A   1      32.351  34.654  28.169  1.00  0.00    -0.237 OA
ATOM     82  O   UNL A   1      32.248  36.249  30.042  1.00  0.00    -0.744 OA
ENDBRANCH  78  79
ENDBRANCH  50  73
BRANCH  62  83
ATOM     83  C   UNL A   1      39.808  34.163  37.019  1.00  0.00    -0.014 A 
ATOM     84  C   UNL A   1      39.082  33.933  38.201  1.00  0.00     0.010 A 
ATOM     85  C   UNL A   1      40.473  35.392  36.853  1.00  0.00     0.010 A 
ATOM     86  C   UNL A   1      38.969  34.937  39.167  1.00  0.00     0.020 A 
ATOM     87  C   UNL A   1      40.393  36.384  37.833  1.00  0.00     0.020 A 
ATOM     88  C   UNL A   1      39.619  36.160  38.972  1.00  0.00     0.054 A 
BRANCH  88  89
ATOM     89  S   UNL A   1      39.453  37.451  40.236  1.00  0.00     0.124 S 
ATOM     90  O   UNL A   1      38.729  36.749  41.292  1.00  0.00    -0.237 OA
ATOM     91  O   UNL A   1      40.841  37.784  40.540  1.00  0.00    -0.237 OA
ATOM     92  O   UNL A   1      38.699  38.504  39.558  1.00  0.00    -0.744 OA
ENDBRANCH  88  89
ENDBRANCH  62  83
ENDBRANCH  36  37
ENDBRANCH  29  31
ENDBRANCH  28  29
ENDBRANCH  27  28
ENDBRANCH  26  27
ENDBRANCH  25  26
ENDBRANCH   1  25
TORSDOF 23
ENDMDL
MODEL 2
REMARK VINA RESULT:      -9.5      2.013      8.389
REMARK SMILES CC(C)CN(CC(N)=O)C(=O)N1CC[C@H](C(=O)OCCOCCOC(=O)c2ccc(-c3c4nc(c(-c5ccc(S(=O)(=O)[O-])cc5)c5ccc([nH]5)c(-c5ccc(S(=O)(=O)[O-])cc5)c5nc(c(-c6ccc(S(=O)(=O)[O-])cc6)c6ccc3[nH]6)C=C5)C=C4)cc2)[C@@H]1C
REMARK SMILES IDX 20 1 19 2 18 3 16 4 17 5 15 6 12 7 13 8 87 9 14 10 88 11
REMARK SMILES IDX 10 12 11 13 5 14 4 15 2 16 1 17 3 18 6 19 7 20 8 21 9 22
REMARK SMILES IDX 21 25 22 26 23 27 24 28 25 29 26 30 27 31 28 32 86 33 29 34
REMARK SMILES IDX 85 35 30 36 31 37 32 38 79 39 33 40 84 41 78 42 80 43 34 44
REMARK SMILES IDX 83 45 77 46 76 47 35 49 65 50 46 51 64 52 47 53 50 54 63 55
REMARK SMILES IDX 81 56 48 57 49 58 62 60 82 61 51 62 36 63 37 64 45 65 38 66
REMARK SMILES IDX 44 67 39 68 40 69 41 70 42 71 43 72 66 73 67 74 75 75 68 76
REMARK SMILES IDX 74 77 69 78 70 79 71 80 72 81 73 82 52 83 53 84 61 85 54 86
REMARK SMILES IDX 60 87 55 88 56 89 57 90 58 91 59 92
REMARK H PARENT 8 23 8 24 80 48 50 59
REMARK Flexibility Score: inf
ROOT
ATOM      1  C   UNL A   1      37.409  21.682  24.764  1.00  0.00     0.202 C 
ENDROOT
BRANCH   1   2
ATOM      2  C   UNL A   1      36.249  20.827  25.283  1.00  0.00     0.261 C 
BRANCH   2   3
ATOM      3  O   UNL A   1      34.997  21.423  24.892  1.00  0.00    -0.463 OA
BRANCH   3   4
ATOM      4  C   UNL A   1      34.183  21.845  25.878  1.00  0.00     0.311 C 
ATOM      5  O   UNL A   1      33.824  21.158  26.827  1.00  0.00    -0.252 OA
BRANCH   4   6
ATOM      6  C   UNL A   1      33.757  23.292  25.723  1.00  0.00     0.123 C 
ATOM      7  N   UNL A   1      33.139  24.959  24.139  1.00  0.00    -0.321 N 
ATOM      8  C   UNL A   1      34.578  24.917  24.096  1.00  0.00     0.122 C 
ATOM      9  C   UNL A   1      32.623  23.741  24.771  1.00  0.00     0.098 C 
ATOM     10  C   UNL A   1      34.976  24.165  25.346  1.00  0.00     0.039 C 
ATOM     11  C   UNL A   1      32.037  22.781  23.734  1.00  0.00     0.032 C 
BRANCH   7  12
ATOM     12  C   UNL A   1      32.488  25.630  23.126  1.00  0.00     0.320 C 
ATOM     13  O   UNL A   1      32.600  25.235  21.966  1.00  0.00    -0.248 OA
BRANCH  12  14
ATOM     14  N   UNL A   1      31.814  26.788  23.462  1.00  0.00    -0.315 N 
BRANCH  14  15
ATOM     15  C   UNL A   1      30.641  27.163  22.662  1.00  0.00     0.125 C 
BRANCH  15  16
ATOM     16  C   UNL A   1      29.477  27.732  23.513  1.00  0.00     0.002 C 
ATOM     17  C   UNL A   1      28.699  28.846  22.804  1.00  0.00     0.009 C 
ATOM     18  C   UNL A   1      28.498  26.613  23.880  1.00  0.00     0.009 C 
ENDBRANCH  15  16
ENDBRANCH  14  15
BRANCH  14  19
ATOM     19  C   UNL A   1      32.198  27.704  24.540  1.00  0.00     0.221 C 
BRANCH  19  20
ATOM     20  C   UNL A   1      32.975  28.926  24.019  1.00  0.00     0.237 C 
ATOM     21  N   UNL A   1      33.105  29.965  24.903  1.00  0.00    -0.368 N 
ATOM     22  O   UNL A   1      33.476  29.007  22.904  1.00  0.00    -0.273 OA
ATOM     23  H   UNL A   1      32.702  29.903  25.800  1.00  0.00     0.159 HD
ATOM     24  H   UNL A   1      33.600  30.775  24.642  1.00  0.00     0.159 HD
ENDBRANCH  19  20
ENDBRANCH  14  19
ENDBRANCH  12  14
ENDBRANCH   7  12
ENDBRANCH   4   6
ENDBRANCH   3   4
ENDBRANCH   2   3
ENDBRANCH   1   2
BRANCH   1  25
ATOM     25  O   UNL A   1      37.942  22.605  25.720  1.00  0.00    -0.374 OA
BRANCH  25  26
ATOM     26  C   UNL A   1      39.213  22.279  26.279  1.00  0.00     0.202 C 
BRANCH  26  27
ATOM     27  C   UNL A   1      39.970  23.425  26.958  1.00  0.00     0.261 C 
BRANCH  27  28
ATOM     28  O   UNL A   1      39.238  24.656  26.856  1.00  0.00    -0.460 OA
BRANCH  28  29
ATOM     29  C   UNL A   1      40.017  25.753  26.734  1.00  0.00     0.338 C 
ATOM     30  O   UNL A   1      40.721  26.046  25.776  1.00  0.00    -0.246 OA
BRANCH  29  31
ATOM     31  C   UNL A   1      39.778  26.684  27.854  1.00  0.00     0.060 A 
ATOM     32  C   UNL A   1      40.298  27.976  27.713  1.00  0.00     0.016 A 
ATOM     33  C   UNL A   1      39.137  26.304  29.036  1.00  0.00     0.016 A 
ATOM     34  C   UNL A   1      40.288  28.852  28.791  1.00  0.00     0.010 A 
ATOM     35  C   UNL A   1      39.120  27.191  30.120  1.00  0.00     0.010 A 
ATOM     36  C   UNL A   1      39.760  28.440  30.021  1.00  0.00    -0.014 A 
BRANCH  36  37
ATOM     37  C   UNL A   1      40.090  29.239  31.227  1.00  0.00     0.031 A 
ATOM     38  C   UNL A   1      39.126  30.311  31.671  1.00  0.00     0.074 A 
ATOM     39  C   UNL A   1      41.165  28.942  31.979  1.00  0.00     0.049 A 
ATOM     40  N   UNL A   1      39.158  31.064  32.740  1.00  0.00    -0.248 NA
ATOM     41  C   UNL A   1      37.970  30.566  30.794  1.00  0.00     0.031 C 
ATOM     42  C   UNL A   1      42.144  27.897  31.680  1.00  0.00     0.029 A 
ATOM     43  N   UNL A   1      41.600  29.482  33.163  1.00  0.00    -0.354 N 
ATOM     44  C   UNL A   1      38.034  31.880  32.661  1.00  0.00     0.074 A 
ATOM     45  C   UNL A   1      37.365  31.563  31.420  1.00  0.00     0.031 C 
ATOM     46  C   UNL A   1      43.060  27.863  32.663  1.00  0.00     0.029 A 
ATOM     47  C   UNL A   1      42.747  28.900  33.646  1.00  0.00     0.049 A 
ATOM     48  H   UNL A   1      41.134  30.218  33.622  1.00  0.00     0.167 HD
ATOM     49  C   UNL A   1      37.590  32.804  33.547  1.00  0.00     0.031 A 
ATOM     50  C   UNL A   1      43.464  29.173  34.754  1.00  0.00     0.031 A 
ATOM     51  C   UNL A   1      38.262  33.125  34.778  1.00  0.00     0.049 A 
ATOM     52  C   UNL A   1      42.980  30.244  35.696  1.00  0.00     0.074 A 
ATOM     53  C   UNL A   1      37.890  34.039  35.749  1.00  0.00     0.029 A 
ATOM     54  N   UNL A   1      39.448  32.547  35.207  1.00  0.00    -0.354 N 
ATOM     55  N   UNL A   1      41.905  30.993  35.617  1.00  0.00    -0.248 NA
ATOM     56  C   UNL A   1      43.798  30.490  36.892  1.00  0.00     0.031 C 
ATOM     57  C   UNL A   1      38.882  34.056  36.735  1.00  0.00     0.029 A 
ATOM     58  C   UNL A   1      39.834  33.099  36.416  1.00  0.00     0.049 A 
ATOM     59  H   UNL A   1      39.941  31.846  34.722  1.00  0.00     0.167 HD
ATOM     60  C   UNL A   1      41.898  31.772  36.770  1.00  0.00     0.074 A 
ATOM     61  C   UNL A   1      43.067  31.389  37.536  1.00  0.00     0.031 C 
ATOM     62  C   UNL A   1      41.004  32.713  37.165  1.00  0.00     0.031 A 
BRANCH  49  63
ATOM     63  C   UNL A   1      36.331  33.556  33.196  1.00  0.00    -0.014 A 
ATOM     64  C   UNL A   1      35.067  33.119  33.634  1.00  0.00     0.010 A 
ATOM     65  C   UNL A   1      36.418  34.739  32.439  1.00  0.00     0.010 A 
ATOM     66  C   UNL A   1      33.912  33.827  33.287  1.00  0.00     0.020 A 
ATOM     67  C   UNL A   1      35.269  35.468  32.117  1.00  0.00     0.020 A 
ATOM     68  C   UNL A   1      34.021  34.997  32.530  1.00  0.00     0.054 A 
BRANCH  68  69
ATOM     69  S   UNL A   1      32.510  35.911  32.117  1.00  0.00     0.124 S 
ATOM     70  O   UNL A   1      32.654  37.116  32.930  1.00  0.00    -0.237 OA
ATOM     71  O   UNL A   1      32.638  36.107  30.676  1.00  0.00    -0.237 OA
ATOM     72  O   UNL A   1      31.435  35.010  32.528  1.00  0.00    -0.744 OA
ENDBRANCH  68  69
ENDBRANCH  49  63
BRANCH  50  73
ATOM     73  C   UNL A   1      44.718  28.419  35.034  1.00  0.00    -0.014 A 
ATOM     74  C   UNL A   1      44.701  27.250  35.815  1.00  0.00     0.010 A 
ATOM     75  C   UNL A   1      45.944  28.878  34.519  1.00  0.00     0.010 A 
ATOM     76  C   UNL A   1      45.890  26.568  36.094  1.00  0.00     0.020 A 
ATOM     77  C   UNL A   1      47.129  28.181  34.768  1.00  0.00     0.020 A 
ATOM     78  C   UNL A   1      47.096  27.036  35.566  1.00  0.00     0.054 A 
BRANCH  78  79
ATOM     79  S   UNL A   1      48.618  26.107  35.900  1.00  0.00     0.124 S 
ATOM     80  O   UNL A   1      49.471  26.508  34.785  1.00  0.00    -0.237 OA
ATOM     81  O   UNL A   1      49.012  26.611  37.213  1.00  0.00    -0.237 OA
ATOM     82  O   UNL A   1      48.179  24.714  35.883  1.00  0.00    -0.744 OA
ENDBRANCH  78  79
ENDBRANCH  50  73
BRANCH  62  83
ATOM     83  C   UNL A   1      41.225  33.356  38.512  1.00  0.00    -0.014 A 
ATOM     84  C   UNL A   1      41.763  34.649  38.635  1.00  0.00     0.010 A 
ATOM     85  C   UNL A   1      40.870  32.651  39.677  1.00  0.00     0.010 A 
ATOM     86  C   UNL A   1      42.003  35.198  39.898  1.00  0.00     0.020 A 
ATOM     87  C   UNL A   1      41.073  33.210  40.940  1.00  0.00     0.020 A 
ATOM     88  C   UNL A   1      41.663  34.470  41.044  1.00  0.00     0.054 A 
BRANCH  88  89
ATOM     89  S   UNL A   1      41.990  35.199  42.672  1.00  0.00     0.124 S 
ATOM     90  O   UNL A   1      43.359  35.684  42.519  1.00  0.00    -0.237 OA
ATOM     91  O   UNL A   1      40.964  36.233  42.773  1.00  0.00    -0.237 OA
ATOM     92  O   UNL A   1      41.826  34.076  43.593  1.00  0.00    -0.744 OA
ENDBRANCH  88  89
ENDBRANCH  62  83
ENDBRANCH  36  37
ENDBRANCH  29  31
ENDBRANCH  28  29
ENDBRANCH  27  28
ENDBRANCH  26  27
ENDBRANCH  25  26
ENDBRANCH   1  25
TORSDOF 23
ENDMDL
MODEL 3
REMARK VINA RESULT:      -9.3      5.158      6.576
REMARK SMILES CC(C)CN(CC(N)=O)C(=O)N1CC[C@H](C(=O)OCCOCCOC(=O)c2ccc(-c3c4nc(c(-c5ccc(S(=O)(=O)[O-])cc5)c5ccc([nH]5)c(-c5ccc(S(=O)(=O)[O-])cc5)c5nc(c(-c6ccc(S(=O)(=O)[O-])cc6)c6ccc3[nH]6)C=C5)C=C4)cc2)[C@@H]1C
REMARK SMILES IDX 20 1 19 2 18 3 16 4 17 5 15 6 12 7 13 8 87 9 14 10 88 11
REMARK SMILES IDX 10 12 11 13 5 14 4 15 2 16 1 17 3 18 6 19 7 20 8 21 9 22
REMARK SMILES IDX 21 25 22 26 23 27 24 28 25 29 26 30 27 31 28 32 86 33 29 34
REMARK SMILES IDX 85 35 30 36 31 37 32 38 79 39 33 40 84 41 78 42 80 43 34 44
REMARK SMILES IDX 83 45 77 46 76 47 35 49 65 50 46 51 64 52 47 53 50 54 63 55
REMARK SMILES IDX 81 56 48 57 49 58 62 60 82 61 51 62 36 63 37 64 45 65 38 66
REMARK SMILES IDX 44 67 39 68 40 69 41 70 42 71 43 72 66 73 67 74 75 75 68 76
REMARK SMILES IDX 74 77 69 78 70 79 71 80 72 81 73 82 52 83 53 84 61 85 54 86
REMARK SMILES IDX 60 87 55 88 56 89 57 90 58 91 59 92
REMARK H PARENT 8 23 8 24 80 48 50 59
REMARK Flexibility Score: inf
ROOT
ATOM      1  C   UNL A   1      35.294  21.908  26.122  1.00  0.00     0.202 C 
ENDROOT
BRANCH   1   2
ATOM      2  C   UNL A   1      34.579  20.957  25.157  1.00  0.00     0.261 C 
BRANCH   2   3
ATOM      3  O   UNL A   1      33.158  21.185  25.220  1.00  0.00    -0.463 OA
BRANCH   3   4
ATOM      4  C   UNL A   1      32.554  21.613  24.095  1.00  0.00     0.311 C 
ATOM      5  O   UNL A   1      32.458  20.957  23.064  1.00  0.00    -0.252 OA
BRANCH   4   6
ATOM      6  C   UNL A   1      31.960  23.002  24.226  1.00  0.00     0.123 C 
ATOM      7  N   UNL A   1      32.423  25.237  24.904  1.00  0.00    -0.321 N 
ATOM      8  C   UNL A   1      32.148  24.525  26.125  1.00  0.00     0.122 C 
ATOM      9  C   UNL A   1      32.727  24.287  23.829  1.00  0.00     0.098 C 
ATOM     10  C   UNL A   1      31.487  23.241  25.678  1.00  0.00     0.039 C 
ATOM     11  C   UNL A   1      34.226  24.249  23.526  1.00  0.00     0.032 C 
BRANCH   7  12
ATOM     12  C   UNL A   1      33.000  26.485  25.007  1.00  0.00     0.320 C 
ATOM     13  O   UNL A   1      33.971  26.646  25.747  1.00  0.00    -0.248 OA
BRANCH  12  14
ATOM     14  N   UNL A   1      32.386  27.527  24.340  1.00  0.00    -0.315 N 
BRANCH  14  15
ATOM     15  C   UNL A   1      31.344  27.202  23.358  1.00  0.00     0.125 C 
BRANCH  15  16
ATOM     16  C   UNL A   1      29.915  27.554  23.843  1.00  0.00     0.002 C 
ATOM     17  C   UNL A   1      29.194  28.548  22.926  1.00  0.00     0.009 C 
ATOM     18  C   UNL A   1      29.066  26.284  23.948  1.00  0.00     0.009 C 
ENDBRANCH  15  16
ENDBRANCH  14  15
BRANCH  14  19
ATOM     19  C   UNL A   1      32.718  28.945  24.507  1.00  0.00     0.221 C 
BRANCH  19  20
ATOM     20  C   UNL A   1      31.933  29.597  25.658  1.00  0.00     0.237 C 
ATOM     21  N   UNL A   1      31.348  30.802  25.368  1.00  0.00    -0.368 N 
ATOM     22  O   UNL A   1      31.796  29.105  26.772  1.00  0.00    -0.273 OA
ATOM     23  H   UNL A   1      31.457  31.200  24.473  1.00  0.00     0.159 HD
ATOM     24  H   UNL A   1      30.820  31.271  26.054  1.00  0.00     0.159 HD
ENDBRANCH  19  20
ENDBRANCH  14  19
ENDBRANCH  12  14
ENDBRANCH   7  12
ENDBRANCH   4   6
ENDBRANCH   3   4
ENDBRANCH   2   3
ENDBRANCH   1   2
BRANCH   1  25
ATOM     25  O   UNL A   1      36.656  22.188  25.780  1.00  0.00    -0.374 OA
BRANCH  25  26
ATOM     26  C   UNL A   1      37.311  21.237  24.944  1.00  0.00     0.202 C 
BRANCH  26  27
ATOM     27  C   UNL A   1      38.763  20.904  25.303  1.00  0.00     0.261 C 
BRANCH  27  28
ATOM     28  O   UNL A   1      39.205  21.678  26.428  1.00  0.00    -0.460 OA
BRANCH  28  29
ATOM     29  C   UNL A   1      40.472  22.136  26.320  1.00  0.00     0.338 C 
ATOM     30  O   UNL A   1      41.343  21.706  25.575  1.00  0.00    -0.246 OA
BRANCH  29  31
ATOM     31  C   UNL A   1      40.641  23.376  27.102  1.00  0.00     0.060 A 
ATOM     32  C   UNL A   1      40.036  24.527  26.585  1.00  0.00     0.016 A 
ATOM     33  C   UNL A   1      41.419  23.444  28.261  1.00  0.00     0.016 A 
ATOM     34  C   UNL A   1      40.304  25.768  27.150  1.00  0.00     0.010 A 
ATOM     35  C   UNL A   1      41.682  24.694  28.836  1.00  0.00     0.010 A 
ATOM     36  C   UNL A   1      41.182  25.865  28.236  1.00  0.00    -0.014 A 
BRANCH  36  37
ATOM     37  C   UNL A   1      41.729  27.203  28.576  1.00  0.00     0.031 A 
ATOM     38  C   UNL A   1      43.193  27.469  28.333  1.00  0.00     0.074 A 
ATOM     39  C   UNL A   1      40.918  28.196  28.984  1.00  0.00     0.049 A 
ATOM     40  N   UNL A   1      43.867  28.582  28.464  1.00  0.00    -0.248 NA
ATOM     41  C   UNL A   1      44.008  26.327  27.880  1.00  0.00     0.031 C 
ATOM     42  C   UNL A   1      39.479  28.075  29.209  1.00  0.00     0.029 A 
ATOM     43  N   UNL A   1      41.193  29.512  29.259  1.00  0.00    -0.354 N 
ATOM     44  C   UNL A   1      45.178  28.276  28.114  1.00  0.00     0.074 A 
ATOM     45  C   UNL A   1      45.216  26.863  27.808  1.00  0.00     0.031 C 
ATOM     46  C   UNL A   1      38.993  29.273  29.576  1.00  0.00     0.029 A 
ATOM     47  C   UNL A   1      40.090  30.238  29.637  1.00  0.00     0.049 A 
ATOM     48  H   UNL A   1      42.096  29.899  29.192  1.00  0.00     0.167 HD
ATOM     49  C   UNL A   1      46.253  29.096  28.040  1.00  0.00     0.031 A 
ATOM     50  C   UNL A   1      39.977  31.532  29.995  1.00  0.00     0.031 A 
ATOM     51  C   UNL A   1      46.216  30.499  28.354  1.00  0.00     0.049 A 
ATOM     52  C   UNL A   1      41.200  32.412  29.960  1.00  0.00     0.074 A 
ATOM     53  C   UNL A   1      47.248  31.421  28.303  1.00  0.00     0.029 A 
ATOM     54  N   UNL A   1      45.089  31.186  28.781  1.00  0.00    -0.354 N 
ATOM     55  N   UNL A   1      42.427  32.111  29.608  1.00  0.00    -0.248 NA
ATOM     56  C   UNL A   1      41.014  33.816  30.351  1.00  0.00     0.031 C 
ATOM     57  C   UNL A   1      46.758  32.650  28.758  1.00  0.00     0.029 A 
ATOM     58  C   UNL A   1      45.403  32.513  29.019  1.00  0.00     0.049 A 
ATOM     59  H   UNL A   1      44.196  30.786  28.897  1.00  0.00     0.167 HD
ATOM     60  C   UNL A   1      43.151  33.296  29.698  1.00  0.00     0.074 A 
ATOM     61  C   UNL A   1      42.218  34.321  30.122  1.00  0.00     0.031 C 
ATOM     62  C   UNL A   1      44.466  33.520  29.447  1.00  0.00     0.031 A 
BRANCH  49  63
ATOM     63  C   UNL A   1      47.570  28.483  27.635  1.00  0.00    -0.014 A 
ATOM     64  C   UNL A   1      47.999  28.481  26.294  1.00  0.00     0.010 A 
ATOM     65  C   UNL A   1      48.407  27.924  28.618  1.00  0.00     0.010 A 
ATOM     66  C   UNL A   1      49.219  27.898  25.940  1.00  0.00     0.020 A 
ATOM     67  C   UNL A   1      49.643  27.368  28.273  1.00  0.00     0.020 A 
ATOM     68  C   UNL A   1      50.033  27.344  26.933  1.00  0.00     0.054 A 
BRANCH  68  69
ATOM     69  S   UNL A   1      51.623  26.618  26.450  1.00  0.00     0.124 S 
ATOM     70  O   UNL A   1      52.525  27.762  26.566  1.00  0.00    -0.237 OA
ATOM     71  O   UNL A   1      51.811  25.567  27.447  1.00  0.00    -0.237 OA
ATOM     72  O   UNL A   1      51.390  26.145  25.087  1.00  0.00    -0.744 OA
ENDBRANCH  68  69
ENDBRANCH  49  63
BRANCH  50  73
ATOM     73  C   UNL A   1      38.656  32.076  30.418  1.00  0.00    -0.014 A 
ATOM     74  C   UNL A   1      37.780  32.657  29.485  1.00  0.00     0.010 A 
ATOM     75  C   UNL A   1      38.272  32.019  31.770  1.00  0.00     0.010 A 
ATOM     76  C   UNL A   1      36.556  33.190  29.899  1.00  0.00     0.020 A 
ATOM     77  C   UNL A   1      37.036  32.520  32.183  1.00  0.00     0.020 A 
ATOM     78  C   UNL A   1      36.189  33.115  31.246  1.00  0.00     0.054 A 
BRANCH  78  79
ATOM     79  S   UNL A   1      34.574  33.768  31.753  1.00  0.00     0.124 S 
ATOM     80  O   UNL A   1      34.950  34.963  32.503  1.00  0.00    -0.237 OA
ATOM     81  O   UNL A   1      33.915  34.004  30.471  1.00  0.00    -0.237 OA
ATOM     82  O   UNL A   1      34.002  32.684  32.548  1.00  0.00    -0.744 OA
ENDBRANCH  78  79
ENDBRANCH  50  73
BRANCH  62  83
ATOM     83  C   UNL A   1      44.961  34.940  29.571  1.00  0.00    -0.014 A 
ATOM     84  C   UNL A   1      45.529  35.425  30.763  1.00  0.00     0.010 A 
ATOM     85  C   UNL A   1      44.868  35.801  28.460  1.00  0.00     0.010 A 
ATOM     86  C   UNL A   1      45.933  36.759  30.862  1.00  0.00     0.020 A 
ATOM     87  C   UNL A   1      45.305  37.124  28.544  1.00  0.00     0.020 A 
ATOM     88  C   UNL A   1      45.810  37.603  29.753  1.00  0.00     0.054 A 
BRANCH  88  89
ATOM     89  S   UNL A   1      46.335  39.333  29.907  1.00  0.00     0.124 S 
ATOM     90  O   UNL A   1      45.081  40.049  29.692  1.00  0.00    -0.237 OA
ATOM     91  O   UNL A   1      46.865  39.388  31.267  1.00  0.00    -0.237 OA
ATOM     92  O   UNL A   1      47.331  39.488  28.850  1.00  0.00    -0.744 OA
ENDBRANCH  88  89
ENDBRANCH  62  83
ENDBRANCH  36  37
ENDBRANCH  29  31
ENDBRANCH  28  29
ENDBRANCH  27  28
ENDBRANCH  26  27
ENDBRANCH  25  26
ENDBRANCH   1  25
TORSDOF 23
ENDMDL
