MODEL 1
REMARK VINA RESULT:      -9.8      0.000      0.000
REMARK SMILES CC[C@@](C)([NH2+]CC(=O)N[C@]1(C)CCS(=O)(=O)C1)C(=O)OCCOCCOC(=O)c1ccc(-c2c3nc(c(-c4ccc(S(=O)(=O)[O-])cc4)c4ccc([nH]4)c(-c4ccc(S(=O)(=O)[O-])cc4)c4nc(c(-c5ccc(S(=O)(=O)[O-])cc5)c5ccc2[nH]5)C=C4)C=C3)cc1
REMARK SMILES IDX 22 1 21 2 20 3 18 4 19 5 3 6 4 7 2 8 1 9 5 10 6 13 7 14 8 15
REMARK SMILES IDX 9 16 10 18 12 19 17 20 11 21 13 22 14 23 15 24 16 25 23 26
REMARK SMILES IDX 24 27 25 28 26 29 27 30 28 31 29 32 30 33 88 34 31 35 87 36
REMARK SMILES IDX 32 37 33 38 34 39 81 40 35 41 86 42 80 43 82 44 36 45 85 46
REMARK SMILES IDX 79 47 78 48 37 50 67 51 48 52 66 53 49 54 52 55 65 56 83 57
REMARK SMILES IDX 50 58 51 59 64 61 84 62 53 63 38 64 39 65 47 66 40 67 46 68
REMARK SMILES IDX 41 69 42 70 43 71 44 72 45 73 68 74 69 75 77 76 70 77 76 78
REMARK SMILES IDX 71 79 72 80 73 81 74 82 75 83 54 84 55 85 63 86 56 87 62 88
REMARK SMILES IDX 57 89 58 90 59 91 60 92 61 93
REMARK H PARENT 5 11 5 12 9 17 82 49 52 60
REMARK Flexibility Score: inf
ROOT
ATOM      1  C   UNL A   1      37.063  23.369  25.523  1.00  0.00     0.202 C 
ENDROOT
BRANCH   1   2
ATOM      2  C   UNL A   1      36.173  22.176  25.884  1.00  0.00     0.261 C 
BRANCH   2   3
ATOM      3  O   UNL A   1      34.770  22.463  25.759  1.00  0.00    -0.459 OA
BRANCH   3   4
ATOM      4  C   UNL A   1      33.871  21.611  26.342  1.00  0.00     0.367 C 
ATOM      5  O   UNL A   1      33.947  21.263  27.514  1.00  0.00    -0.245 OA
BRANCH   4   6
ATOM      6  C   UNL A   1      32.770  21.107  25.331  1.00  0.00     0.191 C 
ATOM      7  C   UNL A   1      32.927  21.431  23.828  1.00  0.00     0.092 C 
BRANCH   6   8
ATOM      8  C   UNL A   1      32.850  19.549  25.428  1.00  0.00     0.077 C 
ATOM      9  C   UNL A   1      33.988  18.927  24.585  1.00  0.00     0.011 C 
ENDBRANCH   6   8
BRANCH   6  10
ATOM     10  N   UNL A   1      31.420  21.637  25.719  1.00  0.00    -0.325 N 
ATOM     11  H   UNL A   1      31.404  21.720  26.736  1.00  0.00     0.347 HD
ATOM     12  H   UNL A   1      30.753  20.971  25.329  1.00  0.00     0.347 HD
BRANCH  10  13
ATOM     13  C   UNL A   1      31.018  22.966  25.150  1.00  0.00     0.362 C 
BRANCH  13  14
ATOM     14  C   UNL A   1      31.280  24.181  26.046  1.00  0.00     0.275 C 
ATOM     15  O   UNL A   1      31.041  24.111  27.258  1.00  0.00    -0.268 OA
ATOM     16  N   UNL A   1      31.751  25.388  25.595  1.00  0.00    -0.345 N 
ATOM     17  H   UNL A   1      31.883  26.016  26.342  1.00  0.00     0.164 HD
BRANCH  16  18
ATOM     18  C   UNL A   1      32.120  26.023  24.285  1.00  0.00     0.052 C 
ATOM     19  C   UNL A   1      32.271  27.555  24.501  1.00  0.00     0.045 C 
ATOM     20  C   UNL A   1      31.040  25.914  23.207  1.00  0.00     0.165 C 
ATOM     21  C   UNL A   1      33.437  25.442  23.761  1.00  0.00     0.036 C 
ATOM     22  C   UNL A   1      30.865  28.143  24.572  1.00  0.00     0.139 C 
ATOM     23  S   UNL A   1      30.020  27.371  23.222  1.00  0.00     0.152 S 
ATOM     24  O   UNL A   1      30.271  28.130  22.025  1.00  0.00    -0.229 OA
ATOM     25  O   UNL A   1      28.670  27.043  23.658  1.00  0.00    -0.229 OA
ENDBRANCH  16  18
ENDBRANCH  13  14
ENDBRANCH  10  13
ENDBRANCH   6  10
ENDBRANCH   4   6
ENDBRANCH   3   4
ENDBRANCH   2   3
ENDBRANCH   1   2
BRANCH   1  26
ATOM     26  O   UNL A   1      38.324  23.493  26.169  1.00  0.00    -0.374 OA
BRANCH  26  27
ATOM     27  C   UNL A   1      39.140  22.335  26.280  1.00  0.00     0.202 C 
BRANCH  27  28
ATOM     28  C   UNL A   1      40.626  22.475  26.669  1.00  0.00     0.261 C 
BRANCH  28  29
ATOM     29  O   UNL A   1      40.944  23.469  27.654  1.00  0.00    -0.460 OA
BRANCH  29  30
ATOM     30  C   UNL A   1      41.546  24.574  27.148  1.00  0.00     0.338 C 
ATOM     31  O   UNL A   1      42.240  24.639  26.146  1.00  0.00    -0.246 OA
BRANCH  30  32
ATOM     32  C   UNL A   1      41.178  25.774  27.920  1.00  0.00     0.060 A 
ATOM     33  C   UNL A   1      42.156  26.757  28.106  1.00  0.00     0.016 A 
ATOM     34  C   UNL A   1      39.961  25.846  28.603  1.00  0.00     0.016 A 
ATOM     35  C   UNL A   1      41.946  27.783  29.026  1.00  0.00     0.010 A 
ATOM     36  C   UNL A   1      39.755  26.875  29.531  1.00  0.00     0.010 A 
ATOM     37  C   UNL A   1      40.766  27.821  29.781  1.00  0.00    -0.014 A 
BRANCH  37  38
ATOM     38  C   UNL A   1      40.677  28.743  30.943  1.00  0.00     0.031 A 
ATOM     39  C   UNL A   1      39.652  29.848  30.926  1.00  0.00     0.074 A 
ATOM     40  C   UNL A   1      41.454  28.566  32.027  1.00  0.00     0.049 A 
ATOM     41  N   UNL A   1      39.392  30.751  31.837  1.00  0.00    -0.248 NA
ATOM     42  C   UNL A   1      38.805  29.945  29.726  1.00  0.00     0.031 C 
ATOM     43  C   UNL A   1      42.449  27.506  32.191  1.00  0.00     0.029 A 
ATOM     44  N   UNL A   1      41.519  29.274  33.202  1.00  0.00    -0.354 N 
ATOM     45  C   UNL A   1      38.353  31.520  31.324  1.00  0.00     0.074 A 
ATOM     46  C   UNL A   1      38.055  31.001  30.006  1.00  0.00     0.031 C 
ATOM     47  C   UNL A   1      43.030  27.638  33.397  1.00  0.00     0.029 A 
ATOM     48  C   UNL A   1      42.468  28.804  34.078  1.00  0.00     0.049 A 
ATOM     49  H   UNL A   1      40.941  30.045  33.398  1.00  0.00     0.167 HD
ATOM     50  C   UNL A   1      37.695  32.557  31.899  1.00  0.00     0.031 A 
ATOM     51  C   UNL A   1      42.853  29.268  35.284  1.00  0.00     0.031 A 
ATOM     52  C   UNL A   1      38.001  33.087  33.200  1.00  0.00     0.049 A 
ATOM     53  C   UNL A   1      42.163  30.474  35.867  1.00  0.00     0.074 A 
ATOM     54  C   UNL A   1      37.393  34.138  33.867  1.00  0.00     0.029 A 
ATOM     55  N   UNL A   1      39.000  32.611  34.035  1.00  0.00    -0.354 N 
ATOM     56  N   UNL A   1      41.174  31.179  35.373  1.00  0.00    -0.248 NA
ATOM     57  C   UNL A   1      42.638  30.939  37.179  1.00  0.00     0.031 C 
ATOM     58  C   UNL A   1      38.060  34.330  35.082  1.00  0.00     0.029 A 
ATOM     59  C   UNL A   1      39.042  33.360  35.198  1.00  0.00     0.049 A 
ATOM     60  H   UNL A   1      39.593  31.852  33.829  1.00  0.00     0.167 HD
ATOM     61  C   UNL A   1      40.890  32.152  36.326  1.00  0.00     0.074 A 
ATOM     62  C   UNL A   1      41.801  31.936  37.431  1.00  0.00     0.031 C 
ATOM     63  C   UNL A   1      39.955  33.136  36.291  1.00  0.00     0.031 A 
BRANCH  50  64
ATOM     64  C   UNL A   1      36.592  33.205  31.104  1.00  0.00    -0.014 A 
ATOM     65  C   UNL A   1      35.241  33.024  31.456  1.00  0.00     0.010 A 
ATOM     66  C   UNL A   1      36.909  34.038  30.015  1.00  0.00     0.010 A 
ATOM     67  C   UNL A   1      34.228  33.633  30.710  1.00  0.00     0.020 A 
ATOM     68  C   UNL A   1      35.900  34.670  29.283  1.00  0.00     0.020 A 
ATOM     69  C   UNL A   1      34.564  34.450  29.626  1.00  0.00     0.054 A 
BRANCH  69  70
ATOM     70  S   UNL A   1      33.230  35.244  28.687  1.00  0.00     0.124 S 
ATOM     71  O   UNL A   1      32.423  35.835  29.751  1.00  0.00    -0.237 OA
ATOM     72  O   UNL A   1      33.952  36.195  27.846  1.00  0.00    -0.237 OA
ATOM     73  O   UNL A   1      32.602  34.136  27.972  1.00  0.00    -0.744 OA
ENDBRANCH  69  70
ENDBRANCH  50  64
BRANCH  51  74
ATOM     74  C   UNL A   1      43.966  28.603  36.016  1.00  0.00    -0.014 A 
ATOM     75  C   UNL A   1      45.290  29.055  35.882  1.00  0.00     0.010 A 
ATOM     76  C   UNL A   1      43.701  27.496  36.844  1.00  0.00     0.010 A 
ATOM     77  C   UNL A   1      46.331  28.400  36.548  1.00  0.00     0.020 A 
ATOM     78  C   UNL A   1      44.735  26.858  37.532  1.00  0.00     0.020 A 
ATOM     79  C   UNL A   1      46.047  27.306  37.370  1.00  0.00     0.054 A 
BRANCH  79  80
ATOM     80  S   UNL A   1      47.404  26.500  38.262  1.00  0.00     0.124 S 
ATOM     81  O   UNL A   1      48.433  26.407  37.232  1.00  0.00    -0.237 OA
ATOM     82  O   UNL A   1      47.673  27.443  39.346  1.00  0.00    -0.237 OA
ATOM     83  O   UNL A   1      46.823  25.228  38.688  1.00  0.00    -0.744 OA
ENDBRANCH  79  80
ENDBRANCH  51  74
BRANCH  63  84
ATOM     84  C   UNL A   1      39.843  34.031  37.498  1.00  0.00    -0.014 A 
ATOM     85  C   UNL A   1      39.071  33.662  38.614  1.00  0.00     0.010 A 
ATOM     86  C   UNL A   1      40.559  35.242  37.531  1.00  0.00     0.010 A 
ATOM     87  C   UNL A   1      38.987  34.506  39.725  1.00  0.00     0.020 A 
ATOM     88  C   UNL A   1      40.500  36.075  38.652  1.00  0.00     0.020 A 
ATOM     89  C   UNL A   1      39.700  35.709  39.735  1.00  0.00     0.054 A 
BRANCH  89  90
ATOM     90  S   UNL A   1      39.599  36.772  41.202  1.00  0.00     0.124 S 
ATOM     91  O   UNL A   1      38.753  35.983  42.091  1.00  0.00    -0.237 OA
ATOM     92  O   UNL A   1      40.997  36.894  41.608  1.00  0.00    -0.237 OA
ATOM     93  O   UNL A   1      38.995  38.003  40.696  1.00  0.00    -0.744 OA
ENDBRANCH  89  90
ENDBRANCH  63  84
ENDBRANCH  37  38
ENDBRANCH  30  32
ENDBRANCH  29  30
ENDBRANCH  28  29
ENDBRANCH  27  28
ENDBRANCH  26  27
ENDBRANCH   1  26
TORSDOF 22
ENDMDL
MODEL 2
REMARK VINA RESULT:      -9.7      1.137      8.190
REMARK SMILES CC[C@@](C)([NH2+]CC(=O)N[C@]1(C)CCS(=O)(=O)C1)C(=O)OCCOCCOC(=O)c1ccc(-c2c3nc(c(-c4ccc(S(=O)(=O)[O-])cc4)c4ccc([nH]4)c(-c4ccc(S(=O)(=O)[O-])cc4)c4nc(c(-c5ccc(S(=O)(=O)[O-])cc5)c5ccc2[nH]5)C=C4)C=C3)cc1
REMARK SMILES IDX 22 1 21 2 20 3 18 4 19 5 3 6 4 7 2 8 1 9 5 10 6 13 7 14 8 15
REMARK SMILES IDX 9 16 10 18 12 19 17 20 11 21 13 22 14 23 15 24 16 25 23 26
REMARK SMILES IDX 24 27 25 28 26 29 27 30 28 31 29 32 30 33 88 34 31 35 87 36
REMARK SMILES IDX 32 37 33 38 34 39 81 40 35 41 86 42 80 43 82 44 36 45 85 46
REMARK SMILES IDX 79 47 78 48 37 50 67 51 48 52 66 53 49 54 52 55 65 56 83 57
REMARK SMILES IDX 50 58 51 59 64 61 84 62 53 63 38 64 39 65 47 66 40 67 46 68
REMARK SMILES IDX 41 69 42 70 43 71 44 72 45 73 68 74 69 75 77 76 70 77 76 78
REMARK SMILES IDX 71 79 72 80 73 81 74 82 75 83 54 84 55 85 63 86 56 87 62 88
REMARK SMILES IDX 57 89 58 90 59 91 60 92 61 93
REMARK H PARENT 5 11 5 12 9 17 82 49 52 60
REMARK Flexibility Score: inf
ROOT
ATOM      1  C   UNL A   1      36.560  23.729  25.344  1.00  0.00     0.202 C 
ENDROOT
BRANCH   1   2
ATOM      2  C   UNL A   1      35.390  23.241  26.203  1.00  0.00     0.261 C 
BRANCH   2   3
ATOM      3  O   UNL A   1      35.149  21.830  26.075  1.00  0.00    -0.459 OA
BRANCH   3   4
ATOM      4  C   UNL A   1      33.946  21.329  26.495  1.00  0.00     0.367 C 
ATOM      5  O   UNL A   1      33.674  21.153  27.677  1.00  0.00    -0.245 OA
BRANCH   4   6
ATOM      6  C   UNL A   1      32.985  20.973  25.296  1.00  0.00     0.191 C 
ATOM      7  C   UNL A   1      33.354  21.450  23.873  1.00  0.00     0.092 C 
BRANCH   6   8
ATOM      8  C   UNL A   1      33.021  19.412  25.230  1.00  0.00     0.077 C 
ATOM      9  C   UNL A   1      32.623  18.834  23.852  1.00  0.00     0.011 C 
ENDBRANCH   6   8
BRANCH   6  10
ATOM     10  N   UNL A   1      31.605  21.505  25.554  1.00  0.00    -0.325 N 
ATOM     11  H   UNL A   1      31.393  21.341  26.538  1.00  0.00     0.347 HD
ATOM     12  H   UNL A   1      31.005  21.011  24.894  1.00  0.00     0.347 HD
BRANCH  10  13
ATOM     13  C   UNL A   1      31.371  22.961  25.278  1.00  0.00     0.362 C 
BRANCH  13  14
ATOM     14  C   UNL A   1      31.295  23.869  26.510  1.00  0.00     0.275 C 
ATOM     15  O   UNL A   1      31.230  23.366  27.638  1.00  0.00    -0.268 OA
ATOM     16  N   UNL A   1      31.268  25.240  26.460  1.00  0.00    -0.345 N 
ATOM     17  H   UNL A   1      31.258  25.625  27.366  1.00  0.00     0.164 HD
BRANCH  16  18
ATOM     18  C   UNL A   1      31.250  26.319  25.416  1.00  0.00     0.052 C 
ATOM     19  C   UNL A   1      32.467  26.117  24.471  1.00  0.00     0.045 C 
ATOM     20  C   UNL A   1      31.452  27.732  25.969  1.00  0.00     0.165 C 
ATOM     21  C   UNL A   1      29.951  26.259  24.607  1.00  0.00     0.036 C 
ATOM     22  C   UNL A   1      33.702  26.628  25.207  1.00  0.00     0.139 C 
ATOM     23  S   UNL A   1      33.173  28.173  25.888  1.00  0.00     0.152 S 
ATOM     24  O   UNL A   1      33.347  29.200  24.895  1.00  0.00    -0.229 OA
ATOM     25  O   UNL A   1      33.730  28.295  27.229  1.00  0.00    -0.229 OA
ENDBRANCH  16  18
ENDBRANCH  13  14
ENDBRANCH  10  13
ENDBRANCH   6  10
ENDBRANCH   4   6
ENDBRANCH   3   4
ENDBRANCH   2   3
ENDBRANCH   1   2
BRANCH   1  26
ATOM     26  O   UNL A   1      37.879  23.612  25.865  1.00  0.00    -0.374 OA
BRANCH  26  27
ATOM     27  C   UNL A   1      38.544  22.362  25.735  1.00  0.00     0.202 C 
BRANCH  27  28
ATOM     28  C   UNL A   1      39.797  22.066  26.583  1.00  0.00     0.261 C 
BRANCH  28  29
ATOM     29  O   UNL A   1      40.116  23.011  27.615  1.00  0.00    -0.460 OA
BRANCH  29  30
ATOM     30  C   UNL A   1      41.059  23.919  27.259  1.00  0.00     0.338 C 
ATOM     31  O   UNL A   1      41.960  23.764  26.451  1.00  0.00    -0.246 OA
BRANCH  30  32
ATOM     32  C   UNL A   1      40.812  25.216  27.913  1.00  0.00     0.060 A 
ATOM     33  C   UNL A   1      41.921  26.011  28.227  1.00  0.00     0.016 A 
ATOM     34  C   UNL A   1      39.539  25.560  28.375  1.00  0.00     0.016 A 
ATOM     35  C   UNL A   1      41.770  27.119  29.059  1.00  0.00     0.010 A 
ATOM     36  C   UNL A   1      39.392  26.671  29.216  1.00  0.00     0.010 A 
ATOM     37  C   UNL A   1      40.515  27.427  29.601  1.00  0.00    -0.014 A 
BRANCH  37  38
ATOM     38  C   UNL A   1      40.422  28.427  30.696  1.00  0.00     0.031 A 
ATOM     39  C   UNL A   1      41.346  28.305  31.882  1.00  0.00     0.074 A 
ATOM     40  C   UNL A   1      39.571  29.466  30.613  1.00  0.00     0.049 A 
ATOM     41  N   UNL A   1      41.446  29.074  32.935  1.00  0.00    -0.248 NA
ATOM     42  C   UNL A   1      42.283  27.171  31.874  1.00  0.00     0.031 C 
ATOM     43  C   UNL A   1      38.660  29.726  29.499  1.00  0.00     0.029 A 
ATOM     44  N   UNL A   1      39.342  30.501  31.484  1.00  0.00    -0.354 N 
ATOM     45  C   UNL A   1      42.456  28.520  33.715  1.00  0.00     0.074 A 
ATOM     46  C   UNL A   1      42.912  27.330  33.030  1.00  0.00     0.031 C 
ATOM     47  C   UNL A   1      37.966  30.849  29.757  1.00  0.00     0.029 A 
ATOM     48  C   UNL A   1      38.364  31.370  31.064  1.00  0.00     0.049 A 
ATOM     49  H   UNL A   1      39.832  30.612  32.330  1.00  0.00     0.167 HD
ATOM     50  C   UNL A   1      42.969  28.966  34.888  1.00  0.00     0.031 A 
ATOM     51  C   UNL A   1      37.836  32.454  31.669  1.00  0.00     0.031 A 
ATOM     52  C   UNL A   1      42.506  30.138  35.581  1.00  0.00     0.049 A 
ATOM     53  C   UNL A   1      38.365  32.882  33.013  1.00  0.00     0.074 A 
ATOM     54  C   UNL A   1      42.960  30.668  36.778  1.00  0.00     0.029 A 
ATOM     55  N   UNL A   1      41.481  30.963  35.143  1.00  0.00    -0.354 N 
ATOM     56  N   UNL A   1      39.330  32.354  33.727  1.00  0.00    -0.248 NA
ATOM     57  C   UNL A   1      37.739  34.063  33.627  1.00  0.00     0.031 C 
ATOM     58  C   UNL A   1      42.175  31.784  37.088  1.00  0.00     0.029 A 
ATOM     59  C   UNL A   1      41.273  31.984  36.055  1.00  0.00     0.049 A 
ATOM     60  H   UNL A   1      40.977  30.841  34.306  1.00  0.00     0.167 HD
ATOM     61  C   UNL A   1      39.445  33.155  34.860  1.00  0.00     0.074 A 
ATOM     62  C   UNL A   1      38.462  34.210  34.729  1.00  0.00     0.031 C 
ATOM     63  C   UNL A   1      40.291  33.029  35.914  1.00  0.00     0.031 A 
BRANCH  50  64
ATOM     64  C   UNL A   1      44.078  28.160  35.511  1.00  0.00    -0.014 A 
ATOM     65  C   UNL A   1      43.799  27.030  36.302  1.00  0.00     0.010 A 
ATOM     66  C   UNL A   1      45.419  28.512  35.272  1.00  0.00     0.010 A 
ATOM     67  C   UNL A   1      44.840  26.291  36.872  1.00  0.00     0.020 A 
ATOM     68  C   UNL A   1      46.463  27.761  35.819  1.00  0.00     0.020 A 
ATOM     69  C   UNL A   1      46.166  26.663  36.629  1.00  0.00     0.054 A 
BRANCH  69  70
ATOM     70  S   UNL A   1      47.497  25.675  37.366  1.00  0.00     0.124 S 
ATOM     71  O   UNL A   1      47.215  24.345  36.833  1.00  0.00    -0.237 OA
ATOM     72  O   UNL A   1      48.700  26.318  36.845  1.00  0.00    -0.237 OA
ATOM     73  O   UNL A   1      47.286  25.826  38.804  1.00  0.00    -0.744 OA
ENDBRANCH  69  70
ENDBRANCH  50  64
BRANCH  51  74
ATOM     74  C   UNL A   1      36.724  33.201  31.019  1.00  0.00    -0.014 A 
ATOM     75  C   UNL A   1      36.973  34.081  29.952  1.00  0.00     0.010 A 
ATOM     76  C   UNL A   1      35.405  33.044  31.483  1.00  0.00     0.010 A 
ATOM     77  C   UNL A   1      35.926  34.804  29.372  1.00  0.00     0.020 A 
ATOM     78  C   UNL A   1      34.353  33.743  30.888  1.00  0.00     0.020 A 
ATOM     79  C   UNL A   1      34.621  34.629  29.844  1.00  0.00     0.054 A 
BRANCH  79  80
ATOM     80  S   UNL A   1      33.269  35.539  29.049  1.00  0.00     0.124 S 
ATOM     81  O   UNL A   1      33.987  36.385  28.101  1.00  0.00    -0.237 OA
ATOM     82  O   UNL A   1      32.468  34.466  28.463  1.00  0.00    -0.237 OA
ATOM     83  O   UNL A   1      32.631  36.241  30.160  1.00  0.00    -0.744 OA
ENDBRANCH  79  80
ENDBRANCH  51  74
BRANCH  63  84
ATOM     84  C   UNL A   1      40.218  34.079  36.992  1.00  0.00    -0.014 A 
ATOM     85  C   UNL A   1      40.914  35.296  36.876  1.00  0.00     0.010 A 
ATOM     86  C   UNL A   1      39.405  33.861  38.119  1.00  0.00     0.010 A 
ATOM     87  C   UNL A   1      40.827  36.258  37.885  1.00  0.00     0.020 A 
ATOM     88  C   UNL A   1      39.293  34.832  39.117  1.00  0.00     0.020 A 
ATOM     89  C   UNL A   1      40.020  36.019  39.002  1.00  0.00     0.054 A 
BRANCH  89  90
ATOM     90  S   UNL A   1      39.900  37.297  40.284  1.00  0.00     0.124 S 
ATOM     91  O   UNL A   1      40.361  38.485  39.573  1.00  0.00    -0.237 OA
ATOM     92  O   UNL A   1      38.479  37.278  40.624  1.00  0.00    -0.237 OA
ATOM     93  O   UNL A   1      40.791  36.815  41.337  1.00  0.00    -0.744 OA
ENDBRANCH  89  90
ENDBRANCH  63  84
ENDBRANCH  37  38
ENDBRANCH  30  32
ENDBRANCH  29  30
ENDBRANCH  28  29
ENDBRANCH  27  28
ENDBRANCH  26  27
ENDBRANCH   1  26
TORSDOF 22
ENDMDL
MODEL 3
REMARK VINA RESULT:      -9.3      6.855     12.341
REMARK SMILES CC[C@@](C)([NH2+]CC(=O)N[C@]1(C)CCS(=O)(=O)C1)C(=O)OCCOCCOC(=O)c1ccc(-c2c3nc(c(-c4ccc(S(=O)(=O)[O-])cc4)c4ccc([nH]4)c(-c4ccc(S(=O)(=O)[O-])cc4)c4nc(c(-c5ccc(S(=O)(=O)[O-])cc5)c5ccc2[nH]5)C=C4)C=C3)cc1
REMARK SMILES IDX 22 1 21 2 20 3 18 4 19 5 3 6 4 7 2 8 1 9 5 10 6 13 7 14 8 15
REMARK SMILES IDX 9 16 10 18 12 19 17 20 11 21 13 22 14 23 15 24 16 25 23 26
REMARK SMILES IDX 24 27 25 28 26 29 27 30 28 31 29 32 30 33 88 34 31 35 87 36
REMARK SMILES IDX 32 37 33 38 34 39 81 40 35 41 86 42 80 43 82 44 36 45 85 46
REMARK SMILES IDX 79 47 78 48 37 50 67 51 48 52 66 53 49 54 52 55 65 56 83 57
REMARK SMILES IDX 50 58 51 59 64 61 84 62 53 63 38 64 39 65 47 66 40 67 46 68
REMARK SMILES IDX 41 69 42 70 43 71 44 72 45 73 68 74 69 75 77 76 70 77 76 78
REMARK SMILES IDX 71 79 72 80 73 81 74 82 75 83 54 84 55 85 63 86 56 87 62 88
REMARK SMILES IDX 57 89 58 90 59 91 60 92 61 93
REMARK H PARENT 5 11 5 12 9 17 82 49 52 60
REMARK Flexibility Score: inf
ROOT
ATOM      1  C   UNL A   1      33.144  30.091  27.295  1.00  0.00     0.202 C 
ENDROOT
BRANCH   1   2
ATOM      2  C   UNL A   1      31.826  29.933  26.532  1.00  0.00     0.261 C 
BRANCH   2   3
ATOM      3  O   UNL A   1      31.645  28.614  25.990  1.00  0.00    -0.459 OA
BRANCH   3   4
ATOM      4  C   UNL A   1      32.145  28.341  24.745  1.00  0.00     0.367 C 
ATOM      5  O   UNL A   1      33.182  28.838  24.320  1.00  0.00    -0.245 OA
BRANCH   4   6
ATOM      6  C   UNL A   1      31.223  27.361  23.921  1.00  0.00     0.191 C 
ATOM      7  C   UNL A   1      29.732  27.233  24.309  1.00  0.00     0.092 C 
BRANCH   6   8
ATOM      8  C   UNL A   1      31.224  27.962  22.479  1.00  0.00     0.077 C 
ATOM      9  C   UNL A   1      30.167  29.070  22.261  1.00  0.00     0.011 C 
ENDBRANCH   6   8
BRANCH   6  10
ATOM     10  N   UNL A   1      31.773  25.965  23.963  1.00  0.00    -0.325 N 
ATOM     11  H   UNL A   1      32.419  25.867  23.180  1.00  0.00     0.347 HD
ATOM     12  H   UNL A   1      30.953  25.358  23.926  1.00  0.00     0.347 HD
BRANCH  10  13
ATOM     13  C   UNL A   1      32.504  25.555  25.207  1.00  0.00     0.362 C 
BRANCH  13  14
ATOM     14  C   UNL A   1      31.874  24.407  26.002  1.00  0.00     0.275 C 
ATOM     15  O   UNL A   1      30.760  24.559  26.519  1.00  0.00    -0.268 OA
ATOM     16  N   UNL A   1      32.474  23.191  26.215  1.00  0.00    -0.345 N 
ATOM     17  H   UNL A   1      31.880  22.588  26.717  1.00  0.00     0.164 HD
BRANCH  16  18
ATOM     18  C   UNL A   1      33.781  22.522  25.900  1.00  0.00     0.052 C 
ATOM     19  C   UNL A   1      33.920  22.405  24.356  1.00  0.00     0.045 C 
ATOM     20  C   UNL A   1      33.877  21.073  26.383  1.00  0.00     0.165 C 
ATOM     21  C   UNL A   1      34.950  23.335  26.464  1.00  0.00     0.036 C 
ATOM     22  C   UNL A   1      33.034  21.246  23.909  1.00  0.00     0.139 C 
ATOM     23  S   UNL A   1      33.399  19.966  25.075  1.00  0.00     0.152 S 
ATOM     24  O   UNL A   1      34.560  19.246  24.623  1.00  0.00    -0.229 OA
ATOM     25  O   UNL A   1      32.154  19.288  25.412  1.00  0.00    -0.229 OA
ENDBRANCH  16  18
ENDBRANCH  13  14
ENDBRANCH  10  13
ENDBRANCH   6  10
ENDBRANCH   4   6
ENDBRANCH   3   4
ENDBRANCH   2   3
ENDBRANCH   1   2
BRANCH   1  26
ATOM     26  O   UNL A   1      33.880  31.297  27.133  1.00  0.00    -0.374 OA
BRANCH  26  27
ATOM     27  C   UNL A   1      35.187  31.367  27.688  1.00  0.00     0.202 C 
BRANCH  27  28
ATOM     28  C   UNL A   1      35.521  30.584  28.973  1.00  0.00     0.261 C 
BRANCH  28  29
ATOM     29  O   UNL A   1      36.224  29.343  28.809  1.00  0.00    -0.460 OA
BRANCH  29  30
ATOM     30  C   UNL A   1      37.139  29.095  29.778  1.00  0.00     0.338 C 
ATOM     31  O   UNL A   1      36.954  29.109  30.984  1.00  0.00    -0.246 OA
BRANCH  30  32
ATOM     32  C   UNL A   1      38.429  28.688  29.192  1.00  0.00     0.060 A 
ATOM     33  C   UNL A   1      39.334  28.007  30.014  1.00  0.00     0.016 A 
ATOM     34  C   UNL A   1      38.816  29.130  27.924  1.00  0.00     0.016 A 
ATOM     35  C   UNL A   1      40.651  27.820  29.595  1.00  0.00     0.010 A 
ATOM     36  C   UNL A   1      40.141  28.946  27.509  1.00  0.00     0.010 A 
ATOM     37  C   UNL A   1      41.077  28.333  28.363  1.00  0.00    -0.014 A 
BRANCH  37  38
ATOM     38  C   UNL A   1      42.530  28.376  28.057  1.00  0.00     0.031 A 
ATOM     39  C   UNL A   1      43.191  27.158  27.461  1.00  0.00     0.074 A 
ATOM     40  C   UNL A   1      43.244  29.500  28.247  1.00  0.00     0.049 A 
ATOM     41  N   UNL A   1      44.437  26.984  27.103  1.00  0.00    -0.248 NA
ATOM     42  C   UNL A   1      42.332  25.985  27.235  1.00  0.00     0.031 C 
ATOM     43  C   UNL A   1      42.714  30.759  28.770  1.00  0.00     0.029 A 
ATOM     44  N   UNL A   1      44.571  29.763  28.015  1.00  0.00    -0.354 N 
ATOM     45  C   UNL A   1      44.513  25.686  26.608  1.00  0.00     0.074 A 
ATOM     46  C   UNL A   1      43.194  25.106  26.746  1.00  0.00     0.031 C 
ATOM     47  C   UNL A   1      43.711  31.662  28.822  1.00  0.00     0.029 A 
ATOM     48  C   UNL A   1      44.951  31.037  28.364  1.00  0.00     0.049 A 
ATOM     49  H   UNL A   1      45.192  29.101  27.634  1.00  0.00     0.167 HD
ATOM     50  C   UNL A   1      45.577  25.038  26.075  1.00  0.00     0.031 A 
ATOM     51  C   UNL A   1      46.162  31.629  28.332  1.00  0.00     0.031 A 
ATOM     52  C   UNL A   1      46.893  25.606  25.953  1.00  0.00     0.049 A 
ATOM     53  C   UNL A   1      47.349  30.860  27.813  1.00  0.00     0.074 A 
ATOM     54  C   UNL A   1      48.037  25.026  25.430  1.00  0.00     0.029 A 
ATOM     55  N   UNL A   1      47.245  26.883  26.361  1.00  0.00    -0.354 N 
ATOM     56  N   UNL A   1      47.397  29.639  27.336  1.00  0.00    -0.248 NA
ATOM     57  C   UNL A   1      48.644  31.556  27.818  1.00  0.00     0.031 C 
ATOM     58  C   UNL A   1      49.092  25.935  25.569  1.00  0.00     0.029 A 
ATOM     59  C   UNL A   1      48.591  27.102  26.123  1.00  0.00     0.049 A 
ATOM     60  H   UNL A   1      46.628  27.538  26.761  1.00  0.00     0.167 HD
ATOM     61  C   UNL A   1      48.721  29.432  26.958  1.00  0.00     0.074 A 
ATOM     62  C   UNL A   1      49.435  30.658  27.248  1.00  0.00     0.031 C 
ATOM     63  C   UNL A   1      49.292  28.327  26.417  1.00  0.00     0.031 A 
BRANCH  50  64
ATOM     64  C   UNL A   1      45.364  23.623  25.605  1.00  0.00    -0.014 A 
ATOM     65  C   UNL A   1      45.114  23.337  24.250  1.00  0.00     0.010 A 
ATOM     66  C   UNL A   1      45.452  22.560  26.523  1.00  0.00     0.010 A 
ATOM     67  C   UNL A   1      44.920  22.018  23.830  1.00  0.00     0.020 A 
ATOM     68  C   UNL A   1      45.285  21.238  26.102  1.00  0.00     0.020 A 
ATOM     69  C   UNL A   1      45.003  20.977  24.759  1.00  0.00     0.054 A 
BRANCH  69  70
ATOM     70  S   UNL A   1      44.766  19.273  24.182  1.00  0.00     0.124 S 
ATOM     71  O   UNL A   1      43.615  18.845  24.971  1.00  0.00    -0.237 OA
ATOM     72  O   UNL A   1      44.518  19.450  22.754  1.00  0.00    -0.237 OA
ATOM     73  O   UNL A   1      46.028  18.615  24.515  1.00  0.00    -0.744 OA
ENDBRANCH  69  70
ENDBRANCH  50  64
BRANCH  51  74
ATOM     74  C   UNL A   1      46.321  33.023  28.830  1.00  0.00    -0.014 A 
ATOM     75  C   UNL A   1      46.714  33.276  30.155  1.00  0.00     0.010 A 
ATOM     76  C   UNL A   1      46.061  34.110  27.975  1.00  0.00     0.010 A 
ATOM     77  C   UNL A   1      46.827  34.589  30.622  1.00  0.00     0.020 A 
ATOM     78  C   UNL A   1      46.200  35.423  28.430  1.00  0.00     0.020 A 
ATOM     79  C   UNL A   1      46.569  35.655  29.755  1.00  0.00     0.054 A 
BRANCH  79  80
ATOM     80  S   UNL A   1      46.767  37.352  30.364  1.00  0.00     0.124 S 
ATOM     81  O   UNL A   1      46.450  38.140  29.178  1.00  0.00    -0.237 OA
ATOM     82  O   UNL A   1      45.789  37.413  31.449  1.00  0.00    -0.237 OA
ATOM     83  O   UNL A   1      48.162  37.398  30.796  1.00  0.00    -0.744 OA
ENDBRANCH  79  80
ENDBRANCH  51  74
BRANCH  63  84
ATOM     84  C   UNL A   1      50.756  28.403  26.066  1.00  0.00    -0.014 A 
ATOM     85  C   UNL A   1      51.751  28.072  27.002  1.00  0.00     0.010 A 
ATOM     86  C   UNL A   1      51.138  28.770  24.762  1.00  0.00     0.010 A 
ATOM     87  C   UNL A   1      53.102  28.144  26.653  1.00  0.00     0.020 A 
ATOM     88  C   UNL A   1      52.487  28.816  24.401  1.00  0.00     0.020 A 
ATOM     89  C   UNL A   1      53.461  28.519  25.355  1.00  0.00     0.054 A 
BRANCH  89  90
ATOM     90  S   UNL A   1      55.221  28.576  24.917  1.00  0.00     0.124 S 
ATOM     91  O   UNL A   1      55.169  28.688  23.462  1.00  0.00    -0.237 OA
ATOM     92  O   UNL A   1      55.690  29.766  25.622  1.00  0.00    -0.237 OA
ATOM     93  O   UNL A   1      55.746  27.311  25.426  1.00  0.00    -0.744 OA
ENDBRANCH  89  90
ENDBRANCH  63  84
ENDBRANCH  37  38
ENDBRANCH  30  32
ENDBRANCH  29  30
ENDBRANCH  28  29
ENDBRANCH  27  28
ENDBRANCH  26  27
ENDBRANCH   1  26
TORSDOF 22
ENDMDL
