MODEL 1
REMARK VINA RESULT:     -11.1      0.000      0.000
REMARK SMILES O=C(OCCOCCOC(=O)[C@H]1CCCCN1C(=O)c1cn2ccccc2n1)c1ccc(-c2c3nc(c(-c4ccc(S(=O)(=O)[O-])cc4)c4ccc([nH]4)c(-c4ccc(S(=O)(=O)[O-])cc4)c4nc(c(-c5ccc(S(=O)(=O)[O-])cc5)c5ccc2[nH]5)C=C4)C=C3)cc1
REMARK SMILES IDX 5 1 4 2 3 3 2 4 1 5 29 6 30 7 88 8 31 9 87 10 32 11 33 12
REMARK SMILES IDX 34 13 81 14 35 15 86 16 80 17 82 18 36 19 85 20 79 21 78 22
REMARK SMILES IDX 37 24 67 25 48 26 66 27 49 28 52 29 65 30 83 31 50 32 51 33
REMARK SMILES IDX 64 35 84 36 53 37 38 38 39 39 47 40 40 41 46 42 41 43 42 44
REMARK SMILES IDX 43 45 44 46 45 47 68 48 69 49 77 50 70 51 76 52 71 53 72 54
REMARK SMILES IDX 73 55 74 56 75 57 54 58 55 59 63 60 56 61 62 62 57 63 58 64
REMARK SMILES IDX 59 65 60 66 61 67 6 68 7 69 8 70 9 71 10 72 11 73 12 74
REMARK SMILES IDX 13 75 17 76 14 77 16 78 15 79 18 80 19 81 20 82 21 83 28 84
REMARK SMILES IDX 22 85 27 86 23 87 26 88 24 89 25 90
REMARK H PARENT 82 23 52 34
REMARK Flexibility Score: inf
ROOT
ATOM      1  C   UNL A   1      33.642  30.536  26.983  1.00  0.00     0.202 C 
ENDROOT
BRANCH   1   2
ATOM      2  C   UNL A   1      34.718  30.943  27.991  1.00  0.00     0.261 C 
BRANCH   2   3
ATOM      3  O   UNL A   1      35.345  29.778  28.552  1.00  0.00    -0.460 OA
BRANCH   3   4
ATOM      4  C   UNL A   1      36.374  29.739  29.434  1.00  0.00     0.338 C 
ATOM      5  O   UNL A   1      36.129  29.919  30.627  1.00  0.00    -0.246 OA
BRANCH   4   6
ATOM      6  C   UNL A   1      37.791  29.476  29.037  1.00  0.00     0.060 A 
ATOM      7  C   UNL A   1      38.263  29.508  27.727  1.00  0.00     0.016 A 
ATOM      8  C   UNL A   1      38.728  29.251  30.060  1.00  0.00     0.016 A 
ATOM      9  C   UNL A   1      39.587  29.302  27.416  1.00  0.00     0.010 A 
ATOM     10  C   UNL A   1      40.082  29.050  29.762  1.00  0.00     0.010 A 
ATOM     11  C   UNL A   1      40.503  29.071  28.431  1.00  0.00    -0.014 A 
BRANCH  11  12
ATOM     12  C   UNL A   1      41.849  28.714  27.975  1.00  0.00     0.031 A 
ATOM     13  C   UNL A   1      42.939  29.716  28.191  1.00  0.00     0.074 A 
ATOM     14  C   UNL A   1      42.099  27.428  27.668  1.00  0.00     0.049 A 
ATOM     15  N   UNL A   1      44.217  29.598  27.974  1.00  0.00    -0.248 NA
ATOM     16  C   UNL A   1      42.537  31.011  28.769  1.00  0.00     0.031 C 
ATOM     17  C   UNL A   1      41.097  26.355  27.662  1.00  0.00     0.029 A 
ATOM     18  N   UNL A   1      43.274  26.788  27.394  1.00  0.00    -0.354 N 
ATOM     19  C   UNL A   1      44.770  30.814  28.353  1.00  0.00     0.074 A 
ATOM     20  C   UNL A   1      43.695  31.649  28.838  1.00  0.00     0.031 C 
ATOM     21  C   UNL A   1      41.714  25.181  27.450  1.00  0.00     0.029 A 
ATOM     22  C   UNL A   1      43.133  25.429  27.230  1.00  0.00     0.049 A 
ATOM     23  H   UNL A   1      44.139  27.253  27.323  1.00  0.00     0.167 HD
ATOM     24  C   UNL A   1      46.063  31.200  28.269  1.00  0.00     0.031 A 
ATOM     25  C   UNL A   1      44.057  24.504  26.912  1.00  0.00     0.031 A 
ATOM     26  C   UNL A   1      47.092  30.342  27.755  1.00  0.00     0.049 A 
ATOM     27  C   UNL A   1      45.465  24.986  26.700  1.00  0.00     0.074 A 
ATOM     28  C   UNL A   1      48.412  30.635  27.478  1.00  0.00     0.029 A 
ATOM     29  N   UNL A   1      46.899  29.002  27.440  1.00  0.00    -0.354 N 
ATOM     30  N   UNL A   1      45.962  26.184  26.915  1.00  0.00    -0.248 NA
ATOM     31  C   UNL A   1      46.426  24.014  26.173  1.00  0.00     0.031 C 
ATOM     32  C   UNL A   1      49.007  29.480  26.955  1.00  0.00     0.029 A 
ATOM     33  C   UNL A   1      48.069  28.455  26.955  1.00  0.00     0.049 A 
ATOM     34  H   UNL A   1      46.050  28.514  27.548  1.00  0.00     0.167 HD
ATOM     35  C   UNL A   1      47.297  26.112  26.546  1.00  0.00     0.074 A 
ATOM     36  C   UNL A   1      47.534  24.744  26.122  1.00  0.00     0.031 C 
ATOM     37  C   UNL A   1      48.244  27.085  26.543  1.00  0.00     0.031 A 
BRANCH  24  38
ATOM     38  C   UNL A   1      46.362  32.631  28.615  1.00  0.00    -0.014 A 
ATOM     39  C   UNL A   1      46.168  33.675  27.692  1.00  0.00     0.010 A 
ATOM     40  C   UNL A   1      46.934  32.920  29.867  1.00  0.00     0.010 A 
ATOM     41  C   UNL A   1      46.592  34.973  27.997  1.00  0.00     0.020 A 
ATOM     42  C   UNL A   1      47.341  34.218  30.182  1.00  0.00     0.020 A 
ATOM     43  C   UNL A   1      47.191  35.232  29.235  1.00  0.00     0.054 A 
BRANCH  43  44
ATOM     44  S   UNL A   1      47.780  36.910  29.594  1.00  0.00     0.124 S 
ATOM     45  O   UNL A   1      48.327  37.319  28.303  1.00  0.00    -0.237 OA
ATOM     46  O   UNL A   1      46.560  37.600  30.005  1.00  0.00    -0.237 OA
ATOM     47  O   UNL A   1      48.765  36.712  30.653  1.00  0.00    -0.744 OA
ENDBRANCH  43  44
ENDBRANCH  24  38
BRANCH  25  48
ATOM     48  C   UNL A   1      43.662  23.084  26.692  1.00  0.00    -0.014 A 
ATOM     49  C   UNL A   1      43.989  22.408  25.503  1.00  0.00     0.010 A 
ATOM     50  C   UNL A   1      42.950  22.391  27.690  1.00  0.00     0.010 A 
ATOM     51  C   UNL A   1      43.601  21.075  25.314  1.00  0.00     0.020 A 
ATOM     52  C   UNL A   1      42.586  21.053  27.518  1.00  0.00     0.020 A 
ATOM     53  C   UNL A   1      42.902  20.406  26.324  1.00  0.00     0.054 A 
BRANCH  53  54
ATOM     54  S   UNL A   1      42.443  18.666  26.083  1.00  0.00     0.124 S 
ATOM     55  O   UNL A   1      43.347  18.259  25.013  1.00  0.00    -0.237 OA
ATOM     56  O   UNL A   1      42.709  18.081  27.395  1.00  0.00    -0.237 OA
ATOM     57  O   UNL A   1      41.029  18.735  25.717  1.00  0.00    -0.744 OA
ENDBRANCH  53  54
ENDBRANCH  25  48
BRANCH  37  58
ATOM     58  C   UNL A   1      49.612  26.682  26.082  1.00  0.00    -0.014 A 
ATOM     59  C   UNL A   1      50.019  26.905  24.755  1.00  0.00     0.010 A 
ATOM     60  C   UNL A   1      50.516  26.129  27.005  1.00  0.00     0.010 A 
ATOM     61  C   UNL A   1      51.306  26.554  24.350  1.00  0.00     0.020 A 
ATOM     62  C   UNL A   1      51.811  25.797  26.608  1.00  0.00     0.020 A 
ATOM     63  C   UNL A   1      52.194  26.000  25.280  1.00  0.00     0.054 A 
BRANCH  63  64
ATOM     64  S   UNL A   1      53.878  25.597  24.749  1.00  0.00     0.124 S 
ATOM     65  O   UNL A   1      53.898  26.119  23.385  1.00  0.00    -0.237 OA
ATOM     66  O   UNL A   1      54.704  26.322  25.712  1.00  0.00    -0.237 OA
ATOM     67  O   UNL A   1      53.936  24.142  24.862  1.00  0.00    -0.744 OA
ENDBRANCH  63  64
ENDBRANCH  37  58
ENDBRANCH  11  12
ENDBRANCH   4   6
ENDBRANCH   3   4
ENDBRANCH   2   3
ENDBRANCH   1   2
BRANCH   1  68
ATOM     68  O   UNL A   1      33.795  29.238  26.412  1.00  0.00    -0.374 OA
BRANCH  68  69
ATOM     69  C   UNL A   1      32.625  28.638  25.862  1.00  0.00     0.202 C 
BRANCH  69  70
ATOM     70  C   UNL A   1      32.353  27.289  26.531  1.00  0.00     0.261 C 
BRANCH  70  71
ATOM     71  O   UNL A   1      32.201  26.248  25.547  1.00  0.00    -0.462 OA
BRANCH  71  72
ATOM     72  C   UNL A   1      31.182  25.359  25.734  1.00  0.00     0.328 C 
ATOM     73  O   UNL A   1      30.243  25.520  26.503  1.00  0.00    -0.250 OA
BRANCH  72  74
ATOM     74  C   UNL A   1      31.233  24.218  24.697  1.00  0.00     0.195 C 
ATOM     75  C   UNL A   1      30.545  24.597  23.383  1.00  0.00     0.037 C 
ATOM     76  N   UNL A   1      32.597  23.732  24.460  1.00  0.00    -0.323 N 
ATOM     77  C   UNL A   1      31.404  25.518  22.515  1.00  0.00     0.005 C 
ATOM     78  C   UNL A   1      33.459  24.447  23.508  1.00  0.00     0.121 C 
ATOM     79  C   UNL A   1      32.746  24.871  22.229  1.00  0.00     0.022 C 
BRANCH  76  80
ATOM     80  C   UNL A   1      33.062  22.783  25.374  1.00  0.00     0.274 C 
ATOM     81  O   UNL A   1      33.357  23.061  26.534  1.00  0.00    -0.267 OA
BRANCH  80  82
ATOM     82  C   UNL A   1      33.234  21.434  24.867  1.00  0.00     0.147 A 
ATOM     83  C   UNL A   1      32.376  20.787  23.998  1.00  0.00     0.127 A 
ATOM     84  N   UNL A   1      34.270  20.607  25.247  1.00  0.00    -0.223 NA
ATOM     85  N   UNL A   1      32.897  19.533  23.844  1.00  0.00    -0.306 N 
ATOM     86  C   UNL A   1      34.059  19.479  24.608  1.00  0.00     0.137 A 
ATOM     87  C   UNL A   1      32.411  18.459  23.107  1.00  0.00     0.093 A 
ATOM     88  C   UNL A   1      34.792  18.261  24.592  1.00  0.00     0.048 A 
ATOM     89  C   UNL A   1      33.096  17.303  23.110  1.00  0.00     0.018 A 
ATOM     90  C   UNL A   1      34.332  17.217  23.877  1.00  0.00     0.005 A 
ENDBRANCH  80  82
ENDBRANCH  76  80
ENDBRANCH  72  74
ENDBRANCH  71  72
ENDBRANCH  70  71
ENDBRANCH  69  70
ENDBRANCH  68  69
ENDBRANCH   1  68
TORSDOF 19
ENDMDL
MODEL 2
REMARK VINA RESULT:     -10.6      1.221      8.329
REMARK SMILES O=C(OCCOCCOC(=O)[C@H]1CCCCN1C(=O)c1cn2ccccc2n1)c1ccc(-c2c3nc(c(-c4ccc(S(=O)(=O)[O-])cc4)c4ccc([nH]4)c(-c4ccc(S(=O)(=O)[O-])cc4)c4nc(c(-c5ccc(S(=O)(=O)[O-])cc5)c5ccc2[nH]5)C=C4)C=C3)cc1
REMARK SMILES IDX 5 1 4 2 3 3 2 4 1 5 29 6 30 7 88 8 31 9 87 10 32 11 33 12
REMARK SMILES IDX 34 13 81 14 35 15 86 16 80 17 82 18 36 19 85 20 79 21 78 22
REMARK SMILES IDX 37 24 67 25 48 26 66 27 49 28 52 29 65 30 83 31 50 32 51 33
REMARK SMILES IDX 64 35 84 36 53 37 38 38 39 39 47 40 40 41 46 42 41 43 42 44
REMARK SMILES IDX 43 45 44 46 45 47 68 48 69 49 77 50 70 51 76 52 71 53 72 54
REMARK SMILES IDX 73 55 74 56 75 57 54 58 55 59 63 60 56 61 62 62 57 63 58 64
REMARK SMILES IDX 59 65 60 66 61 67 6 68 7 69 8 70 9 71 10 72 11 73 12 74
REMARK SMILES IDX 13 75 17 76 14 77 16 78 15 79 18 80 19 81 20 82 21 83 28 84
REMARK SMILES IDX 22 85 27 86 23 87 26 88 24 89 25 90
REMARK H PARENT 82 23 52 34
REMARK Flexibility Score: inf
ROOT
ATOM      1  C   UNL A   1      34.832  31.790  27.945  1.00  0.00     0.202 C 
ENDROOT
BRANCH   1   2
ATOM      2  C   UNL A   1      35.158  32.076  29.413  1.00  0.00     0.261 C 
BRANCH   2   3
ATOM      3  O   UNL A   1      35.921  30.996  29.976  1.00  0.00    -0.460 OA
BRANCH   3   4
ATOM      4  C   UNL A   1      37.036  31.086  30.741  1.00  0.00     0.338 C 
ATOM      5  O   UNL A   1      36.943  31.607  31.852  1.00  0.00    -0.246 OA
BRANCH   4   6
ATOM      6  C   UNL A   1      38.374  30.574  30.312  1.00  0.00     0.060 A 
ATOM      7  C   UNL A   1      39.407  30.238  31.183  1.00  0.00     0.016 A 
ATOM      8  C   UNL A   1      38.582  30.350  28.940  1.00  0.00     0.016 A 
ATOM      9  C   UNL A   1      40.606  29.729  30.742  1.00  0.00     0.010 A 
ATOM     10  C   UNL A   1      39.793  29.823  28.474  1.00  0.00     0.010 A 
ATOM     11  C   UNL A   1      40.806  29.521  29.386  1.00  0.00    -0.014 A 
BRANCH  11  12
ATOM     12  C   UNL A   1      42.169  29.123  29.019  1.00  0.00     0.031 A 
ATOM     13  C   UNL A   1      42.365  27.736  28.495  1.00  0.00     0.074 A 
ATOM     14  C   UNL A   1      43.101  30.085  28.888  1.00  0.00     0.049 A 
ATOM     15  N   UNL A   1      43.441  27.186  28.011  1.00  0.00    -0.248 NA
ATOM     16  C   UNL A   1      41.175  26.865  28.477  1.00  0.00     0.031 C 
ATOM     17  C   UNL A   1      42.887  31.509  29.177  1.00  0.00     0.029 A 
ATOM     18  N   UNL A   1      44.374  30.033  28.396  1.00  0.00    -0.354 N 
ATOM     19  C   UNL A   1      43.071  25.893  27.664  1.00  0.00     0.074 A 
ATOM     20  C   UNL A   1      41.667  25.746  27.968  1.00  0.00     0.031 C 
ATOM     21  C   UNL A   1      43.976  32.199  28.805  1.00  0.00     0.029 A 
ATOM     22  C   UNL A   1      44.986  31.263  28.327  1.00  0.00     0.049 A 
ATOM     23  H   UNL A   1      44.812  29.196  28.117  1.00  0.00     0.167 HD
ATOM     24  C   UNL A   1      43.855  24.912  27.164  1.00  0.00     0.031 A 
ATOM     25  C   UNL A   1      46.236  31.578  27.941  1.00  0.00     0.031 A 
ATOM     26  C   UNL A   1      45.254  25.100  26.903  1.00  0.00     0.049 A 
ATOM     27  C   UNL A   1      47.125  30.445  27.510  1.00  0.00     0.074 A 
ATOM     28  C   UNL A   1      46.203  24.169  26.532  1.00  0.00     0.029 A 
ATOM     29  N   UNL A   1      45.901  26.327  26.990  1.00  0.00    -0.354 N 
ATOM     30  N   UNL A   1      46.812  29.182  27.325  1.00  0.00    -0.248 NA
ATOM     31  C   UNL A   1      48.535  30.764  27.270  1.00  0.00     0.031 C 
ATOM     32  C   UNL A   1      47.435  24.828  26.436  1.00  0.00     0.029 A 
ATOM     33  C   UNL A   1      47.241  26.178  26.698  1.00  0.00     0.049 A 
ATOM     34  H   UNL A   1      45.466  27.179  27.226  1.00  0.00     0.167 HD
ATOM     35  C   UNL A   1      47.989  28.552  26.949  1.00  0.00     0.074 A 
ATOM     36  C   UNL A   1      49.012  29.581  26.906  1.00  0.00     0.031 C 
ATOM     37  C   UNL A   1      48.215  27.241  26.675  1.00  0.00     0.031 A 
BRANCH  24  38
ATOM     38  C   UNL A   1      43.225  23.557  27.017  1.00  0.00    -0.014 A 
ATOM     39  C   UNL A   1      43.044  22.697  28.115  1.00  0.00     0.010 A 
ATOM     40  C   UNL A   1      42.888  23.103  25.728  1.00  0.00     0.010 A 
ATOM     41  C   UNL A   1      42.588  21.389  27.919  1.00  0.00     0.020 A 
ATOM     42  C   UNL A   1      42.414  21.804  25.531  1.00  0.00     0.020 A 
ATOM     43  C   UNL A   1      42.292  20.947  26.625  1.00  0.00     0.054 A 
BRANCH  43  44
ATOM     44  S   UNL A   1      41.749  19.232  26.384  1.00  0.00     0.124 S 
ATOM     45  O   UNL A   1      42.688  18.760  25.371  1.00  0.00    -0.237 OA
ATOM     46  O   UNL A   1      41.916  18.650  27.713  1.00  0.00    -0.237 OA
ATOM     47  O   UNL A   1      40.365  19.366  25.937  1.00  0.00    -0.744 OA
ENDBRANCH  43  44
ENDBRANCH  24  38
BRANCH  25  48
ATOM     48  C   UNL A   1      46.726  32.982  28.033  1.00  0.00    -0.014 A 
ATOM     49  C   UNL A   1      46.655  33.857  26.935  1.00  0.00     0.010 A 
ATOM     50  C   UNL A   1      47.272  33.457  29.243  1.00  0.00     0.010 A 
ATOM     51  C   UNL A   1      47.129  35.171  27.042  1.00  0.00     0.020 A 
ATOM     52  C   UNL A   1      47.719  34.775  29.362  1.00  0.00     0.020 A 
ATOM     53  C   UNL A   1      47.658  35.621  28.256  1.00  0.00     0.054 A 
BRANCH  53  54
ATOM     54  S   UNL A   1      48.231  37.339  28.393  1.00  0.00     0.124 S 
ATOM     55  O   UNL A   1      49.681  37.176  28.387  1.00  0.00    -0.237 OA
ATOM     56  O   UNL A   1      47.658  37.963  27.204  1.00  0.00    -0.237 OA
ATOM     57  O   UNL A   1      47.657  37.789  29.660  1.00  0.00    -0.744 OA
ENDBRANCH  53  54
ENDBRANCH  25  48
BRANCH  37  58
ATOM     58  C   UNL A   1      49.616  26.872  26.292  1.00  0.00    -0.014 A 
ATOM     59  C   UNL A   1      50.514  26.366  27.248  1.00  0.00     0.010 A 
ATOM     60  C   UNL A   1      50.016  26.980  24.949  1.00  0.00     0.010 A 
ATOM     61  C   UNL A   1      51.804  25.997  26.869  1.00  0.00     0.020 A 
ATOM     62  C   UNL A   1      51.298  26.591  24.564  1.00  0.00     0.020 A 
ATOM     63  C   UNL A   1      52.188  26.114  25.529  1.00  0.00     0.054 A 
BRANCH  63  64
ATOM     64  S   UNL A   1      53.852  25.582  25.046  1.00  0.00     0.124 S 
ATOM     65  O   UNL A   1      53.816  24.156  25.360  1.00  0.00    -0.237 OA
ATOM     66  O   UNL A   1      53.897  25.913  23.624  1.00  0.00    -0.237 OA
ATOM     67  O   UNL A   1      54.729  26.387  25.893  1.00  0.00    -0.744 OA
ENDBRANCH  63  64
ENDBRANCH  37  58
ENDBRANCH  11  12
ENDBRANCH   4   6
ENDBRANCH   3   4
ENDBRANCH   2   3
ENDBRANCH   1   2
BRANCH   1  68
ATOM     68  O   UNL A   1      33.581  31.146  27.708  1.00  0.00    -0.374 OA
BRANCH  68  69
ATOM     69  C   UNL A   1      33.611  29.962  26.916  1.00  0.00     0.202 C 
BRANCH  69  70
ATOM     70  C   UNL A   1      32.215  29.654  26.368  1.00  0.00     0.261 C 
BRANCH  70  71
ATOM     71  O   UNL A   1      32.203  28.393  25.671  1.00  0.00    -0.462 OA
BRANCH  71  72
ATOM     72  C   UNL A   1      31.473  27.382  26.225  1.00  0.00     0.328 C 
ATOM     73  O   UNL A   1      30.936  27.426  27.325  1.00  0.00    -0.250 OA
BRANCH  72  74
ATOM     74  C   UNL A   1      31.216  26.250  25.209  1.00  0.00     0.195 C 
ATOM     75  C   UNL A   1      29.852  26.382  24.527  1.00  0.00     0.037 C 
ATOM     76  N   UNL A   1      32.292  26.125  24.220  1.00  0.00    -0.323 N 
ATOM     77  C   UNL A   1      29.841  27.457  23.438  1.00  0.00     0.005 C 
ATOM     78  C   UNL A   1      32.287  26.997  23.039  1.00  0.00     0.121 C 
ATOM     79  C   UNL A   1      30.912  27.167  22.404  1.00  0.00     0.022 C 
BRANCH  76  80
ATOM     80  C   UNL A   1      33.394  25.367  24.628  1.00  0.00     0.274 C 
ATOM     81  O   UNL A   1      34.465  25.872  24.959  1.00  0.00    -0.267 OA
BRANCH  80  82
ATOM     82  C   UNL A   1      33.231  23.926  24.592  1.00  0.00     0.147 A 
ATOM     83  C   UNL A   1      33.697  23.040  25.544  1.00  0.00     0.127 A 
ATOM     84  N   UNL A   1      32.623  23.257  23.549  1.00  0.00    -0.223 NA
ATOM     85  N   UNL A   1      33.370  21.800  25.074  1.00  0.00    -0.306 N 
ATOM     86  C   UNL A   1      32.701  21.985  23.869  1.00  0.00     0.137 A 
ATOM     87  C   UNL A   1      33.638  20.549  25.621  1.00  0.00     0.093 A 
ATOM     88  C   UNL A   1      32.244  20.822  23.192  1.00  0.00     0.048 A 
ATOM     89  C   UNL A   1      33.221  19.451  24.969  1.00  0.00     0.018 A 
ATOM     90  C   UNL A   1      32.493  19.607  23.716  1.00  0.00     0.005 A 
ENDBRANCH  80  82
ENDBRANCH  76  80
ENDBRANCH  72  74
ENDBRANCH  71  72
ENDBRANCH  70  71
ENDBRANCH  69  70
ENDBRANCH  68  69
ENDBRANCH   1  68
TORSDOF 19
ENDMDL
MODEL 3
REMARK VINA RESULT:     -10.6      3.858      4.687
REMARK SMILES O=C(OCCOCCOC(=O)[C@H]1CCCCN1C(=O)c1cn2ccccc2n1)c1ccc(-c2c3nc(c(-c4ccc(S(=O)(=O)[O-])cc4)c4ccc([nH]4)c(-c4ccc(S(=O)(=O)[O-])cc4)c4nc(c(-c5ccc(S(=O)(=O)[O-])cc5)c5ccc2[nH]5)C=C4)C=C3)cc1
REMARK SMILES IDX 5 1 4 2 3 3 2 4 1 5 29 6 30 7 88 8 31 9 87 10 32 11 33 12
REMARK SMILES IDX 34 13 81 14 35 15 86 16 80 17 82 18 36 19 85 20 79 21 78 22
REMARK SMILES IDX 37 24 67 25 48 26 66 27 49 28 52 29 65 30 83 31 50 32 51 33
REMARK SMILES IDX 64 35 84 36 53 37 38 38 39 39 47 40 40 41 46 42 41 43 42 44
REMARK SMILES IDX 43 45 44 46 45 47 68 48 69 49 77 50 70 51 76 52 71 53 72 54
REMARK SMILES IDX 73 55 74 56 75 57 54 58 55 59 63 60 56 61 62 62 57 63 58 64
REMARK SMILES IDX 59 65 60 66 61 67 6 68 7 69 8 70 9 71 10 72 11 73 12 74
REMARK SMILES IDX 13 75 17 76 14 77 16 78 15 79 18 80 19 81 20 82 21 83 28 84
REMARK SMILES IDX 22 85 27 86 23 87 26 88 24 89 25 90
REMARK H PARENT 82 23 52 34
REMARK Flexibility Score: inf
ROOT
ATOM      1  C   UNL A   1      31.893  28.763  26.602  1.00  0.00     0.202 C 
ENDROOT
BRANCH   1   2
ATOM      2  C   UNL A   1      33.400  28.770  26.865  1.00  0.00     0.261 C 
BRANCH   2   3
ATOM      3  O   UNL A   1      33.891  30.120  26.927  1.00  0.00    -0.460 OA
BRANCH   3   4
ATOM      4  C   UNL A   1      34.641  30.679  27.908  1.00  0.00     0.338 C 
ATOM      5  O   UNL A   1      34.157  31.604  28.560  1.00  0.00    -0.246 OA
BRANCH   4   6
ATOM      6  C   UNL A   1      36.024  30.224  28.249  1.00  0.00     0.060 A 
ATOM      7  C   UNL A   1      36.399  29.691  29.480  1.00  0.00     0.016 A 
ATOM      8  C   UNL A   1      36.999  30.272  27.237  1.00  0.00     0.016 A 
ATOM      9  C   UNL A   1      37.675  29.245  29.731  1.00  0.00     0.010 A 
ATOM     10  C   UNL A   1      38.301  29.813  27.473  1.00  0.00     0.010 A 
ATOM     11  C   UNL A   1      38.633  29.305  28.730  1.00  0.00    -0.014 A 
BRANCH  11  12
ATOM     12  C   UNL A   1      39.990  28.948  29.156  1.00  0.00     0.031 A 
ATOM     13  C   UNL A   1      40.621  29.789  30.220  1.00  0.00     0.074 A 
ATOM     14  C   UNL A   1      40.474  27.744  28.803  1.00  0.00     0.049 A 
ATOM     15  N   UNL A   1      41.757  29.618  30.835  1.00  0.00    -0.248 NA
ATOM     16  C   UNL A   1      39.848  30.956  30.683  1.00  0.00     0.031 C 
ATOM     17  C   UNL A   1      39.783  26.781  27.935  1.00  0.00     0.029 A 
ATOM     18  N   UNL A   1      41.605  27.086  29.196  1.00  0.00    -0.354 N 
ATOM     19  C   UNL A   1      41.853  30.676  31.731  1.00  0.00     0.074 A 
ATOM     20  C   UNL A   1      40.653  31.468  31.600  1.00  0.00     0.031 C 
ATOM     21  C   UNL A   1      40.484  25.636  27.907  1.00  0.00     0.029 A 
ATOM     22  C   UNL A   1      41.702  25.812  28.688  1.00  0.00     0.049 A 
ATOM     23  H   UNL A   1      42.284  27.485  29.787  1.00  0.00     0.167 HD
ATOM     24  C   UNL A   1      42.878  30.965  32.563  1.00  0.00     0.031 A 
ATOM     25  C   UNL A   1      42.688  24.906  28.827  1.00  0.00     0.031 A 
ATOM     26  C   UNL A   1      44.064  30.160  32.638  1.00  0.00     0.049 A 
ATOM     27  C   UNL A   1      43.874  25.309  29.659  1.00  0.00     0.074 A 
ATOM     28  C   UNL A   1      45.238  30.399  33.323  1.00  0.00     0.029 A 
ATOM     29  N   UNL A   1      44.214  28.940  31.988  1.00  0.00    -0.354 N 
ATOM     30  N   UNL A   1      44.033  26.387  30.393  1.00  0.00    -0.248 NA
ATOM     31  C   UNL A   1      45.024  24.400  29.655  1.00  0.00     0.031 C 
ATOM     32  C   UNL A   1      46.114  29.341  33.053  1.00  0.00     0.029 A 
ATOM     33  C   UNL A   1      45.467  28.420  32.241  1.00  0.00     0.049 A 
ATOM     34  H   UNL A   1      43.526  28.509  31.430  1.00  0.00     0.167 HD
ATOM     35  C   UNL A   1      45.304  26.290  30.939  1.00  0.00     0.074 A 
ATOM     36  C   UNL A   1      45.858  25.032  30.472  1.00  0.00     0.031 C 
ATOM     37  C   UNL A   1      45.965  27.161  31.743  1.00  0.00     0.031 A 
BRANCH  24  38
ATOM     38  C   UNL A   1      42.784  32.259  33.322  1.00  0.00    -0.014 A 
ATOM     39  C   UNL A   1      42.085  32.358  34.538  1.00  0.00     0.010 A 
ATOM     40  C   UNL A   1      43.336  33.420  32.751  1.00  0.00     0.010 A 
ATOM     41  C   UNL A   1      41.895  33.606  35.142  1.00  0.00     0.020 A 
ATOM     42  C   UNL A   1      43.165  34.665  33.361  1.00  0.00     0.020 A 
ATOM     43  C   UNL A   1      42.423  34.753  34.539  1.00  0.00     0.054 A 
BRANCH  43  44
ATOM     44  S   UNL A   1      42.124  36.369  35.310  1.00  0.00     0.124 S 
ATOM     45  O   UNL A   1      42.761  36.202  36.614  1.00  0.00    -0.237 OA
ATOM     46  O   UNL A   1      42.795  37.291  34.398  1.00  0.00    -0.237 OA
ATOM     47  O   UNL A   1      40.668  36.475  35.337  1.00  0.00    -0.744 OA
ENDBRANCH  43  44
ENDBRANCH  24  38
BRANCH  25  48
ATOM     48  C   UNL A   1      42.629  23.604  28.105  1.00  0.00    -0.014 A 
ATOM     49  C   UNL A   1      42.066  22.461  28.700  1.00  0.00     0.010 A 
ATOM     50  C   UNL A   1      43.141  23.504  26.797  1.00  0.00     0.010 A 
ATOM     51  C   UNL A   1      42.028  21.245  28.005  1.00  0.00     0.020 A 
ATOM     52  C   UNL A   1      43.079  22.301  26.090  1.00  0.00     0.020 A 
ATOM     53  C   UNL A   1      42.535  21.174  26.704  1.00  0.00     0.054 A 
BRANCH  53  54
ATOM     54  S   UNL A   1      42.442  19.602  25.799  1.00  0.00     0.124 S 
ATOM     55  O   UNL A   1      41.054  19.592  25.351  1.00  0.00    -0.237 OA
ATOM     56  O   UNL A   1      43.445  19.775  24.752  1.00  0.00    -0.237 OA
ATOM     57  O   UNL A   1      42.779  18.604  26.813  1.00  0.00    -0.744 OA
ENDBRANCH  53  54
ENDBRANCH  25  48
BRANCH  37  58
ATOM     58  C   UNL A   1      47.345  26.760  32.169  1.00  0.00    -0.014 A 
ATOM     59  C   UNL A   1      47.542  25.949  33.300  1.00  0.00     0.010 A 
ATOM     60  C   UNL A   1      48.448  27.154  31.393  1.00  0.00     0.010 A 
ATOM     61  C   UNL A   1      48.830  25.559  33.664  1.00  0.00     0.020 A 
ATOM     62  C   UNL A   1      49.735  26.747  31.743  1.00  0.00     0.020 A 
ATOM     63  C   UNL A   1      49.919  25.962  32.884  1.00  0.00     0.054 A 
BRANCH  63  64
ATOM     64  S   UNL A   1      51.580  25.403  33.344  1.00  0.00     0.124 S 
ATOM     65  O   UNL A   1      51.337  24.767  34.636  1.00  0.00    -0.237 OA
ATOM     66  O   UNL A   1      51.931  24.497  32.252  1.00  0.00    -0.237 OA
ATOM     67  O   UNL A   1      52.358  26.639  33.391  1.00  0.00    -0.744 OA
ENDBRANCH  63  64
ENDBRANCH  37  58
ENDBRANCH  11  12
ENDBRANCH   4   6
ENDBRANCH   3   4
ENDBRANCH   2   3
ENDBRANCH   1   2
BRANCH   1  68
ATOM     68  O   UNL A   1      31.507  28.552  25.245  1.00  0.00    -0.374 OA
BRANCH  68  69
ATOM     69  C   UNL A   1      31.803  27.275  24.686  1.00  0.00     0.202 C 
BRANCH  69  70
ATOM     70  C   UNL A   1      30.779  26.239  25.156  1.00  0.00     0.261 C 
BRANCH  70  71
ATOM     71  O   UNL A   1      31.343  24.913  25.138  1.00  0.00    -0.462 OA
BRANCH  71  72
ATOM     72  C   UNL A   1      31.081  24.140  24.044  1.00  0.00     0.328 C 
ATOM     73  O   UNL A   1      30.142  24.307  23.275  1.00  0.00    -0.250 OA
BRANCH  72  74
ATOM     74  C   UNL A   1      32.236  23.158  23.760  1.00  0.00     0.195 C 
ATOM     75  C   UNL A   1      33.145  23.642  22.627  1.00  0.00     0.037 C 
ATOM     76  N   UNL A   1      33.014  22.839  24.962  1.00  0.00    -0.323 N 
ATOM     77  C   UNL A   1      34.102  24.748  23.074  1.00  0.00     0.005 C 
ATOM     78  C   UNL A   1      34.082  23.752  25.390  1.00  0.00     0.121 C 
ATOM     79  C   UNL A   1      34.942  24.274  24.245  1.00  0.00     0.022 C 
BRANCH  76  80
ATOM     80  C   UNL A   1      32.486  21.824  25.765  1.00  0.00     0.274 C 
ATOM     81  O   UNL A   1      31.731  22.044  26.711  1.00  0.00    -0.267 OA
BRANCH  80  82
ATOM     82  C   UNL A   1      32.918  20.473  25.459  1.00  0.00     0.147 A 
ATOM     83  C   UNL A   1      34.136  20.124  24.909  1.00  0.00     0.127 A 
ATOM     84  N   UNL A   1      32.119  19.362  25.636  1.00  0.00    -0.223 NA
ATOM     85  N   UNL A   1      34.083  18.769  24.743  1.00  0.00    -0.306 N 
ATOM     86  C   UNL A   1      32.844  18.350  25.219  1.00  0.00     0.137 A 
ATOM     87  C   UNL A   1      35.027  17.908  24.194  1.00  0.00     0.093 A 
ATOM     88  C   UNL A   1      32.562  16.958  25.163  1.00  0.00     0.048 A 
ATOM     89  C   UNL A   1      34.750  16.595  24.126  1.00  0.00     0.018 A 
ATOM     90  C   UNL A   1      33.473  16.115  24.639  1.00  0.00     0.005 A 
ENDBRANCH  80  82
ENDBRANCH  76  80
ENDBRANCH  72  74
ENDBRANCH  71  72
ENDBRANCH  70  71
ENDBRANCH  69  70
ENDBRANCH  68  69
ENDBRANCH   1  68
TORSDOF 19
ENDMDL
