MODEL 1
REMARK VINA RESULT:     -10.9      0.000      0.000
REMARK SMILES Cc1cc(Cl)c2c(c1)C=C(C(=O)OCCOCCOC(=O)c1ccc(-c3c4nc(c(-c5ccc(S(=O)(=O)[O-])cc5)c5ccc([nH]5)c(-c5ccc(S(=O)(=O)[O-])cc5)c5nc(c(-c6ccc(S(=O)(=O)[O-])cc6)c6ccc3[nH]6)C=C5)C=C4)cc1)[C@@H](C(F)(F)F)O2
REMARK SMILES IDX 17 1 16 2 15 3 14 4 13 5 11 6 12 7 10 8 1 9 2 10 3 11 8 12
REMARK SMILES IDX 4 13 7 14 5 15 6 16 9 17 87 18 82 19 83 20 84 21 85 22 86 23
REMARK SMILES IDX 18 24 19 25 20 26 21 27 22 28 23 29 81 30 24 31 80 32 25 33
REMARK SMILES IDX 26 34 27 35 74 36 28 37 79 38 73 39 75 40 29 41 78 42 72 43
REMARK SMILES IDX 71 44 30 46 60 47 41 48 59 49 42 50 45 51 58 52 76 53 43 54
REMARK SMILES IDX 44 55 57 57 77 58 46 59 31 60 32 61 40 62 33 63 39 64 34 65
REMARK SMILES IDX 35 66 36 67 37 68 38 69 61 70 62 71 70 72 63 73 69 74 64 75
REMARK SMILES IDX 65 76 66 77 67 78 68 79 47 80 48 81 56 82 49 83 55 84 50 85
REMARK SMILES IDX 51 86 52 87 53 88 54 89
REMARK H PARENT 75 45 45 56
REMARK Flexibility Score: inf
ROOT
ATOM      1  C   UNL A   1      39.181  21.718  26.376  1.00  0.00     0.202 C 
ENDROOT
BRANCH   1   2
ATOM      2  O   UNL A   1      38.649  21.553  25.062  1.00  0.00    -0.374 OA
BRANCH   2   3
ATOM      3  C   UNL A   1      37.254  21.789  24.873  1.00  0.00     0.202 C 
BRANCH   3   4
ATOM      4  C   UNL A   1      36.397  21.905  26.136  1.00  0.00     0.261 C 
BRANCH   4   5
ATOM      5  O   UNL A   1      35.086  21.353  25.939  1.00  0.00    -0.460 OA
BRANCH   5   6
ATOM      6  C   UNL A   1      34.069  22.204  26.198  1.00  0.00     0.338 C 
ATOM      7  O   UNL A   1      33.429  22.289  27.237  1.00  0.00    -0.246 OA
BRANCH   6   8
ATOM      8  C   UNL A   1      33.908  23.152  25.080  1.00  0.00     0.087 C 
ATOM      9  C   UNL A   1      33.077  29.177  24.170  1.00  0.00     0.044 C 
ATOM     10  C   UNL A   1      33.246  27.740  23.771  1.00  0.00    -0.049 A 
ATOM     11  C   UNL A   1      32.982  27.322  22.462  1.00  0.00     0.028 A 
ATOM     12  C   UNL A   1      33.591  26.782  24.728  1.00  0.00     0.015 A 
ATOM     13  C   UNL A   1      33.100  25.972  22.111  1.00  0.00     0.084 A 
ATOM     14  C   UNL A   1      33.680  25.426  24.384  1.00  0.00     0.019 A 
ATOM     15  Cl  UNL A   1      32.763  25.526  20.476  1.00  0.00    -0.080 Cl
ATOM     16  C   UNL A   1      33.453  25.014  23.070  1.00  0.00     0.146 A 
ATOM     17  C   UNL A   1      33.952  24.446  25.417  1.00  0.00     0.027 C 
ATOM     18  O   UNL A   1      33.572  23.709  22.674  1.00  0.00    -0.474 OA
ATOM     19  C   UNL A   1      33.683  22.660  23.678  1.00  0.00     0.316 C 
BRANCH  19  20
ATOM     20  C   UNL A   1      32.455  21.744  23.570  1.00  0.00     0.430 C 
ATOM     21  F   UNL A   1      32.817  20.443  23.478  1.00  0.00    -0.167 F 
ATOM     22  F   UNL A   1      31.653  21.853  24.653  1.00  0.00    -0.167 F 
ATOM     23  F   UNL A   1      31.707  22.038  22.481  1.00  0.00    -0.167 F 
ENDBRANCH  19  20
ENDBRANCH   6   8
ENDBRANCH   5   6
ENDBRANCH   4   5
ENDBRANCH   3   4
ENDBRANCH   2   3
ENDBRANCH   1   2
BRANCH   1  24
ATOM     24  C   UNL A   1      40.135  22.895  26.615  1.00  0.00     0.261 C 
BRANCH  24  25
ATOM     25  O   UNL A   1      39.465  24.167  26.573  1.00  0.00    -0.460 OA
BRANCH  25  26
ATOM     26  C   UNL A   1      40.287  25.227  26.389  1.00  0.00     0.338 C 
ATOM     27  O   UNL A   1      40.725  25.645  25.324  1.00  0.00    -0.246 OA
BRANCH  26  28
ATOM     28  C   UNL A   1      40.462  25.965  27.652  1.00  0.00     0.060 A 
ATOM     29  C   UNL A   1      39.410  25.920  28.577  1.00  0.00     0.016 A 
ATOM     30  C   UNL A   1      41.580  26.768  27.883  1.00  0.00     0.016 A 
ATOM     31  C   UNL A   1      39.444  26.727  29.710  1.00  0.00     0.010 A 
ATOM     32  C   UNL A   1      41.605  27.589  29.015  1.00  0.00     0.010 A 
ATOM     33  C   UNL A   1      40.519  27.603  29.909  1.00  0.00    -0.014 A 
BRANCH  33  34
ATOM     34  C   UNL A   1      40.412  28.659  30.941  1.00  0.00     0.031 A 
ATOM     35  C   UNL A   1      41.356  28.620  32.113  1.00  0.00     0.074 A 
ATOM     36  C   UNL A   1      39.527  29.664  30.816  1.00  0.00     0.049 A 
ATOM     37  N   UNL A   1      41.424  29.415  33.149  1.00  0.00    -0.248 NA
ATOM     38  C   UNL A   1      42.364  27.546  32.111  1.00  0.00     0.031 C 
ATOM     39  C   UNL A   1      38.612  29.851  29.690  1.00  0.00     0.029 A 
ATOM     40  N   UNL A   1      39.260  30.721  31.648  1.00  0.00    -0.354 N 
ATOM     41  C   UNL A   1      42.477  28.939  33.922  1.00  0.00     0.074 A 
ATOM     42  C   UNL A   1      43.002  27.770  33.251  1.00  0.00     0.031 C 
ATOM     43  C   UNL A   1      37.884  30.961  29.903  1.00  0.00     0.029 A 
ATOM     44  C   UNL A   1      38.254  31.538  31.194  1.00  0.00     0.049 A 
ATOM     45  H   UNL A   1      39.745  30.880  32.491  1.00  0.00     0.167 HD
ATOM     46  C   UNL A   1      42.967  29.434  35.083  1.00  0.00     0.031 A 
ATOM     47  C   UNL A   1      37.683  32.618  31.765  1.00  0.00     0.031 A 
ATOM     48  C   UNL A   1      42.430  30.584  35.760  1.00  0.00     0.049 A 
ATOM     49  C   UNL A   1      38.175  33.087  33.109  1.00  0.00     0.074 A 
ATOM     50  C   UNL A   1      42.844  31.153  36.950  1.00  0.00     0.029 A 
ATOM     51  N   UNL A   1      41.361  31.339  35.305  1.00  0.00    -0.354 N 
ATOM     52  N   UNL A   1      39.156  32.611  33.841  1.00  0.00    -0.248 NA
ATOM     53  C   UNL A   1      37.482  34.238  33.704  1.00  0.00     0.031 C 
ATOM     54  C   UNL A   1      41.991  32.223  37.242  1.00  0.00     0.029 A 
ATOM     55  C   UNL A   1      41.083  32.356  36.203  1.00  0.00     0.049 A 
ATOM     56  H   UNL A   1      40.870  31.177  34.466  1.00  0.00     0.167 HD
ATOM     57  C   UNL A   1      39.209  33.416  34.974  1.00  0.00     0.074 A 
ATOM     58  C   UNL A   1      38.174  34.420  34.821  1.00  0.00     0.031 C 
ATOM     59  C   UNL A   1      40.038  33.335  36.044  1.00  0.00     0.031 A 
BRANCH  46  60
ATOM     60  C   UNL A   1      44.128  28.709  35.711  1.00  0.00    -0.014 A 
ATOM     61  C   UNL A   1      45.454  29.069  35.415  1.00  0.00     0.010 A 
ATOM     62  C   UNL A   1      43.888  27.680  36.640  1.00  0.00     0.010 A 
ATOM     63  C   UNL A   1      46.521  28.394  36.014  1.00  0.00     0.020 A 
ATOM     64  C   UNL A   1      44.952  27.020  37.261  1.00  0.00     0.020 A 
ATOM     65  C   UNL A   1      46.262  27.374  36.934  1.00  0.00     0.054 A 
BRANCH  65  66
ATOM     66  S   UNL A   1      47.666  26.535  37.720  1.00  0.00     0.124 S 
ATOM     67  O   UNL A   1      48.000  25.513  36.730  1.00  0.00    -0.237 OA
ATOM     68  O   UNL A   1      48.641  27.613  37.863  1.00  0.00    -0.237 OA
ATOM     69  O   UNL A   1      47.113  26.029  38.973  1.00  0.00    -0.744 OA
ENDBRANCH  65  66
ENDBRANCH  46  60
BRANCH  47  70
ATOM     70  C   UNL A   1      36.568  33.321  31.074  1.00  0.00    -0.014 A 
ATOM     71  C   UNL A   1      35.297  33.402  31.669  1.00  0.00     0.010 A 
ATOM     72  C   UNL A   1      36.776  33.922  29.818  1.00  0.00     0.010 A 
ATOM     73  C   UNL A   1      34.253  34.065  31.019  1.00  0.00     0.020 A 
ATOM     74  C   UNL A   1      35.742  34.609  29.178  1.00  0.00     0.020 A 
ATOM     75  C   UNL A   1      34.484  34.671  29.780  1.00  0.00     0.054 A 
BRANCH  75  76
ATOM     76  S   UNL A   1      33.129  35.583  28.988  1.00  0.00     0.124 S 
ATOM     77  O   UNL A   1      32.381  36.076  30.139  1.00  0.00    -0.237 OA
ATOM     78  O   UNL A   1      33.844  36.595  28.214  1.00  0.00    -0.237 OA
ATOM     79  O   UNL A   1      32.451  34.563  28.191  1.00  0.00    -0.744 OA
ENDBRANCH  75  76
ENDBRANCH  47  70
BRANCH  59  80
ATOM     80  C   UNL A   1      39.871  34.367  37.128  1.00  0.00    -0.014 A 
ATOM     81  C   UNL A   1      40.507  35.618  37.043  1.00  0.00     0.010 A 
ATOM     82  C   UNL A   1      39.032  34.097  38.225  1.00  0.00     0.010 A 
ATOM     83  C   UNL A   1      40.337  36.566  38.056  1.00  0.00     0.020 A 
ATOM     84  C   UNL A   1      38.838  35.052  39.226  1.00  0.00     0.020 A 
ATOM     85  C   UNL A   1      39.507  36.276  39.143  1.00  0.00     0.054 A 
BRANCH  85  86
ATOM     86  S   UNL A   1      39.286  37.532  40.432  1.00  0.00     0.124 S 
ATOM     87  O   UNL A   1      38.967  36.715  41.600  1.00  0.00    -0.237 OA
ATOM     88  O   UNL A   1      40.589  38.191  40.463  1.00  0.00    -0.237 OA
ATOM     89  O   UNL A   1      38.189  38.356  39.930  1.00  0.00    -0.744 OA
ENDBRANCH  85  86
ENDBRANCH  59  80
ENDBRANCH  33  34
ENDBRANCH  26  28
ENDBRANCH  25  26
ENDBRANCH  24  25
ENDBRANCH   1  24
TORSDOF 18
ENDMDL
MODEL 2
REMARK VINA RESULT:     -10.8      1.789      2.219
REMARK SMILES Cc1cc(Cl)c2c(c1)C=C(C(=O)OCCOCCOC(=O)c1ccc(-c3c4nc(c(-c5ccc(S(=O)(=O)[O-])cc5)c5ccc([nH]5)c(-c5ccc(S(=O)(=O)[O-])cc5)c5nc(c(-c6ccc(S(=O)(=O)[O-])cc6)c6ccc3[nH]6)C=C5)C=C4)cc1)[C@@H](C(F)(F)F)O2
REMARK SMILES IDX 17 1 16 2 15 3 14 4 13 5 11 6 12 7 10 8 1 9 2 10 3 11 8 12
REMARK SMILES IDX 4 13 7 14 5 15 6 16 9 17 87 18 82 19 83 20 84 21 85 22 86 23
REMARK SMILES IDX 18 24 19 25 20 26 21 27 22 28 23 29 81 30 24 31 80 32 25 33
REMARK SMILES IDX 26 34 27 35 74 36 28 37 79 38 73 39 75 40 29 41 78 42 72 43
REMARK SMILES IDX 71 44 30 46 60 47 41 48 59 49 42 50 45 51 58 52 76 53 43 54
REMARK SMILES IDX 44 55 57 57 77 58 46 59 31 60 32 61 40 62 33 63 39 64 34 65
REMARK SMILES IDX 35 66 36 67 37 68 38 69 61 70 62 71 70 72 63 73 69 74 64 75
REMARK SMILES IDX 65 76 66 77 67 78 68 79 47 80 48 81 56 82 49 83 55 84 50 85
REMARK SMILES IDX 51 86 52 87 53 88 54 89
REMARK H PARENT 75 45 45 56
REMARK Flexibility Score: inf
ROOT
ATOM      1  C   UNL A   1      41.016  22.106  26.303  1.00  0.00     0.202 C 
ENDROOT
BRANCH   1   2
ATOM      2  O   UNL A   1      39.673  21.914  26.745  1.00  0.00    -0.374 OA
BRANCH   2   3
ATOM      3  C   UNL A   1      38.634  21.979  25.768  1.00  0.00     0.202 C 
BRANCH   3   4
ATOM      4  C   UNL A   1      37.838  23.284  25.692  1.00  0.00     0.261 C 
BRANCH   4   5
ATOM      5  O   UNL A   1      36.423  23.045  25.740  1.00  0.00    -0.460 OA
BRANCH   5   6
ATOM      6  C   UNL A   1      35.775  23.248  24.572  1.00  0.00     0.338 C 
ATOM      7  O   UNL A   1      36.078  22.795  23.476  1.00  0.00    -0.246 OA
BRANCH   6   8
ATOM      8  C   UNL A   1      34.529  23.999  24.810  1.00  0.00     0.087 C 
ATOM      9  C   UNL A   1      32.709  29.348  27.238  1.00  0.00     0.044 C 
ATOM     10  C   UNL A   1      32.535  28.011  26.577  1.00  0.00    -0.049 A 
ATOM     11  C   UNL A   1      31.269  27.424  26.468  1.00  0.00     0.028 A 
ATOM     12  C   UNL A   1      33.651  27.296  26.135  1.00  0.00     0.015 A 
ATOM     13  C   UNL A   1      31.123  26.158  25.889  1.00  0.00     0.084 A 
ATOM     14  C   UNL A   1      33.508  26.015  25.583  1.00  0.00     0.019 A 
ATOM     15  Cl  UNL A   1      29.532  25.492  25.782  1.00  0.00    -0.080 Cl
ATOM     16  C   UNL A   1      32.242  25.445  25.440  1.00  0.00     0.146 A 
ATOM     17  C   UNL A   1      34.692  25.263  25.217  1.00  0.00     0.027 C 
ATOM     18  O   UNL A   1      32.046  24.218  24.866  1.00  0.00    -0.474 OA
ATOM     19  C   UNL A   1      33.188  23.345  24.624  1.00  0.00     0.316 C 
BRANCH  19  20
ATOM     20  C   UNL A   1      33.030  22.080  25.481  1.00  0.00     0.430 C 
ATOM     21  F   UNL A   1      33.658  21.023  24.918  1.00  0.00    -0.167 F 
ATOM     22  F   UNL A   1      33.561  22.243  26.715  1.00  0.00    -0.167 F 
ATOM     23  F   UNL A   1      31.729  21.745  25.642  1.00  0.00    -0.167 F 
ENDBRANCH  19  20
ENDBRANCH   6   8
ENDBRANCH   5   6
ENDBRANCH   4   5
ENDBRANCH   3   4
ENDBRANCH   2   3
ENDBRANCH   1   2
BRANCH   1  24
ATOM     24  C   UNL A   1      41.666  23.469  26.572  1.00  0.00     0.261 C 
BRANCH  24  25
ATOM     25  O   UNL A   1      40.777  24.383  27.239  1.00  0.00    -0.460 OA
BRANCH  25  26
ATOM     26  C   UNL A   1      40.787  25.640  26.735  1.00  0.00     0.338 C 
ATOM     27  O   UNL A   1      40.934  25.963  25.562  1.00  0.00    -0.246 OA
BRANCH  26  28
ATOM     28  C   UNL A   1      40.406  26.612  27.774  1.00  0.00     0.060 A 
ATOM     29  C   UNL A   1      41.019  27.872  27.736  1.00  0.00     0.016 A 
ATOM     30  C   UNL A   1      39.552  26.267  28.822  1.00  0.00     0.016 A 
ATOM     31  C   UNL A   1      40.828  28.772  28.780  1.00  0.00     0.010 A 
ATOM     32  C   UNL A   1      39.373  27.166  29.877  1.00  0.00     0.010 A 
ATOM     33  C   UNL A   1      40.044  28.403  29.881  1.00  0.00    -0.014 A 
BRANCH  33  34
ATOM     34  C   UNL A   1      40.084  29.231  31.108  1.00  0.00     0.031 A 
ATOM     35  C   UNL A   1      41.224  29.036  32.073  1.00  0.00     0.074 A 
ATOM     36  C   UNL A   1      39.153  30.173  31.339  1.00  0.00     0.049 A 
ATOM     37  N   UNL A   1      41.446  29.620  33.221  1.00  0.00    -0.248 NA
ATOM     38  C   UNL A   1      42.255  28.059  31.685  1.00  0.00     0.031 C 
ATOM     39  C   UNL A   1      38.046  30.507  30.444  1.00  0.00     0.029 A 
ATOM     40  N   UNL A   1      39.000  31.030  32.399  1.00  0.00    -0.354 N 
ATOM     41  C   UNL A   1      42.637  29.082  33.695  1.00  0.00     0.074 A 
ATOM     42  C   UNL A   1      43.077  28.105  32.723  1.00  0.00     0.031 C 
ATOM     43  C   UNL A   1      37.326  31.499  30.995  1.00  0.00     0.029 A 
ATOM     44  C   UNL A   1      37.899  31.844  32.295  1.00  0.00     0.049 A 
ATOM     45  H   UNL A   1      39.621  31.059  33.163  1.00  0.00     0.167 HD
ATOM     46  C   UNL A   1      43.308  29.379  34.832  1.00  0.00     0.031 A 
ATOM     47  C   UNL A   1      37.399  32.750  33.159  1.00  0.00     0.031 A 
ATOM     48  C   UNL A   1      42.858  30.336  35.807  1.00  0.00     0.049 A 
ATOM     49  C   UNL A   1      38.106  32.986  34.469  1.00  0.00     0.074 A 
ATOM     50  C   UNL A   1      43.456  30.695  37.001  1.00  0.00     0.029 A 
ATOM     51  N   UNL A   1      41.697  31.085  35.700  1.00  0.00    -0.354 N 
ATOM     52  N   UNL A   1      39.219  32.451  34.914  1.00  0.00    -0.248 NA
ATOM     53  C   UNL A   1      37.488  33.948  35.390  1.00  0.00     0.031 C 
ATOM     54  C   UNL A   1      42.629  31.624  37.642  1.00  0.00     0.029 A 
ATOM     55  C   UNL A   1      41.546  31.888  36.818  1.00  0.00     0.049 A 
ATOM     56  H   UNL A   1      41.070  31.052  34.940  1.00  0.00     0.167 HD
ATOM     57  C   UNL A   1      39.443  33.025  36.161  1.00  0.00     0.074 A 
ATOM     58  C   UNL A   1      38.361  33.962  36.389  1.00  0.00     0.031 C 
ATOM     59  C   UNL A   1      40.453  32.801  37.037  1.00  0.00     0.031 A 
BRANCH  46  60
ATOM     60  C   UNL A   1      44.589  28.634  35.097  1.00  0.00    -0.014 A 
ATOM     61  C   UNL A   1      45.827  29.143  34.668  1.00  0.00     0.010 A 
ATOM     62  C   UNL A   1      44.557  27.427  35.819  1.00  0.00     0.010 A 
ATOM     63  C   UNL A   1      47.009  28.444  34.932  1.00  0.00     0.020 A 
ATOM     64  C   UNL A   1      45.739  26.738  36.106  1.00  0.00     0.020 A 
ATOM     65  C   UNL A   1      46.956  27.246  35.650  1.00  0.00     0.054 A 
BRANCH  65  66
ATOM     66  S   UNL A   1      48.509  26.376  36.003  1.00  0.00     0.124 S 
ATOM     67  O   UNL A   1      49.085  27.204  37.060  1.00  0.00    -0.237 OA
ATOM     68  O   UNL A   1      48.046  25.056  36.421  1.00  0.00    -0.237 OA
ATOM     69  O   UNL A   1      49.224  26.408  34.730  1.00  0.00    -0.744 OA
ENDBRANCH  65  66
ENDBRANCH  46  60
BRANCH  47  70
ATOM     70  C   UNL A   1      36.153  33.489  32.822  1.00  0.00    -0.014 A 
ATOM     71  C   UNL A   1      34.904  33.028  33.274  1.00  0.00     0.010 A 
ATOM     72  C   UNL A   1      36.211  34.665  32.051  1.00  0.00     0.010 A 
ATOM     73  C   UNL A   1      33.736  33.727  32.958  1.00  0.00     0.020 A 
ATOM     74  C   UNL A   1      35.048  35.381  31.756  1.00  0.00     0.020 A 
ATOM     75  C   UNL A   1      33.816  34.903  32.206  1.00  0.00     0.054 A 
BRANCH  75  76
ATOM     76  S   UNL A   1      32.291  35.827  31.866  1.00  0.00     0.124 S 
ATOM     77  O   UNL A   1      31.300  35.068  32.621  1.00  0.00    -0.237 OA
ATOM     78  O   UNL A   1      32.606  37.154  32.388  1.00  0.00    -0.237 OA
ATOM     79  O   UNL A   1      32.163  35.752  30.412  1.00  0.00    -0.744 OA
ENDBRANCH  75  76
ENDBRANCH  47  70
BRANCH  59  80
ATOM     80  C   UNL A   1      40.444  33.591  38.320  1.00  0.00    -0.014 A 
ATOM     81  C   UNL A   1      41.031  34.866  38.391  1.00  0.00     0.010 A 
ATOM     82  C   UNL A   1      39.801  33.068  39.457  1.00  0.00     0.010 A 
ATOM     83  C   UNL A   1      41.010  35.587  39.587  1.00  0.00     0.020 A 
ATOM     84  C   UNL A   1      39.753  33.797  40.647  1.00  0.00     0.020 A 
ATOM     85  C   UNL A   1      40.374  35.047  40.709  1.00  0.00     0.054 A 
BRANCH  85  86
ATOM     86  S   UNL A   1      40.341  36.014  42.244  1.00  0.00     0.124 S 
ATOM     87  O   UNL A   1      38.945  36.440  42.304  1.00  0.00    -0.237 OA
ATOM     88  O   UNL A   1      40.743  35.033  43.249  1.00  0.00    -0.237 OA
ATOM     89  O   UNL A   1      41.309  37.082  42.002  1.00  0.00    -0.744 OA
ENDBRANCH  85  86
ENDBRANCH  59  80
ENDBRANCH  33  34
ENDBRANCH  26  28
ENDBRANCH  25  26
ENDBRANCH  24  25
ENDBRANCH   1  24
TORSDOF 18
ENDMDL
MODEL 3
REMARK VINA RESULT:     -10.6      6.286     11.788
REMARK SMILES Cc1cc(Cl)c2c(c1)C=C(C(=O)OCCOCCOC(=O)c1ccc(-c3c4nc(c(-c5ccc(S(=O)(=O)[O-])cc5)c5ccc([nH]5)c(-c5ccc(S(=O)(=O)[O-])cc5)c5nc(c(-c6ccc(S(=O)(=O)[O-])cc6)c6ccc3[nH]6)C=C5)C=C4)cc1)[C@@H](C(F)(F)F)O2
REMARK SMILES IDX 17 1 16 2 15 3 14 4 13 5 11 6 12 7 10 8 1 9 2 10 3 11 8 12
REMARK SMILES IDX 4 13 7 14 5 15 6 16 9 17 87 18 82 19 83 20 84 21 85 22 86 23
REMARK SMILES IDX 18 24 19 25 20 26 21 27 22 28 23 29 81 30 24 31 80 32 25 33
REMARK SMILES IDX 26 34 27 35 74 36 28 37 79 38 73 39 75 40 29 41 78 42 72 43
REMARK SMILES IDX 71 44 30 46 60 47 41 48 59 49 42 50 45 51 58 52 76 53 43 54
REMARK SMILES IDX 44 55 57 57 77 58 46 59 31 60 32 61 40 62 33 63 39 64 34 65
REMARK SMILES IDX 35 66 36 67 37 68 38 69 61 70 62 71 70 72 63 73 69 74 64 75
REMARK SMILES IDX 65 76 66 77 67 78 68 79 47 80 48 81 56 82 49 83 55 84 50 85
REMARK SMILES IDX 51 86 52 87 53 88 54 89
REMARK H PARENT 75 45 45 56
REMARK Flexibility Score: inf
ROOT
ATOM      1  C   UNL A   1      35.374  33.306  28.067  1.00  0.00     0.202 C 
ENDROOT
BRANCH   1   2
ATOM      2  O   UNL A   1      34.865  32.241  27.265  1.00  0.00    -0.374 OA
BRANCH   2   3
ATOM      3  C   UNL A   1      34.144  31.199  27.921  1.00  0.00     0.202 C 
BRANCH   3   4
ATOM      4  C   UNL A   1      32.933  30.626  27.181  1.00  0.00     0.261 C 
BRANCH   4   5
ATOM      5  O   UNL A   1      33.011  29.196  27.065  1.00  0.00    -0.460 OA
BRANCH   5   6
ATOM      6  C   UNL A   1      33.040  28.732  25.796  1.00  0.00     0.338 C 
ATOM      7  O   UNL A   1      33.261  29.380  24.782  1.00  0.00    -0.246 OA
BRANCH   6   8
ATOM      8  C   UNL A   1      32.903  27.264  25.792  1.00  0.00     0.087 C 
ATOM      9  C   UNL A   1      36.365  22.268  24.861  1.00  0.00     0.044 C 
ATOM     10  C   UNL A   1      35.107  23.028  25.164  1.00  0.00    -0.049 A 
ATOM     11  C   UNL A   1      33.862  22.388  25.156  1.00  0.00     0.028 A 
ATOM     12  C   UNL A   1      35.154  24.408  25.377  1.00  0.00     0.015 A 
ATOM     13  C   UNL A   1      32.689  23.114  25.397  1.00  0.00     0.084 A 
ATOM     14  C   UNL A   1      33.978  25.141  25.588  1.00  0.00     0.019 A 
ATOM     15  Cl  UNL A   1      31.187  22.262  25.376  1.00  0.00    -0.080 Cl
ATOM     16  C   UNL A   1      32.739  24.497  25.617  1.00  0.00     0.146 A 
ATOM     17  C   UNL A   1      34.051  26.583  25.717  1.00  0.00     0.027 C 
ATOM     18  O   UNL A   1      31.568  25.160  25.865  1.00  0.00    -0.474 OA
ATOM     19  C   UNL A   1      31.547  26.616  25.844  1.00  0.00     0.316 C 
BRANCH  19  20
ATOM     20  C   UNL A   1      30.635  27.078  24.697  1.00  0.00     0.430 C 
ATOM     21  F   UNL A   1      31.245  26.944  23.497  1.00  0.00    -0.167 F 
ATOM     22  F   UNL A   1      29.495  26.352  24.642  1.00  0.00    -0.167 F 
ATOM     23  F   UNL A   1      30.281  28.378  24.833  1.00  0.00    -0.167 F 
ENDBRANCH  19  20
ENDBRANCH   6   8
ENDBRANCH   5   6
ENDBRANCH   4   5
ENDBRANCH   3   4
ENDBRANCH   2   3
ENDBRANCH   1   2
BRANCH   1  24
ATOM     24  C   UNL A   1      35.195  33.201  29.586  1.00  0.00     0.261 C 
BRANCH  24  25
ATOM     25  O   UNL A   1      36.430  32.929  30.271  1.00  0.00    -0.460 OA
BRANCH  25  26
ATOM     26  C   UNL A   1      36.466  31.733  30.905  1.00  0.00     0.338 C 
ATOM     27  O   UNL A   1      35.634  31.287  31.686  1.00  0.00    -0.246 OA
BRANCH  26  28
ATOM     28  C   UNL A   1      37.576  30.913  30.391  1.00  0.00     0.060 A 
ATOM     29  C   UNL A   1      38.512  30.438  31.320  1.00  0.00     0.016 A 
ATOM     30  C   UNL A   1      37.759  30.701  29.024  1.00  0.00     0.016 A 
ATOM     31  C   UNL A   1      39.669  29.801  30.881  1.00  0.00     0.010 A 
ATOM     32  C   UNL A   1      38.929  30.074  28.583  1.00  0.00     0.010 A 
ATOM     33  C   UNL A   1      39.907  29.662  29.507  1.00  0.00    -0.014 A 
BRANCH  33  34
ATOM     34  C   UNL A   1      41.254  29.260  29.042  1.00  0.00     0.031 A 
ATOM     35  C   UNL A   1      42.355  30.287  29.048  1.00  0.00     0.074 A 
ATOM     36  C   UNL A   1      41.509  27.993  28.669  1.00  0.00     0.049 A 
ATOM     37  N   UNL A   1      43.597  30.172  28.655  1.00  0.00    -0.248 NA
ATOM     38  C   UNL A   1      42.011  31.618  29.575  1.00  0.00     0.031 C 
ATOM     39  C   UNL A   1      40.546  26.894  28.693  1.00  0.00     0.029 A 
ATOM     40  N   UNL A   1      42.666  27.420  28.204  1.00  0.00    -0.354 N 
ATOM     41  C   UNL A   1      44.182  31.412  28.885  1.00  0.00     0.074 A 
ATOM     42  C   UNL A   1      43.153  32.273  29.425  1.00  0.00     0.031 C 
ATOM     43  C   UNL A   1      41.154  25.775  28.259  1.00  0.00     0.029 A 
ATOM     44  C   UNL A   1      42.534  26.088  27.895  1.00  0.00     0.049 A 
ATOM     45  H   UNL A   1      43.510  27.916  28.102  1.00  0.00     0.167 HD
ATOM     46  C   UNL A   1      45.462  31.798  28.671  1.00  0.00     0.031 A 
ATOM     47  C   UNL A   1      43.421  25.226  27.360  1.00  0.00     0.031 A 
ATOM     48  C   UNL A   1      46.479  30.946  28.114  1.00  0.00     0.049 A 
ATOM     49  C   UNL A   1      44.810  25.708  27.030  1.00  0.00     0.074 A 
ATOM     50  C   UNL A   1      47.800  31.248  27.841  1.00  0.00     0.029 A 
ATOM     51  N   UNL A   1      46.284  29.625  27.743  1.00  0.00    -0.354 N 
ATOM     52  N   UNL A   1      45.342  26.891  27.231  1.00  0.00    -0.248 NA
ATOM     53  C   UNL A   1      45.717  24.736  26.404  1.00  0.00     0.031 C 
ATOM     54  C   UNL A   1      48.393  30.124  27.256  1.00  0.00     0.029 A 
ATOM     55  C   UNL A   1      47.456  29.103  27.220  1.00  0.00     0.049 A 
ATOM     56  H   UNL A   1      45.438  29.129  27.837  1.00  0.00     0.167 HD
ATOM     57  C   UNL A   1      46.652  26.801  26.770  1.00  0.00     0.074 A 
ATOM     58  C   UNL A   1      46.836  25.442  26.300  1.00  0.00     0.031 C 
ATOM     59  C   UNL A   1      47.616  27.754  26.740  1.00  0.00     0.031 A 
BRANCH  46  60
ATOM     60  C   UNL A   1      45.825  33.218  29.015  1.00  0.00    -0.014 A 
ATOM     61  C   UNL A   1      46.309  33.555  30.291  1.00  0.00     0.010 A 
ATOM     62  C   UNL A   1      45.719  34.221  28.035  1.00  0.00     0.010 A 
ATOM     63  C   UNL A   1      46.652  34.876  30.591  1.00  0.00     0.020 A 
ATOM     64  C   UNL A   1      46.085  35.539  28.323  1.00  0.00     0.020 A 
ATOM     65  C   UNL A   1      46.539  35.860  29.604  1.00  0.00     0.054 A 
BRANCH  65  66
ATOM     66  S   UNL A   1      47.020  37.560  30.013  1.00  0.00     0.124 S 
ATOM     67  O   UNL A   1      45.867  38.323  29.542  1.00  0.00    -0.237 OA
ATOM     68  O   UNL A   1      47.187  37.505  31.463  1.00  0.00    -0.237 OA
ATOM     69  O   UNL A   1      48.252  37.765  29.255  1.00  0.00    -0.744 OA
ENDBRANCH  65  66
ENDBRANCH  46  60
BRANCH  47  70
ATOM     70  C   UNL A   1      43.016  23.821  27.084  1.00  0.00    -0.014 A 
ATOM     71  C   UNL A   1      42.654  23.424  25.785  1.00  0.00     0.010 A 
ATOM     72  C   UNL A   1      43.001  22.869  28.121  1.00  0.00     0.010 A 
ATOM     73  C   UNL A   1      42.278  22.102  25.529  1.00  0.00     0.020 A 
ATOM     74  C   UNL A   1      42.652  21.541  27.863  1.00  0.00     0.020 A 
ATOM     75  C   UNL A   1      42.285  21.167  26.569  1.00  0.00     0.054 A 
BRANCH  75  76
ATOM     76  S   UNL A   1      41.857  19.443  26.196  1.00  0.00     0.124 S 
ATOM     77  O   UNL A   1      40.414  19.526  25.993  1.00  0.00    -0.237 OA
ATOM     78  O   UNL A   1      42.652  19.175  25.001  1.00  0.00    -0.237 OA
ATOM     79  O   UNL A   1      42.279  18.720  27.393  1.00  0.00    -0.744 OA
ENDBRANCH  75  76
ENDBRANCH  47  70
BRANCH  59  80
ATOM     80  C   UNL A   1      48.962  27.358  26.192  1.00  0.00    -0.014 A 
ATOM     81  C   UNL A   1      49.968  26.851  27.034  1.00  0.00     0.010 A 
ATOM     82  C   UNL A   1      49.209  27.454  24.810  1.00  0.00     0.010 A 
ATOM     83  C   UNL A   1      51.209  26.485  26.509  1.00  0.00     0.020 A 
ATOM     84  C   UNL A   1      50.439  27.063  24.277  1.00  0.00     0.020 A 
ATOM     85  C   UNL A   1      51.439  26.596  25.134  1.00  0.00     0.054 A 
BRANCH  85  86
ATOM     86  S   UNL A   1      53.052  26.092  24.476  1.00  0.00     0.124 S 
ATOM     87  O   UNL A   1      53.141  24.703  24.920  1.00  0.00    -0.237 OA
ATOM     88  O   UNL A   1      52.885  26.282  23.038  1.00  0.00    -0.237 OA
ATOM     89  O   UNL A   1      53.991  27.012  25.115  1.00  0.00    -0.744 OA
ENDBRANCH  85  86
ENDBRANCH  59  80
ENDBRANCH  33  34
ENDBRANCH  26  28
ENDBRANCH  25  26
ENDBRANCH  24  25
ENDBRANCH   1  24
TORSDOF 18
ENDMDL
