MODEL 1
REMARK VINA RESULT:     -10.0      0.000      0.000
REMARK SMILES CO[C@H](C)c1noc(C[C@](C)(C(=O)OCCOCCOC(=O)c2ccc(-c3c4nc(c(-c5ccc(S(=O)(=O)[O-])cc5)c5ccc([nH]5)c(-c5ccc(S(=O)(=O)[O-])cc5)c5nc(c(-c6ccc(S(=O)(=O)[O-])cc6)c6ccc3[nH]6)C=C5)C=C4)cc2)c2ccccc2)n1
REMARK SMILES IDX 16 1 15 2 14 3 12 4 13 5 10 6 11 7 9 8 8 9 5 10 6 11 89 12
REMARK SMILES IDX 7 13 3 14 4 15 2 16 1 17 83 18 84 19 88 20 85 21 87 22 86 23
REMARK SMILES IDX 17 24 18 25 19 26 20 27 21 28 22 29 23 30 24 31 82 32 25 33
REMARK SMILES IDX 81 34 26 35 27 36 28 37 75 38 29 39 80 40 74 41 76 42 30 43
REMARK SMILES IDX 79 44 73 45 72 46 31 48 61 49 42 50 60 51 43 52 46 53 59 54
REMARK SMILES IDX 77 55 44 56 45 57 58 59 78 60 47 61 32 62 33 63 41 64 34 65
REMARK SMILES IDX 40 66 35 67 36 68 37 69 38 70 39 71 62 72 63 73 71 74 64 75
REMARK SMILES IDX 70 76 65 77 66 78 67 79 68 80 69 81 48 82 49 83 57 84 50 85
REMARK SMILES IDX 56 86 51 87 52 88 53 89 54 90 55 91
REMARK H PARENT 76 47 46 58
REMARK Flexibility Score: inf
ROOT
ATOM      1  C   UNL A   1      37.898  22.011  25.401  1.00  0.00     0.202 C 
ENDROOT
BRANCH   1   2
ATOM      2  C   UNL A   1      36.693  21.068  25.311  1.00  0.00     0.261 C 
BRANCH   2   3
ATOM      3  O   UNL A   1      35.537  21.694  24.716  1.00  0.00    -0.463 OA
BRANCH   3   4
ATOM      4  C   UNL A   1      34.384  21.538  25.425  1.00  0.00     0.316 C 
ATOM      5  O   UNL A   1      34.326  21.675  26.642  1.00  0.00    -0.251 OA
BRANCH   4   6
ATOM      6  C   UNL A   1      33.175  21.171  24.521  1.00  0.00     0.099 C 
ATOM      7  C   UNL A   1      31.857  21.229  25.330  1.00  0.00     0.029 C 
BRANCH   6   8
ATOM      8  C   UNL A   1      33.101  22.277  23.427  1.00  0.00     0.123 C 
BRANCH   8   9
ATOM      9  C   UNL A   1      32.489  23.560  23.872  1.00  0.00     0.228 A 
ATOM     10  C   UNL A   1      31.989  25.412  24.708  1.00  0.00     0.200 A 
ATOM     11  N   UNL A   1      30.800  24.849  24.456  1.00  0.00    -0.060 NA
ATOM     12  N   UNL A   1      33.073  24.645  24.332  1.00  0.00    -0.193 NA
ATOM     13  O   UNL A   1      31.131  23.638  23.879  1.00  0.00    -0.339 OA
BRANCH  10  14
ATOM     14  C   UNL A   1      32.121  26.770  25.335  1.00  0.00     0.186 C 
ATOM     15  C   UNL A   1      31.117  26.958  26.482  1.00  0.00     0.047 C 
BRANCH  14  16
ATOM     16  O   UNL A   1      33.474  26.986  25.785  1.00  0.00    -0.374 OA
ATOM     17  C   UNL A   1      34.014  28.242  25.409  1.00  0.00     0.195 C 
ENDBRANCH  14  16
ENDBRANCH  10  14
ENDBRANCH   8   9
ENDBRANCH   6   8
BRANCH   6  18
ATOM     18  C   UNL A   1      33.328  19.717  23.999  1.00  0.00    -0.030 A 
ATOM     19  C   UNL A   1      32.466  19.243  22.988  1.00  0.00     0.005 A 
ATOM     20  C   UNL A   1      34.237  18.798  24.545  1.00  0.00     0.005 A 
ATOM     21  C   UNL A   1      32.415  17.892  22.640  1.00  0.00     0.000 A 
ATOM     22  C   UNL A   1      34.185  17.443  24.200  1.00  0.00     0.000 A 
ATOM     23  C   UNL A   1      33.258  16.987  23.268  1.00  0.00     0.000 A 
ENDBRANCH   6  18
ENDBRANCH   4   6
ENDBRANCH   3   4
ENDBRANCH   2   3
ENDBRANCH   1   2
BRANCH   1  24
ATOM     24  O   UNL A   1      39.163  21.438  25.733  1.00  0.00    -0.374 OA
BRANCH  24  25
ATOM     25  C   UNL A   1      40.080  22.258  26.451  1.00  0.00     0.202 C 
BRANCH  25  26
ATOM     26  C   UNL A   1      39.582  23.627  26.917  1.00  0.00     0.261 C 
BRANCH  26  27
ATOM     27  O   UNL A   1      40.672  24.482  27.291  1.00  0.00    -0.460 OA
BRANCH  27  28
ATOM     28  C   UNL A   1      40.578  25.740  26.800  1.00  0.00     0.338 C 
ATOM     29  O   UNL A   1      40.612  26.077  25.622  1.00  0.00    -0.246 OA
BRANCH  28  30
ATOM     30  C   UNL A   1      40.218  26.674  27.879  1.00  0.00     0.060 A 
ATOM     31  C   UNL A   1      40.793  27.950  27.832  1.00  0.00     0.016 A 
ATOM     32  C   UNL A   1      39.383  26.306  28.937  1.00  0.00     0.016 A 
ATOM     33  C   UNL A   1      40.592  28.843  28.877  1.00  0.00     0.010 A 
ATOM     34  C   UNL A   1      39.193  27.201  29.995  1.00  0.00     0.010 A 
ATOM     35  C   UNL A   1      39.833  28.454  29.988  1.00  0.00    -0.014 A 
BRANCH  35  36
ATOM     36  C   UNL A   1      39.875  29.285  31.214  1.00  0.00     0.031 A 
ATOM     37  C   UNL A   1      41.005  29.070  32.185  1.00  0.00     0.074 A 
ATOM     38  C   UNL A   1      38.966  30.252  31.425  1.00  0.00     0.049 A 
ATOM     39  N   UNL A   1      41.234  29.658  33.330  1.00  0.00    -0.248 NA
ATOM     40  C   UNL A   1      42.014  28.063  31.813  1.00  0.00     0.031 C 
ATOM     41  C   UNL A   1      37.870  30.598  30.519  1.00  0.00     0.029 A 
ATOM     42  N   UNL A   1      38.826  31.127  32.471  1.00  0.00    -0.354 N 
ATOM     43  C   UNL A   1      42.413  29.099  33.810  1.00  0.00     0.074 A 
ATOM     44  C   UNL A   1      42.833  28.099  32.854  1.00  0.00     0.031 C 
ATOM     45  C   UNL A   1      37.165  31.610  31.056  1.00  0.00     0.029 A 
ATOM     46  C   UNL A   1      37.736  31.956  32.355  1.00  0.00     0.049 A 
ATOM     47  H   UNL A   1      39.447  31.157  33.235  1.00  0.00     0.167 HD
ATOM     48  C   UNL A   1      43.094  29.401  34.940  1.00  0.00     0.031 A 
ATOM     49  C   UNL A   1      37.246  32.873  33.212  1.00  0.00     0.031 A 
ATOM     50  C   UNL A   1      42.663  30.383  35.898  1.00  0.00     0.049 A 
ATOM     51  C   UNL A   1      37.960  33.109  34.521  1.00  0.00     0.074 A 
ATOM     52  C   UNL A   1      43.265  30.746  37.091  1.00  0.00     0.029 A 
ATOM     53  N   UNL A   1      41.523  31.161  35.772  1.00  0.00    -0.354 N 
ATOM     54  N   UNL A   1      39.070  32.566  34.964  1.00  0.00    -0.248 NA
ATOM     55  C   UNL A   1      37.357  34.083  35.440  1.00  0.00     0.031 C 
ATOM     56  C   UNL A   1      42.463  31.709  37.708  1.00  0.00     0.029 A 
ATOM     57  C   UNL A   1      41.393  31.989  36.873  1.00  0.00     0.049 A 
ATOM     58  H   UNL A   1      40.897  31.130  35.012  1.00  0.00     0.167 HD
ATOM     59  C   UNL A   1      39.312  33.159  36.200  1.00  0.00     0.074 A 
ATOM     60  C   UNL A   1      38.243  34.110  36.425  1.00  0.00     0.031 C 
ATOM     61  C   UNL A   1      40.328  32.938  37.071  1.00  0.00     0.031 A 
BRANCH  48  62
ATOM     62  C   UNL A   1      44.367  28.645  35.212  1.00  0.00    -0.014 A 
ATOM     63  C   UNL A   1      45.608  29.142  34.772  1.00  0.00     0.010 A 
ATOM     64  C   UNL A   1      44.330  27.454  35.956  1.00  0.00     0.010 A 
ATOM     65  C   UNL A   1      46.787  28.446  35.053  1.00  0.00     0.020 A 
ATOM     66  C   UNL A   1      45.509  26.767  36.260  1.00  0.00     0.020 A 
ATOM     67  C   UNL A   1      46.730  27.263  35.796  1.00  0.00     0.054 A 
BRANCH  67  68
ATOM     68  S   UNL A   1      48.280  26.403  36.180  1.00  0.00     0.124 S 
ATOM     69  O   UNL A   1      47.855  25.465  37.217  1.00  0.00    -0.237 OA
ATOM     70  O   UNL A   1      48.637  25.801  34.898  1.00  0.00    -0.237 OA
ATOM     71  O   UNL A   1      49.167  27.470  36.634  1.00  0.00    -0.744 OA
ENDBRANCH  67  68
ENDBRANCH  48  62
BRANCH  49  72
ATOM     72  C   UNL A   1      35.992  33.611  32.893  1.00  0.00    -0.014 A 
ATOM     73  C   UNL A   1      36.027  34.807  32.155  1.00  0.00     0.010 A 
ATOM     74  C   UNL A   1      34.756  33.138  33.368  1.00  0.00     0.010 A 
ATOM     75  C   UNL A   1      34.854  35.536  31.932  1.00  0.00     0.020 A 
ATOM     76  C   UNL A   1      33.577  33.846  33.120  1.00  0.00     0.020 A 
ATOM     77  C   UNL A   1      33.637  35.053  32.421  1.00  0.00     0.054 A 
BRANCH  77  78
ATOM     78  S   UNL A   1      32.126  36.009  32.116  1.00  0.00     0.124 S 
ATOM     79  O   UNL A   1      31.100  35.146  32.692  1.00  0.00    -0.237 OA
ATOM     80  O   UNL A   1      32.387  37.252  32.837  1.00  0.00    -0.237 OA
ATOM     81  O   UNL A   1      32.093  36.138  30.661  1.00  0.00    -0.744 OA
ENDBRANCH  77  78
ENDBRANCH  49  72
BRANCH  61  82
ATOM     82  C   UNL A   1      40.360  33.768  38.327  1.00  0.00    -0.014 A 
ATOM     83  C   UNL A   1      40.251  33.175  39.597  1.00  0.00     0.010 A 
ATOM     84  C   UNL A   1      40.566  35.157  38.233  1.00  0.00     0.010 A 
ATOM     85  C   UNL A   1      40.319  33.960  40.750  1.00  0.00     0.020 A 
ATOM     86  C   UNL A   1      40.664  35.941  39.385  1.00  0.00     0.020 A 
ATOM     87  C   UNL A   1      40.527  35.339  40.636  1.00  0.00     0.054 A 
BRANCH  87  88
ATOM     88  S   UNL A   1      40.665  36.328  42.151  1.00  0.00     0.124 S 
ATOM     89  O   UNL A   1      40.198  35.391  43.170  1.00  0.00    -0.237 OA
ATOM     90  O   UNL A   1      42.090  36.648  42.196  1.00  0.00    -0.237 OA
ATOM     91  O   UNL A   1      39.784  37.468  41.901  1.00  0.00    -0.744 OA
ENDBRANCH  87  88
ENDBRANCH  61  82
ENDBRANCH  35  36
ENDBRANCH  28  30
ENDBRANCH  27  28
ENDBRANCH  26  27
ENDBRANCH  25  26
ENDBRANCH  24  25
ENDBRANCH   1  24
TORSDOF 22
ENDMDL
MODEL 2
REMARK VINA RESULT:     -10.0      1.273      3.415
REMARK SMILES CO[C@H](C)c1noc(C[C@](C)(C(=O)OCCOCCOC(=O)c2ccc(-c3c4nc(c(-c5ccc(S(=O)(=O)[O-])cc5)c5ccc([nH]5)c(-c5ccc(S(=O)(=O)[O-])cc5)c5nc(c(-c6ccc(S(=O)(=O)[O-])cc6)c6ccc3[nH]6)C=C5)C=C4)cc2)c2ccccc2)n1
REMARK SMILES IDX 16 1 15 2 14 3 12 4 13 5 10 6 11 7 9 8 8 9 5 10 6 11 89 12
REMARK SMILES IDX 7 13 3 14 4 15 2 16 1 17 83 18 84 19 88 20 85 21 87 22 86 23
REMARK SMILES IDX 17 24 18 25 19 26 20 27 21 28 22 29 23 30 24 31 82 32 25 33
REMARK SMILES IDX 81 34 26 35 27 36 28 37 75 38 29 39 80 40 74 41 76 42 30 43
REMARK SMILES IDX 79 44 73 45 72 46 31 48 61 49 42 50 60 51 43 52 46 53 59 54
REMARK SMILES IDX 77 55 44 56 45 57 58 59 78 60 47 61 32 62 33 63 41 64 34 65
REMARK SMILES IDX 40 66 35 67 36 68 37 69 38 70 39 71 62 72 63 73 71 74 64 75
REMARK SMILES IDX 70 76 65 77 66 78 67 79 68 80 69 81 48 82 49 83 57 84 50 85
REMARK SMILES IDX 56 86 51 87 52 88 53 89 54 90 55 91
REMARK H PARENT 76 47 46 58
REMARK Flexibility Score: inf
ROOT
ATOM      1  C   UNL A   1      38.604  22.132  25.633  1.00  0.00     0.202 C 
ENDROOT
BRANCH   1   2
ATOM      2  C   UNL A   1      37.302  21.374  25.351  1.00  0.00     0.261 C 
BRANCH   2   3
ATOM      3  O   UNL A   1      36.324  22.181  24.663  1.00  0.00    -0.463 OA
BRANCH   3   4
ATOM      4  C   UNL A   1      35.588  22.990  25.477  1.00  0.00     0.316 C 
ATOM      5  O   UNL A   1      36.071  23.603  26.422  1.00  0.00    -0.251 OA
BRANCH   4   6
ATOM      6  C   UNL A   1      34.089  23.037  25.069  1.00  0.00     0.099 C 
ATOM      7  C   UNL A   1      33.898  22.458  23.645  1.00  0.00     0.029 C 
BRANCH   6   8
ATOM      8  C   UNL A   1      33.341  22.096  26.060  1.00  0.00     0.123 C 
BRANCH   8   9
ATOM      9  C   UNL A   1      33.101  20.715  25.555  1.00  0.00     0.228 A 
ATOM     10  C   UNL A   1      33.183  18.751  24.838  1.00  0.00     0.200 A 
ATOM     11  N   UNL A   1      31.987  19.189  24.421  1.00  0.00    -0.060 NA
ATOM     12  N   UNL A   1      33.900  19.672  25.575  1.00  0.00    -0.193 NA
ATOM     13  O   UNL A   1      31.923  20.477  24.918  1.00  0.00    -0.339 OA
BRANCH  10  14
ATOM     14  C   UNL A   1      33.685  17.369  24.536  1.00  0.00     0.186 C 
ATOM     15  C   UNL A   1      33.637  17.071  23.031  1.00  0.00     0.047 C 
BRANCH  14  16
ATOM     16  O   UNL A   1      35.016  17.192  25.061  1.00  0.00    -0.374 OA
ATOM     17  C   UNL A   1      35.378  15.837  25.275  1.00  0.00     0.195 C 
ENDBRANCH  14  16
ENDBRANCH  10  14
ENDBRANCH   8   9
ENDBRANCH   6   8
BRANCH   6  18
ATOM     18  C   UNL A   1      33.596  24.509  25.035  1.00  0.00    -0.030 A 
ATOM     19  C   UNL A   1      33.837  25.300  23.891  1.00  0.00     0.005 A 
ATOM     20  C   UNL A   1      32.987  25.139  26.130  1.00  0.00     0.005 A 
ATOM     21  C   UNL A   1      33.614  26.677  23.892  1.00  0.00     0.000 A 
ATOM     22  C   UNL A   1      32.766  26.521  26.133  1.00  0.00     0.000 A 
ATOM     23  C   UNL A   1      33.103  27.292  25.025  1.00  0.00     0.000 A 
ENDBRANCH   6  18
ENDBRANCH   4   6
ENDBRANCH   3   4
ENDBRANCH   2   3
ENDBRANCH   1   2
BRANCH   1  24
ATOM     24  O   UNL A   1      39.648  21.427  26.307  1.00  0.00    -0.374 OA
BRANCH  24  25
ATOM     25  C   UNL A   1      40.494  22.183  27.167  1.00  0.00     0.202 C 
BRANCH  25  26
ATOM     26  C   UNL A   1      39.962  23.527  27.670  1.00  0.00     0.261 C 
BRANCH  26  27
ATOM     27  O   UNL A   1      40.991  24.528  27.677  1.00  0.00    -0.460 OA
BRANCH  27  28
ATOM     28  C   UNL A   1      40.624  25.698  27.107  1.00  0.00     0.338 C 
ATOM     29  O   UNL A   1      40.428  25.909  25.916  1.00  0.00    -0.246 OA
BRANCH  28  30
ATOM     30  C   UNL A   1      40.283  26.680  28.150  1.00  0.00     0.060 A 
ATOM     31  C   UNL A   1      41.021  27.870  28.167  1.00  0.00     0.016 A 
ATOM     32  C   UNL A   1      39.305  26.432  29.117  1.00  0.00     0.016 A 
ATOM     33  C   UNL A   1      40.834  28.790  29.191  1.00  0.00     0.010 A 
ATOM     34  C   UNL A   1      39.129  27.353  30.155  1.00  0.00     0.010 A 
ATOM     35  C   UNL A   1      39.924  28.511  30.218  1.00  0.00    -0.014 A 
BRANCH  35  36
ATOM     36  C   UNL A   1      39.951  29.339  31.447  1.00  0.00     0.031 A 
ATOM     37  C   UNL A   1      41.065  29.116  32.435  1.00  0.00     0.074 A 
ATOM     38  C   UNL A   1      39.044  30.311  31.645  1.00  0.00     0.049 A 
ATOM     39  N   UNL A   1      41.278  29.700  33.585  1.00  0.00    -0.248 NA
ATOM     40  C   UNL A   1      42.073  28.104  32.076  1.00  0.00     0.031 C 
ATOM     41  C   UNL A   1      37.964  30.665  30.723  1.00  0.00     0.029 A 
ATOM     42  N   UNL A   1      38.892  31.184  32.691  1.00  0.00    -0.354 N 
ATOM     43  C   UNL A   1      42.446  29.134  34.082  1.00  0.00     0.074 A 
ATOM     44  C   UNL A   1      42.876  28.134  33.131  1.00  0.00     0.031 C 
ATOM     45  C   UNL A   1      37.256  31.679  31.251  1.00  0.00     0.029 A 
ATOM     46  C   UNL A   1      37.809  32.020  32.560  1.00  0.00     0.049 A 
ATOM     47  H   UNL A   1      39.501  31.210  33.465  1.00  0.00     0.167 HD
ATOM     48  C   UNL A   1      43.111  29.430  35.224  1.00  0.00     0.031 A 
ATOM     49  C   UNL A   1      37.310  32.937  33.411  1.00  0.00     0.031 A 
ATOM     50  C   UNL A   1      42.671  30.412  36.177  1.00  0.00     0.049 A 
ATOM     51  C   UNL A   1      38.004  33.166  34.731  1.00  0.00     0.074 A 
ATOM     52  C   UNL A   1      43.255  30.769  37.380  1.00  0.00     0.029 A 
ATOM     53  N   UNL A   1      41.537  31.197  36.035  1.00  0.00    -0.354 N 
ATOM     54  N   UNL A   1      39.104  32.617  35.191  1.00  0.00    -0.248 NA
ATOM     55  C   UNL A   1      37.392  34.142  35.643  1.00  0.00     0.031 C 
ATOM     56  C   UNL A   1      42.449  31.735  37.986  1.00  0.00     0.029 A 
ATOM     57  C   UNL A   1      41.394  32.023  37.135  1.00  0.00     0.049 A 
ATOM     58  H   UNL A   1      40.923  31.170  35.264  1.00  0.00     0.167 HD
ATOM     59  C   UNL A   1      39.330  33.206  36.432  1.00  0.00     0.074 A 
ATOM     60  C   UNL A   1      38.262  34.162  36.642  1.00  0.00     0.031 C 
ATOM     61  C   UNL A   1      40.330  32.978  37.319  1.00  0.00     0.031 A 
BRANCH  48  62
ATOM     62  C   UNL A   1      44.376  28.667  35.514  1.00  0.00    -0.014 A 
ATOM     63  C   UNL A   1      45.626  29.158  35.096  1.00  0.00     0.010 A 
ATOM     64  C   UNL A   1      44.320  27.473  36.254  1.00  0.00     0.010 A 
ATOM     65  C   UNL A   1      46.797  28.455  35.393  1.00  0.00     0.020 A 
ATOM     66  C   UNL A   1      45.491  26.780  36.575  1.00  0.00     0.020 A 
ATOM     67  C   UNL A   1      46.722  27.270  36.133  1.00  0.00     0.054 A 
BRANCH  67  68
ATOM     68  S   UNL A   1      48.260  26.401  36.539  1.00  0.00     0.124 S 
ATOM     69  O   UNL A   1      47.970  25.044  36.080  1.00  0.00    -0.237 OA
ATOM     70  O   UNL A   1      49.255  27.128  35.756  1.00  0.00    -0.237 OA
ATOM     71  O   UNL A   1      48.375  26.555  37.987  1.00  0.00    -0.744 OA
ENDBRANCH  67  68
ENDBRANCH  48  62
BRANCH  49  72
ATOM     72  C   UNL A   1      36.066  33.683  33.074  1.00  0.00    -0.014 A 
ATOM     73  C   UNL A   1      36.119  34.882  32.341  1.00  0.00     0.010 A 
ATOM     74  C   UNL A   1      34.819  33.214  33.526  1.00  0.00     0.010 A 
ATOM     75  C   UNL A   1      34.953  35.617  32.102  1.00  0.00     0.020 A 
ATOM     76  C   UNL A   1      33.648  33.929  33.261  1.00  0.00     0.020 A 
ATOM     77  C   UNL A   1      33.726  35.138  32.568  1.00  0.00     0.054 A 
BRANCH  77  78
ATOM     78  S   UNL A   1      32.224  36.103  32.241  1.00  0.00     0.124 S 
ATOM     79  O   UNL A   1      32.232  37.058  33.344  1.00  0.00    -0.237 OA
ATOM     80  O   UNL A   1      32.489  36.660  30.918  1.00  0.00    -0.237 OA
ATOM     81  O   UNL A   1      31.161  35.101  32.286  1.00  0.00    -0.744 OA
ENDBRANCH  77  78
ENDBRANCH  49  72
BRANCH  61  82
ATOM     82  C   UNL A   1      40.347  33.804  38.577  1.00  0.00    -0.014 A 
ATOM     83  C   UNL A   1      39.818  33.311  39.782  1.00  0.00     0.010 A 
ATOM     84  C   UNL A   1      40.960  35.071  38.564  1.00  0.00     0.010 A 
ATOM     85  C   UNL A   1      39.877  34.081  40.946  1.00  0.00     0.020 A 
ATOM     86  C   UNL A   1      41.046  35.832  39.731  1.00  0.00     0.020 A 
ATOM     87  C   UNL A   1      40.493  35.337  40.913  1.00  0.00     0.054 A 
BRANCH  87  88
ATOM     88  S   UNL A   1      40.602  36.295  42.450  1.00  0.00     0.124 S 
ATOM     89  O   UNL A   1      39.982  35.392  43.416  1.00  0.00    -0.237 OA
ATOM     90  O   UNL A   1      42.042  36.489  42.604  1.00  0.00    -0.237 OA
ATOM     91  O   UNL A   1      39.844  37.509  42.156  1.00  0.00    -0.744 OA
ENDBRANCH  87  88
ENDBRANCH  61  82
ENDBRANCH  35  36
ENDBRANCH  28  30
ENDBRANCH  27  28
ENDBRANCH  26  27
ENDBRANCH  25  26
ENDBRANCH  24  25
ENDBRANCH   1  24
TORSDOF 22
ENDMDL
MODEL 3
REMARK VINA RESULT:      -9.9      1.957      3.368
REMARK SMILES CO[C@H](C)c1noc(C[C@](C)(C(=O)OCCOCCOC(=O)c2ccc(-c3c4nc(c(-c5ccc(S(=O)(=O)[O-])cc5)c5ccc([nH]5)c(-c5ccc(S(=O)(=O)[O-])cc5)c5nc(c(-c6ccc(S(=O)(=O)[O-])cc6)c6ccc3[nH]6)C=C5)C=C4)cc2)c2ccccc2)n1
REMARK SMILES IDX 16 1 15 2 14 3 12 4 13 5 10 6 11 7 9 8 8 9 5 10 6 11 89 12
REMARK SMILES IDX 7 13 3 14 4 15 2 16 1 17 83 18 84 19 88 20 85 21 87 22 86 23
REMARK SMILES IDX 17 24 18 25 19 26 20 27 21 28 22 29 23 30 24 31 82 32 25 33
REMARK SMILES IDX 81 34 26 35 27 36 28 37 75 38 29 39 80 40 74 41 76 42 30 43
REMARK SMILES IDX 79 44 73 45 72 46 31 48 61 49 42 50 60 51 43 52 46 53 59 54
REMARK SMILES IDX 77 55 44 56 45 57 58 59 78 60 47 61 32 62 33 63 41 64 34 65
REMARK SMILES IDX 40 66 35 67 36 68 37 69 38 70 39 71 62 72 63 73 71 74 64 75
REMARK SMILES IDX 70 76 65 77 66 78 67 79 68 80 69 81 48 82 49 83 57 84 50 85
REMARK SMILES IDX 56 86 51 87 52 88 53 89 54 90 55 91
REMARK H PARENT 76 47 46 58
REMARK Flexibility Score: inf
ROOT
ATOM      1  C   UNL A   1      35.438  22.366  25.217  1.00  0.00     0.202 C 
ENDROOT
BRANCH   1   2
ATOM      2  C   UNL A   1      34.368  22.293  24.123  1.00  0.00     0.261 C 
BRANCH   2   3
ATOM      3  O   UNL A   1      33.688  23.550  23.922  1.00  0.00    -0.463 OA
BRANCH   3   4
ATOM      4  C   UNL A   1      32.328  23.460  23.908  1.00  0.00     0.316 C 
ATOM      5  O   UNL A   1      31.720  22.641  23.228  1.00  0.00    -0.251 OA
BRANCH   4   6
ATOM      6  C   UNL A   1      31.654  24.504  24.841  1.00  0.00     0.099 C 
ATOM      7  C   UNL A   1      30.541  23.837  25.684  1.00  0.00     0.029 C 
BRANCH   6   8
ATOM      8  C   UNL A   1      32.762  24.983  25.826  1.00  0.00     0.123 C 
BRANCH   8   9
ATOM      9  C   UNL A   1      32.557  26.348  26.386  1.00  0.00     0.228 A 
ATOM     10  C   UNL A   1      32.688  28.292  27.148  1.00  0.00     0.200 A 
ATOM     11  N   UNL A   1      31.533  27.835  27.650  1.00  0.00    -0.060 NA
ATOM     12  N   UNL A   1      33.347  27.397  26.330  1.00  0.00    -0.193 NA
ATOM     13  O   UNL A   1      31.435  26.560  27.125  1.00  0.00    -0.339 OA
BRANCH  10  14
ATOM     14  C   UNL A   1      33.206  29.670  27.446  1.00  0.00     0.186 C 
ATOM     15  C   UNL A   1      34.737  29.725  27.355  1.00  0.00     0.047 C 
BRANCH  14  16
ATOM     16  O   UNL A   1      32.596  30.636  26.566  1.00  0.00    -0.374 OA
ATOM     17  C   UNL A   1      31.847  30.061  25.508  1.00  0.00     0.195 C 
ENDBRANCH  14  16
ENDBRANCH  10  14
ENDBRANCH   8   9
ENDBRANCH   6   8
BRANCH   6  18
ATOM     18  C   UNL A   1      30.982  25.615  23.991  1.00  0.00    -0.030 A 
ATOM     19  C   UNL A   1      31.678  26.178  22.901  1.00  0.00     0.005 A 
ATOM     20  C   UNL A   1      29.729  26.165  24.300  1.00  0.00     0.005 A 
ATOM     21  C   UNL A   1      31.216  27.320  22.245  1.00  0.00     0.000 A 
ATOM     22  C   UNL A   1      29.265  27.312  23.646  1.00  0.00     0.000 A 
ATOM     23  C   UNL A   1      30.020  27.903  22.637  1.00  0.00     0.000 A 
ENDBRANCH   6  18
ENDBRANCH   4   6
ENDBRANCH   3   4
ENDBRANCH   2   3
ENDBRANCH   1   2
BRANCH   1  24
ATOM     24  O   UNL A   1      36.233  23.550  25.287  1.00  0.00    -0.374 OA
BRANCH  24  25
ATOM     25  C   UNL A   1      37.615  23.389  25.595  1.00  0.00     0.202 C 
BRANCH  25  26
ATOM     26  C   UNL A   1      38.234  24.380  26.583  1.00  0.00     0.261 C 
BRANCH  26  27
ATOM     27  O   UNL A   1      39.644  24.157  26.733  1.00  0.00    -0.460 OA
BRANCH  27  28
ATOM     28  C   UNL A   1      40.403  25.246  26.470  1.00  0.00     0.338 C 
ATOM     29  O   UNL A   1      40.781  25.635  25.371  1.00  0.00    -0.246 OA
BRANCH  28  30
ATOM     30  C   UNL A   1      40.565  26.052  27.691  1.00  0.00     0.060 A 
ATOM     31  C   UNL A   1      39.578  25.918  28.676  1.00  0.00     0.016 A 
ATOM     32  C   UNL A   1      41.621  26.951  27.858  1.00  0.00     0.016 A 
ATOM     33  C   UNL A   1      39.603  26.731  29.802  1.00  0.00     0.010 A 
ATOM     34  C   UNL A   1      41.637  27.778  28.986  1.00  0.00     0.010 A 
ATOM     35  C   UNL A   1      40.604  27.701  29.937  1.00  0.00    -0.014 A 
BRANCH  35  36
ATOM     36  C   UNL A   1      40.453  28.751  30.971  1.00  0.00     0.031 A 
ATOM     37  C   UNL A   1      41.368  28.714  32.167  1.00  0.00     0.074 A 
ATOM     38  C   UNL A   1      39.567  29.751  30.817  1.00  0.00     0.049 A 
ATOM     39  N   UNL A   1      41.404  29.508  33.204  1.00  0.00    -0.248 NA
ATOM     40  C   UNL A   1      42.379  27.643  32.192  1.00  0.00     0.031 C 
ATOM     41  C   UNL A   1      38.681  29.928  29.667  1.00  0.00     0.029 A 
ATOM     42  N   UNL A   1      39.275  30.811  31.635  1.00  0.00    -0.354 N 
ATOM     43  C   UNL A   1      42.443  29.039  34.000  1.00  0.00     0.074 A 
ATOM     44  C   UNL A   1      42.988  27.869  33.347  1.00  0.00     0.031 C 
ATOM     45  C   UNL A   1      37.936  31.031  29.859  1.00  0.00     0.029 A 
ATOM     46  C   UNL A   1      38.268  31.615  31.157  1.00  0.00     0.049 A 
ATOM     47  H   UNL A   1      39.741  30.981  32.486  1.00  0.00     0.167 HD
ATOM     48  C   UNL A   1      42.912  29.545  35.164  1.00  0.00     0.031 A 
ATOM     49  C   UNL A   1      37.669  32.684  31.717  1.00  0.00     0.031 A 
ATOM     50  C   UNL A   1      42.356  30.697  35.821  1.00  0.00     0.049 A 
ATOM     51  C   UNL A   1      38.133  33.159  33.071  1.00  0.00     0.074 A 
ATOM     52  C   UNL A   1      42.738  31.276  37.018  1.00  0.00     0.029 A 
ATOM     53  N   UNL A   1      41.299  31.449  35.333  1.00  0.00    -0.354 N 
ATOM     54  N   UNL A   1      39.112  32.700  33.816  1.00  0.00    -0.248 NA
ATOM     55  C   UNL A   1      37.414  34.299  33.658  1.00  0.00     0.031 C 
ATOM     56  C   UNL A   1      41.881  32.348  37.278  1.00  0.00     0.029 A 
ATOM     57  C   UNL A   1      41.003  32.475  36.213  1.00  0.00     0.049 A 
ATOM     58  H   UNL A   1      40.827  31.279  34.484  1.00  0.00     0.167 HD
ATOM     59  C   UNL A   1      39.145  33.516  34.942  1.00  0.00     0.074 A 
ATOM     60  C   UNL A   1      38.099  34.504  34.774  1.00  0.00     0.031 C 
ATOM     61  C   UNL A   1      39.966  33.455  36.020  1.00  0.00     0.031 A 
BRANCH  48  62
ATOM     62  C   UNL A   1      44.074  28.841  35.814  1.00  0.00    -0.014 A 
ATOM     63  C   UNL A   1      43.868  27.724  36.644  1.00  0.00     0.010 A 
ATOM     64  C   UNL A   1      45.387  29.269  35.553  1.00  0.00     0.010 A 
ATOM     65  C   UNL A   1      44.955  27.062  37.220  1.00  0.00     0.020 A 
ATOM     66  C   UNL A   1      46.479  28.595  36.108  1.00  0.00     0.020 A 
ATOM     67  C   UNL A   1      46.254  27.501  36.948  1.00  0.00     0.054 A 
BRANCH  67  68
ATOM     68  S   UNL A   1      47.647  26.598  37.677  1.00  0.00     0.124 S 
ATOM     69  O   UNL A   1      46.996  25.383  38.163  1.00  0.00    -0.237 OA
ATOM     70  O   UNL A   1      48.543  26.417  36.538  1.00  0.00    -0.237 OA
ATOM     71  O   UNL A   1      48.139  27.497  38.718  1.00  0.00    -0.744 OA
ENDBRANCH  67  68
ENDBRANCH  48  62
BRANCH  49  72
ATOM     72  C   UNL A   1      36.535  33.361  31.028  1.00  0.00    -0.014 A 
ATOM     73  C   UNL A   1      36.687  33.885  29.732  1.00  0.00     0.010 A 
ATOM     74  C   UNL A   1      35.304  33.523  31.689  1.00  0.00     0.010 A 
ATOM     75  C   UNL A   1      35.642  34.591  29.127  1.00  0.00     0.020 A 
ATOM     76  C   UNL A   1      34.247  34.200  31.076  1.00  0.00     0.020 A 
ATOM     77  C   UNL A   1      34.430  34.749  29.806  1.00  0.00     0.054 A 
BRANCH  77  78
ATOM     78  S   UNL A   1      33.085  35.663  29.002  1.00  0.00     0.124 S 
ATOM     79  O   UNL A   1      33.817  36.642  28.206  1.00  0.00    -0.237 OA
ATOM     80  O   UNL A   1      32.399  34.617  28.247  1.00  0.00    -0.237 OA
ATOM     81  O   UNL A   1      32.326  36.208  30.126  1.00  0.00    -0.744 OA
ENDBRANCH  77  78
ENDBRANCH  49  72
BRANCH  61  82
ATOM     82  C   UNL A   1      39.800  34.510  37.082  1.00  0.00    -0.014 A 
ATOM     83  C   UNL A   1      38.961  34.305  38.190  1.00  0.00     0.010 A 
ATOM     84  C   UNL A   1      40.547  35.700  36.996  1.00  0.00     0.010 A 
ATOM     85  C   UNL A   1      38.850  35.283  39.182  1.00  0.00     0.020 A 
ATOM     86  C   UNL A   1      40.460  36.668  38.000  1.00  0.00     0.020 A 
ATOM     87  C   UNL A   1      39.602  36.458  39.080  1.00  0.00     0.054 A 
BRANCH  87  88
ATOM     88  S   UNL A   1      39.480  37.689  40.407  1.00  0.00     0.124 S 
ATOM     89  O   UNL A   1      39.443  36.848  41.600  1.00  0.00    -0.237 OA
ATOM     90  O   UNL A   1      40.699  38.474  40.229  1.00  0.00    -0.237 OA
ATOM     91  O   UNL A   1      38.239  38.400  40.107  1.00  0.00    -0.744 OA
ENDBRANCH  87  88
ENDBRANCH  61  82
ENDBRANCH  35  36
ENDBRANCH  28  30
ENDBRANCH  27  28
ENDBRANCH  26  27
ENDBRANCH  25  26
ENDBRANCH  24  25
ENDBRANCH   1  24
TORSDOF 22
ENDMDL
