MODEL 1
REMARK VINA RESULT:     -11.0      0.000      0.000
REMARK SMILES C[C@](Nc1ccc(C(N)=O)nn1)(C(=O)OCCOCCOC(=O)c1ccc(-c2c3nc(c(-c4ccc(S(=O)(=O)[O-])cc4)c4ccc([nH]4)c(-c4ccc(S(=O)(=O)[O-])cc4)c4nc(c(-c5ccc(S(=O)(=O)[O-])cc5)c5ccc2[nH]5)C=C4)C=C3)cc1)c1ccccc1
REMARK SMILES IDX 18 1 17 2 16 3 15 4 13 5 14 6 2 7 1 8 84 9 85 10 89 11 86 12
REMARK SMILES IDX 88 13 87 14 3 15 4 17 5 18 12 19 6 20 11 21 7 22 8 23 9 24
REMARK SMILES IDX 10 25 19 28 20 29 21 30 22 31 23 32 24 33 25 34 83 35 26 36
REMARK SMILES IDX 82 37 27 38 28 39 29 40 76 41 30 42 81 43 75 44 77 45 31 46
REMARK SMILES IDX 80 47 74 48 73 49 32 51 62 52 43 53 61 54 44 55 47 56 60 57
REMARK SMILES IDX 78 58 45 59 46 60 59 62 79 63 48 64 33 65 34 66 42 67 35 68
REMARK SMILES IDX 41 69 36 70 37 71 38 72 39 73 40 74 63 75 64 76 72 77 65 78
REMARK SMILES IDX 71 79 66 80 67 81 68 82 69 83 70 84 49 85 50 86 58 87 51 88
REMARK SMILES IDX 57 89 52 90 53 91 54 92 55 93 56 94
REMARK H PARENT 3 16 9 26 9 27 77 50 47 61
REMARK Flexibility Score: inf
ROOT
ATOM      1  O   UNL A   1      31.707  28.773  25.001  1.00  0.00    -0.374 OA
ENDROOT
BRANCH   1   2
ATOM      2  C   UNL A   1      31.732  27.462  25.570  1.00  0.00     0.202 C 
BRANCH   2   3
ATOM      3  C   UNL A   1      30.854  26.404  24.898  1.00  0.00     0.261 C 
BRANCH   3   4
ATOM      4  O   UNL A   1      31.584  25.183  24.661  1.00  0.00    -0.461 OA
BRANCH   4   5
ATOM      5  C   UNL A   1      32.453  25.205  23.608  1.00  0.00     0.336 C 
ATOM      6  O   UNL A   1      32.726  26.214  22.965  1.00  0.00    -0.249 OA
BRANCH   5   7
ATOM      7  C   UNL A   1      33.040  23.781  23.283  1.00  0.00     0.160 C 
ATOM      8  C   UNL A   1      33.027  23.760  21.744  1.00  0.00     0.053 C 
BRANCH   7   9
ATOM      9  C   UNL A   1      34.466  23.722  23.895  1.00  0.00    -0.012 A 
ATOM     10  C   UNL A   1      34.741  24.170  25.200  1.00  0.00     0.007 A 
ATOM     11  C   UNL A   1      35.520  23.091  23.201  1.00  0.00     0.007 A 
ATOM     12  C   UNL A   1      35.990  23.959  25.794  1.00  0.00     0.000 A 
ATOM     13  C   UNL A   1      36.762  22.862  23.802  1.00  0.00     0.000 A 
ATOM     14  C   UNL A   1      36.994  23.289  25.103  1.00  0.00     0.000 A 
ENDBRANCH   7   9
BRANCH   7  15
ATOM     15  N   UNL A   1      32.224  22.702  23.904  1.00  0.00    -0.350 N 
ATOM     16  H   UNL A   1      31.399  23.016  24.341  1.00  0.00     0.163 HD
BRANCH  15  17
ATOM     17  C   UNL A   1      32.422  21.347  23.972  1.00  0.00     0.149 A 
ATOM     18  C   UNL A   1      32.809  20.650  25.104  1.00  0.00     0.051 A 
ATOM     19  N   UNL A   1      32.174  20.657  22.835  1.00  0.00    -0.132 NA
ATOM     20  C   UNL A   1      33.042  19.275  25.041  1.00  0.00     0.040 A 
ATOM     21  N   UNL A   1      32.373  19.289  22.756  1.00  0.00    -0.143 NA
ATOM     22  C   UNL A   1      32.823  18.627  23.843  1.00  0.00     0.150 A 
BRANCH  22  23
ATOM     23  C   UNL A   1      33.066  17.163  23.718  1.00  0.00     0.269 C 
ATOM     24  N   UNL A   1      32.534  16.366  24.694  1.00  0.00    -0.364 N 
ATOM     25  O   UNL A   1      33.715  16.695  22.790  1.00  0.00    -0.268 OA
ATOM     26  H   UNL A   1      32.016  16.766  25.429  1.00  0.00     0.160 HD
ATOM     27  H   UNL A   1      32.670  15.391  24.662  1.00  0.00     0.160 HD
ENDBRANCH  22  23
ENDBRANCH  15  17
ENDBRANCH   7  15
ENDBRANCH   5   7
ENDBRANCH   4   5
ENDBRANCH   3   4
ENDBRANCH   2   3
ENDBRANCH   1   2
BRANCH   1  28
ATOM     28  C   UNL A   1      32.683  29.704  25.457  1.00  0.00     0.202 C 
BRANCH  28  29
ATOM     29  C   UNL A   1      32.434  30.388  26.808  1.00  0.00     0.261 C 
BRANCH  29  30
ATOM     30  O   UNL A   1      33.535  30.238  27.715  1.00  0.00    -0.460 OA
BRANCH  30  31
ATOM     31  C   UNL A   1      34.340  31.324  27.772  1.00  0.00     0.338 C 
ATOM     32  O   UNL A   1      33.986  32.499  27.785  1.00  0.00    -0.246 OA
BRANCH  31  33
ATOM     33  C   UNL A   1      35.742  30.935  28.001  1.00  0.00     0.060 A 
ATOM     34  C   UNL A   1      36.022  29.563  27.983  1.00  0.00     0.016 A 
ATOM     35  C   UNL A   1      36.736  31.861  28.329  1.00  0.00     0.016 A 
ATOM     36  C   UNL A   1      37.266  29.101  28.392  1.00  0.00     0.010 A 
ATOM     37  C   UNL A   1      37.989  31.394  28.749  1.00  0.00     0.010 A 
ATOM     38  C   UNL A   1      38.233  30.011  28.841  1.00  0.00    -0.014 A 
BRANCH  38  39
ATOM     39  C   UNL A   1      39.386  29.476  29.606  1.00  0.00     0.031 A 
ATOM     40  C   UNL A   1      39.530  29.871  31.054  1.00  0.00     0.074 A 
ATOM     41  C   UNL A   1      40.218  28.571  29.062  1.00  0.00     0.049 A 
ATOM     42  N   UNL A   1      40.383  29.443  31.949  1.00  0.00    -0.248 NA
ATOM     43  C   UNL A   1      38.581  30.876  31.563  1.00  0.00     0.031 C 
ATOM     44  C   UNL A   1      40.147  28.075  27.689  1.00  0.00     0.029 A 
ATOM     45  N   UNL A   1      41.274  27.891  29.613  1.00  0.00    -0.354 N 
ATOM     46  C   UNL A   1      40.076  30.127  33.121  1.00  0.00     0.074 A 
ATOM     47  C   UNL A   1      38.982  31.022  32.816  1.00  0.00     0.031 C 
ATOM     48  C   UNL A   1      41.112  27.156  27.507  1.00  0.00     0.029 A 
ATOM     49  C   UNL A   1      41.877  27.013  28.745  1.00  0.00     0.049 A 
ATOM     50  H   UNL A   1      41.572  28.019  30.543  1.00  0.00     0.167 HD
ATOM     51  C   UNL A   1      40.646  30.014  34.344  1.00  0.00     0.031 A 
ATOM     52  C   UNL A   1      42.924  26.186  28.931  1.00  0.00     0.031 A 
ATOM     53  C   UNL A   1      41.737  29.127  34.644  1.00  0.00     0.049 A 
ATOM     54  C   UNL A   1      43.573  26.113  30.288  1.00  0.00     0.074 A 
ATOM     55  C   UNL A   1      42.381  28.932  35.853  1.00  0.00     0.029 A 
ATOM     56  N   UNL A   1      42.350  28.290  33.724  1.00  0.00    -0.354 N 
ATOM     57  N   UNL A   1      43.255  26.749  31.391  1.00  0.00    -0.248 NA
ATOM     58  C   UNL A   1      44.710  25.191  30.430  1.00  0.00     0.031 C 
ATOM     59  C   UNL A   1      43.416  28.011  35.652  1.00  0.00     0.029 A 
ATOM     60  C   UNL A   1      43.378  27.590  34.331  1.00  0.00     0.049 A 
ATOM     61  H   UNL A   1      42.092  28.206  32.777  1.00  0.00     0.167 HD
ATOM     62  C   UNL A   1      44.130  26.278  32.366  1.00  0.00     0.074 A 
ATOM     63  C   UNL A   1      44.982  25.298  31.723  1.00  0.00     0.031 C 
ATOM     64  C   UNL A   1      44.215  26.618  33.676  1.00  0.00     0.031 A 
BRANCH  51  65
ATOM     65  C   UNL A   1      40.120  30.905  35.438  1.00  0.00    -0.014 A 
ATOM     66  C   UNL A   1      40.929  31.888  36.037  1.00  0.00     0.010 A 
ATOM     67  C   UNL A   1      38.785  30.765  35.862  1.00  0.00     0.010 A 
ATOM     68  C   UNL A   1      40.423  32.687  37.067  1.00  0.00     0.020 A 
ATOM     69  C   UNL A   1      38.270  31.580  36.874  1.00  0.00     0.020 A 
ATOM     70  C   UNL A   1      39.099  32.525  37.483  1.00  0.00     0.054 A 
BRANCH  70  71
ATOM     71  S   UNL A   1      38.463  33.581  38.813  1.00  0.00     0.124 S 
ATOM     72  O   UNL A   1      37.100  33.079  38.970  1.00  0.00    -0.237 OA
ATOM     73  O   UNL A   1      39.372  33.287  39.919  1.00  0.00    -0.237 OA
ATOM     74  O   UNL A   1      38.569  34.931  38.265  1.00  0.00    -0.744 OA
ENDBRANCH  70  71
ENDBRANCH  51  65
BRANCH  52  75
ATOM     75  C   UNL A   1      43.419  25.349  27.803  1.00  0.00    -0.014 A 
ATOM     76  C   UNL A   1      44.356  25.857  26.886  1.00  0.00     0.010 A 
ATOM     77  C   UNL A   1      42.949  24.033  27.642  1.00  0.00     0.010 A 
ATOM     78  C   UNL A   1      44.799  25.070  25.817  1.00  0.00     0.020 A 
ATOM     79  C   UNL A   1      43.409  23.235  26.591  1.00  0.00     0.020 A 
ATOM     80  C   UNL A   1      44.323  23.763  25.678  1.00  0.00     0.054 A 
BRANCH  80  81
ATOM     81  S   UNL A   1      44.950  22.742  24.315  1.00  0.00     0.124 S 
ATOM     82  O   UNL A   1      46.024  23.574  23.782  1.00  0.00    -0.237 OA
ATOM     83  O   UNL A   1      45.373  21.524  25.001  1.00  0.00    -0.237 OA
ATOM     84  O   UNL A   1      43.787  22.585  23.444  1.00  0.00    -0.744 OA
ENDBRANCH  80  81
ENDBRANCH  52  75
BRANCH  64  85
ATOM     85  C   UNL A   1      45.232  25.889  34.515  1.00  0.00    -0.014 A 
ATOM     86  C   UNL A   1      44.923  24.676  35.155  1.00  0.00     0.010 A 
ATOM     87  C   UNL A   1      46.532  26.415  34.631  1.00  0.00     0.010 A 
ATOM     88  C   UNL A   1      45.883  24.027  35.937  1.00  0.00     0.020 A 
ATOM     89  C   UNL A   1      47.502  25.755  35.388  1.00  0.00     0.020 A 
ATOM     90  C   UNL A   1      47.165  24.574  36.054  1.00  0.00     0.054 A 
BRANCH  90  91
ATOM     91  S   UNL A   1      48.401  23.708  37.059  1.00  0.00     0.124 S 
ATOM     92  O   UNL A   1      49.649  24.102  36.411  1.00  0.00    -0.237 OA
ATOM     93  O   UNL A   1      48.182  24.265  38.392  1.00  0.00    -0.237 OA
ATOM     94  O   UNL A   1      48.041  22.300  36.913  1.00  0.00    -0.744 OA
ENDBRANCH  90  91
ENDBRANCH  64  85
ENDBRANCH  38  39
ENDBRANCH  31  33
ENDBRANCH  30  31
ENDBRANCH  29  30
ENDBRANCH  28  29
ENDBRANCH   1  28
TORSDOF 21
ENDMDL
MODEL 2
REMARK VINA RESULT:     -10.3      3.653      4.811
REMARK SMILES C[C@](Nc1ccc(C(N)=O)nn1)(C(=O)OCCOCCOC(=O)c1ccc(-c2c3nc(c(-c4ccc(S(=O)(=O)[O-])cc4)c4ccc([nH]4)c(-c4ccc(S(=O)(=O)[O-])cc4)c4nc(c(-c5ccc(S(=O)(=O)[O-])cc5)c5ccc2[nH]5)C=C4)C=C3)cc1)c1ccccc1
REMARK SMILES IDX 18 1 17 2 16 3 15 4 13 5 14 6 2 7 1 8 84 9 85 10 89 11 86 12
REMARK SMILES IDX 88 13 87 14 3 15 4 17 5 18 12 19 6 20 11 21 7 22 8 23 9 24
REMARK SMILES IDX 10 25 19 28 20 29 21 30 22 31 23 32 24 33 25 34 83 35 26 36
REMARK SMILES IDX 82 37 27 38 28 39 29 40 76 41 30 42 81 43 75 44 77 45 31 46
REMARK SMILES IDX 80 47 74 48 73 49 32 51 62 52 43 53 61 54 44 55 47 56 60 57
REMARK SMILES IDX 78 58 45 59 46 60 59 62 79 63 48 64 33 65 34 66 42 67 35 68
REMARK SMILES IDX 41 69 36 70 37 71 38 72 39 73 40 74 63 75 64 76 72 77 65 78
REMARK SMILES IDX 71 79 66 80 67 81 68 82 69 83 70 84 49 85 50 86 58 87 51 88
REMARK SMILES IDX 57 89 52 90 53 91 54 92 55 93 56 94
REMARK H PARENT 3 16 9 26 9 27 77 50 47 61
REMARK Flexibility Score: inf
ROOT
ATOM      1  O   UNL A   1      32.929  29.746  25.913  1.00  0.00    -0.374 OA
ENDROOT
BRANCH   1   2
ATOM      2  C   UNL A   1      34.035  28.842  25.845  1.00  0.00     0.202 C 
BRANCH   2   3
ATOM      3  C   UNL A   1      33.712  27.384  25.511  1.00  0.00     0.261 C 
BRANCH   3   4
ATOM      4  O   UNL A   1      32.290  27.151  25.474  1.00  0.00    -0.461 OA
BRANCH   4   5
ATOM      5  C   UNL A   1      31.815  26.542  24.348  1.00  0.00     0.336 C 
ATOM      6  O   UNL A   1      32.447  26.454  23.298  1.00  0.00    -0.249 OA
BRANCH   5   7
ATOM      7  C   UNL A   1      30.351  25.996  24.531  1.00  0.00     0.160 C 
ATOM      8  C   UNL A   1      30.203  25.948  26.062  1.00  0.00     0.053 C 
BRANCH   7   9
ATOM      9  C   UNL A   1      29.395  27.009  23.844  1.00  0.00    -0.012 A 
ATOM     10  C   UNL A   1      27.995  26.890  23.920  1.00  0.00     0.007 A 
ATOM     11  C   UNL A   1      29.904  28.169  23.223  1.00  0.00     0.007 A 
ATOM     12  C   UNL A   1      27.151  27.897  23.439  1.00  0.00     0.000 A 
ATOM     13  C   UNL A   1      29.061  29.186  22.761  1.00  0.00     0.000 A 
ATOM     14  C   UNL A   1      27.683  29.053  22.877  1.00  0.00     0.000 A 
ENDBRANCH   7   9
BRANCH   7  15
ATOM     15  N   UNL A   1      30.177  24.673  23.871  1.00  0.00    -0.350 N 
ATOM     16  H   UNL A   1      29.373  24.602  23.305  1.00  0.00     0.163 HD
BRANCH  15  17
ATOM     17  C   UNL A   1      30.941  23.536  23.914  1.00  0.00     0.149 A 
ATOM     18  C   UNL A   1      31.724  23.056  22.878  1.00  0.00     0.051 A 
ATOM     19  N   UNL A   1      30.941  22.870  25.093  1.00  0.00    -0.132 NA
ATOM     20  C   UNL A   1      32.414  21.850  23.015  1.00  0.00     0.040 A 
ATOM     21  N   UNL A   1      31.638  21.686  25.259  1.00  0.00    -0.143 NA
ATOM     22  C   UNL A   1      32.339  21.184  24.221  1.00  0.00     0.150 A 
BRANCH  22  23
ATOM     23  C   UNL A   1      33.046  19.889  24.416  1.00  0.00     0.269 C 
ATOM     24  N   UNL A   1      32.521  18.799  23.777  1.00  0.00    -0.364 N 
ATOM     25  O   UNL A   1      34.046  19.800  25.119  1.00  0.00    -0.268 OA
ATOM     26  H   UNL A   1      31.717  18.897  23.217  1.00  0.00     0.160 HD
ATOM     27  H   UNL A   1      32.947  17.917  23.876  1.00  0.00     0.160 HD
ENDBRANCH  22  23
ENDBRANCH  15  17
ENDBRANCH   7  15
ENDBRANCH   5   7
ENDBRANCH   4   5
ENDBRANCH   3   4
ENDBRANCH   2   3
ENDBRANCH   1   2
BRANCH   1  28
ATOM     28  C   UNL A   1      32.554  30.227  27.199  1.00  0.00     0.202 C 
BRANCH  28  29
ATOM     29  C   UNL A   1      32.927  31.672  27.552  1.00  0.00     0.261 C 
BRANCH  29  30
ATOM     30  O   UNL A   1      34.346  31.873  27.631  1.00  0.00    -0.460 OA
BRANCH  30  31
ATOM     31  C   UNL A   1      34.856  31.643  28.864  1.00  0.00     0.338 C 
ATOM     32  O   UNL A   1      34.362  31.978  29.936  1.00  0.00    -0.246 OA
BRANCH  31  33
ATOM     33  C   UNL A   1      36.031  30.759  28.796  1.00  0.00     0.060 A 
ATOM     34  C   UNL A   1      36.520  30.272  30.015  1.00  0.00     0.016 A 
ATOM     35  C   UNL A   1      36.707  30.493  27.602  1.00  0.00     0.016 A 
ATOM     36  C   UNL A   1      37.737  29.607  30.061  1.00  0.00     0.010 A 
ATOM     37  C   UNL A   1      37.939  29.828  27.650  1.00  0.00     0.010 A 
ATOM     38  C   UNL A   1      38.485  29.440  28.888  1.00  0.00    -0.014 A 
BRANCH  38  39
ATOM     39  C   UNL A   1      39.915  29.071  29.023  1.00  0.00     0.031 A 
ATOM     40  C   UNL A   1      40.853  30.061  29.665  1.00  0.00     0.074 A 
ATOM     41  C   UNL A   1      40.347  27.842  28.690  1.00  0.00     0.049 A 
ATOM     42  N   UNL A   1      42.111  29.918  29.993  1.00  0.00    -0.248 NA
ATOM     43  C   UNL A   1      40.296  31.386  29.987  1.00  0.00     0.031 C 
ATOM     44  C   UNL A   1      39.522  26.785  28.109  1.00  0.00     0.029 A 
ATOM     45  N   UNL A   1      41.588  27.272  28.818  1.00  0.00    -0.354 N 
ATOM     46  C   UNL A   1      42.495  31.132  30.555  1.00  0.00     0.074 A 
ATOM     47  C   UNL A   1      41.349  32.010  30.493  1.00  0.00     0.031 C 
ATOM     48  C   UNL A   1      40.278  25.685  27.942  1.00  0.00     0.029 A 
ATOM     49  C   UNL A   1      41.642  25.968  28.389  1.00  0.00     0.049 A 
ATOM     50  H   UNL A   1      42.367  27.752  29.182  1.00  0.00     0.167 HD
ATOM     51  C   UNL A   1      43.692  31.481  31.085  1.00  0.00     0.031 A 
ATOM     52  C   UNL A   1      42.673  25.101  28.365  1.00  0.00     0.031 A 
ATOM     53  C   UNL A   1      44.832  30.608  31.141  1.00  0.00     0.049 A 
ATOM     54  C   UNL A   1      44.008  25.529  28.917  1.00  0.00     0.074 A 
ATOM     55  C   UNL A   1      46.088  30.863  31.665  1.00  0.00     0.029 A 
ATOM     56  N   UNL A   1      44.858  29.311  30.653  1.00  0.00    -0.354 N 
ATOM     57  N   UNL A   1      44.346  26.671  29.465  1.00  0.00    -0.248 NA
ATOM     58  C   UNL A   1      45.093  24.539  28.864  1.00  0.00     0.031 C 
ATOM     59  C   UNL A   1      46.887  29.735  31.448  1.00  0.00     0.029 A 
ATOM     60  C   UNL A   1      46.112  28.758  30.843  1.00  0.00     0.049 A 
ATOM     61  H   UNL A   1      44.096  28.850  30.231  1.00  0.00     0.167 HD
ATOM     62  C   UNL A   1      45.675  26.525  29.856  1.00  0.00     0.074 A 
ATOM     63  C   UNL A   1      46.071  25.181  29.488  1.00  0.00     0.031 C 
ATOM     64  C   UNL A   1      46.489  27.418  30.471  1.00  0.00     0.031 A 
BRANCH  51  65
ATOM     65  C   UNL A   1      43.833  32.885  31.610  1.00  0.00    -0.014 A 
ATOM     66  C   UNL A   1      44.246  33.942  30.777  1.00  0.00     0.010 A 
ATOM     67  C   UNL A   1      43.529  33.155  32.957  1.00  0.00     0.010 A 
ATOM     68  C   UNL A   1      44.392  35.233  31.294  1.00  0.00     0.020 A 
ATOM     69  C   UNL A   1      43.648  34.449  33.470  1.00  0.00     0.020 A 
ATOM     70  C   UNL A   1      44.097  35.478  32.639  1.00  0.00     0.054 A 
BRANCH  70  71
ATOM     71  S   UNL A   1      44.282  37.163  33.283  1.00  0.00     0.124 S 
ATOM     72  O   UNL A   1      43.337  37.164  34.397  1.00  0.00    -0.237 OA
ATOM     73  O   UNL A   1      45.694  37.211  33.656  1.00  0.00    -0.237 OA
ATOM     74  O   UNL A   1      43.911  38.009  32.151  1.00  0.00    -0.744 OA
ENDBRANCH  70  71
ENDBRANCH  51  65
BRANCH  52  75
ATOM     75  C   UNL A   1      42.481  23.734  27.808  1.00  0.00    -0.014 A 
ATOM     76  C   UNL A   1      42.660  23.482  26.436  1.00  0.00     0.010 A 
ATOM     77  C   UNL A   1      42.113  22.671  28.655  1.00  0.00     0.010 A 
ATOM     78  C   UNL A   1      42.456  22.199  25.919  1.00  0.00     0.020 A 
ATOM     79  C   UNL A   1      41.935  21.383  28.146  1.00  0.00     0.020 A 
ATOM     80  C   UNL A   1      42.097  21.156  26.778  1.00  0.00     0.054 A 
BRANCH  80  81
ATOM     81  S   UNL A   1      41.889  19.488  26.095  1.00  0.00     0.124 S 
ATOM     82  O   UNL A   1      40.468  19.473  25.760  1.00  0.00    -0.237 OA
ATOM     83  O   UNL A   1      42.808  19.494  24.960  1.00  0.00    -0.237 OA
ATOM     84  O   UNL A   1      42.281  18.616  27.200  1.00  0.00    -0.744 OA
ENDBRANCH  80  81
ENDBRANCH  52  75
BRANCH  64  85
ATOM     85  C   UNL A   1      47.876  26.954  30.832  1.00  0.00    -0.014 A 
ATOM     86  C   UNL A   1      48.966  27.154  29.967  1.00  0.00     0.010 A 
ATOM     87  C   UNL A   1      48.094  26.338  32.079  1.00  0.00     0.010 A 
ATOM     88  C   UNL A   1      50.241  26.703  30.322  1.00  0.00     0.020 A 
ATOM     89  C   UNL A   1      49.371  25.912  32.449  1.00  0.00     0.020 A 
ATOM     90  C   UNL A   1      50.434  26.079  31.559  1.00  0.00     0.054 A 
BRANCH  90  91
ATOM     91  S   UNL A   1      52.099  25.516  32.008  1.00  0.00     0.124 S 
ATOM     92  O   UNL A   1      52.359  26.282  33.224  1.00  0.00    -0.237 OA
ATOM     93  O   UNL A   1      51.914  24.080  32.197  1.00  0.00    -0.237 OA
ATOM     94  O   UNL A   1      52.912  25.886  30.852  1.00  0.00    -0.744 OA
ENDBRANCH  90  91
ENDBRANCH  64  85
ENDBRANCH  38  39
ENDBRANCH  31  33
ENDBRANCH  30  31
ENDBRANCH  29  30
ENDBRANCH  28  29
ENDBRANCH   1  28
TORSDOF 21
ENDMDL
MODEL 3
REMARK VINA RESULT:     -10.1      1.446      2.032
REMARK SMILES C[C@](Nc1ccc(C(N)=O)nn1)(C(=O)OCCOCCOC(=O)c1ccc(-c2c3nc(c(-c4ccc(S(=O)(=O)[O-])cc4)c4ccc([nH]4)c(-c4ccc(S(=O)(=O)[O-])cc4)c4nc(c(-c5ccc(S(=O)(=O)[O-])cc5)c5ccc2[nH]5)C=C4)C=C3)cc1)c1ccccc1
REMARK SMILES IDX 18 1 17 2 16 3 15 4 13 5 14 6 2 7 1 8 84 9 85 10 89 11 86 12
REMARK SMILES IDX 88 13 87 14 3 15 4 17 5 18 12 19 6 20 11 21 7 22 8 23 9 24
REMARK SMILES IDX 10 25 19 28 20 29 21 30 22 31 23 32 24 33 25 34 83 35 26 36
REMARK SMILES IDX 82 37 27 38 28 39 29 40 76 41 30 42 81 43 75 44 77 45 31 46
REMARK SMILES IDX 80 47 74 48 73 49 32 51 62 52 43 53 61 54 44 55 47 56 60 57
REMARK SMILES IDX 78 58 45 59 46 60 59 62 79 63 48 64 33 65 34 66 42 67 35 68
REMARK SMILES IDX 41 69 36 70 37 71 38 72 39 73 40 74 63 75 64 76 72 77 65 78
REMARK SMILES IDX 71 79 66 80 67 81 68 82 69 83 70 84 49 85 50 86 58 87 51 88
REMARK SMILES IDX 57 89 52 90 53 91 54 92 55 93 56 94
REMARK H PARENT 3 16 9 26 9 27 77 50 47 61
REMARK Flexibility Score: inf
ROOT
ATOM      1  O   UNL A   1      31.596  29.335  25.487  1.00  0.00    -0.374 OA
ENDROOT
BRANCH   1   2
ATOM      2  C   UNL A   1      31.779  28.001  25.967  1.00  0.00     0.202 C 
BRANCH   2   3
ATOM      3  C   UNL A   1      31.136  26.880  25.149  1.00  0.00     0.261 C 
BRANCH   3   4
ATOM      4  O   UNL A   1      32.123  25.958  24.645  1.00  0.00    -0.461 OA
BRANCH   4   5
ATOM      5  C   UNL A   1      32.187  24.750  25.278  1.00  0.00     0.336 C 
ATOM      6  O   UNL A   1      32.004  24.596  26.482  1.00  0.00    -0.249 OA
BRANCH   5   7
ATOM      7  C   UNL A   1      32.559  23.576  24.298  1.00  0.00     0.160 C 
ATOM      8  C   UNL A   1      32.140  24.141  22.929  1.00  0.00     0.053 C 
BRANCH   7   9
ATOM      9  C   UNL A   1      34.087  23.336  24.431  1.00  0.00    -0.012 A 
ATOM     10  C   UNL A   1      34.908  23.091  23.315  1.00  0.00     0.007 A 
ATOM     11  C   UNL A   1      34.733  23.487  25.677  1.00  0.00     0.007 A 
ATOM     12  C   UNL A   1      36.302  23.042  23.432  1.00  0.00     0.000 A 
ATOM     13  C   UNL A   1      36.127  23.458  25.791  1.00  0.00     0.000 A 
ATOM     14  C   UNL A   1      36.912  23.244  24.665  1.00  0.00     0.000 A 
ENDBRANCH   7   9
BRANCH   7  15
ATOM     15  N   UNL A   1      31.858  22.316  24.666  1.00  0.00    -0.350 N 
ATOM     16  H   UNL A   1      30.984  22.449  25.102  1.00  0.00     0.163 HD
BRANCH  15  17
ATOM     17  C   UNL A   1      32.217  21.003  24.505  1.00  0.00     0.149 A 
ATOM     18  C   UNL A   1      32.627  20.154  25.518  1.00  0.00     0.051 A 
ATOM     19  N   UNL A   1      32.117  20.515  23.247  1.00  0.00    -0.132 NA
ATOM     20  C   UNL A   1      33.030  18.850  25.227  1.00  0.00     0.040 A 
ATOM     21  N   UNL A   1      32.487  19.217  22.939  1.00  0.00    -0.143 NA
ATOM     22  C   UNL A   1      32.956  18.417  23.919  1.00  0.00     0.150 A 
BRANCH  22  23
ATOM     23  C   UNL A   1      33.385  17.039  23.551  1.00  0.00     0.269 C 
ATOM     24  N   UNL A   1      33.072  16.042  24.434  1.00  0.00    -0.364 N 
ATOM     25  O   UNL A   1      33.992  16.809  22.512  1.00  0.00    -0.268 OA
ATOM     26  H   UNL A   1      32.582  16.253  25.262  1.00  0.00     0.160 HD
ATOM     27  H   UNL A   1      33.336  15.113  24.242  1.00  0.00     0.160 HD
ENDBRANCH  22  23
ENDBRANCH  15  17
ENDBRANCH   7  15
ENDBRANCH   5   7
ENDBRANCH   4   5
ENDBRANCH   3   4
ENDBRANCH   2   3
ENDBRANCH   1   2
BRANCH   1  28
ATOM     28  C   UNL A   1      32.316  30.373  26.142  1.00  0.00     0.202 C 
BRANCH  28  29
ATOM     29  C   UNL A   1      33.180  29.983  27.349  1.00  0.00     0.261 C 
BRANCH  29  30
ATOM     30  O   UNL A   1      34.570  30.275  27.153  1.00  0.00    -0.460 OA
BRANCH  30  31
ATOM     31  C   UNL A   1      34.966  31.433  27.730  1.00  0.00     0.338 C 
ATOM     32  O   UNL A   1      34.451  32.538  27.586  1.00  0.00    -0.246 OA
BRANCH  31  33
ATOM     33  C   UNL A   1      36.020  31.195  28.731  1.00  0.00     0.060 A 
ATOM     34  C   UNL A   1      37.150  32.020  28.658  1.00  0.00     0.016 A 
ATOM     35  C   UNL A   1      35.967  30.139  29.644  1.00  0.00     0.016 A 
ATOM     36  C   UNL A   1      38.272  31.732  29.423  1.00  0.00     0.010 A 
ATOM     37  C   UNL A   1      37.103  29.845  30.410  1.00  0.00     0.010 A 
ATOM     38  C   UNL A   1      38.277  30.603  30.254  1.00  0.00    -0.014 A 
BRANCH  38  39
ATOM     39  C   UNL A   1      39.586  30.120  30.758  1.00  0.00     0.031 A 
ATOM     40  C   UNL A   1      40.132  30.724  32.027  1.00  0.00     0.074 A 
ATOM     41  C   UNL A   1      40.218  29.091  30.167  1.00  0.00     0.049 A 
ATOM     42  N   UNL A   1      41.191  30.386  32.716  1.00  0.00    -0.248 NA
ATOM     43  C   UNL A   1      39.380  31.854  32.599  1.00  0.00     0.031 C 
ATOM     44  C   UNL A   1      39.761  28.395  28.966  1.00  0.00     0.029 A 
ATOM     45  N   UNL A   1      41.372  28.439  30.518  1.00  0.00    -0.354 N 
ATOM     46  C   UNL A   1      41.233  31.260  33.798  1.00  0.00     0.074 A 
ATOM     47  C   UNL A   1      40.114  32.164  33.656  1.00  0.00     0.031 C 
ATOM     48  C   UNL A   1      40.621  27.400  28.685  1.00  0.00     0.029 A 
ATOM     49  C   UNL A   1      41.696  27.401  29.677  1.00  0.00     0.049 A 
ATOM     50  H   UNL A   1      41.918  28.689  31.298  1.00  0.00     0.167 HD
ATOM     51  C   UNL A   1      42.117  31.301  34.823  1.00  0.00     0.031 A 
ATOM     52  C   UNL A   1      42.738  26.547  29.708  1.00  0.00     0.031 A 
ATOM     53  C   UNL A   1      43.232  30.403  34.961  1.00  0.00     0.049 A 
ATOM     54  C   UNL A   1      43.735  26.643  30.833  1.00  0.00     0.074 A 
ATOM     55  C   UNL A   1      44.181  30.356  35.966  1.00  0.00     0.029 A 
ATOM     56  N   UNL A   1      43.550  29.397  34.061  1.00  0.00    -0.354 N 
ATOM     57  N   UNL A   1      43.746  27.460  31.859  1.00  0.00    -0.248 NA
ATOM     58  C   UNL A   1      44.849  25.684  30.814  1.00  0.00     0.031 C 
ATOM     59  C   UNL A   1      45.102  29.352  35.649  1.00  0.00     0.029 A 
ATOM     60  C   UNL A   1      44.693  28.735  34.476  1.00  0.00     0.049 A 
ATOM     61  H   UNL A   1      43.039  29.185  33.246  1.00  0.00     0.167 HD
ATOM     62  C   UNL A   1      44.847  27.091  32.626  1.00  0.00     0.074 A 
ATOM     63  C   UNL A   1      45.470  25.971  31.949  1.00  0.00     0.031 C 
ATOM     64  C   UNL A   1      45.297  27.622  33.790  1.00  0.00     0.031 A 
BRANCH  51  65
ATOM     65  C   UNL A   1      41.930  32.381  35.856  1.00  0.00    -0.014 A 
ATOM     66  C   UNL A   1      41.146  32.169  37.005  1.00  0.00     0.010 A 
ATOM     67  C   UNL A   1      42.565  33.624  35.681  1.00  0.00     0.010 A 
ATOM     68  C   UNL A   1      40.969  33.195  37.939  1.00  0.00     0.020 A 
ATOM     69  C   UNL A   1      42.411  34.642  36.626  1.00  0.00     0.020 A 
ATOM     70  C   UNL A   1      41.598  34.427  37.740  1.00  0.00     0.054 A 
BRANCH  70  71
ATOM     71  S   UNL A   1      41.362  35.738  38.971  1.00  0.00     0.124 S 
ATOM     72  O   UNL A   1      40.874  34.984  40.123  1.00  0.00    -0.237 OA
ATOM     73  O   UNL A   1      42.706  36.295  39.108  1.00  0.00    -0.237 OA
ATOM     74  O   UNL A   1      40.383  36.626  38.348  1.00  0.00    -0.744 OA
ENDBRANCH  70  71
ENDBRANCH  51  65
BRANCH  52  75
ATOM     75  C   UNL A   1      42.886  25.517  28.644  1.00  0.00    -0.014 A 
ATOM     76  C   UNL A   1      43.729  25.737  27.539  1.00  0.00     0.010 A 
ATOM     77  C   UNL A   1      42.177  24.305  28.730  1.00  0.00     0.010 A 
ATOM     78  C   UNL A   1      43.845  24.772  26.534  1.00  0.00     0.020 A 
ATOM     79  C   UNL A   1      42.311  23.327  27.742  1.00  0.00     0.020 A 
ATOM     80  C   UNL A   1      43.136  23.572  26.642  1.00  0.00     0.054 A 
BRANCH  80  81
ATOM     81  S   UNL A   1      43.342  22.312  25.353  1.00  0.00     0.124 S 
ATOM     82  O   UNL A   1      44.630  21.724  25.706  1.00  0.00    -0.237 OA
ATOM     83  O   UNL A   1      42.177  21.456  25.559  1.00  0.00    -0.237 OA
ATOM     84  O   UNL A   1      43.325  23.086  24.114  1.00  0.00    -0.744 OA
ENDBRANCH  80  81
ENDBRANCH  52  75
BRANCH  64  85
ATOM     85  C   UNL A   1      46.493  26.969  34.432  1.00  0.00    -0.014 A 
ATOM     86  C   UNL A   1      47.802  27.404  34.164  1.00  0.00     0.010 A 
ATOM     87  C   UNL A   1      46.293  25.921  35.351  1.00  0.00     0.010 A 
ATOM     88  C   UNL A   1      48.894  26.772  34.766  1.00  0.00     0.020 A 
ATOM     89  C   UNL A   1      47.380  25.305  35.976  1.00  0.00     0.020 A 
ATOM     90  C   UNL A   1      48.676  25.721  35.663  1.00  0.00     0.054 A 
BRANCH  90  91
ATOM     91  S   UNL A   1      50.105  24.925  36.446  1.00  0.00     0.124 S 
ATOM     92  O   UNL A   1      50.959  26.069  36.753  1.00  0.00    -0.237 OA
ATOM     93  O   UNL A   1      49.510  24.258  37.601  1.00  0.00    -0.237 OA
ATOM     94  O   UNL A   1      50.612  24.028  35.410  1.00  0.00    -0.744 OA
ENDBRANCH  90  91
ENDBRANCH  64  85
ENDBRANCH  38  39
ENDBRANCH  31  33
ENDBRANCH  30  31
ENDBRANCH  29  30
ENDBRANCH  28  29
ENDBRANCH   1  28
TORSDOF 21
ENDMDL
