MODEL 1
REMARK VINA RESULT:     -11.7      0.000      0.000
REMARK SMILES COc1cccc([C@@H]2[NH2+][C@@](C)(C(=O)OCCOCCOC(=O)c3ccc(-c4c5nc(c(-c6ccc(S(=O)(=O)[O-])cc6)c6ccc([nH]6)c(-c6ccc(S(=O)(=O)[O-])cc6)c6nc(c(-c7ccc(S(=O)(=O)[O-])cc7)c7ccc4[nH]7)C=C6)C=C5)cc3)[C@@H]3C(=O)N(C)C(=O)[C@@H]32)c1O
REMARK SMILES IDX 18 1 17 2 16 3 15 4 14 5 12 6 13 7 10 8 8 9 9 10 90 11 83 14
REMARK SMILES IDX 88 15 11 16 84 17 86 18 89 19 85 20 87 21 7 22 3 23 4 24
REMARK SMILES IDX 91 25 5 26 6 27 2 28 1 29 92 30 19 32 20 33 21 34 22 35
REMARK SMILES IDX 23 36 24 37 82 38 25 39 81 40 26 41 27 42 28 43 75 44 29 45
REMARK SMILES IDX 80 46 74 47 76 48 30 49 79 50 73 51 72 52 31 54 61 55 42 56
REMARK SMILES IDX 60 57 43 58 46 59 59 60 77 61 44 62 45 63 58 65 78 66 47 67
REMARK SMILES IDX 32 68 33 69 41 70 34 71 40 72 35 73 36 74 37 75 38 76 39 77
REMARK SMILES IDX 62 78 63 79 71 80 64 81 70 82 65 83 66 84 67 85 68 86 69 87
REMARK SMILES IDX 48 88 49 89 57 90 50 91 56 92 51 93 52 94 53 95 54 96 55 97
REMARK H PARENT 9 12 9 13 92 31 76 53 46 64
REMARK Flexibility Score: inf
ROOT
ATOM      1  C   UNL A   1      38.510  22.202  25.936  1.00  0.00     0.202 C 
ENDROOT
BRANCH   1   2
ATOM      2  O   UNL A   1      37.187  22.733  25.883  1.00  0.00    -0.374 OA
BRANCH   2   3
ATOM      3  C   UNL A   1      36.461  22.547  24.667  1.00  0.00     0.202 C 
BRANCH   3   4
ATOM      4  C   UNL A   1      35.684  23.751  24.130  1.00  0.00     0.261 C 
BRANCH   4   5
ATOM      5  O   UNL A   1      34.263  23.600  24.290  1.00  0.00    -0.459 OA
BRANCH   5   6
ATOM      6  C   UNL A   1      33.521  24.008  23.226  1.00  0.00     0.368 C 
ATOM      7  O   UNL A   1      33.814  23.767  22.056  1.00  0.00    -0.245 OA
BRANCH   6   8
ATOM      8  C   UNL A   1      32.271  24.856  23.601  1.00  0.00     0.204 C 
ATOM      9  C   UNL A   1      31.824  27.048  22.625  1.00  0.00     0.232 C 
ATOM     10  N   UNL A   1      31.680  25.586  22.431  1.00  0.00    -0.325 N 
ATOM     11  C   UNL A   1      32.857  27.217  23.733  1.00  0.00     0.161 C 
ATOM     12  H   UNL A   1      32.165  25.309  21.578  1.00  0.00     0.347 HD
ATOM     13  H   UNL A   1      30.690  25.354  22.355  1.00  0.00     0.347 HD
ATOM     14  C   UNL A   1      32.791  25.937  24.550  1.00  0.00     0.170 C 
ATOM     15  C   UNL A   1      32.596  28.286  24.749  1.00  0.00     0.239 C 
ATOM     16  C   UNL A   1      31.304  23.804  24.152  1.00  0.00     0.093 C 
ATOM     17  C   UNL A   1      32.005  26.330  25.770  1.00  0.00     0.240 C 
ATOM     18  N   UNL A   1      32.067  27.698  25.864  1.00  0.00    -0.285 N 
ATOM     19  O   UNL A   1      32.817  29.477  24.582  1.00  0.00    -0.274 OA
ATOM     20  O   UNL A   1      31.522  25.566  26.590  1.00  0.00    -0.274 OA
ATOM     21  C   UNL A   1      31.634  28.456  27.010  1.00  0.00     0.156 C 
BRANCH   9  22
ATOM     22  C   UNL A   1      30.537  27.852  22.789  1.00  0.00     0.056 A 
ATOM     23  C   UNL A   1      29.048  29.722  22.236  1.00  0.00     0.161 A 
ATOM     24  C   UNL A   1      27.985  29.088  22.868  1.00  0.00     0.050 A 
ATOM     25  C   UNL A   1      30.320  29.129  22.256  1.00  0.00     0.166 A 
ATOM     26  C   UNL A   1      28.183  27.851  23.475  1.00  0.00     0.005 A 
ATOM     27  C   UNL A   1      29.440  27.234  23.422  1.00  0.00     0.014 A 
BRANCH  23  28
ATOM     28  O   UNL A   1      28.793  30.947  21.676  1.00  0.00    -0.493 OA
ATOM     29  C   UNL A   1      28.051  31.839  22.514  1.00  0.00     0.278 C 
ENDBRANCH  23  28
BRANCH  25  30
ATOM     30  O   UNL A   1      31.380  29.825  21.767  1.00  0.00    -0.504 OA
ATOM     31  H   UNL A   1      31.921  30.326  22.348  1.00  0.00     0.293 HD
ENDBRANCH  25  30
ENDBRANCH   9  22
ENDBRANCH   6   8
ENDBRANCH   5   6
ENDBRANCH   4   5
ENDBRANCH   3   4
ENDBRANCH   2   3
ENDBRANCH   1   2
BRANCH   1  32
ATOM     32  C   UNL A   1      39.612  23.100  26.508  1.00  0.00     0.261 C 
BRANCH  32  33
ATOM     33  O   UNL A   1      39.245  24.489  26.498  1.00  0.00    -0.460 OA
BRANCH  33  34
ATOM     34  C   UNL A   1      40.289  25.343  26.390  1.00  0.00     0.338 C 
ATOM     35  O   UNL A   1      40.927  25.601  25.376  1.00  0.00    -0.246 OA
BRANCH  34  36
ATOM     36  C   UNL A   1      40.460  26.104  27.641  1.00  0.00     0.060 A 
ATOM     37  C   UNL A   1      39.474  25.943  28.624  1.00  0.00     0.016 A 
ATOM     38  C   UNL A   1      41.512  27.003  27.829  1.00  0.00     0.016 A 
ATOM     39  C   UNL A   1      39.495  26.732  29.768  1.00  0.00     0.010 A 
ATOM     40  C   UNL A   1      41.526  27.803  28.978  1.00  0.00     0.010 A 
ATOM     41  C   UNL A   1      40.493  27.702  29.928  1.00  0.00    -0.014 A 
BRANCH  41  42
ATOM     42  C   UNL A   1      40.342  28.717  30.996  1.00  0.00     0.031 A 
ATOM     43  C   UNL A   1      41.237  28.632  32.205  1.00  0.00     0.074 A 
ATOM     44  C   UNL A   1      39.470  29.732  30.865  1.00  0.00     0.049 A 
ATOM     45  N   UNL A   1      41.294  29.417  33.249  1.00  0.00    -0.248 NA
ATOM     46  C   UNL A   1      42.196  27.515  32.238  1.00  0.00     0.031 C 
ATOM     47  C   UNL A   1      38.588  29.946  29.718  1.00  0.00     0.029 A 
ATOM     48  N   UNL A   1      39.189  30.778  31.707  1.00  0.00    -0.354 N 
ATOM     49  C   UNL A   1      42.292  28.890  34.062  1.00  0.00     0.074 A 
ATOM     50  C   UNL A   1      42.790  27.700  33.407  1.00  0.00     0.031 C 
ATOM     51  C   UNL A   1      37.859  31.055  29.931  1.00  0.00     0.029 A 
ATOM     52  C   UNL A   1      38.203  31.612  31.238  1.00  0.00     0.049 A 
ATOM     53  H   UNL A   1      39.650  30.918  32.565  1.00  0.00     0.167 HD
ATOM     54  C   UNL A   1      42.759  29.359  35.243  1.00  0.00     0.031 A 
ATOM     55  C   UNL A   1      37.633  32.692  31.807  1.00  0.00     0.031 A 
ATOM     56  C   UNL A   1      42.249  30.534  35.900  1.00  0.00     0.049 A 
ATOM     57  C   UNL A   1      38.118  33.155  33.156  1.00  0.00     0.074 A 
ATOM     58  C   UNL A   1      42.652  31.093  37.100  1.00  0.00     0.029 A 
ATOM     59  N   UNL A   1      41.223  31.328  35.411  1.00  0.00    -0.354 N 
ATOM     60  N   UNL A   1      39.071  32.654  33.905  1.00  0.00    -0.248 NA
ATOM     61  C   UNL A   1      37.456  34.334  33.731  1.00  0.00     0.031 C 
ATOM     62  C   UNL A   1      41.833  32.196  37.362  1.00  0.00     0.029 A 
ATOM     63  C   UNL A   1      40.962  32.359  36.296  1.00  0.00     0.049 A 
ATOM     64  H   UNL A   1      40.749  31.179  34.561  1.00  0.00     0.167 HD
ATOM     65  C   UNL A   1      39.144  33.473  35.027  1.00  0.00     0.074 A 
ATOM     66  C   UNL A   1      38.145  34.509  34.852  1.00  0.00     0.031 C 
ATOM     67  C   UNL A   1      39.963  33.381  36.104  1.00  0.00     0.031 A 
BRANCH  54  68
ATOM     68  C   UNL A   1      43.855  28.576  35.917  1.00  0.00    -0.014 A 
ATOM     69  C   UNL A   1      43.560  27.518  36.795  1.00  0.00     0.010 A 
ATOM     70  C   UNL A   1      45.200  28.887  35.648  1.00  0.00     0.010 A 
ATOM     71  C   UNL A   1      44.590  26.809  37.421  1.00  0.00     0.020 A 
ATOM     72  C   UNL A   1      46.233  28.164  36.251  1.00  0.00     0.020 A 
ATOM     73  C   UNL A   1      45.920  27.141  37.148  1.00  0.00     0.054 A 
BRANCH  73  74
ATOM     74  S   UNL A   1      47.238  26.195  37.961  1.00  0.00     0.124 S 
ATOM     75  O   UNL A   1      48.309  27.185  38.045  1.00  0.00    -0.237 OA
ATOM     76  O   UNL A   1      46.628  25.821  39.234  1.00  0.00    -0.237 OA
ATOM     77  O   UNL A   1      47.487  25.086  37.043  1.00  0.00    -0.744 OA
ENDBRANCH  73  74
ENDBRANCH  54  68
BRANCH  55  78
ATOM     78  C   UNL A   1      36.525  33.402  31.109  1.00  0.00    -0.014 A 
ATOM     79  C   UNL A   1      36.732  34.013  29.860  1.00  0.00     0.010 A 
ATOM     80  C   UNL A   1      35.249  33.468  31.700  1.00  0.00     0.010 A 
ATOM     81  C   UNL A   1      35.687  34.692  29.224  1.00  0.00     0.020 A 
ATOM     82  C   UNL A   1      34.197  34.122  31.053  1.00  0.00     0.020 A 
ATOM     83  C   UNL A   1      34.426  34.740  29.824  1.00  0.00     0.054 A 
BRANCH  83  84
ATOM     84  S   UNL A   1      33.073  35.584  28.958  1.00  0.00     0.124 S 
ATOM     85  O   UNL A   1      32.308  36.146  30.066  1.00  0.00    -0.237 OA
ATOM     86  O   UNL A   1      33.784  36.550  28.125  1.00  0.00    -0.237 OA
ATOM     87  O   UNL A   1      32.413  34.506  28.224  1.00  0.00    -0.744 OA
ENDBRANCH  83  84
ENDBRANCH  55  78
BRANCH  67  88
ATOM     88  C   UNL A   1      39.844  34.447  37.160  1.00  0.00    -0.014 A 
ATOM     89  C   UNL A   1      39.000  34.283  38.273  1.00  0.00     0.010 A 
ATOM     90  C   UNL A   1      40.632  35.609  37.062  1.00  0.00     0.010 A 
ATOM     91  C   UNL A   1      38.922  35.276  39.252  1.00  0.00     0.020 A 
ATOM     92  C   UNL A   1      40.578  36.592  38.053  1.00  0.00     0.020 A 
ATOM     93  C   UNL A   1      39.711  36.426  39.136  1.00  0.00     0.054 A 
BRANCH  93  94
ATOM     94  S   UNL A   1      39.623  37.683  40.440  1.00  0.00     0.124 S 
ATOM     95  O   UNL A   1      40.998  38.172  40.483  1.00  0.00    -0.237 OA
ATOM     96  O   UNL A   1      38.636  38.623  39.914  1.00  0.00    -0.237 OA
ATOM     97  O   UNL A   1      39.192  36.931  41.617  1.00  0.00    -0.744 OA
ENDBRANCH  93  94
ENDBRANCH  67  88
ENDBRANCH  41  42
ENDBRANCH  34  36
ENDBRANCH  33  34
ENDBRANCH  32  33
ENDBRANCH   1  32
TORSDOF 20
ENDMDL
MODEL 2
REMARK VINA RESULT:     -11.6      4.554     10.568
REMARK SMILES COc1cccc([C@@H]2[NH2+][C@@](C)(C(=O)OCCOCCOC(=O)c3ccc(-c4c5nc(c(-c6ccc(S(=O)(=O)[O-])cc6)c6ccc([nH]6)c(-c6ccc(S(=O)(=O)[O-])cc6)c6nc(c(-c7ccc(S(=O)(=O)[O-])cc7)c7ccc4[nH]7)C=C6)C=C5)cc3)[C@@H]3C(=O)N(C)C(=O)[C@@H]32)c1O
REMARK SMILES IDX 18 1 17 2 16 3 15 4 14 5 12 6 13 7 10 8 8 9 9 10 90 11 83 14
REMARK SMILES IDX 88 15 11 16 84 17 86 18 89 19 85 20 87 21 7 22 3 23 4 24
REMARK SMILES IDX 91 25 5 26 6 27 2 28 1 29 92 30 19 32 20 33 21 34 22 35
REMARK SMILES IDX 23 36 24 37 82 38 25 39 81 40 26 41 27 42 28 43 75 44 29 45
REMARK SMILES IDX 80 46 74 47 76 48 30 49 79 50 73 51 72 52 31 54 61 55 42 56
REMARK SMILES IDX 60 57 43 58 46 59 59 60 77 61 44 62 45 63 58 65 78 66 47 67
REMARK SMILES IDX 32 68 33 69 41 70 34 71 40 72 35 73 36 74 37 75 38 76 39 77
REMARK SMILES IDX 62 78 63 79 71 80 64 81 70 82 65 83 66 84 67 85 68 86 69 87
REMARK SMILES IDX 48 88 49 89 57 90 50 91 56 92 51 93 52 94 53 95 54 96 55 97
REMARK H PARENT 9 12 9 13 92 31 76 53 46 64
REMARK Flexibility Score: inf
ROOT
ATOM      1  C   UNL A   1      32.487  30.060  25.504  1.00  0.00     0.202 C 
ENDROOT
BRANCH   1   2
ATOM      2  O   UNL A   1      31.149  29.797  25.084  1.00  0.00    -0.374 OA
BRANCH   2   3
ATOM      3  C   UNL A   1      30.915  28.571  24.390  1.00  0.00     0.202 C 
BRANCH   3   4
ATOM      4  C   UNL A   1      32.071  27.569  24.337  1.00  0.00     0.261 C 
BRANCH   4   5
ATOM      5  O   UNL A   1      32.035  26.635  25.429  1.00  0.00    -0.459 OA
BRANCH   5   6
ATOM      6  C   UNL A   1      31.108  25.646  25.305  1.00  0.00     0.368 C 
ATOM      7  O   UNL A   1      29.979  25.705  25.786  1.00  0.00    -0.245 OA
BRANCH   6   8
ATOM      8  C   UNL A   1      31.607  24.392  24.530  1.00  0.00     0.204 C 
ATOM      9  C   UNL A   1      32.181  22.297  25.643  1.00  0.00     0.232 C 
ATOM     10  N   UNL A   1      31.072  23.105  25.084  1.00  0.00    -0.325 N 
ATOM     11  C   UNL A   1      33.356  23.257  25.791  1.00  0.00     0.161 C 
ATOM     12  H   UNL A   1      30.397  23.307  25.821  1.00  0.00     0.347 HD
ATOM     13  H   UNL A   1      30.619  22.579  24.336  1.00  0.00     0.347 HD
ATOM     14  C   UNL A   1      33.118  24.352  24.763  1.00  0.00     0.170 C 
ATOM     15  C   UNL A   1      34.712  22.734  25.426  1.00  0.00     0.239 C 
ATOM     16  C   UNL A   1      31.093  24.648  23.110  1.00  0.00     0.093 C 
ATOM     17  C   UNL A   1      34.059  24.004  23.644  1.00  0.00     0.240 C 
ATOM     18  N   UNL A   1      35.015  23.170  24.166  1.00  0.00    -0.285 N 
ATOM     19  O   UNL A   1      35.405  22.030  26.146  1.00  0.00    -0.274 OA
ATOM     20  O   UNL A   1      34.047  24.483  22.521  1.00  0.00    -0.274 OA
ATOM     21  C   UNL A   1      36.223  22.786  23.482  1.00  0.00     0.156 C 
BRANCH   9  22
ATOM     22  C   UNL A   1      32.489  20.974  24.949  1.00  0.00     0.056 A 
ATOM     23  C   UNL A   1      32.955  18.565  24.955  1.00  0.00     0.161 A 
ATOM     24  C   UNL A   1      32.687  18.490  23.593  1.00  0.00     0.050 A 
ATOM     25  C   UNL A   1      32.912  19.808  25.602  1.00  0.00     0.166 A 
ATOM     26  C   UNL A   1      32.337  19.643  22.896  1.00  0.00     0.005 A 
ATOM     27  C   UNL A   1      32.224  20.866  23.569  1.00  0.00     0.014 A 
BRANCH  23  28
ATOM     28  O   UNL A   1      33.315  17.399  25.578  1.00  0.00    -0.493 OA
ATOM     29  C   UNL A   1      32.593  16.243  25.141  1.00  0.00     0.278 C 
ENDBRANCH  23  28
BRANCH  25  30
ATOM     30  O   UNL A   1      33.320  19.894  26.896  1.00  0.00    -0.504 OA
ATOM     31  H   UNL A   1      33.581  20.721  27.253  1.00  0.00     0.293 HD
ENDBRANCH  25  30
ENDBRANCH   9  22
ENDBRANCH   6   8
ENDBRANCH   5   6
ENDBRANCH   4   5
ENDBRANCH   3   4
ENDBRANCH   2   3
ENDBRANCH   1   2
BRANCH   1  32
ATOM     32  C   UNL A   1      32.682  30.786  26.839  1.00  0.00     0.261 C 
BRANCH  32  33
ATOM     33  O   UNL A   1      33.591  30.093  27.710  1.00  0.00    -0.460 OA
BRANCH  33  34
ATOM     34  C   UNL A   1      34.540  30.879  28.268  1.00  0.00     0.338 C 
ATOM     35  O   UNL A   1      34.372  31.973  28.795  1.00  0.00    -0.246 OA
BRANCH  34  36
ATOM     36  C   UNL A   1      35.823  30.157  28.346  1.00  0.00     0.060 A 
ATOM     37  C   UNL A   1      36.167  29.603  29.586  1.00  0.00     0.016 A 
ATOM     38  C   UNL A   1      36.701  30.079  27.263  1.00  0.00     0.016 A 
ATOM     39  C   UNL A   1      37.422  29.032  29.770  1.00  0.00     0.010 A 
ATOM     40  C   UNL A   1      37.966  29.511  27.452  1.00  0.00     0.010 A 
ATOM     41  C   UNL A   1      38.347  29.028  28.718  1.00  0.00    -0.014 A 
BRANCH  41  42
ATOM     42  C   UNL A   1      39.758  28.682  29.006  1.00  0.00     0.031 A 
ATOM     43  C   UNL A   1      40.624  29.699  29.703  1.00  0.00     0.074 A 
ATOM     44  C   UNL A   1      40.243  27.462  28.712  1.00  0.00     0.049 A 
ATOM     45  N   UNL A   1      41.875  29.608  30.069  1.00  0.00    -0.248 NA
ATOM     46  C   UNL A   1      39.992  30.988  30.031  1.00  0.00     0.031 C 
ATOM     47  C   UNL A   1      39.485  26.381  28.084  1.00  0.00     0.029 A 
ATOM     48  N   UNL A   1      41.492  26.930  28.910  1.00  0.00    -0.354 N 
ATOM     49  C   UNL A   1      42.182  30.825  30.670  1.00  0.00     0.074 A 
ATOM     50  C   UNL A   1      40.995  31.649  30.588  1.00  0.00     0.031 C 
ATOM     51  C   UNL A   1      40.289  25.312  27.944  1.00  0.00     0.029 A 
ATOM     52  C   UNL A   1      41.620  25.643  28.446  1.00  0.00     0.049 A 
ATOM     53  H   UNL A   1      42.226  27.423  29.343  1.00  0.00     0.167 HD
ATOM     54  C   UNL A   1      43.342  31.218  31.245  1.00  0.00     0.031 A 
ATOM     55  C   UNL A   1      42.696  24.832  28.417  1.00  0.00     0.031 A 
ATOM     56  C   UNL A   1      44.524  30.401  31.309  1.00  0.00     0.049 A 
ATOM     57  C   UNL A   1      43.999  25.316  28.998  1.00  0.00     0.074 A 
ATOM     58  C   UNL A   1      45.753  30.706  31.869  1.00  0.00     0.029 A 
ATOM     59  N   UNL A   1      44.626  29.118  30.792  1.00  0.00    -0.354 N 
ATOM     60  N   UNL A   1      44.268  26.464  29.574  1.00  0.00    -0.248 NA
ATOM     61  C   UNL A   1      45.139  24.393  28.933  1.00  0.00     0.031 C 
ATOM     62  C   UNL A   1      46.613  29.625  31.644  1.00  0.00     0.029 A 
ATOM     63  C   UNL A   1      45.903  28.626  30.999  1.00  0.00     0.049 A 
ATOM     64  H   UNL A   1      43.898  28.630  30.343  1.00  0.00     0.167 HD
ATOM     65  C   UNL A   1      45.600  26.390  29.966  1.00  0.00     0.074 A 
ATOM     66  C   UNL A   1      46.078  25.080  29.572  1.00  0.00     0.031 C 
ATOM     67  C   UNL A   1      46.360  27.318  30.598  1.00  0.00     0.031 A 
BRANCH  54  68
ATOM     68  C   UNL A   1      43.396  32.609  31.821  1.00  0.00    -0.014 A 
ATOM     69  C   UNL A   1      43.814  33.703  31.042  1.00  0.00     0.010 A 
ATOM     70  C   UNL A   1      42.998  32.828  33.151  1.00  0.00     0.010 A 
ATOM     71  C   UNL A   1      43.869  34.985  31.595  1.00  0.00     0.020 A 
ATOM     72  C   UNL A   1      43.026  34.113  33.701  1.00  0.00     0.020 A 
ATOM     73  C   UNL A   1      43.479  35.181  32.923  1.00  0.00     0.054 A 
BRANCH  73  74
ATOM     74  S   UNL A   1      43.544  36.858  33.613  1.00  0.00     0.124 S 
ATOM     75  O   UNL A   1      44.762  36.805  34.417  1.00  0.00    -0.237 OA
ATOM     76  O   UNL A   1      43.617  37.694  32.417  1.00  0.00    -0.237 OA
ATOM     77  O   UNL A   1      42.301  36.970  34.372  1.00  0.00    -0.744 OA
ENDBRANCH  73  74
ENDBRANCH  54  68
BRANCH  55  78
ATOM     78  C   UNL A   1      42.591  23.481  27.798  1.00  0.00    -0.014 A 
ATOM     79  C   UNL A   1      42.990  23.263  26.468  1.00  0.00     0.010 A 
ATOM     80  C   UNL A   1      42.089  22.401  28.548  1.00  0.00     0.010 A 
ATOM     81  C   UNL A   1      42.871  21.993  25.894  1.00  0.00     0.020 A 
ATOM     82  C   UNL A   1      41.994  21.125  27.985  1.00  0.00     0.020 A 
ATOM     83  C   UNL A   1      42.375  20.932  26.657  1.00  0.00     0.054 A 
BRANCH  83  84
ATOM     84  S   UNL A   1      42.274  19.283  25.908  1.00  0.00     0.124 S 
ATOM     85  O   UNL A   1      40.838  19.132  25.698  1.00  0.00    -0.237 OA
ATOM     86  O   UNL A   1      43.079  19.435  24.698  1.00  0.00    -0.237 OA
ATOM     87  O   UNL A   1      42.855  18.409  26.926  1.00  0.00    -0.744 OA
ENDBRANCH  83  84
ENDBRANCH  55  78
BRANCH  67  88
ATOM     88  C   UNL A   1      47.777  26.940  30.939  1.00  0.00    -0.014 A 
ATOM     89  C   UNL A   1      48.083  26.241  32.120  1.00  0.00     0.010 A 
ATOM     90  C   UNL A   1      48.811  27.244  30.034  1.00  0.00     0.010 A 
ATOM     91  C   UNL A   1      49.403  25.881  32.405  1.00  0.00     0.020 A 
ATOM     92  C   UNL A   1      50.127  26.862  30.302  1.00  0.00     0.020 A 
ATOM     93  C   UNL A   1      50.417  26.195  31.495  1.00  0.00     0.054 A 
BRANCH  93  94
ATOM     94  S   UNL A   1      52.117  25.682  31.867  1.00  0.00     0.124 S 
ATOM     95  O   UNL A   1      52.449  26.534  33.006  1.00  0.00    -0.237 OA
ATOM     96  O   UNL A   1      51.964  24.261  32.169  1.00  0.00    -0.237 OA
ATOM     97  O   UNL A   1      52.846  25.976  30.635  1.00  0.00    -0.744 OA
ENDBRANCH  93  94
ENDBRANCH  67  88
ENDBRANCH  41  42
ENDBRANCH  34  36
ENDBRANCH  33  34
ENDBRANCH  32  33
ENDBRANCH   1  32
TORSDOF 20
ENDMDL
MODEL 3
REMARK VINA RESULT:     -11.5      6.864     12.300
REMARK SMILES COc1cccc([C@@H]2[NH2+][C@@](C)(C(=O)OCCOCCOC(=O)c3ccc(-c4c5nc(c(-c6ccc(S(=O)(=O)[O-])cc6)c6ccc([nH]6)c(-c6ccc(S(=O)(=O)[O-])cc6)c6nc(c(-c7ccc(S(=O)(=O)[O-])cc7)c7ccc4[nH]7)C=C6)C=C5)cc3)[C@@H]3C(=O)N(C)C(=O)[C@@H]32)c1O
REMARK SMILES IDX 18 1 17 2 16 3 15 4 14 5 12 6 13 7 10 8 8 9 9 10 90 11 83 14
REMARK SMILES IDX 88 15 11 16 84 17 86 18 89 19 85 20 87 21 7 22 3 23 4 24
REMARK SMILES IDX 91 25 5 26 6 27 2 28 1 29 92 30 19 32 20 33 21 34 22 35
REMARK SMILES IDX 23 36 24 37 82 38 25 39 81 40 26 41 27 42 28 43 75 44 29 45
REMARK SMILES IDX 80 46 74 47 76 48 30 49 79 50 73 51 72 52 31 54 61 55 42 56
REMARK SMILES IDX 60 57 43 58 46 59 59 60 77 61 44 62 45 63 58 65 78 66 47 67
REMARK SMILES IDX 32 68 33 69 41 70 34 71 40 72 35 73 36 74 37 75 38 76 39 77
REMARK SMILES IDX 62 78 63 79 71 80 64 81 70 82 65 83 66 84 67 85 68 86 69 87
REMARK SMILES IDX 48 88 49 89 57 90 50 91 56 92 51 93 52 94 53 95 54 96 55 97
REMARK H PARENT 9 12 9 13 92 31 76 53 46 64
REMARK Flexibility Score: inf
ROOT
ATOM      1  C   UNL A   1      34.152  30.683  27.433  1.00  0.00     0.202 C 
ENDROOT
BRANCH   1   2
ATOM      2  O   UNL A   1      33.255  30.197  26.436  1.00  0.00    -0.374 OA
BRANCH   2   3
ATOM      3  C   UNL A   1      33.411  28.837  26.030  1.00  0.00     0.202 C 
BRANCH   3   4
ATOM      4  C   UNL A   1      32.146  27.976  25.978  1.00  0.00     0.261 C 
BRANCH   4   5
ATOM      5  O   UNL A   1      32.417  26.591  26.253  1.00  0.00    -0.459 OA
BRANCH   5   6
ATOM      6  C   UNL A   1      31.399  25.740  25.953  1.00  0.00     0.368 C 
ATOM      7  O   UNL A   1      30.262  25.847  26.408  1.00  0.00    -0.245 OA
BRANCH   6   8
ATOM      8  C   UNL A   1      31.797  24.572  25.005  1.00  0.00     0.204 C 
ATOM      9  C   UNL A   1      32.276  22.320  25.817  1.00  0.00     0.232 C 
ATOM     10  N   UNL A   1      31.202  23.255  25.408  1.00  0.00    -0.325 N 
ATOM     11  C   UNL A   1      33.511  23.185  26.042  1.00  0.00     0.161 C 
ATOM     12  H   UNL A   1      30.562  23.397  26.189  1.00  0.00     0.347 HD
ATOM     13  H   UNL A   1      30.696  22.858  24.616  1.00  0.00     0.347 HD
ATOM     14  C   UNL A   1      33.309  24.416  25.174  1.00  0.00     0.170 C 
ATOM     15  C   UNL A   1      34.821  22.639  25.563  1.00  0.00     0.239 C 
ATOM     16  C   UNL A   1      31.258  25.040  23.650  1.00  0.00     0.093 C 
ATOM     17  C   UNL A   1      34.194  24.166  23.985  1.00  0.00     0.240 C 
ATOM     18  N   UNL A   1      35.112  23.218  24.359  1.00  0.00    -0.285 N 
ATOM     19  O   UNL A   1      35.491  21.809  26.160  1.00  0.00    -0.274 OA
ATOM     20  O   UNL A   1      34.178  24.787  22.934  1.00  0.00    -0.274 OA
ATOM     21  C   UNL A   1      36.274  22.860  23.587  1.00  0.00     0.156 C 
BRANCH   9  22
ATOM     22  C   UNL A   1      32.482  21.084  24.946  1.00  0.00     0.056 A 
ATOM     23  C   UNL A   1      32.755  18.667  24.621  1.00  0.00     0.161 A 
ATOM     24  C   UNL A   1      32.491  18.801  23.263  1.00  0.00     0.050 A 
ATOM     25  C   UNL A   1      32.807  19.810  25.432  1.00  0.00     0.166 A 
ATOM     26  C   UNL A   1      32.238  20.062  22.731  1.00  0.00     0.005 A 
ATOM     27  C   UNL A   1      32.218  21.187  23.566  1.00  0.00     0.014 A 
BRANCH  23  28
ATOM     28  O   UNL A   1      33.018  17.402  25.077  1.00  0.00    -0.493 OA
ATOM     29  C   UNL A   1      33.443  16.482  24.067  1.00  0.00     0.278 C 
ENDBRANCH  23  28
BRANCH  25  30
ATOM     30  O   UNL A   1      33.212  19.685  26.724  1.00  0.00    -0.504 OA
ATOM     31  H   UNL A   1      33.598  20.416  27.168  1.00  0.00     0.293 HD
ENDBRANCH  25  30
ENDBRANCH   9  22
ENDBRANCH   6   8
ENDBRANCH   5   6
ENDBRANCH   4   5
ENDBRANCH   3   4
ENDBRANCH   2   3
ENDBRANCH   1   2
BRANCH   1  32
ATOM     32  C   UNL A   1      35.191  29.704  27.989  1.00  0.00     0.261 C 
BRANCH  32  33
ATOM     33  O   UNL A   1      36.300  30.378  28.607  1.00  0.00    -0.460 OA
BRANCH  33  34
ATOM     34  C   UNL A   1      36.953  29.645  29.538  1.00  0.00     0.338 C 
ATOM     35  O   UNL A   1      36.515  29.274  30.622  1.00  0.00    -0.246 OA
BRANCH  34  36
ATOM     36  C   UNL A   1      38.237  29.159  29.002  1.00  0.00     0.060 A 
ATOM     37  C   UNL A   1      39.132  28.586  29.914  1.00  0.00     0.016 A 
ATOM     38  C   UNL A   1      38.592  29.319  27.661  1.00  0.00     0.016 A 
ATOM     39  C   UNL A   1      40.414  28.235  29.506  1.00  0.00     0.010 A 
ATOM     40  C   UNL A   1      39.886  28.973  27.254  1.00  0.00     0.010 A 
ATOM     41  C   UNL A   1      40.815  28.473  28.186  1.00  0.00    -0.014 A 
BRANCH  41  42
ATOM     42  C   UNL A   1      42.252  28.363  27.841  1.00  0.00     0.031 A 
ATOM     43  C   UNL A   1      43.148  29.547  28.097  1.00  0.00     0.074 A 
ATOM     44  C   UNL A   1      42.762  27.212  27.371  1.00  0.00     0.049 A 
ATOM     45  N   UNL A   1      44.433  29.671  27.892  1.00  0.00    -0.248 NA
ATOM     46  C   UNL A   1      42.509  30.748  28.661  1.00  0.00     0.031 C 
ATOM     47  C   UNL A   1      42.001  25.986  27.131  1.00  0.00     0.029 A 
ATOM     48  N   UNL A   1      44.047  26.888  27.016  1.00  0.00    -0.354 N 
ATOM     49  C   UNL A   1      44.757  30.960  28.300  1.00  0.00     0.074 A 
ATOM     50  C   UNL A   1      43.529  31.591  28.733  1.00  0.00     0.031 C 
ATOM     51  C   UNL A   1      42.836  25.042  26.662  1.00  0.00     0.029 A 
ATOM     52  C   UNL A   1      44.179  25.604  26.544  1.00  0.00     0.049 A 
ATOM     53  H   UNL A   1      44.802  27.515  27.091  1.00  0.00     0.167 HD
ATOM     54  C   UNL A   1      45.969  31.564  28.322  1.00  0.00     0.031 A 
ATOM     55  C   UNL A   1      45.260  24.962  26.059  1.00  0.00     0.031 A 
ATOM     56  C   UNL A   1      47.185  30.939  27.875  1.00  0.00     0.049 A 
ATOM     57  C   UNL A   1      46.586  25.677  26.025  1.00  0.00     0.074 A 
ATOM     58  C   UNL A   1      48.466  31.464  27.853  1.00  0.00     0.029 A 
ATOM     59  N   UNL A   1      47.271  29.651  27.367  1.00  0.00    -0.354 N 
ATOM     60  N   UNL A   1      46.878  26.891  26.427  1.00  0.00    -0.248 NA
ATOM     61  C   UNL A   1      47.729  24.932  25.479  1.00  0.00     0.031 C 
ATOM     62  C   UNL A   1      49.317  30.511  27.284  1.00  0.00     0.029 A 
ATOM     63  C   UNL A   1      48.578  29.371  27.008  1.00  0.00     0.049 A 
ATOM     64  H   UNL A   1      46.514  29.029  27.275  1.00  0.00     0.167 HD
ATOM     65  C   UNL A   1      48.244  27.045  26.211  1.00  0.00     0.074 A 
ATOM     66  C   UNL A   1      48.721  25.796  25.652  1.00  0.00     0.031 C 
ATOM     67  C   UNL A   1      49.033  28.121  26.453  1.00  0.00     0.031 A 
BRANCH  54  68
ATOM     68  C   UNL A   1      46.029  32.985  28.815  1.00  0.00    -0.014 A 
ATOM     69  C   UNL A   1      46.252  33.276  30.173  1.00  0.00     0.010 A 
ATOM     70  C   UNL A   1      45.884  34.046  27.904  1.00  0.00     0.010 A 
ATOM     71  C   UNL A   1      46.293  34.601  30.616  1.00  0.00     0.020 A 
ATOM     72  C   UNL A   1      45.951  35.373  28.337  1.00  0.00     0.020 A 
ATOM     73  C   UNL A   1      46.137  35.642  29.695  1.00  0.00     0.054 A 
BRANCH  73  74
ATOM     74  S   UNL A   1      46.210  37.353  30.292  1.00  0.00     0.124 S 
ATOM     75  O   UNL A   1      44.927  37.486  30.978  1.00  0.00    -0.237 OA
ATOM     76  O   UNL A   1      47.386  37.341  31.159  1.00  0.00    -0.237 OA
ATOM     77  O   UNL A   1      46.348  38.142  29.071  1.00  0.00    -0.744 OA
ENDBRANCH  73  74
ENDBRANCH  54  68
BRANCH  55  78
ATOM     78  C   UNL A   1      45.131  23.569  25.549  1.00  0.00    -0.014 A 
ATOM     79  C   UNL A   1      45.400  22.468  26.379  1.00  0.00     0.010 A 
ATOM     80  C   UNL A   1      44.733  23.342  24.218  1.00  0.00     0.010 A 
ATOM     81  C   UNL A   1      45.292  21.164  25.882  1.00  0.00     0.020 A 
ATOM     82  C   UNL A   1      44.598  22.040  23.727  1.00  0.00     0.020 A 
ATOM     83  C   UNL A   1      44.889  20.959  24.560  1.00  0.00     0.054 A 
BRANCH  83  84
ATOM     84  S   UNL A   1      44.709  19.260  23.950  1.00  0.00     0.124 S 
ATOM     85  O   UNL A   1      43.501  18.817  24.638  1.00  0.00    -0.237 OA
ATOM     86  O   UNL A   1      44.582  19.453  22.508  1.00  0.00    -0.237 OA
ATOM     87  O   UNL A   1      45.947  18.611  24.377  1.00  0.00    -0.744 OA
ENDBRANCH  83  84
ENDBRANCH  55  78
BRANCH  67  88
ATOM     88  C   UNL A   1      50.503  27.984  26.155  1.00  0.00    -0.014 A 
ATOM     89  C   UNL A   1      51.406  27.523  27.128  1.00  0.00     0.010 A 
ATOM     90  C   UNL A   1      50.975  28.272  24.861  1.00  0.00     0.010 A 
ATOM     91  C   UNL A   1      52.762  27.384  26.821  1.00  0.00     0.020 A 
ATOM     92  C   UNL A   1      52.326  28.108  24.543  1.00  0.00     0.020 A 
ATOM     93  C   UNL A   1      53.214  27.678  25.531  1.00  0.00     0.054 A 
BRANCH  93  94
ATOM     94  S   UNL A   1      54.972  27.450  25.146  1.00  0.00     0.124 S 
ATOM     95  O   UNL A   1      55.411  28.823  24.907  1.00  0.00    -0.237 OA
ATOM     96  O   UNL A   1      55.489  26.827  26.362  1.00  0.00    -0.237 OA
ATOM     97  O   UNL A   1      54.960  26.586  23.968  1.00  0.00    -0.744 OA
ENDBRANCH  93  94
ENDBRANCH  67  88
ENDBRANCH  41  42
ENDBRANCH  34  36
ENDBRANCH  33  34
ENDBRANCH  32  33
ENDBRANCH   1  32
TORSDOF 20
ENDMDL
