MODEL 1
REMARK VINA RESULT:     -10.7      0.000      0.000
REMARK SMILES O=C(OCCOCCOC(=O)c1cccn2c(=O)c3ccc(Cl)cc3nc12)c1ccc(-c2c3nc(c(-c4ccc(S(=O)(=O)[O-])cc4)c4ccc([nH]4)c(-c4ccc(S(=O)(=O)[O-])cc4)c4nc(c(-c5ccc(S(=O)(=O)[O-])cc5)c5ccc2[nH]5)C=C4)C=C3)cc1
REMARK SMILES IDX 4 1 3 2 2 3 1 4 28 5 29 6 87 7 30 8 86 9 31 10 32 11 33 12
REMARK SMILES IDX 80 13 34 14 85 15 79 16 81 17 35 18 84 19 78 20 77 21 36 23
REMARK SMILES IDX 66 24 47 25 65 26 48 27 51 28 64 29 82 30 49 31 50 32 63 34
REMARK SMILES IDX 83 35 52 36 37 37 38 38 46 39 39 40 45 41 40 42 41 43 42 44
REMARK SMILES IDX 43 45 44 46 67 47 68 48 76 49 69 50 75 51 70 52 71 53 72 54
REMARK SMILES IDX 73 55 74 56 53 57 54 58 62 59 55 60 61 61 56 62 57 63 58 64
REMARK SMILES IDX 59 65 60 66 5 67 6 68 7 69 8 70 9 71 10 72 11 73 12 74 13 75
REMARK SMILES IDX 27 76 14 77 16 78 26 79 15 80 17 81 25 82 18 83 19 84 24 85
REMARK SMILES IDX 20 86 22 87 21 88 23 89
REMARK H PARENT 81 22 51 33
REMARK Flexibility Score: inf
ROOT
ATOM      1  C   UNL A   1      37.197  21.636  24.770  1.00  0.00     0.261 C 
ENDROOT
BRANCH   1   2
ATOM      2  O   UNL A   1      37.770  22.784  25.403  1.00  0.00    -0.460 OA
BRANCH   2   3
ATOM      3  C   UNL A   1      38.932  22.862  26.093  1.00  0.00     0.338 C 
ATOM      4  O   UNL A   1      39.585  21.824  26.204  1.00  0.00    -0.246 OA
BRANCH   3   5
ATOM      5  C   UNL A   1      39.485  24.105  26.743  1.00  0.00     0.060 A 
ATOM      6  C   UNL A   1      39.159  24.282  28.102  1.00  0.00     0.016 A 
ATOM      7  C   UNL A   1      40.209  25.128  26.124  1.00  0.00     0.016 A 
ATOM      8  C   UNL A   1      39.481  25.460  28.784  1.00  0.00     0.010 A 
ATOM      9  C   UNL A   1      40.512  26.314  26.782  1.00  0.00     0.010 A 
ATOM     10  C   UNL A   1      40.133  26.491  28.109  1.00  0.00    -0.014 A 
BRANCH  10  11
ATOM     11  C   UNL A   1      40.539  27.738  28.771  1.00  0.00     0.031 A 
ATOM     12  C   UNL A   1      39.592  28.894  28.854  1.00  0.00     0.074 A 
ATOM     13  C   UNL A   1      41.830  27.837  29.139  1.00  0.00     0.049 A 
ATOM     14  N   UNL A   1      39.804  30.083  29.346  1.00  0.00    -0.248 NA
ATOM     15  C   UNL A   1      38.239  28.704  28.300  1.00  0.00     0.031 C 
ATOM     16  C   UNL A   1      42.820  26.767  28.990  1.00  0.00     0.029 A 
ATOM     17  N   UNL A   1      42.538  28.883  29.659  1.00  0.00    -0.354 N 
ATOM     18  C   UNL A   1      38.611  30.777  29.190  1.00  0.00     0.074 A 
ATOM     19  C   UNL A   1      37.689  29.894  28.513  1.00  0.00     0.031 C 
ATOM     20  C   UNL A   1      44.018  27.223  29.382  1.00  0.00     0.029 A 
ATOM     21  C   UNL A   1      43.879  28.615  29.799  1.00  0.00     0.049 A 
ATOM     22  H   UNL A   1      42.130  29.744  29.908  1.00  0.00     0.167 HD
ATOM     23  C   UNL A   1      38.330  32.034  29.601  1.00  0.00     0.031 A 
ATOM     24  C   UNL A   1      44.885  29.408  30.211  1.00  0.00     0.031 A 
ATOM     25  C   UNL A   1      39.298  32.878  30.255  1.00  0.00     0.049 A 
ATOM     26  C   UNL A   1      44.543  30.794  30.674  1.00  0.00     0.074 A 
ATOM     27  C   UNL A   1      39.108  34.138  30.791  1.00  0.00     0.029 A 
ATOM     28  N   UNL A   1      40.633  32.554  30.449  1.00  0.00    -0.354 N 
ATOM     29  N   UNL A   1      43.375  31.392  30.655  1.00  0.00    -0.248 NA
ATOM     30  C   UNL A   1      45.627  31.601  31.245  1.00  0.00     0.031 C 
ATOM     31  C   UNL A   1      40.341  34.605  31.241  1.00  0.00     0.029 A 
ATOM     32  C   UNL A   1      41.286  33.604  31.068  1.00  0.00     0.049 A 
ATOM     33  H   UNL A   1      41.054  31.703  30.185  1.00  0.00     0.167 HD
ATOM     34  C   UNL A   1      43.575  32.636  31.234  1.00  0.00     0.074 A 
ATOM     35  C   UNL A   1      44.975  32.702  31.604  1.00  0.00     0.031 C 
ATOM     36  C   UNL A   1      42.681  33.633  31.437  1.00  0.00     0.031 A 
BRANCH  23  37
ATOM     37  C   UNL A   1      36.934  32.581  29.433  1.00  0.00    -0.014 A 
ATOM     38  C   UNL A   1      36.592  33.295  28.267  1.00  0.00     0.010 A 
ATOM     39  C   UNL A   1      36.042  32.586  30.520  1.00  0.00     0.010 A 
ATOM     40  C   UNL A   1      35.422  34.060  28.219  1.00  0.00     0.020 A 
ATOM     41  C   UNL A   1      34.858  33.330  30.466  1.00  0.00     0.020 A 
ATOM     42  C   UNL A   1      34.574  34.092  29.330  1.00  0.00     0.054 A 
BRANCH  42  43
ATOM     43  S   UNL A   1      33.128  35.188  29.297  1.00  0.00     0.124 S 
ATOM     44  O   UNL A   1      32.289  34.564  28.280  1.00  0.00    -0.237 OA
ATOM     45  O   UNL A   1      32.632  35.101  30.668  1.00  0.00    -0.237 OA
ATOM     46  O   UNL A   1      33.690  36.487  28.930  1.00  0.00    -0.744 OA
ENDBRANCH  42  43
ENDBRANCH  23  37
BRANCH  24  47
ATOM     47  C   UNL A   1      46.267  28.855  30.249  1.00  0.00    -0.014 A 
ATOM     48  C   UNL A   1      47.094  28.940  29.112  1.00  0.00     0.010 A 
ATOM     49  C   UNL A   1      46.712  28.125  31.363  1.00  0.00     0.010 A 
ATOM     50  C   UNL A   1      48.317  28.263  29.070  1.00  0.00     0.020 A 
ATOM     51  C   UNL A   1      47.949  27.471  31.336  1.00  0.00     0.020 A 
ATOM     52  C   UNL A   1      48.728  27.520  30.179  1.00  0.00     0.054 A 
BRANCH  52  53
ATOM     53  S   UNL A   1      50.290  26.602  30.082  1.00  0.00     0.124 S 
ATOM     54  O   UNL A   1      50.851  27.096  28.828  1.00  0.00    -0.237 OA
ATOM     55  O   UNL A   1      50.987  27.028  31.293  1.00  0.00    -0.237 OA
ATOM     56  O   UNL A   1      49.866  25.204  30.070  1.00  0.00    -0.744 OA
ENDBRANCH  52  53
ENDBRANCH  24  47
BRANCH  36  57
ATOM     57  C   UNL A   1      43.163  34.899  32.091  1.00  0.00    -0.014 A 
ATOM     58  C   UNL A   1      43.762  35.900  31.302  1.00  0.00     0.010 A 
ATOM     59  C   UNL A   1      43.218  34.996  33.491  1.00  0.00     0.010 A 
ATOM     60  C   UNL A   1      44.472  36.939  31.904  1.00  0.00     0.020 A 
ATOM     61  C   UNL A   1      43.901  36.053  34.097  1.00  0.00     0.020 A 
ATOM     62  C   UNL A   1      44.555  36.994  33.298  1.00  0.00     0.054 A 
BRANCH  62  63
ATOM     63  S   UNL A   1      45.575  38.287  34.057  1.00  0.00     0.124 S 
ATOM     64  O   UNL A   1      46.799  37.561  34.384  1.00  0.00    -0.237 OA
ATOM     65  O   UNL A   1      45.694  39.271  32.983  1.00  0.00    -0.237 OA
ATOM     66  O   UNL A   1      44.782  38.722  35.204  1.00  0.00    -0.744 OA
ENDBRANCH  62  63
ENDBRANCH  36  57
ENDBRANCH  10  11
ENDBRANCH   3   5
ENDBRANCH   2   3
ENDBRANCH   1   2
BRANCH   1  67
ATOM     67  C   UNL A   1      35.686  21.786  24.592  1.00  0.00     0.202 C 
BRANCH  67  68
ATOM     68  O   UNL A   1      34.912  21.055  25.539  1.00  0.00    -0.374 OA
BRANCH  68  69
ATOM     69  C   UNL A   1      34.801  21.638  26.834  1.00  0.00     0.202 C 
BRANCH  69  70
ATOM     70  C   UNL A   1      33.360  22.060  27.127  1.00  0.00     0.261 C 
BRANCH  70  71
ATOM     71  O   UNL A   1      32.464  21.385  26.226  1.00  0.00    -0.460 OA
BRANCH  71  72
ATOM     72  C   UNL A   1      31.509  22.154  25.632  1.00  0.00     0.342 C 
ATOM     73  O   UNL A   1      30.417  22.442  26.092  1.00  0.00    -0.246 OA
BRANCH  72  74
ATOM     74  C   UNL A   1      32.046  22.670  24.352  1.00  0.00     0.103 A 
ATOM     75  C   UNL A   1      32.155  21.822  23.315  1.00  0.00     0.021 A 
ATOM     76  C   UNL A   1      32.510  24.091  24.192  1.00  0.00     0.154 A 
ATOM     77  C   UNL A   1      32.675  22.264  22.052  1.00  0.00     0.019 A 
ATOM     78  N   UNL A   1      32.960  24.468  22.922  1.00  0.00    -0.267 N 
ATOM     79  N   UNL A   1      32.535  24.898  25.206  1.00  0.00    -0.229 NA
ATOM     80  C   UNL A   1      33.031  23.541  21.888  1.00  0.00     0.096 A 
ATOM     81  C   UNL A   1      33.372  25.780  22.664  1.00  0.00     0.265 A 
ATOM     82  C   UNL A   1      33.050  26.187  25.061  1.00  0.00     0.080 A 
ATOM     83  O   UNL A   1      33.699  26.207  21.557  1.00  0.00    -0.268 OA
ATOM     84  C   UNL A   1      33.445  26.687  23.825  1.00  0.00     0.066 A 
ATOM     85  C   UNL A   1      33.210  26.984  26.199  1.00  0.00     0.049 A 
ATOM     86  C   UNL A   1      33.958  27.984  23.702  1.00  0.00     0.017 A 
ATOM     87  C   UNL A   1      33.747  28.268  26.088  1.00  0.00     0.043 A 
ATOM     88  C   UNL A   1      34.109  28.777  24.841  1.00  0.00     0.021 A 
ATOM     89  Cl  UNL A   1      33.987  29.222  27.498  1.00  0.00    -0.084 Cl
ENDBRANCH  72  74
ENDBRANCH  71  72
ENDBRANCH  70  71
ENDBRANCH  69  70
ENDBRANCH  68  69
ENDBRANCH  67  68
ENDBRANCH   1  67
TORSDOF 17
ENDMDL
MODEL 2
REMARK VINA RESULT:     -10.4      2.056      8.647
REMARK SMILES O=C(OCCOCCOC(=O)c1cccn2c(=O)c3ccc(Cl)cc3nc12)c1ccc(-c2c3nc(c(-c4ccc(S(=O)(=O)[O-])cc4)c4ccc([nH]4)c(-c4ccc(S(=O)(=O)[O-])cc4)c4nc(c(-c5ccc(S(=O)(=O)[O-])cc5)c5ccc2[nH]5)C=C4)C=C3)cc1
REMARK SMILES IDX 4 1 3 2 2 3 1 4 28 5 29 6 87 7 30 8 86 9 31 10 32 11 33 12
REMARK SMILES IDX 80 13 34 14 85 15 79 16 81 17 35 18 84 19 78 20 77 21 36 23
REMARK SMILES IDX 66 24 47 25 65 26 48 27 51 28 64 29 82 30 49 31 50 32 63 34
REMARK SMILES IDX 83 35 52 36 37 37 38 38 46 39 39 40 45 41 40 42 41 43 42 44
REMARK SMILES IDX 43 45 44 46 67 47 68 48 76 49 69 50 75 51 70 52 71 53 72 54
REMARK SMILES IDX 73 55 74 56 53 57 54 58 62 59 55 60 61 61 56 62 57 63 58 64
REMARK SMILES IDX 59 65 60 66 5 67 6 68 7 69 8 70 9 71 10 72 11 73 12 74 13 75
REMARK SMILES IDX 27 76 14 77 16 78 26 79 15 80 17 81 25 82 18 83 19 84 24 85
REMARK SMILES IDX 20 86 22 87 21 88 23 89
REMARK H PARENT 81 22 51 33
REMARK Flexibility Score: inf
ROOT
ATOM      1  C   UNL A   1      36.190  23.507  25.086  1.00  0.00     0.261 C 
ENDROOT
BRANCH   1   2
ATOM      2  O   UNL A   1      37.526  23.005  24.994  1.00  0.00    -0.460 OA
BRANCH   2   3
ATOM      3  C   UNL A   1      38.469  22.959  25.964  1.00  0.00     0.338 C 
ATOM      4  O   UNL A   1      38.781  21.844  26.385  1.00  0.00    -0.246 OA
BRANCH   3   5
ATOM      5  C   UNL A   1      39.158  24.152  26.576  1.00  0.00     0.060 A 
ATOM      6  C   UNL A   1      38.818  24.437  27.914  1.00  0.00     0.016 A 
ATOM      7  C   UNL A   1      40.027  25.042  25.938  1.00  0.00     0.016 A 
ATOM      8  C   UNL A   1      39.268  25.596  28.552  1.00  0.00     0.010 A 
ATOM      9  C   UNL A   1      40.460  26.212  26.552  1.00  0.00     0.010 A 
ATOM     10  C   UNL A   1      40.067  26.501  27.854  1.00  0.00    -0.014 A 
BRANCH  10  11
ATOM     11  C   UNL A   1      40.611  27.718  28.473  1.00  0.00     0.031 A 
ATOM     12  C   UNL A   1      41.963  27.701  29.115  1.00  0.00     0.074 A 
ATOM     13  C   UNL A   1      39.779  28.770  28.575  1.00  0.00     0.049 A 
ATOM     14  N   UNL A   1      42.568  28.662  29.757  1.00  0.00    -0.248 NA
ATOM     15  C   UNL A   1      42.732  26.445  29.047  1.00  0.00     0.031 C 
ATOM     16  C   UNL A   1      38.412  28.802  28.048  1.00  0.00     0.029 A 
ATOM     17  N   UNL A   1      39.932  29.982  29.189  1.00  0.00    -0.354 N 
ATOM     18  C   UNL A   1      43.797  28.143  30.147  1.00  0.00     0.074 A 
ATOM     19  C   UNL A   1      43.836  26.765  29.713  1.00  0.00     0.031 C 
ATOM     20  C   UNL A   1      37.840  29.965  28.388  1.00  0.00     0.029 A 
ATOM     21  C   UNL A   1      38.795  30.752  29.161  1.00  0.00     0.049 A 
ATOM     22  H   UNL A   1      40.773  30.274  29.609  1.00  0.00     0.167 HD
ATOM     23  C   UNL A   1      44.794  28.787  30.793  1.00  0.00     0.031 A 
ATOM     24  C   UNL A   1      38.548  31.957  29.708  1.00  0.00     0.031 A 
ATOM     25  C   UNL A   1      44.692  30.159  31.221  1.00  0.00     0.049 A 
ATOM     26  C   UNL A   1      39.677  32.655  30.408  1.00  0.00     0.074 A 
ATOM     27  C   UNL A   1      45.665  30.944  31.810  1.00  0.00     0.029 A 
ATOM     28  N   UNL A   1      43.550  30.941  31.117  1.00  0.00    -0.354 N 
ATOM     29  N   UNL A   1      40.888  32.207  30.645  1.00  0.00    -0.248 NA
ATOM     30  C   UNL A   1      39.435  34.022  30.882  1.00  0.00     0.031 C 
ATOM     31  C   UNL A   1      45.091  32.174  32.130  1.00  0.00     0.029 A 
ATOM     32  C   UNL A   1      43.785  32.190  31.661  1.00  0.00     0.049 A 
ATOM     33  H   UNL A   1      42.699  30.650  30.716  1.00  0.00     0.167 HD
ATOM     34  C   UNL A   1      41.562  33.243  31.273  1.00  0.00     0.074 A 
ATOM     35  C   UNL A   1      40.628  34.348  31.369  1.00  0.00     0.031 C 
ATOM     36  C   UNL A   1      42.836  33.276  31.729  1.00  0.00     0.031 A 
BRANCH  23  37
ATOM     37  C   UNL A   1      46.104  28.080  31.039  1.00  0.00    -0.014 A 
ATOM     38  C   UNL A   1      46.361  27.485  32.290  1.00  0.00     0.010 A 
ATOM     39  C   UNL A   1      47.158  28.206  30.117  1.00  0.00     0.010 A 
ATOM     40  C   UNL A   1      47.659  27.098  32.641  1.00  0.00     0.020 A 
ATOM     41  C   UNL A   1      48.453  27.796  30.454  1.00  0.00     0.020 A 
ATOM     42  C   UNL A   1      48.701  27.278  31.728  1.00  0.00     0.054 A 
BRANCH  42  43
ATOM     43  S   UNL A   1      50.396  26.888  32.245  1.00  0.00     0.124 S 
ATOM     44  O   UNL A   1      51.124  28.094  31.864  1.00  0.00    -0.237 OA
ATOM     45  O   UNL A   1      50.247  26.666  33.682  1.00  0.00    -0.237 OA
ATOM     46  O   UNL A   1      50.725  25.691  31.473  1.00  0.00    -0.744 OA
ENDBRANCH  42  43
ENDBRANCH  23  37
BRANCH  24  47
ATOM     47  C   UNL A   1      37.199  32.562  29.536  1.00  0.00    -0.014 A 
ATOM     48  C   UNL A   1      36.931  33.392  28.430  1.00  0.00     0.010 A 
ATOM     49  C   UNL A   1      36.225  32.426  30.538  1.00  0.00     0.010 A 
ATOM     50  C   UNL A   1      35.736  34.113  28.355  1.00  0.00     0.020 A 
ATOM     51  C   UNL A   1      35.015  33.123  30.451  1.00  0.00     0.020 A 
ATOM     52  C   UNL A   1      34.792  33.985  29.376  1.00  0.00     0.054 A 
BRANCH  52  53
ATOM     53  S   UNL A   1      33.273  34.975  29.288  1.00  0.00     0.124 S 
ATOM     54  O   UNL A   1      32.806  34.929  30.670  1.00  0.00    -0.237 OA
ATOM     55  O   UNL A   1      33.765  36.273  28.834  1.00  0.00    -0.237 OA
ATOM     56  O   UNL A   1      32.449  34.251  28.324  1.00  0.00    -0.744 OA
ENDBRANCH  52  53
ENDBRANCH  24  47
BRANCH  36  57
ATOM     57  C   UNL A   1      43.327  34.539  32.383  1.00  0.00    -0.014 A 
ATOM     58  C   UNL A   1      42.989  34.799  33.725  1.00  0.00     0.010 A 
ATOM     59  C   UNL A   1      43.925  35.549  31.611  1.00  0.00     0.010 A 
ATOM     60  C   UNL A   1      43.175  36.073  34.263  1.00  0.00     0.020 A 
ATOM     61  C   UNL A   1      44.141  36.816  32.157  1.00  0.00     0.020 A 
ATOM     62  C   UNL A   1      43.729  37.079  33.466  1.00  0.00     0.054 A 
BRANCH  62  63
ATOM     63  S   UNL A   1      43.858  38.754  34.147  1.00  0.00     0.124 S 
ATOM     64  O   UNL A   1      44.853  39.367  33.272  1.00  0.00    -0.237 OA
ATOM     65  O   UNL A   1      42.495  39.262  34.004  1.00  0.00    -0.237 OA
ATOM     66  O   UNL A   1      44.291  38.532  35.525  1.00  0.00    -0.744 OA
ENDBRANCH  62  63
ENDBRANCH  36  57
ENDBRANCH  10  11
ENDBRANCH   3   5
ENDBRANCH   2   3
ENDBRANCH   1   2
BRANCH   1  67
ATOM     67  C   UNL A   1      35.213  22.663  24.268  1.00  0.00     0.202 C 
BRANCH  67  68
ATOM     68  O   UNL A   1      34.994  23.142  22.945  1.00  0.00    -0.374 OA
BRANCH  68  69
ATOM     69  C   UNL A   1      33.666  23.008  22.448  1.00  0.00     0.202 C 
BRANCH  69  70
ATOM     70  C   UNL A   1      32.674  23.795  23.306  1.00  0.00     0.261 C 
BRANCH  70  71
ATOM     71  O   UNL A   1      32.291  25.002  22.622  1.00  0.00    -0.460 OA
BRANCH  71  72
ATOM     72  C   UNL A   1      33.212  26.005  22.599  1.00  0.00     0.342 C 
ATOM     73  O   UNL A   1      33.964  26.282  21.681  1.00  0.00    -0.246 OA
BRANCH  72  74
ATOM     74  C   UNL A   1      33.098  26.779  23.857  1.00  0.00     0.103 A 
ATOM     75  C   UNL A   1      33.758  26.339  24.942  1.00  0.00     0.021 A 
ATOM     76  C   UNL A   1      32.239  28.008  23.967  1.00  0.00     0.154 A 
ATOM     77  C   UNL A   1      33.680  27.045  26.189  1.00  0.00     0.019 A 
ATOM     78  N   UNL A   1      32.245  28.674  25.196  1.00  0.00    -0.267 N 
ATOM     79  N   UNL A   1      31.492  28.384  22.976  1.00  0.00    -0.229 NA
ATOM     80  C   UNL A   1      32.965  28.171  26.275  1.00  0.00     0.096 A 
ATOM     81  C   UNL A   1      31.510  29.850  25.382  1.00  0.00     0.265 A 
ATOM     82  C   UNL A   1      30.634  29.476  23.123  1.00  0.00     0.080 A 
ATOM     83  O   UNL A   1      31.532  30.536  26.404  1.00  0.00    -0.268 OA
ATOM     84  C   UNL A   1      30.625  30.255  24.274  1.00  0.00     0.066 A 
ATOM     85  C   UNL A   1      29.730  29.768  22.097  1.00  0.00     0.049 A 
ATOM     86  C   UNL A   1      29.757  31.347  24.399  1.00  0.00     0.017 A 
ATOM     87  C   UNL A   1      28.841  30.837  22.227  1.00  0.00     0.043 A 
ATOM     88  C   UNL A   1      28.861  31.637  23.369  1.00  0.00     0.021 A 
ATOM     89  Cl  UNL A   1      27.698  31.159  20.984  1.00  0.00    -0.084 Cl
ENDBRANCH  72  74
ENDBRANCH  71  72
ENDBRANCH  70  71
ENDBRANCH  69  70
ENDBRANCH  68  69
ENDBRANCH  67  68
ENDBRANCH   1  67
TORSDOF 17
ENDMDL
MODEL 3
REMARK VINA RESULT:     -10.4      5.483     11.198
REMARK SMILES O=C(OCCOCCOC(=O)c1cccn2c(=O)c3ccc(Cl)cc3nc12)c1ccc(-c2c3nc(c(-c4ccc(S(=O)(=O)[O-])cc4)c4ccc([nH]4)c(-c4ccc(S(=O)(=O)[O-])cc4)c4nc(c(-c5ccc(S(=O)(=O)[O-])cc5)c5ccc2[nH]5)C=C4)C=C3)cc1
REMARK SMILES IDX 4 1 3 2 2 3 1 4 28 5 29 6 87 7 30 8 86 9 31 10 32 11 33 12
REMARK SMILES IDX 80 13 34 14 85 15 79 16 81 17 35 18 84 19 78 20 77 21 36 23
REMARK SMILES IDX 66 24 47 25 65 26 48 27 51 28 64 29 82 30 49 31 50 32 63 34
REMARK SMILES IDX 83 35 52 36 37 37 38 38 46 39 39 40 45 41 40 42 41 43 42 44
REMARK SMILES IDX 43 45 44 46 67 47 68 48 76 49 69 50 75 51 70 52 71 53 72 54
REMARK SMILES IDX 73 55 74 56 53 57 54 58 62 59 55 60 61 61 56 62 57 63 58 64
REMARK SMILES IDX 59 65 60 66 5 67 6 68 7 69 8 70 9 71 10 72 11 73 12 74 13 75
REMARK SMILES IDX 27 76 14 77 16 78 26 79 15 80 17 81 25 82 18 83 19 84 24 85
REMARK SMILES IDX 20 86 22 87 21 88 23 89
REMARK H PARENT 81 22 51 33
REMARK Flexibility Score: inf
ROOT
ATOM      1  C   UNL A   1      42.832  25.598  25.225  1.00  0.00     0.261 C 
ENDROOT
BRANCH   1   2
ATOM      2  O   UNL A   1      41.694  26.440  25.430  1.00  0.00    -0.460 OA
BRANCH   2   3
ATOM      3  C   UNL A   1      40.728  26.323  26.370  1.00  0.00     0.338 C 
ATOM      4  O   UNL A   1      39.860  25.470  26.175  1.00  0.00    -0.246 OA
BRANCH   3   5
ATOM      5  C   UNL A   1      40.619  27.150  27.626  1.00  0.00     0.060 A 
ATOM      6  C   UNL A   1      41.431  28.301  27.673  1.00  0.00     0.016 A 
ATOM      7  C   UNL A   1      39.869  26.854  28.768  1.00  0.00     0.016 A 
ATOM      8  C   UNL A   1      41.539  29.073  28.834  1.00  0.00     0.010 A 
ATOM      9  C   UNL A   1      39.988  27.597  29.936  1.00  0.00     0.010 A 
ATOM     10  C   UNL A   1      40.837  28.698  29.978  1.00  0.00    -0.014 A 
BRANCH  10  11
ATOM     11  C   UNL A   1      40.870  29.484  31.220  1.00  0.00     0.031 A 
ATOM     12  C   UNL A   1      41.854  29.154  32.298  1.00  0.00     0.074 A 
ATOM     13  C   UNL A   1      39.883  30.381  31.396  1.00  0.00     0.049 A 
ATOM     14  N   UNL A   1      41.982  29.701  33.475  1.00  0.00    -0.248 NA
ATOM     15  C   UNL A   1      42.808  28.061  32.035  1.00  0.00     0.031 C 
ATOM     16  C   UNL A   1      38.838  30.671  30.410  1.00  0.00     0.029 A 
ATOM     17  N   UNL A   1      39.565  31.169  32.466  1.00  0.00    -0.354 N 
ATOM     18  C   UNL A   1      43.042  29.045  34.087  1.00  0.00     0.074 A 
ATOM     19  C   UNL A   1      43.497  28.023  33.171  1.00  0.00     0.031 C 
ATOM     20  C   UNL A   1      37.976  31.553  30.934  1.00  0.00     0.029 A 
ATOM     21  C   UNL A   1      38.402  31.880  32.290  1.00  0.00     0.049 A 
ATOM     22  H   UNL A   1      40.114  31.223  33.282  1.00  0.00     0.167 HD
ATOM     23  C   UNL A   1      43.582  29.303  35.298  1.00  0.00     0.031 A 
ATOM     24  C   UNL A   1      37.749  32.700  33.136  1.00  0.00     0.031 A 
ATOM     25  C   UNL A   1      43.073  30.323  36.180  1.00  0.00     0.049 A 
ATOM     26  C   UNL A   1      38.377  32.980  34.469  1.00  0.00     0.074 A 
ATOM     27  C   UNL A   1      43.586  30.734  37.396  1.00  0.00     0.029 A 
ATOM     28  N   UNL A   1      41.934  31.080  35.946  1.00  0.00    -0.354 N 
ATOM     29  N   UNL A   1      39.467  32.456  34.980  1.00  0.00    -0.248 NA
ATOM     30  C   UNL A   1      37.726  33.975  35.326  1.00  0.00     0.031 C 
ATOM     31  C   UNL A   1      42.718  31.684  37.931  1.00  0.00     0.029 A 
ATOM     32  C   UNL A   1      41.709  31.933  37.011  1.00  0.00     0.049 A 
ATOM     33  H   UNL A   1      41.368  31.019  35.142  1.00  0.00     0.167 HD
ATOM     34  C   UNL A   1      39.648  33.076  36.208  1.00  0.00     0.074 A 
ATOM     35  C   UNL A   1      38.561  34.023  36.359  1.00  0.00     0.031 C 
ATOM     36  C   UNL A   1      40.623  32.877  37.125  1.00  0.00     0.031 A 
BRANCH  23  37
ATOM     37  C   UNL A   1      44.806  28.545  35.749  1.00  0.00    -0.014 A 
ATOM     38  C   UNL A   1      46.083  28.934  35.299  1.00  0.00     0.010 A 
ATOM     39  C   UNL A   1      44.668  27.321  36.428  1.00  0.00     0.010 A 
ATOM     40  C   UNL A   1      47.182  28.082  35.453  1.00  0.00     0.020 A 
ATOM     41  C   UNL A   1      45.770  26.477  36.607  1.00  0.00     0.020 A 
ATOM     42  C   UNL A   1      47.012  26.847  36.085  1.00  0.00     0.054 A 
BRANCH  42  43
ATOM     43  S   UNL A   1      48.418  25.703  36.163  1.00  0.00     0.124 S 
ATOM     44  O   UNL A   1      49.437  26.507  36.829  1.00  0.00    -0.237 OA
ATOM     45  O   UNL A   1      47.880  24.590  36.943  1.00  0.00    -0.237 OA
ATOM     46  O   UNL A   1      48.688  25.393  34.761  1.00  0.00    -0.744 OA
ENDBRANCH  42  43
ENDBRANCH  23  37
BRANCH  24  47
ATOM     47  C   UNL A   1      36.480  33.333  32.684  1.00  0.00    -0.014 A 
ATOM     48  C   UNL A   1      36.498  34.610  32.090  1.00  0.00     0.010 A 
ATOM     49  C   UNL A   1      35.243  32.731  32.967  1.00  0.00     0.010 A 
ATOM     50  C   UNL A   1      35.306  35.294  31.836  1.00  0.00     0.020 A 
ATOM     51  C   UNL A   1      34.047  33.400  32.686  1.00  0.00     0.020 A 
ATOM     52  C   UNL A   1      34.087  34.688  32.150  1.00  0.00     0.054 A 
BRANCH  52  53
ATOM     53  S   UNL A   1      32.554  35.616  31.865  1.00  0.00     0.124 S 
ATOM     54  O   UNL A   1      32.943  36.966  32.262  1.00  0.00    -0.237 OA
ATOM     55  O   UNL A   1      32.325  35.422  30.436  1.00  0.00    -0.237 OA
ATOM     56  O   UNL A   1      31.589  34.959  32.743  1.00  0.00    -0.744 OA
ENDBRANCH  52  53
ENDBRANCH  24  47
BRANCH  36  57
ATOM     57  C   UNL A   1      40.587  33.688  38.391  1.00  0.00    -0.014 A 
ATOM     58  C   UNL A   1      39.744  33.286  39.446  1.00  0.00     0.010 A 
ATOM     59  C   UNL A   1      41.211  34.945  38.445  1.00  0.00     0.010 A 
ATOM     60  C   UNL A   1      39.469  34.159  40.499  1.00  0.00     0.020 A 
ATOM     61  C   UNL A   1      40.961  35.809  39.514  1.00  0.00     0.020 A 
ATOM     62  C   UNL A   1      40.063  35.424  40.512  1.00  0.00     0.054 A 
BRANCH  62  63
ATOM     63  S   UNL A   1      39.605  36.584  41.828  1.00  0.00     0.124 S 
ATOM     64  O   UNL A   1      40.886  36.825  42.486  1.00  0.00    -0.237 OA
ATOM     65  O   UNL A   1      39.059  37.715  41.080  1.00  0.00    -0.237 OA
ATOM     66  O   UNL A   1      38.627  35.840  42.618  1.00  0.00    -0.744 OA
ENDBRANCH  62  63
ENDBRANCH  36  57
ENDBRANCH  10  11
ENDBRANCH   3   5
ENDBRANCH   2   3
ENDBRANCH   1   2
BRANCH   1  67
ATOM     67  C   UNL A   1      43.608  25.375  26.523  1.00  0.00     0.202 C 
BRANCH  67  68
ATOM     68  O   UNL A   1      44.865  26.045  26.573  1.00  0.00    -0.374 OA
BRANCH  68  69
ATOM     69  C   UNL A   1      45.885  25.393  27.324  1.00  0.00     0.202 C 
BRANCH  69  70
ATOM     70  C   UNL A   1      45.692  23.876  27.317  1.00  0.00     0.261 C 
BRANCH  70  71
ATOM     71  O   UNL A   1      46.544  23.282  26.321  1.00  0.00    -0.460 OA
BRANCH  71  72
ATOM     72  C   UNL A   1      45.964  22.989  25.124  1.00  0.00     0.342 C 
ATOM     73  O   UNL A   1      45.795  23.754  24.190  1.00  0.00    -0.246 OA
BRANCH  72  74
ATOM     74  C   UNL A   1      45.642  21.543  25.097  1.00  0.00     0.103 A 
ATOM     75  C   UNL A   1      46.605  20.679  24.732  1.00  0.00     0.021 A 
ATOM     76  C   UNL A   1      44.269  21.022  25.418  1.00  0.00     0.154 A 
ATOM     77  C   UNL A   1      46.349  19.268  24.682  1.00  0.00     0.019 A 
ATOM     78  N   UNL A   1      44.101  19.633  25.397  1.00  0.00    -0.267 N 
ATOM     79  N   UNL A   1      43.288  21.837  25.649  1.00  0.00    -0.229 NA
ATOM     80  C   UNL A   1      45.147  18.795  25.026  1.00  0.00     0.096 A 
ATOM     81  C   UNL A   1      42.870  19.051  25.724  1.00  0.00     0.265 A 
ATOM     82  C   UNL A   1      42.001  21.340  25.861  1.00  0.00     0.080 A 
ATOM     83  O   UNL A   1      42.669  17.840  25.809  1.00  0.00    -0.268 OA
ATOM     84  C   UNL A   1      41.743  19.976  25.941  1.00  0.00     0.066 A 
ATOM     85  C   UNL A   1      40.935  22.240  25.954  1.00  0.00     0.049 A 
ATOM     86  C   UNL A   1      40.444  19.500  26.156  1.00  0.00     0.017 A 
ATOM     87  C   UNL A   1      39.633  21.771  26.138  1.00  0.00     0.043 A 
ATOM     88  C   UNL A   1      39.384  20.404  26.254  1.00  0.00     0.021 A 
ATOM     89  Cl  UNL A   1      38.322  22.881  26.201  1.00  0.00    -0.084 Cl
ENDBRANCH  72  74
ENDBRANCH  71  72
ENDBRANCH  70  71
ENDBRANCH  69  70
ENDBRANCH  68  69
ENDBRANCH  67  68
ENDBRANCH   1  67
TORSDOF 17
ENDMDL
