MODEL 1
REMARK VINA RESULT:     -11.2      0.000      0.000
REMARK SMILES Cc1ccc(C(=O)NC2(CC(=O)OCCOCCOC(=O)c3ccc(-c4c5nc(c(-c6ccc(S(=O)(=O)[O-])cc6)c6ccc([nH]6)c(-c6ccc(S(=O)(=O)[O-])cc6)c6nc(c(-c7ccc(S(=O)(=O)[O-])cc7)c7ccc4[nH]7)C=C6)C=C5)cc3)CCC2)cc1
REMARK SMILES IDX 16 1 15 2 14 3 13 4 11 5 12 6 10 7 9 8 82 9 84 10 83 11 8 12
REMARK SMILES IDX 6 13 7 14 5 16 1 17 2 18 3 19 86 20 4 21 85 22 17 23 18 24
REMARK SMILES IDX 19 25 20 26 21 27 22 28 23 29 81 30 24 31 80 32 25 33 26 34
REMARK SMILES IDX 27 35 74 36 28 37 79 38 73 39 75 40 29 41 78 42 72 43 71 44
REMARK SMILES IDX 30 46 60 47 41 48 59 49 42 50 45 51 58 52 76 53 43 54 44 55
REMARK SMILES IDX 57 57 77 58 46 59 31 60 32 61 40 62 33 63 39 64 34 65 35 66
REMARK SMILES IDX 36 67 37 68 38 69 61 70 62 71 70 72 63 73 69 74 64 75 65 76
REMARK SMILES IDX 66 77 67 78 68 79 47 80 48 81 56 82 49 83 55 84 50 85 51 86
REMARK SMILES IDX 52 87 53 88 54 89
REMARK H PARENT 8 15 75 45 45 56
REMARK Flexibility Score: inf
ROOT
ATOM      1  O   UNL A   1      32.673  29.074  27.473  1.00  0.00    -0.374 OA
ENDROOT
BRANCH   1   2
ATOM      2  C   UNL A   1      32.714  27.869  26.726  1.00  0.00     0.202 C 
BRANCH   2   3
ATOM      3  C   UNL A   1      31.427  26.930  26.516  1.00  0.00     0.261 C 
BRANCH   3   4
ATOM      4  O   UNL A   1      31.099  24.981  26.879  1.00  0.00    -0.463 OA
BRANCH   4   5
ATOM      5  C   UNL A   1      31.211  23.535  26.551  1.00  0.00     0.308 C 
ATOM      6  O   UNL A   1      30.641  22.724  27.286  1.00  0.00    -0.252 OA
BRANCH   5   7
ATOM      7  C   UNL A   1      31.996  22.945  25.293  1.00  0.00     0.151 C 
BRANCH   7   8
ATOM      8  C   UNL A   1      33.487  23.278  24.825  1.00  0.00     0.051 C 
ATOM      9  C   UNL A   1      34.532  22.480  25.706  1.00  0.00     0.029 C 
ATOM     10  C   UNL A   1      34.520  24.509  25.222  1.00  0.00     0.029 C 
ATOM     11  C   UNL A   1      34.701  23.770  26.545  1.00  0.00     0.005 C 
BRANCH   8  12
ATOM     12  N   UNL A   1      33.654  23.003  23.392  1.00  0.00    -0.346 N 
ATOM     13  C   UNL A   1      33.232  23.847  22.415  1.00  0.00     0.251 C 
ATOM     14  O   UNL A   1      33.334  23.591  21.226  1.00  0.00    -0.269 OA
ATOM     15  H   UNL A   1      34.096  22.165  23.127  1.00  0.00     0.164 HD
BRANCH  13  16
ATOM     16  C   UNL A   1      32.503  25.019  22.880  1.00  0.00     0.039 A 
ATOM     17  C   UNL A   1      30.270  29.546  23.502  1.00  0.00     0.044 C 
ATOM     18  C   UNL A   1      30.987  28.257  23.238  1.00  0.00    -0.051 A 
ATOM     19  C   UNL A   1      32.704  28.087  22.943  1.00  0.00     0.004 A 
ATOM     20  C   UNL A   1      29.980  26.816  23.190  1.00  0.00     0.004 A 
ATOM     21  C   UNL A   1      33.488  26.498  22.729  1.00  0.00     0.014 A 
ATOM     22  C   UNL A   1      30.690  25.200  23.082  1.00  0.00     0.014 A 
ENDBRANCH  13  16
ENDBRANCH   8  12
ENDBRANCH   7   8
ENDBRANCH   5   7
ENDBRANCH   4   5
ENDBRANCH   3   4
ENDBRANCH   2   3
ENDBRANCH   1   2
BRANCH   1  23
ATOM     23  C   UNL A   1      32.110  30.154  26.755  1.00  0.00     0.202 C 
BRANCH  23  24
ATOM     24  C   UNL A   1      32.895  31.460  26.950  1.00  0.00     0.261 C 
BRANCH  24  25
ATOM     25  O   UNL A   1      33.779  31.278  28.092  1.00  0.00    -0.460 OA
BRANCH  25  26
ATOM     26  C   UNL A   1      35.103  31.585  27.961  1.00  0.00     0.338 C 
ATOM     27  O   UNL A   1      35.540  32.631  27.511  1.00  0.00    -0.246 OA
BRANCH  26  28
ATOM     28  C   UNL A   1      35.959  30.382  28.287  1.00  0.00     0.060 A 
ATOM     29  C   UNL A   1      35.938  29.793  29.560  1.00  0.00     0.016 A 
ATOM     30  C   UNL A   1      36.986  29.994  27.439  1.00  0.00     0.016 A 
ATOM     31  C   UNL A   1      37.082  29.109  30.071  1.00  0.00     0.010 A 
ATOM     32  C   UNL A   1      38.133  29.387  27.989  1.00  0.00     0.010 A 
ATOM     33  C   UNL A   1      38.292  29.188  29.386  1.00  0.00    -0.014 A 
BRANCH  33  34
ATOM     34  C   UNL A   1      39.721  29.179  30.006  1.00  0.00     0.031 A 
ATOM     35  C   UNL A   1      39.838  30.311  30.918  1.00  0.00     0.074 A 
ATOM     36  C   UNL A   1      40.850  28.376  29.964  1.00  0.00     0.049 A 
ATOM     37  N   UNL A   1      40.171  31.502  30.530  1.00  0.00    -0.248 NA
ATOM     38  C   UNL A   1      39.287  30.201  32.276  1.00  0.00     0.031 C 
ATOM     39  C   UNL A   1      42.077  28.397  30.789  1.00  0.00     0.029 A 
ATOM     40  N   UNL A   1      41.108  27.198  29.246  1.00  0.00    -0.354 N 
ATOM     41  C   UNL A   1      40.143  32.212  31.702  1.00  0.00     0.074 A 
ATOM     42  C   UNL A   1      39.192  31.500  32.556  1.00  0.00     0.031 C 
ATOM     43  C   UNL A   1      42.969  27.456  30.362  1.00  0.00     0.029 A 
ATOM     44  C   UNL A   1      42.432  26.720  29.189  1.00  0.00     0.049 A 
ATOM     45  H   UNL A   1      40.379  26.716  28.793  1.00  0.00     0.167 HD
ATOM     46  C   UNL A   1      41.290  32.686  32.274  1.00  0.00     0.031 A 
ATOM     47  C   UNL A   1      43.066  26.447  27.985  1.00  0.00     0.031 A 
ATOM     48  C   UNL A   1      42.518  32.036  31.756  1.00  0.00     0.049 A 
ATOM     49  C   UNL A   1      43.671  27.794  27.611  1.00  0.00     0.074 A 
ATOM     50  C   UNL A   1      43.526  31.297  32.359  1.00  0.00     0.029 A 
ATOM     51  N   UNL A   1      42.710  31.822  30.377  1.00  0.00    -0.354 N 
ATOM     52  N   UNL A   1      43.515  28.847  28.369  1.00  0.00    -0.248 NA
ATOM     53  C   UNL A   1      44.490  28.096  26.451  1.00  0.00     0.031 C 
ATOM     54  C   UNL A   1      44.357  30.725  31.345  1.00  0.00     0.029 A 
ATOM     55  C   UNL A   1      43.858  31.081  30.103  1.00  0.00     0.049 A 
ATOM     56  H   UNL A   1      42.099  32.158  29.683  1.00  0.00     0.167 HD
ATOM     57  C   UNL A   1      44.260  29.884  27.955  1.00  0.00     0.074 A 
ATOM     58  C   UNL A   1      44.771  29.400  26.672  1.00  0.00     0.031 C 
ATOM     59  C   UNL A   1      44.416  31.000  28.735  1.00  0.00     0.031 A 
BRANCH  46  60
ATOM     60  C   UNL A   1      41.088  33.410  33.605  1.00  0.00    -0.014 A 
ATOM     61  C   UNL A   1      40.360  34.599  33.722  1.00  0.00     0.010 A 
ATOM     62  C   UNL A   1      41.657  32.901  34.809  1.00  0.00     0.010 A 
ATOM     63  C   UNL A   1      40.254  35.278  34.952  1.00  0.00     0.020 A 
ATOM     64  C   UNL A   1      41.600  33.591  36.028  1.00  0.00     0.020 A 
ATOM     65  C   UNL A   1      40.878  34.773  36.096  1.00  0.00     0.054 A 
BRANCH  65  66
ATOM     66  S   UNL A   1      40.688  35.646  37.675  1.00  0.00     0.124 S 
ATOM     67  O   UNL A   1      42.071  35.839  38.106  1.00  0.00    -0.237 OA
ATOM     68  O   UNL A   1      39.979  36.857  37.272  1.00  0.00    -0.237 OA
ATOM     69  O   UNL A   1      39.913  34.718  38.497  1.00  0.00    -0.744 OA
ENDBRANCH  65  66
ENDBRANCH  46  60
BRANCH  47  70
ATOM     70  C   UNL A   1      42.618  25.289  26.997  1.00  0.00    -0.014 A 
ATOM     71  C   UNL A   1      42.979  25.329  25.611  1.00  0.00     0.010 A 
ATOM     72  C   UNL A   1      42.194  24.010  27.425  1.00  0.00     0.010 A 
ATOM     73  C   UNL A   1      43.263  24.137  24.842  1.00  0.00     0.020 A 
ATOM     74  C   UNL A   1      42.551  22.812  26.701  1.00  0.00     0.020 A 
ATOM     75  C   UNL A   1      43.184  22.884  25.457  1.00  0.00     0.054 A 
BRANCH  75  76
ATOM     76  S   UNL A   1      44.373  21.515  24.942  1.00  0.00     0.124 S 
ATOM     77  O   UNL A   1      44.544  21.750  23.515  1.00  0.00    -0.237 OA
ATOM     78  O   UNL A   1      45.562  21.770  25.758  1.00  0.00    -0.237 OA
ATOM     79  O   UNL A   1      43.656  20.290  25.295  1.00  0.00    -0.744 OA
ENDBRANCH  75  76
ENDBRANCH  47  70
BRANCH  59  80
ATOM     80  C   UNL A   1      45.207  32.179  28.279  1.00  0.00    -0.014 A 
ATOM     81  C   UNL A   1      46.433  32.554  28.834  1.00  0.00     0.010 A 
ATOM     82  C   UNL A   1      44.678  32.980  27.246  1.00  0.00     0.010 A 
ATOM     83  C   UNL A   1      47.196  33.553  28.238  1.00  0.00     0.020 A 
ATOM     84  C   UNL A   1      45.403  34.011  26.677  1.00  0.00     0.020 A 
ATOM     85  C   UNL A   1      46.687  34.248  27.139  1.00  0.00     0.054 A 
BRANCH  85  86
ATOM     86  S   UNL A   1      47.724  35.464  26.317  1.00  0.00     0.124 S 
ATOM     87  O   UNL A   1      48.089  34.780  25.079  1.00  0.00    -0.237 OA
ATOM     88  O   UNL A   1      46.802  36.586  26.169  1.00  0.00    -0.237 OA
ATOM     89  O   UNL A   1      48.822  35.675  27.256  1.00  0.00    -0.744 OA
ENDBRANCH  85  86
ENDBRANCH  59  80
ENDBRANCH  33  34
ENDBRANCH  26  28
ENDBRANCH  25  26
ENDBRANCH  24  25
ENDBRANCH  23  24
ENDBRANCH   1  23
TORSDOF 20
ENDMDL
MODEL 2
REMARK VINA RESULT:     -11.1      3.320      9.744
REMARK SMILES Cc1ccc(C(=O)NC2(CC(=O)OCCOCCOC(=O)c3ccc(-c4c5nc(c(-c6ccc(S(=O)(=O)[O-])cc6)c6ccc([nH]6)c(-c6ccc(S(=O)(=O)[O-])cc6)c6nc(c(-c7ccc(S(=O)(=O)[O-])cc7)c7ccc4[nH]7)C=C6)C=C5)cc3)CCC2)cc1
REMARK SMILES IDX 16 1 15 2 14 3 13 4 11 5 12 6 10 7 9 8 82 9 84 10 83 11 8 12
REMARK SMILES IDX 6 13 7 14 5 16 1 17 2 18 3 19 86 20 4 21 85 22 17 23 18 24
REMARK SMILES IDX 19 25 20 26 21 27 22 28 23 29 81 30 24 31 80 32 25 33 26 34
REMARK SMILES IDX 27 35 74 36 28 37 79 38 73 39 75 40 29 41 78 42 72 43 71 44
REMARK SMILES IDX 30 46 60 47 41 48 59 49 42 50 45 51 58 52 76 53 43 54 44 55
REMARK SMILES IDX 57 57 77 58 46 59 31 60 32 61 40 62 33 63 39 64 34 65 35 66
REMARK SMILES IDX 36 67 37 68 38 69 61 70 62 71 70 72 63 73 69 74 64 75 65 76
REMARK SMILES IDX 66 77 67 78 68 79 47 80 48 81 56 82 49 83 55 84 50 85 51 86
REMARK SMILES IDX 52 87 53 88 54 89
REMARK H PARENT 8 15 75 45 45 56
REMARK Flexibility Score: inf
ROOT
ATOM      1  O   UNL A   1      33.590  28.760  27.627  1.00  0.00    -0.374 OA
ENDROOT
BRANCH   1   2
ATOM      2  C   UNL A   1      32.286  28.244  27.413  1.00  0.00     0.202 C 
BRANCH   2   3
ATOM      3  C   UNL A   1      32.007  26.907  26.565  1.00  0.00     0.261 C 
BRANCH   3   4
ATOM      4  O   UNL A   1      31.448  25.054  27.105  1.00  0.00    -0.463 OA
BRANCH   4   5
ATOM      5  C   UNL A   1      30.916  23.695  26.821  1.00  0.00     0.308 C 
ATOM      6  O   UNL A   1      29.855  23.360  27.356  1.00  0.00    -0.252 OA
BRANCH   5   7
ATOM      7  C   UNL A   1      31.602  22.634  25.845  1.00  0.00     0.151 C 
BRANCH   7   8
ATOM      8  C   UNL A   1      33.123  22.595  25.357  1.00  0.00     0.051 C 
ATOM      9  C   UNL A   1      33.991  21.699  26.332  1.00  0.00     0.029 C 
ATOM     10  C   UNL A   1      34.396  23.620  25.624  1.00  0.00     0.029 C 
ATOM     11  C   UNL A   1      34.437  23.011  27.023  1.00  0.00     0.005 C 
BRANCH   8  12
ATOM     12  N   UNL A   1      33.209  22.133  23.966  1.00  0.00    -0.346 N 
ATOM     13  C   UNL A   1      32.910  22.917  22.899  1.00  0.00     0.251 C 
ATOM     14  O   UNL A   1      32.940  22.513  21.747  1.00  0.00    -0.269 OA
ATOM     15  H   UNL A   1      33.500  21.207  23.799  1.00  0.00     0.164 HD
BRANCH  13  16
ATOM     16  C   UNL A   1      32.396  24.240  23.225  1.00  0.00     0.039 A 
ATOM     17  C   UNL A   1      30.977  29.123  23.329  1.00  0.00     0.044 C 
ATOM     18  C   UNL A   1      31.460  27.709  23.214  1.00  0.00    -0.051 A 
ATOM     19  C   UNL A   1      33.121  27.216  22.960  1.00  0.00     0.004 A 
ATOM     20  C   UNL A   1      30.220  26.465  23.309  1.00  0.00     0.004 A 
ATOM     21  C   UNL A   1      33.618  25.503  22.928  1.00  0.00     0.014 A 
ATOM     22  C   UNL A   1      30.642  24.750  23.384  1.00  0.00     0.014 A 
ENDBRANCH  13  16
ENDBRANCH   8  12
ENDBRANCH   7   8
ENDBRANCH   5   7
ENDBRANCH   4   5
ENDBRANCH   3   4
ENDBRANCH   2   3
ENDBRANCH   1   2
BRANCH   1  23
ATOM     23  C   UNL A   1      33.797  30.019  27.017  1.00  0.00     0.202 C 
BRANCH  23  24
ATOM     24  C   UNL A   1      34.590  30.981  27.914  1.00  0.00     0.261 C 
BRANCH  24  25
ATOM     25  O   UNL A   1      35.440  30.178  28.780  1.00  0.00    -0.460 OA
BRANCH  25  26
ATOM     26  C   UNL A   1      36.759  30.508  28.905  1.00  0.00     0.338 C 
ATOM     27  O   UNL A   1      37.180  31.567  29.338  1.00  0.00    -0.246 OA
BRANCH  26  28
ATOM     28  C   UNL A   1      37.631  29.448  28.270  1.00  0.00     0.060 A 
ATOM     29  C   UNL A   1      37.945  28.259  28.943  1.00  0.00     0.016 A 
ATOM     30  C   UNL A   1      38.369  29.731  27.130  1.00  0.00     0.016 A 
ATOM     31  C   UNL A   1      39.162  27.563  28.676  1.00  0.00     0.010 A 
ATOM     32  C   UNL A   1      39.602  29.077  26.935  1.00  0.00     0.010 A 
ATOM     33  C   UNL A   1      40.136  28.164  27.883  1.00  0.00    -0.014 A 
BRANCH  33  34
ATOM     34  C   UNL A   1      41.681  28.001  28.012  1.00  0.00     0.031 A 
ATOM     35  C   UNL A   1      42.033  26.632  27.654  1.00  0.00     0.074 A 
ATOM     36  C   UNL A   1      42.773  28.800  28.313  1.00  0.00     0.049 A 
ATOM     37  N   UNL A   1      42.004  25.649  28.498  1.00  0.00    -0.248 NA
ATOM     38  C   UNL A   1      42.149  26.268  26.234  1.00  0.00     0.031 C 
ATOM     39  C   UNL A   1      44.222  28.535  28.188  1.00  0.00     0.029 A 
ATOM     40  N   UNL A   1      42.844  30.156  28.665  1.00  0.00    -0.354 N 
ATOM     41  C   UNL A   1      42.397  24.587  27.725  1.00  0.00     0.074 A 
ATOM     42  C   UNL A   1      42.016  24.948  26.359  1.00  0.00     0.031 C 
ATOM     43  C   UNL A   1      44.954  29.586  28.659  1.00  0.00     0.029 A 
ATOM     44  C   UNL A   1      44.061  30.659  29.167  1.00  0.00     0.049 A 
ATOM     45  H   UNL A   1      42.061  30.744  28.563  1.00  0.00     0.167 HD
ATOM     46  C   UNL A   1      43.605  23.977  27.916  1.00  0.00     0.031 A 
ATOM     47  C   UNL A   1      44.136  31.335  30.376  1.00  0.00     0.031 A 
ATOM     48  C   UNL A   1      44.558  24.795  28.706  1.00  0.00     0.049 A 
ATOM     49  C   UNL A   1      44.334  30.208  31.380  1.00  0.00     0.074 A 
ATOM     50  C   UNL A   1      45.815  25.314  28.433  1.00  0.00     0.029 A 
ATOM     51  N   UNL A   1      44.156  25.463  29.879  1.00  0.00    -0.354 N 
ATOM     52  N   UNL A   1      44.388  28.958  31.002  1.00  0.00    -0.248 NA
ATOM     53  C   UNL A   1      44.518  30.332  32.816  1.00  0.00     0.031 C 
ATOM     54  C   UNL A   1      46.188  26.213  29.481  1.00  0.00     0.029 A 
ATOM     55  C   UNL A   1      45.155  26.282  30.401  1.00  0.00     0.049 A 
ATOM     56  H   UNL A   1      43.265  25.363  30.285  1.00  0.00     0.167 HD
ATOM     57  C   UNL A   1      44.734  28.138  32.007  1.00  0.00     0.074 A 
ATOM     58  C   UNL A   1      44.693  29.037  33.162  1.00  0.00     0.031 C 
ATOM     59  C   UNL A   1      45.066  26.830  31.772  1.00  0.00     0.031 A 
BRANCH  46  60
ATOM     60  C   UNL A   1      43.910  22.845  26.936  1.00  0.00    -0.014 A 
ATOM     61  C   UNL A   1      43.042  21.768  26.723  1.00  0.00     0.010 A 
ATOM     62  C   UNL A   1      45.126  22.829  26.191  1.00  0.00     0.010 A 
ATOM     63  C   UNL A   1      43.388  20.705  25.866  1.00  0.00     0.020 A 
ATOM     64  C   UNL A   1      45.503  21.754  25.373  1.00  0.00     0.020 A 
ATOM     65  C   UNL A   1      44.617  20.701  25.201  1.00  0.00     0.054 A 
BRANCH  65  66
ATOM     66  S   UNL A   1      45.016  19.339  24.070  1.00  0.00     0.124 S 
ATOM     67  O   UNL A   1      46.476  19.309  24.103  1.00  0.00    -0.237 OA
ATOM     68  O   UNL A   1      44.348  18.208  24.707  1.00  0.00    -0.237 OA
ATOM     69  O   UNL A   1      44.440  19.762  22.795  1.00  0.00    -0.744 OA
ENDBRANCH  65  66
ENDBRANCH  46  60
BRANCH  47  70
ATOM     70  C   UNL A   1      43.458  32.746  30.640  1.00  0.00    -0.014 A 
ATOM     71  C   UNL A   1      42.069  32.839  30.979  1.00  0.00     0.010 A 
ATOM     72  C   UNL A   1      44.183  33.924  30.933  1.00  0.00     0.010 A 
ATOM     73  C   UNL A   1      41.548  33.849  31.875  1.00  0.00     0.020 A 
ATOM     74  C   UNL A   1      43.701  34.890  31.892  1.00  0.00     0.020 A 
ATOM     75  C   UNL A   1      42.420  34.785  32.441  1.00  0.00     0.054 A 
BRANCH  75  76
ATOM     76  S   UNL A   1      42.105  35.414  34.190  1.00  0.00     0.124 S 
ATOM     77  O   UNL A   1      40.656  35.345  34.307  1.00  0.00    -0.237 OA
ATOM     78  O   UNL A   1      42.840  34.466  35.031  1.00  0.00    -0.237 OA
ATOM     79  O   UNL A   1      42.670  36.762  34.173  1.00  0.00    -0.744 OA
ENDBRANCH  75  76
ENDBRANCH  47  70
BRANCH  59  80
ATOM     80  C   UNL A   1      45.417  25.892  32.877  1.00  0.00    -0.014 A 
ATOM     81  C   UNL A   1      46.228  26.237  33.961  1.00  0.00     0.010 A 
ATOM     82  C   UNL A   1      44.926  24.571  32.814  1.00  0.00     0.010 A 
ATOM     83  C   UNL A   1      46.362  25.368  35.040  1.00  0.00     0.020 A 
ATOM     84  C   UNL A   1      45.095  23.678  33.856  1.00  0.00     0.020 A 
ATOM     85  C   UNL A   1      45.760  24.109  34.993  1.00  0.00     0.054 A 
BRANCH  85  86
ATOM     86  S   UNL A   1      45.856  23.040  36.433  1.00  0.00     0.124 S 
ATOM     87  O   UNL A   1      45.104  21.864  36.001  1.00  0.00    -0.237 OA
ATOM     88  O   UNL A   1      47.298  22.853  36.567  1.00  0.00    -0.237 OA
ATOM     89  O   UNL A   1      45.225  23.824  37.491  1.00  0.00    -0.744 OA
ENDBRANCH  85  86
ENDBRANCH  59  80
ENDBRANCH  33  34
ENDBRANCH  26  28
ENDBRANCH  25  26
ENDBRANCH  24  25
ENDBRANCH  23  24
ENDBRANCH   1  23
TORSDOF 20
ENDMDL
MODEL 3
REMARK VINA RESULT:     -11.1      1.921      2.552
REMARK SMILES Cc1ccc(C(=O)NC2(CC(=O)OCCOCCOC(=O)c3ccc(-c4c5nc(c(-c6ccc(S(=O)(=O)[O-])cc6)c6ccc([nH]6)c(-c6ccc(S(=O)(=O)[O-])cc6)c6nc(c(-c7ccc(S(=O)(=O)[O-])cc7)c7ccc4[nH]7)C=C6)C=C5)cc3)CCC2)cc1
REMARK SMILES IDX 16 1 15 2 14 3 13 4 11 5 12 6 10 7 9 8 82 9 84 10 83 11 8 12
REMARK SMILES IDX 6 13 7 14 5 16 1 17 2 18 3 19 86 20 4 21 85 22 17 23 18 24
REMARK SMILES IDX 19 25 20 26 21 27 22 28 23 29 81 30 24 31 80 32 25 33 26 34
REMARK SMILES IDX 27 35 74 36 28 37 79 38 73 39 75 40 29 41 78 42 72 43 71 44
REMARK SMILES IDX 30 46 60 47 41 48 59 49 42 50 45 51 58 52 76 53 43 54 44 55
REMARK SMILES IDX 57 57 77 58 46 59 31 60 32 61 40 62 33 63 39 64 34 65 35 66
REMARK SMILES IDX 36 67 37 68 38 69 61 70 62 71 70 72 63 73 69 74 64 75 65 76
REMARK SMILES IDX 66 77 67 78 68 79 47 80 48 81 56 82 49 83 55 84 50 85 51 86
REMARK SMILES IDX 52 87 53 88 54 89
REMARK H PARENT 8 15 75 45 45 56
REMARK Flexibility Score: inf
ROOT
ATOM      1  O   UNL A   1      32.506  28.675  25.511  1.00  0.00    -0.374 OA
ENDROOT
BRANCH   1   2
ATOM      2  C   UNL A   1      33.630  27.917  25.095  1.00  0.00     0.202 C 
BRANCH   2   3
ATOM      3  C   UNL A   1      33.707  26.318  25.242  1.00  0.00     0.261 C 
BRANCH   3   4
ATOM      4  O   UNL A   1      32.665  25.011  26.357  1.00  0.00    -0.463 OA
BRANCH   4   5
ATOM      5  C   UNL A   1      32.268  23.636  26.762  1.00  0.00     0.308 C 
ATOM      6  O   UNL A   1      31.388  23.512  27.620  1.00  0.00    -0.252 OA
BRANCH   5   7
ATOM      7  C   UNL A   1      32.876  22.295  26.149  1.00  0.00     0.151 C 
BRANCH   7   8
ATOM      8  C   UNL A   1      33.888  22.152  24.921  1.00  0.00     0.051 C 
ATOM      9  C   UNL A   1      35.276  21.572  25.415  1.00  0.00     0.029 C 
ATOM     10  C   UNL A   1      34.917  23.234  24.205  1.00  0.00     0.029 C 
ATOM     11  C   UNL A   1      35.795  23.031  25.436  1.00  0.00     0.005 C 
BRANCH   8  12
ATOM     12  N   UNL A   1      33.298  21.329  23.856  1.00  0.00    -0.346 N 
ATOM     13  C   UNL A   1      32.467  21.824  22.904  1.00  0.00     0.251 C 
ATOM     14  O   UNL A   1      31.944  21.127  22.049  1.00  0.00    -0.269 OA
ATOM     15  H   UNL A   1      33.518  20.370  23.832  1.00  0.00     0.164 HD
BRANCH  13  16
ATOM     16  C   UNL A   1      32.111  23.228  23.059  1.00  0.00     0.039 A 
ATOM     17  C   UNL A   1      30.697  28.080  22.483  1.00  0.00     0.044 C 
ATOM     18  C   UNL A   1      31.130  26.646  22.544  1.00  0.00    -0.051 A 
ATOM     19  C   UNL A   1      32.493  25.955  21.691  1.00  0.00     0.004 A 
ATOM     20  C   UNL A   1      30.139  25.589  23.540  1.00  0.00     0.004 A 
ATOM     21  C   UNL A   1      32.991  24.255  21.897  1.00  0.00     0.014 A 
ATOM     22  C   UNL A   1      30.620  23.920  23.872  1.00  0.00     0.014 A 
ENDBRANCH  13  16
ENDBRANCH   8  12
ENDBRANCH   7   8
ENDBRANCH   5   7
ENDBRANCH   4   5
ENDBRANCH   3   4
ENDBRANCH   2   3
ENDBRANCH   1   2
BRANCH   1  23
ATOM     23  C   UNL A   1      32.520  28.977  26.893  1.00  0.00     0.202 C 
BRANCH  23  24
ATOM     24  C   UNL A   1      32.825  30.457  27.166  1.00  0.00     0.261 C 
BRANCH  24  25
ATOM     25  O   UNL A   1      34.269  30.629  27.102  1.00  0.00    -0.460 OA
BRANCH  25  26
ATOM     26  C   UNL A   1      34.935  31.068  28.210  1.00  0.00     0.338 C 
ATOM     27  O   UNL A   1      34.701  32.108  28.803  1.00  0.00    -0.246 OA
BRANCH  26  28
ATOM     28  C   UNL A   1      36.121  30.177  28.501  1.00  0.00     0.060 A 
ATOM     29  C   UNL A   1      36.359  29.672  29.787  1.00  0.00     0.016 A 
ATOM     30  C   UNL A   1      37.156  30.056  27.585  1.00  0.00     0.016 A 
ATOM     31  C   UNL A   1      37.683  29.369  30.225  1.00  0.00     0.010 A 
ATOM     32  C   UNL A   1      38.464  29.830  28.058  1.00  0.00     0.010 A 
ATOM     33  C   UNL A   1      38.769  29.756  29.443  1.00  0.00    -0.014 A 
BRANCH  33  34
ATOM     34  C   UNL A   1      40.180  30.186  29.947  1.00  0.00     0.031 A 
ATOM     35  C   UNL A   1      40.011  31.151  31.028  1.00  0.00     0.074 A 
ATOM     36  C   UNL A   1      41.502  29.864  29.685  1.00  0.00     0.049 A 
ATOM     37  N   UNL A   1      39.855  32.422  30.825  1.00  0.00    -0.248 NA
ATOM     38  C   UNL A   1      39.714  30.667  32.383  1.00  0.00     0.031 C 
ATOM     39  C   UNL A   1      42.740  30.220  30.410  1.00  0.00     0.029 A 
ATOM     40  N   UNL A   1      42.059  28.968  28.760  1.00  0.00    -0.354 N 
ATOM     41  C   UNL A   1      39.733  32.909  32.101  1.00  0.00     0.074 A 
ATOM     42  C   UNL A   1      39.209  31.792  32.887  1.00  0.00     0.031 C 
ATOM     43  C   UNL A   1      43.841  29.736  29.765  1.00  0.00     0.029 A 
ATOM     44  C   UNL A   1      43.448  29.018  28.526  1.00  0.00     0.049 A 
ATOM     45  H   UNL A   1      41.492  28.318  28.286  1.00  0.00     0.167 HD
ATOM     46  C   UNL A   1      40.707  33.689  32.660  1.00  0.00     0.031 A 
ATOM     47  C   UNL A   1      43.975  29.157  27.250  1.00  0.00     0.031 A 
ATOM     48  C   UNL A   1      42.006  33.605  31.951  1.00  0.00     0.049 A 
ATOM     49  C   UNL A   1      44.019  30.669  27.069  1.00  0.00     0.074 A 
ATOM     50  C   UNL A   1      43.278  33.212  32.343  1.00  0.00     0.029 A 
ATOM     51  N   UNL A   1      42.081  33.662  30.545  1.00  0.00    -0.354 N 
ATOM     52  N   UNL A   1      43.605  31.482  28.005  1.00  0.00    -0.248 NA
ATOM     53  C   UNL A   1      44.524  31.402  25.921  1.00  0.00     0.031 C 
ATOM     54  C   UNL A   1      44.117  33.124  31.188  1.00  0.00     0.029 A 
ATOM     55  C   UNL A   1      43.369  33.435  30.065  1.00  0.00     0.049 A 
ATOM     56  H   UNL A   1      41.306  33.842  29.964  1.00  0.00     0.167 HD
ATOM     57  C   UNL A   1      43.881  32.764  27.721  1.00  0.00     0.074 A 
ATOM     58  C   UNL A   1      44.358  32.676  26.340  1.00  0.00     0.031 C 
ATOM     59  C   UNL A   1      43.737  33.746  28.667  1.00  0.00     0.031 A 
BRANCH  46  60
ATOM     60  C   UNL A   1      40.439  34.104  34.106  1.00  0.00    -0.014 A 
ATOM     61  C   UNL A   1      39.782  35.292  34.448  1.00  0.00     0.010 A 
ATOM     62  C   UNL A   1      40.869  33.288  35.194  1.00  0.00     0.010 A 
ATOM     63  C   UNL A   1      39.616  35.678  35.792  1.00  0.00     0.020 A 
ATOM     64  C   UNL A   1      40.754  33.685  36.534  1.00  0.00     0.020 A 
ATOM     65  C   UNL A   1      40.107  34.876  36.826  1.00  0.00     0.054 A 
BRANCH  65  66
ATOM     66  S   UNL A   1      39.840  35.379  38.549  1.00  0.00     0.124 S 
ATOM     67  O   UNL A   1      38.860  34.404  39.023  1.00  0.00    -0.237 OA
ATOM     68  O   UNL A   1      41.180  35.251  39.116  1.00  0.00    -0.237 OA
ATOM     69  O   UNL A   1      39.341  36.748  38.441  1.00  0.00    -0.744 OA
ENDBRANCH  65  66
ENDBRANCH  46  60
BRANCH  47  70
ATOM     70  C   UNL A   1      43.835  28.059  26.114  1.00  0.00    -0.014 A 
ATOM     71  C   UNL A   1      44.936  27.203  25.783  1.00  0.00     0.010 A 
ATOM     72  C   UNL A   1      42.595  27.583  25.628  1.00  0.00     0.010 A 
ATOM     73  C   UNL A   1      44.761  25.831  25.360  1.00  0.00     0.020 A 
ATOM     74  C   UNL A   1      42.398  26.194  25.286  1.00  0.00     0.020 A 
ATOM     75  C   UNL A   1      43.471  25.299  25.260  1.00  0.00     0.054 A 
BRANCH  75  76
ATOM     76  S   UNL A   1      43.176  23.484  25.678  1.00  0.00     0.124 S 
ATOM     77  O   UNL A   1      41.797  23.477  26.148  1.00  0.00    -0.237 OA
ATOM     78  O   UNL A   1      43.398  22.800  24.402  1.00  0.00    -0.237 OA
ATOM     79  O   UNL A   1      44.187  23.200  26.694  1.00  0.00    -0.744 OA
ENDBRANCH  75  76
ENDBRANCH  47  70
BRANCH  59  80
ATOM     80  C   UNL A   1      44.002  35.181  28.363  1.00  0.00    -0.014 A 
ATOM     81  C   UNL A   1      45.240  35.671  27.939  1.00  0.00     0.010 A 
ATOM     82  C   UNL A   1      42.951  36.106  28.537  1.00  0.00     0.010 A 
ATOM     83  C   UNL A   1      45.361  36.987  27.502  1.00  0.00     0.020 A 
ATOM     84  C   UNL A   1      43.073  37.430  28.156  1.00  0.00     0.020 A 
ATOM     85  C   UNL A   1      44.262  37.844  27.580  1.00  0.00     0.054 A 
BRANCH  85  86
ATOM     86  S   UNL A   1      44.404  39.509  26.918  1.00  0.00     0.124 S 
ATOM     87  O   UNL A   1      44.586  40.312  28.125  1.00  0.00    -0.237 OA
ATOM     88  O   UNL A   1      45.579  39.386  26.059  1.00  0.00    -0.237 OA
ATOM     89  O   UNL A   1      43.138  39.716  26.221  1.00  0.00    -0.744 OA
ENDBRANCH  85  86
ENDBRANCH  59  80
ENDBRANCH  33  34
ENDBRANCH  26  28
ENDBRANCH  25  26
ENDBRANCH  24  25
ENDBRANCH  23  24
ENDBRANCH   1  23
TORSDOF 20
ENDMDL
