MODEL 1
REMARK VINA RESULT:      -9.6      0.000      0.000
REMARK SMILES Cc1cccc(C)c1Nc1ccccc1CC(=O)OCCOCCOC(=O)c1ccc(-c2c3nc(c(-c4ccc(S(=O)(=O)[O-])cc4)c4ccc([nH]4)c(-c4ccc(S(=O)(=O)[O-])cc4)c4nc(c(-c5ccc(S(=O)(=O)[O-])cc5)c5ccc2[nH]5)C=C4)C=C3)cc1
REMARK SMILES IDX 22 1 21 2 20 3 19 4 17 5 18 6 16 7 15 8 10 9 11 10 12 11
REMARK SMILES IDX 14 12 13 13 9 14 8 16 1 17 2 18 3 19 4 20 6 21 5 22 7 23
REMARK SMILES IDX 23 24 24 25 25 26 26 27 27 28 28 29 29 30 87 31 30 32 86 33
REMARK SMILES IDX 31 34 32 35 33 36 80 37 34 38 85 39 79 40 81 41 35 42 84 43
REMARK SMILES IDX 78 44 77 45 36 47 66 48 47 49 65 50 48 51 51 52 64 53 82 54
REMARK SMILES IDX 49 55 50 56 63 58 83 59 52 60 37 61 38 62 46 63 39 64 45 65
REMARK SMILES IDX 40 66 41 67 42 68 43 69 44 70 67 71 68 72 76 73 69 74 75 75
REMARK SMILES IDX 70 76 71 77 72 78 73 79 74 80 53 81 54 82 62 83 55 84 61 85
REMARK SMILES IDX 56 86 57 87 58 88 59 89 60 90
REMARK H PARENT 9 15 81 46 51 57
REMARK Flexibility Score: inf
ROOT
ATOM      1  O   UNL A   1      33.756  32.667  28.378  1.00  0.00    -0.374 OA
ENDROOT
BRANCH   1   2
ATOM      2  C   UNL A   1      34.184  31.543  27.610  1.00  0.00     0.202 C 
BRANCH   2   3
ATOM      3  C   UNL A   1      33.140  30.474  27.263  1.00  0.00     0.261 C 
BRANCH   3   4
ATOM      4  O   UNL A   1      33.621  29.478  26.340  1.00  0.00    -0.463 OA
BRANCH   4   5
ATOM      5  C   UNL A   1      33.167  28.220  26.574  1.00  0.00     0.310 C 
ATOM      6  O   UNL A   1      32.120  27.962  27.165  1.00  0.00    -0.252 OA
BRANCH   5   7
ATOM      7  C   UNL A   1      34.044  27.107  26.061  1.00  0.00     0.160 C 
BRANCH   7   8
ATOM      8  C   UNL A   1      33.774  26.463  24.712  1.00  0.00    -0.013 A 
ATOM      9  C   UNL A   1      33.969  25.089  24.459  1.00  0.00     0.042 A 
ATOM     10  C   UNL A   1      33.759  24.596  23.154  1.00  0.00     0.026 A 
ATOM     11  C   UNL A   1      33.276  25.413  22.134  1.00  0.00     0.002 A 
ATOM     12  C   UNL A   1      33.225  27.254  23.683  1.00  0.00     0.006 A 
ATOM     13  C   UNL A   1      32.981  26.739  22.407  1.00  0.00     0.000 A 
BRANCH   9  14
ATOM     14  N   UNL A   1      34.202  24.125  25.460  1.00  0.00    -0.355 N 
ATOM     15  H   UNL A   1      33.756  24.321  26.315  1.00  0.00     0.167 HD
BRANCH  14  16
ATOM     16  C   UNL A   1      34.956  22.927  25.464  1.00  0.00     0.044 A 
ATOM     17  C   UNL A   1      32.755  21.658  25.200  1.00  0.00     0.046 C 
ATOM     18  C   UNL A   1      34.261  21.709  25.250  1.00  0.00    -0.027 A 
ATOM     19  C   UNL A   1      34.975  20.521  25.028  1.00  0.00     0.005 A 
ATOM     20  C   UNL A   1      36.365  20.519  25.019  1.00  0.00     0.001 A 
ATOM     21  C   UNL A   1      36.373  22.897  25.540  1.00  0.00    -0.027 A 
ATOM     22  C   UNL A   1      37.057  21.695  25.282  1.00  0.00     0.005 A 
ATOM     23  C   UNL A   1      37.226  24.095  25.868  1.00  0.00     0.046 C 
ENDBRANCH  14  16
ENDBRANCH   9  14
ENDBRANCH   7   8
ENDBRANCH   5   7
ENDBRANCH   4   5
ENDBRANCH   3   4
ENDBRANCH   2   3
ENDBRANCH   1   2
BRANCH   1  24
ATOM     24  C   UNL A   1      34.758  33.376  29.102  1.00  0.00     0.202 C 
BRANCH  24  25
ATOM     25  C   UNL A   1      34.925  33.036  30.589  1.00  0.00     0.261 C 
BRANCH  25  26
ATOM     26  O   UNL A   1      35.239  31.647  30.796  1.00  0.00    -0.460 OA
BRANCH  26  27
ATOM     27  C   UNL A   1      36.224  31.423  31.695  1.00  0.00     0.338 C 
ATOM     28  O   UNL A   1      36.187  31.648  32.899  1.00  0.00    -0.246 OA
BRANCH  27  29
ATOM     29  C   UNL A   1      37.326  30.664  31.078  1.00  0.00     0.060 A 
ATOM     30  C   UNL A   1      38.396  30.309  31.911  1.00  0.00     0.016 A 
ATOM     31  C   UNL A   1      37.368  30.391  29.710  1.00  0.00     0.016 A 
ATOM     32  C   UNL A   1      39.545  29.743  31.366  1.00  0.00     0.010 A 
ATOM     33  C   UNL A   1      38.530  29.830  29.162  1.00  0.00     0.010 A 
ATOM     34  C   UNL A   1      39.638  29.548  29.982  1.00  0.00    -0.014 A 
BRANCH  34  35
ATOM     35  C   UNL A   1      40.959  29.213  29.398  1.00  0.00     0.031 A 
ATOM     36  C   UNL A   1      42.023  30.279  29.350  1.00  0.00     0.074 A 
ATOM     37  C   UNL A   1      41.235  27.963  28.985  1.00  0.00     0.049 A 
ATOM     38  N   UNL A   1      43.256  30.199  28.922  1.00  0.00    -0.248 NA
ATOM     39  C   UNL A   1      41.647  31.609  29.857  1.00  0.00     0.031 C 
ATOM     40  C   UNL A   1      40.304  26.836  29.029  1.00  0.00     0.029 A 
ATOM     41  N   UNL A   1      42.383  27.432  28.456  1.00  0.00    -0.354 N 
ATOM     42  C   UNL A   1      43.801  31.466  29.104  1.00  0.00     0.074 A 
ATOM     43  C   UNL A   1      42.757  32.303  29.652  1.00  0.00     0.031 C 
ATOM     44  C   UNL A   1      40.921  25.744  28.545  1.00  0.00     0.029 A 
ATOM     45  C   UNL A   1      42.278  26.101  28.133  1.00  0.00     0.049 A 
ATOM     46  H   UNL A   1      43.206  27.956  28.320  1.00  0.00     0.167 HD
ATOM     47  C   UNL A   1      45.061  31.893  28.843  1.00  0.00     0.031 A 
ATOM     48  C   UNL A   1      43.169  25.269  27.558  1.00  0.00     0.031 A 
ATOM     49  C   UNL A   1      46.094  31.061  28.286  1.00  0.00     0.049 A 
ATOM     50  C   UNL A   1      44.541  25.783  27.213  1.00  0.00     0.074 A 
ATOM     51  C   UNL A   1      47.405  31.396  27.995  1.00  0.00     0.029 A 
ATOM     52  N   UNL A   1      45.932  29.731  27.929  1.00  0.00    -0.354 N 
ATOM     53  N   UNL A   1      45.048  26.978  27.411  1.00  0.00    -0.248 NA
ATOM     54  C   UNL A   1      45.465  24.836  26.574  1.00  0.00     0.031 C 
ATOM     55  C   UNL A   1      48.019  30.283  27.410  1.00  0.00     0.029 A 
ATOM     56  C   UNL A   1      47.109  29.238  27.392  1.00  0.00     0.049 A 
ATOM     57  H   UNL A   1      45.101  29.213  28.039  1.00  0.00     0.167 HD
ATOM     58  C   UNL A   1      46.357  26.917  26.944  1.00  0.00     0.074 A 
ATOM     59  C   UNL A   1      46.568  25.566  26.466  1.00  0.00     0.031 C 
ATOM     60  C   UNL A   1      47.300  27.891  26.916  1.00  0.00     0.031 A 
BRANCH  47  61
ATOM     61  C   UNL A   1      45.376  33.337  29.124  1.00  0.00    -0.014 A 
ATOM     62  C   UNL A   1      45.887  33.745  30.370  1.00  0.00     0.010 A 
ATOM     63  C   UNL A   1      45.188  34.299  28.115  1.00  0.00     0.010 A 
ATOM     64  C   UNL A   1      46.168  35.093  30.613  1.00  0.00     0.020 A 
ATOM     65  C   UNL A   1      45.491  35.644  28.344  1.00  0.00     0.020 A 
ATOM     66  C   UNL A   1      45.964  36.035  29.599  1.00  0.00     0.054 A 
BRANCH  66  67
ATOM     67  S   UNL A   1      46.350  37.776  29.935  1.00  0.00     0.124 S 
ATOM     68  O   UNL A   1      47.313  38.079  28.879  1.00  0.00    -0.237 OA
ATOM     69  O   UNL A   1      45.048  38.425  29.802  1.00  0.00    -0.237 OA
ATOM     70  O   UNL A   1      46.896  37.755  31.289  1.00  0.00    -0.744 OA
ENDBRANCH  66  67
ENDBRANCH  47  61
BRANCH  48  71
ATOM     71  C   UNL A   1      42.781  23.863  27.255  1.00  0.00    -0.014 A 
ATOM     72  C   UNL A   1      42.058  23.549  26.092  1.00  0.00     0.010 A 
ATOM     73  C   UNL A   1      43.145  22.828  28.135  1.00  0.00     0.010 A 
ATOM     74  C   UNL A   1      41.696  22.225  25.820  1.00  0.00     0.020 A 
ATOM     75  C   UNL A   1      42.808  21.501  27.854  1.00  0.00     0.020 A 
ATOM     76  C   UNL A   1      42.076  21.209  26.702  1.00  0.00     0.054 A 
BRANCH  76  77
ATOM     77  S   UNL A   1      41.648  19.492  26.301  1.00  0.00     0.124 S 
ATOM     78  O   UNL A   1      42.536  19.212  25.178  1.00  0.00    -0.237 OA
ATOM     79  O   UNL A   1      41.956  18.791  27.545  1.00  0.00    -0.237 OA
ATOM     80  O   UNL A   1      40.225  19.563  25.973  1.00  0.00    -0.744 OA
ENDBRANCH  76  77
ENDBRANCH  48  71
BRANCH  60  81
ATOM     81  C   UNL A   1      48.657  27.528  26.374  1.00  0.00    -0.014 A 
ATOM     82  C   UNL A   1      48.963  27.686  25.012  1.00  0.00     0.010 A 
ATOM     83  C   UNL A   1      49.658  27.076  27.255  1.00  0.00     0.010 A 
ATOM     84  C   UNL A   1      50.239  27.369  24.533  1.00  0.00     0.020 A 
ATOM     85  C   UNL A   1      50.941  26.783  26.784  1.00  0.00     0.020 A 
ATOM     86  C   UNL A   1      51.219  26.919  25.423  1.00  0.00     0.054 A 
BRANCH  86  87
ATOM     87  S   UNL A   1      52.877  26.554  24.785  1.00  0.00     0.124 S 
ATOM     88  O   UNL A   1      52.695  26.728  23.347  1.00  0.00    -0.237 OA
ATOM     89  O   UNL A   1      53.704  27.566  25.441  1.00  0.00    -0.237 OA
ATOM     90  O   UNL A   1      53.122  25.181  25.222  1.00  0.00    -0.744 OA
ENDBRANCH  86  87
ENDBRANCH  60  81
ENDBRANCH  34  35
ENDBRANCH  27  29
ENDBRANCH  26  27
ENDBRANCH  25  26
ENDBRANCH  24  25
ENDBRANCH   1  24
TORSDOF 20
ENDMDL
MODEL 2
REMARK VINA RESULT:      -9.5      3.611      6.711
REMARK SMILES Cc1cccc(C)c1Nc1ccccc1CC(=O)OCCOCCOC(=O)c1ccc(-c2c3nc(c(-c4ccc(S(=O)(=O)[O-])cc4)c4ccc([nH]4)c(-c4ccc(S(=O)(=O)[O-])cc4)c4nc(c(-c5ccc(S(=O)(=O)[O-])cc5)c5ccc2[nH]5)C=C4)C=C3)cc1
REMARK SMILES IDX 22 1 21 2 20 3 19 4 17 5 18 6 16 7 15 8 10 9 11 10 12 11
REMARK SMILES IDX 14 12 13 13 9 14 8 16 1 17 2 18 3 19 4 20 6 21 5 22 7 23
REMARK SMILES IDX 23 24 24 25 25 26 26 27 27 28 28 29 29 30 87 31 30 32 86 33
REMARK SMILES IDX 31 34 32 35 33 36 80 37 34 38 85 39 79 40 81 41 35 42 84 43
REMARK SMILES IDX 78 44 77 45 36 47 66 48 47 49 65 50 48 51 51 52 64 53 82 54
REMARK SMILES IDX 49 55 50 56 63 58 83 59 52 60 37 61 38 62 46 63 39 64 45 65
REMARK SMILES IDX 40 66 41 67 42 68 43 69 44 70 67 71 68 72 76 73 69 74 75 75
REMARK SMILES IDX 70 76 71 77 72 78 73 79 74 80 53 81 54 82 62 83 55 84 61 85
REMARK SMILES IDX 56 86 57 87 58 88 59 89 60 90
REMARK H PARENT 9 15 81 46 51 57
REMARK Flexibility Score: inf
ROOT
ATOM      1  O   UNL A   1      35.605  33.045  32.528  1.00  0.00    -0.374 OA
ENDROOT
BRANCH   1   2
ATOM      2  C   UNL A   1      36.389  34.017  33.218  1.00  0.00     0.202 C 
BRANCH   2   3
ATOM      3  C   UNL A   1      36.206  34.138  34.737  1.00  0.00     0.261 C 
BRANCH   3   4
ATOM      4  O   UNL A   1      37.438  34.029  35.476  1.00  0.00    -0.463 OA
BRANCH   4   5
ATOM      5  C   UNL A   1      38.024  32.806  35.426  1.00  0.00     0.310 C 
ATOM      6  O   UNL A   1      37.405  31.744  35.388  1.00  0.00    -0.252 OA
BRANCH   5   7
ATOM      7  C   UNL A   1      39.531  32.808  35.427  1.00  0.00     0.160 C 
BRANCH   7   8
ATOM      8  C   UNL A   1      40.310  31.830  34.563  1.00  0.00    -0.013 A 
ATOM      9  C   UNL A   1      40.736  32.129  33.252  1.00  0.00     0.042 A 
ATOM     10  C   UNL A   1      41.392  31.131  32.501  1.00  0.00     0.026 A 
ATOM     11  C   UNL A   1      41.710  29.892  33.054  1.00  0.00     0.002 A 
ATOM     12  C   UNL A   1      40.699  30.596  35.120  1.00  0.00     0.006 A 
ATOM     13  C   UNL A   1      41.387  29.635  34.377  1.00  0.00     0.000 A 
BRANCH   9  14
ATOM     14  N   UNL A   1      40.705  33.418  32.683  1.00  0.00    -0.355 N 
ATOM     15  H   UNL A   1      40.262  34.092  33.245  1.00  0.00     0.167 HD
BRANCH  14  16
ATOM     16  C   UNL A   1      41.195  33.922  31.454  1.00  0.00     0.044 A 
ATOM     17  C   UNL A   1      38.917  33.378  30.436  1.00  0.00     0.046 C 
ATOM     18  C   UNL A   1      40.294  33.986  30.360  1.00  0.00    -0.027 A 
ATOM     19  C   UNL A   1      40.655  34.671  29.190  1.00  0.00     0.005 A 
ATOM     20  C   UNL A   1      41.895  35.289  29.083  1.00  0.00     0.001 A 
ATOM     21  C   UNL A   1      42.491  34.480  31.301  1.00  0.00    -0.027 A 
ATOM     22  C   UNL A   1      42.808  35.186  30.126  1.00  0.00     0.005 A 
ATOM     23  C   UNL A   1      43.579  34.387  32.340  1.00  0.00     0.046 C 
ENDBRANCH  14  16
ENDBRANCH   9  14
ENDBRANCH   7   8
ENDBRANCH   5   7
ENDBRANCH   4   5
ENDBRANCH   3   4
ENDBRANCH   2   3
ENDBRANCH   1   2
BRANCH   1  24
ATOM     24  C   UNL A   1      35.205  33.361  31.198  1.00  0.00     0.202 C 
BRANCH  24  25
ATOM     25  C   UNL A   1      34.940  32.188  30.245  1.00  0.00     0.261 C 
BRANCH  25  26
ATOM     26  O   UNL A   1      36.157  31.555  29.812  1.00  0.00    -0.460 OA
BRANCH  26  27
ATOM     27  C   UNL A   1      36.549  30.511  30.577  1.00  0.00     0.338 C 
ATOM     28  O   UNL A   1      35.974  30.066  31.563  1.00  0.00    -0.246 OA
BRANCH  27  29
ATOM     29  C   UNL A   1      37.689  29.812  29.957  1.00  0.00     0.060 A 
ATOM     30  C   UNL A   1      38.553  29.120  30.817  1.00  0.00     0.016 A 
ATOM     31  C   UNL A   1      37.968  29.908  28.593  1.00  0.00     0.016 A 
ATOM     32  C   UNL A   1      39.738  28.582  30.327  1.00  0.00     0.010 A 
ATOM     33  C   UNL A   1      39.168  29.373  28.104  1.00  0.00     0.010 A 
ATOM     34  C   UNL A   1      40.077  28.749  28.979  1.00  0.00    -0.014 A 
BRANCH  34  35
ATOM     35  C   UNL A   1      41.457  28.421  28.544  1.00  0.00     0.031 A 
ATOM     36  C   UNL A   1      42.498  29.510  28.551  1.00  0.00     0.074 A 
ATOM     37  C   UNL A   1      41.797  27.160  28.222  1.00  0.00     0.049 A 
ATOM     38  N   UNL A   1      43.769  29.441  28.252  1.00  0.00    -0.248 NA
ATOM     39  C   UNL A   1      42.046  30.852  28.954  1.00  0.00     0.031 C 
ATOM     40  C   UNL A   1      40.889  26.014  28.227  1.00  0.00     0.029 A 
ATOM     41  N   UNL A   1      43.003  26.635  27.834  1.00  0.00    -0.354 N 
ATOM     42  C   UNL A   1      44.268  30.727  28.425  1.00  0.00     0.074 A 
ATOM     43  C   UNL A   1      43.158  31.563  28.827  1.00  0.00     0.031 C 
ATOM     44  C   UNL A   1      41.574  24.916  27.859  1.00  0.00     0.029 A 
ATOM     45  C   UNL A   1      42.957  25.288  27.567  1.00  0.00     0.049 A 
ATOM     46  H   UNL A   1      43.825  27.172  27.756  1.00  0.00     0.167 HD
ATOM     47  C   UNL A   1      45.538  31.173  28.271  1.00  0.00     0.031 A 
ATOM     48  C   UNL A   1      43.918  24.452  27.124  1.00  0.00     0.031 A 
ATOM     49  C   UNL A   1      46.638  30.342  27.859  1.00  0.00     0.049 A 
ATOM     50  C   UNL A   1      45.307  24.985  26.892  1.00  0.00     0.074 A 
ATOM     51  C   UNL A   1      47.965  30.696  27.683  1.00  0.00     0.029 A 
ATOM     52  N   UNL A   1      46.540  28.994  27.552  1.00  0.00    -0.354 N 
ATOM     53  N   UNL A   1      45.767  26.199  27.082  1.00  0.00    -0.248 NA
ATOM     54  C   UNL A   1      46.309  24.032  26.394  1.00  0.00     0.031 C 
ATOM     55  C   UNL A   1      48.657  29.573  27.216  1.00  0.00     0.029 A 
ATOM     56  C   UNL A   1      47.774  28.506  27.159  1.00  0.00     0.049 A 
ATOM     57  H   UNL A   1      45.713  28.461  27.604  1.00  0.00     0.167 HD
ATOM     58  C   UNL A   1      47.117  26.149  26.751  1.00  0.00     0.074 A 
ATOM     59  C   UNL A   1      47.402  24.783  26.361  1.00  0.00     0.031 C 
ATOM     60  C   UNL A   1      48.039  27.144  26.769  1.00  0.00     0.031 A 
BRANCH  47  61
ATOM     61  C   UNL A   1      45.795  32.636  28.512  1.00  0.00    -0.014 A 
ATOM     62  C   UNL A   1      46.235  33.105  29.763  1.00  0.00     0.010 A 
ATOM     63  C   UNL A   1      45.624  33.554  27.460  1.00  0.00     0.010 A 
ATOM     64  C   UNL A   1      46.461  34.469  29.969  1.00  0.00     0.020 A 
ATOM     65  C   UNL A   1      45.874  34.916  27.653  1.00  0.00     0.020 A 
ATOM     66  C   UNL A   1      46.275  35.367  28.913  1.00  0.00     0.054 A 
BRANCH  66  67
ATOM     67  S   UNL A   1      46.591  37.130  29.200  1.00  0.00     0.124 S 
ATOM     68  O   UNL A   1      46.981  37.141  30.608  1.00  0.00    -0.237 OA
ATOM     69  O   UNL A   1      47.661  37.424  28.250  1.00  0.00    -0.237 OA
ATOM     70  O   UNL A   1      45.309  37.765  28.906  1.00  0.00    -0.744 OA
ENDBRANCH  66  67
ENDBRANCH  47  61
BRANCH  48  71
ATOM     71  C   UNL A   1      43.590  23.025  26.852  1.00  0.00    -0.014 A 
ATOM     72  C   UNL A   1      43.836  22.456  25.591  1.00  0.00     0.010 A 
ATOM     73  C   UNL A   1      43.034  22.225  27.866  1.00  0.00     0.010 A 
ATOM     74  C   UNL A   1      43.520  21.116  25.346  1.00  0.00     0.020 A 
ATOM     75  C   UNL A   1      42.742  20.879  27.634  1.00  0.00     0.020 A 
ATOM     76  C   UNL A   1      42.977  20.335  26.371  1.00  0.00     0.054 A 
BRANCH  76  77
ATOM     77  S   UNL A   1      42.630  18.583  26.050  1.00  0.00     0.124 S 
ATOM     78  O   UNL A   1      43.007  17.962  27.316  1.00  0.00    -0.237 OA
ATOM     79  O   UNL A   1      41.201  18.594  25.750  1.00  0.00    -0.237 OA
ATOM     80  O   UNL A   1      43.494  18.266  24.914  1.00  0.00    -0.744 OA
ENDBRANCH  76  77
ENDBRANCH  48  71
BRANCH  60  81
ATOM     81  C   UNL A   1      49.450  26.790  26.382  1.00  0.00    -0.014 A 
ATOM     82  C   UNL A   1      50.389  26.382  27.345  1.00  0.00     0.010 A 
ATOM     83  C   UNL A   1      49.824  26.813  25.025  1.00  0.00     0.010 A 
ATOM     84  C   UNL A   1      51.687  26.031  26.962  1.00  0.00     0.020 A 
ATOM     85  C   UNL A   1      51.113  26.437  24.635  1.00  0.00     0.020 A 
ATOM     86  C   UNL A   1      52.041  26.062  25.609  1.00  0.00     0.054 A 
BRANCH  86  87
ATOM     87  S   UNL A   1      53.718  25.562  25.131  1.00  0.00     0.124 S 
ATOM     88  O   UNL A   1      53.507  24.193  24.669  1.00  0.00    -0.237 OA
ATOM     89  O   UNL A   1      54.058  26.532  24.092  1.00  0.00    -0.237 OA
ATOM     90  O   UNL A   1      54.484  25.693  26.369  1.00  0.00    -0.744 OA
ENDBRANCH  86  87
ENDBRANCH  60  81
ENDBRANCH  34  35
ENDBRANCH  27  29
ENDBRANCH  26  27
ENDBRANCH  25  26
ENDBRANCH  24  25
ENDBRANCH   1  24
TORSDOF 20
ENDMDL
MODEL 3
REMARK VINA RESULT:      -9.3      2.304      8.837
REMARK SMILES Cc1cccc(C)c1Nc1ccccc1CC(=O)OCCOCCOC(=O)c1ccc(-c2c3nc(c(-c4ccc(S(=O)(=O)[O-])cc4)c4ccc([nH]4)c(-c4ccc(S(=O)(=O)[O-])cc4)c4nc(c(-c5ccc(S(=O)(=O)[O-])cc5)c5ccc2[nH]5)C=C4)C=C3)cc1
REMARK SMILES IDX 22 1 21 2 20 3 19 4 17 5 18 6 16 7 15 8 10 9 11 10 12 11
REMARK SMILES IDX 14 12 13 13 9 14 8 16 1 17 2 18 3 19 4 20 6 21 5 22 7 23
REMARK SMILES IDX 23 24 24 25 25 26 26 27 27 28 28 29 29 30 87 31 30 32 86 33
REMARK SMILES IDX 31 34 32 35 33 36 80 37 34 38 85 39 79 40 81 41 35 42 84 43
REMARK SMILES IDX 78 44 77 45 36 47 66 48 47 49 65 50 48 51 51 52 64 53 82 54
REMARK SMILES IDX 49 55 50 56 63 58 83 59 52 60 37 61 38 62 46 63 39 64 45 65
REMARK SMILES IDX 40 66 41 67 42 68 43 69 44 70 67 71 68 72 76 73 69 74 75 75
REMARK SMILES IDX 70 76 71 77 72 78 73 79 74 80 53 81 54 82 62 83 55 84 61 85
REMARK SMILES IDX 56 86 57 87 58 88 59 89 60 90
REMARK H PARENT 9 15 81 46 51 57
REMARK Flexibility Score: inf
ROOT
ATOM      1  O   UNL A   1      38.414  22.928  26.580  1.00  0.00    -0.374 OA
ENDROOT
BRANCH   1   2
ATOM      2  C   UNL A   1      37.696  23.672  25.597  1.00  0.00     0.202 C 
BRANCH   2   3
ATOM      3  C   UNL A   1      36.173  23.494  25.536  1.00  0.00     0.261 C 
BRANCH   3   4
ATOM      4  O   UNL A   1      35.560  24.159  24.414  1.00  0.00    -0.463 OA
BRANCH   4   5
ATOM      5  C   UNL A   1      35.473  23.409  23.287  1.00  0.00     0.310 C 
ATOM      6  O   UNL A   1      36.443  23.019  22.639  1.00  0.00    -0.252 OA
BRANCH   5   7
ATOM      7  C   UNL A   1      34.075  23.067  22.840  1.00  0.00     0.160 C 
BRANCH   7   8
ATOM      8  C   UNL A   1      32.971  22.826  23.857  1.00  0.00    -0.013 A 
ATOM      9  C   UNL A   1      32.058  23.823  24.256  1.00  0.00     0.042 A 
ATOM     10  C   UNL A   1      31.112  23.525  25.260  1.00  0.00     0.026 A 
ATOM     11  C   UNL A   1      31.000  22.245  25.798  1.00  0.00     0.002 A 
ATOM     12  C   UNL A   1      32.795  21.525  24.369  1.00  0.00     0.006 A 
ATOM     13  C   UNL A   1      31.825  21.235  25.330  1.00  0.00     0.000 A 
BRANCH   9  14
ATOM     14  N   UNL A   1      31.905  25.064  23.605  1.00  0.00    -0.355 N 
ATOM     15  H   UNL A   1      31.037  25.175  23.155  1.00  0.00     0.167 HD
BRANCH  14  16
ATOM     16  C   UNL A   1      32.767  26.180  23.480  1.00  0.00     0.044 A 
ATOM     17  C   UNL A   1      32.625  25.879  20.947  1.00  0.00     0.046 C 
ATOM     18  C   UNL A   1      33.061  26.643  22.171  1.00  0.00    -0.027 A 
ATOM     19  C   UNL A   1      33.727  27.865  21.991  1.00  0.00     0.005 A 
ATOM     20  C   UNL A   1      34.111  28.632  23.084  1.00  0.00     0.001 A 
ATOM     21  C   UNL A   1      33.242  26.927  24.589  1.00  0.00    -0.027 A 
ATOM     22  C   UNL A   1      33.879  28.163  24.371  1.00  0.00     0.005 A 
ATOM     23  C   UNL A   1      33.094  26.494  26.024  1.00  0.00     0.046 C 
ENDBRANCH  14  16
ENDBRANCH   9  14
ENDBRANCH   7   8
ENDBRANCH   5   7
ENDBRANCH   4   5
ENDBRANCH   3   4
ENDBRANCH   2   3
ENDBRANCH   1   2
BRANCH   1  24
ATOM     24  C   UNL A   1      39.623  22.299  26.161  1.00  0.00     0.202 C 
BRANCH  24  25
ATOM     25  C   UNL A   1      39.805  20.817  26.513  1.00  0.00     0.261 C 
BRANCH  25  26
ATOM     26  O   UNL A   1      40.839  20.197  25.730  1.00  0.00    -0.460 OA
BRANCH  26  27
ATOM     27  C   UNL A   1      41.965  19.902  26.421  1.00  0.00     0.338 C 
ATOM     28  O   UNL A   1      42.331  18.793  26.789  1.00  0.00    -0.246 OA
BRANCH  27  29
ATOM     29  C   UNL A   1      42.839  21.084  26.518  1.00  0.00     0.060 A 
ATOM     30  C   UNL A   1      43.030  21.629  27.795  1.00  0.00     0.016 A 
ATOM     31  C   UNL A   1      43.377  21.707  25.391  1.00  0.00     0.016 A 
ATOM     32  C   UNL A   1      43.700  22.839  27.943  1.00  0.00     0.010 A 
ATOM     33  C   UNL A   1      44.043  22.931  25.541  1.00  0.00     0.010 A 
ATOM     34  C   UNL A   1      44.166  23.522  26.813  1.00  0.00    -0.014 A 
BRANCH  34  35
ATOM     35  C   UNL A   1      44.618  24.926  26.965  1.00  0.00     0.031 A 
ATOM     36  C   UNL A   1      43.620  25.968  27.400  1.00  0.00     0.074 A 
ATOM     37  C   UNL A   1      45.911  25.257  26.794  1.00  0.00     0.049 A 
ATOM     38  N   UNL A   1      43.802  27.241  27.635  1.00  0.00    -0.248 NA
ATOM     39  C   UNL A   1      42.235  25.510  27.601  1.00  0.00     0.031 C 
ATOM     40  C   UNL A   1      46.978  24.327  26.424  1.00  0.00     0.029 A 
ATOM     41  N   UNL A   1      46.545  26.466  26.918  1.00  0.00    -0.354 N 
ATOM     42  C   UNL A   1      42.558  27.738  28.006  1.00  0.00     0.074 A 
ATOM     43  C   UNL A   1      41.623  26.637  27.937  1.00  0.00     0.031 C 
ATOM     44  C   UNL A   1      48.137  25.004  26.351  1.00  0.00     0.029 A 
ATOM     45  C   UNL A   1      47.890  26.415  26.642  1.00  0.00     0.049 A 
ATOM     46  H   UNL A   1      46.081  27.294  27.181  1.00  0.00     0.167 HD
ATOM     47  C   UNL A   1      42.224  28.997  28.379  1.00  0.00     0.031 A 
ATOM     48  C   UNL A   1      48.814  27.397  26.614  1.00  0.00     0.031 A 
ATOM     49  C   UNL A   1      43.153  30.094  28.435  1.00  0.00     0.049 A 
ATOM     50  C   UNL A   1      48.405  28.803  26.963  1.00  0.00     0.074 A 
ATOM     51  C   UNL A   1      42.916  31.405  28.809  1.00  0.00     0.029 A 
ATOM     52  N   UNL A   1      44.496  30.010  28.101  1.00  0.00    -0.354 N 
ATOM     53  N   UNL A   1      47.229  29.252  27.334  1.00  0.00    -0.248 NA
ATOM     54  C   UNL A   1      49.450  29.834  26.900  1.00  0.00     0.031 C 
ATOM     55  C   UNL A   1      44.104  32.126  28.648  1.00  0.00     0.029 A 
ATOM     56  C   UNL A   1      45.095  31.251  28.231  1.00  0.00     0.049 A 
ATOM     57  H   UNL A   1      44.957  29.189  27.812  1.00  0.00     0.167 HD
ATOM     58  C   UNL A   1      47.399  30.612  27.572  1.00  0.00     0.074 A 
ATOM     59  C   UNL A   1      48.793  30.909  27.316  1.00  0.00     0.031 C 
ATOM     60  C   UNL A   1      46.484  31.531  27.968  1.00  0.00     0.031 A 
BRANCH  47  61
ATOM     61  C   UNL A   1      40.781  29.262  28.717  1.00  0.00    -0.014 A 
ATOM     62  C   UNL A   1      40.354  29.385  30.051  1.00  0.00     0.010 A 
ATOM     63  C   UNL A   1      39.842  29.421  27.681  1.00  0.00     0.010 A 
ATOM     64  C   UNL A   1      39.008  29.624  30.344  1.00  0.00     0.020 A 
ATOM     65  C   UNL A   1      38.500  29.685  27.968  1.00  0.00     0.020 A 
ATOM     66  C   UNL A   1      38.088  29.768  29.300  1.00  0.00     0.054 A 
BRANCH  66  67
ATOM     67  S   UNL A   1      36.350  30.094  29.706  1.00  0.00     0.124 S 
ATOM     68  O   UNL A   1      36.317  31.553  29.742  1.00  0.00    -0.237 OA
ATOM     69  O   UNL A   1      35.638  29.477  28.589  1.00  0.00    -0.237 OA
ATOM     70  O   UNL A   1      36.166  29.435  30.996  1.00  0.00    -0.744 OA
ENDBRANCH  66  67
ENDBRANCH  47  61
BRANCH  48  71
ATOM     71  C   UNL A   1      50.215  27.084  26.219  1.00  0.00    -0.014 A 
ATOM     72  C   UNL A   1      50.586  27.016  24.866  1.00  0.00     0.010 A 
ATOM     73  C   UNL A   1      51.190  26.858  27.208  1.00  0.00     0.010 A 
ATOM     74  C   UNL A   1      51.904  26.716  24.508  1.00  0.00     0.020 A 
ATOM     75  C   UNL A   1      52.515  26.585  26.854  1.00  0.00     0.020 A 
ATOM     76  C   UNL A   1      52.861  26.506  25.505  1.00  0.00     0.054 A 
BRANCH  76  77
ATOM     77  S   UNL A   1      54.579  26.178  25.020  1.00  0.00     0.124 S 
ATOM     78  O   UNL A   1      54.782  24.823  25.523  1.00  0.00    -0.237 OA
ATOM     79  O   UNL A   1      54.528  26.314  23.567  1.00  0.00    -0.237 OA
ATOM     80  O   UNL A   1      55.333  27.223  25.709  1.00  0.00    -0.744 OA
ENDBRANCH  76  77
ENDBRANCH  48  71
BRANCH  60  81
ATOM     81  C   UNL A   1      46.963  32.943  28.176  1.00  0.00    -0.014 A 
ATOM     82  C   UNL A   1      46.930  33.885  27.133  1.00  0.00     0.010 A 
ATOM     83  C   UNL A   1      47.401  33.346  29.452  1.00  0.00     0.010 A 
ATOM     84  C   UNL A   1      47.355  35.199  27.355  1.00  0.00     0.020 A 
ATOM     85  C   UNL A   1      47.801  34.665  29.683  1.00  0.00     0.020 A 
ATOM     86  C   UNL A   1      47.788  35.580  28.629  1.00  0.00     0.054 A 
BRANCH  86  87
ATOM     87  S   UNL A   1      48.294  37.300  28.902  1.00  0.00     0.124 S 
ATOM     88  O   UNL A   1      48.053  37.464  30.333  1.00  0.00    -0.237 OA
ATOM     89  O   UNL A   1      49.699  37.290  28.498  1.00  0.00    -0.237 OA
ATOM     90  O   UNL A   1      47.408  38.066  28.028  1.00  0.00    -0.744 OA
ENDBRANCH  86  87
ENDBRANCH  60  81
ENDBRANCH  34  35
ENDBRANCH  27  29
ENDBRANCH  26  27
ENDBRANCH  25  26
ENDBRANCH  24  25
ENDBRANCH   1  24
TORSDOF 20
ENDMDL
