MODEL 1
REMARK VINA RESULT:     -10.6      0.000      0.000
REMARK SMILES CC(C)CN(C)c1cc2c(cc1Cl)C=C(C(=O)OCCOCCOC(=O)c1ccc(-c3c4nc(c(-c5ccc(S(=O)(=O)[O-])cc5)c5ccc([nH]5)c(-c5ccc(S(=O)(=O)[O-])cc5)c5nc(c(-c6ccc(S(=O)(=O)[O-])cc6)c6ccc3[nH]6)C=C5)C=C4)cc1)[C@H](C(F)(F)F)O2
REMARK SMILES IDX 21 1 20 2 19 3 18 4 16 5 17 6 15 7 7 8 8 9 12 10 9 11 11 12
REMARK SMILES IDX 13 13 10 14 92 15 14 16 87 17 5 18 6 19 4 20 2 21 1 22 3 23
REMARK SMILES IDX 88 24 89 25 90 26 91 27 22 28 23 29 24 30 25 31 26 32 27 33
REMARK SMILES IDX 28 34 86 35 29 36 85 37 30 38 31 39 32 40 79 41 33 42 84 43
REMARK SMILES IDX 78 44 80 45 34 46 83 47 77 48 76 49 35 51 65 52 46 53 64 54
REMARK SMILES IDX 47 55 50 56 63 57 81 58 48 59 49 60 62 62 82 63 51 64 36 65
REMARK SMILES IDX 37 66 45 67 38 68 44 69 39 70 40 71 41 72 42 73 43 74 66 75
REMARK SMILES IDX 67 76 75 77 68 78 74 79 69 80 70 81 71 82 72 83 73 84 52 85
REMARK SMILES IDX 53 86 61 87 54 88 60 89 55 90 56 91 57 92 58 93 59 94
REMARK H PARENT 80 50 50 61
REMARK Flexibility Score: inf
ROOT
ATOM      1  O   UNL A   1      40.557  21.632  25.881  1.00  0.00    -0.374 OA
ENDROOT
BRANCH   1   2
ATOM      2  C   UNL A   1      39.158  21.485  26.134  1.00  0.00     0.202 C 
BRANCH   2   3
ATOM      3  C   UNL A   1      38.297  22.713  25.839  1.00  0.00     0.261 C 
BRANCH   3   4
ATOM      4  O   UNL A   1      37.517  22.490  24.652  1.00  0.00    -0.460 OA
BRANCH   4   5
ATOM      5  C   UNL A   1      36.359  21.842  24.865  1.00  0.00     0.338 C 
ATOM      6  O   UNL A   1      36.231  20.627  24.935  1.00  0.00    -0.246 OA
BRANCH   5   7
ATOM      7  C   UNL A   1      35.245  22.779  25.125  1.00  0.00     0.087 C 
ATOM      8  C   UNL A   1      32.779  27.130  24.499  1.00  0.00     0.059 A 
ATOM      9  C   UNL A   1      32.866  26.194  25.556  1.00  0.00     0.074 A 
ATOM     10  C   UNL A   1      33.495  26.831  23.320  1.00  0.00     0.065 A 
ATOM     11  C   UNL A   1      33.605  25.011  25.427  1.00  0.00     0.130 A 
ATOM     12  C   UNL A   1      34.103  25.592  23.143  1.00  0.00     0.034 A 
ATOM     13  Cl  UNL A   1      33.808  27.997  22.079  1.00  0.00    -0.082 Cl
ATOM     14  C   UNL A   1      34.159  24.688  24.199  1.00  0.00     0.019 A 
ATOM     15  O   UNL A   1      33.794  24.252  26.549  1.00  0.00    -0.475 OA
ATOM     16  C   UNL A   1      34.950  23.496  24.035  1.00  0.00     0.027 C 
ATOM     17  C   UNL A   1      34.634  23.041  26.483  1.00  0.00     0.316 C 
BRANCH   8  18
ATOM     18  N   UNL A   1      32.041  28.315  24.633  1.00  0.00    -0.373 N 
ATOM     19  C   UNL A   1      30.921  28.474  23.708  1.00  0.00     0.143 C 
BRANCH  18  20
ATOM     20  C   UNL A   1      32.766  29.549  25.018  1.00  0.00     0.119 C 
BRANCH  20  21
ATOM     21  C   UNL A   1      32.443  30.029  26.451  1.00  0.00     0.002 C 
ATOM     22  C   UNL A   1      31.528  31.259  26.456  1.00  0.00     0.009 C 
ATOM     23  C   UNL A   1      31.798  28.931  27.300  1.00  0.00     0.009 C 
ENDBRANCH  20  21
ENDBRANCH  18  20
ENDBRANCH   8  18
BRANCH  17  24
ATOM     24  C   UNL A   1      33.764  21.902  27.056  1.00  0.00     0.430 C 
ATOM     25  F   UNL A   1      32.661  22.385  27.681  1.00  0.00    -0.167 F 
ATOM     26  F   UNL A   1      33.344  21.017  26.130  1.00  0.00    -0.167 F 
ATOM     27  F   UNL A   1      34.458  21.184  27.975  1.00  0.00    -0.167 F 
ENDBRANCH  17  24
ENDBRANCH   5   7
ENDBRANCH   4   5
ENDBRANCH   3   4
ENDBRANCH   2   3
ENDBRANCH   1   2
BRANCH   1  28
ATOM     28  C   UNL A   1      41.197  22.787  26.430  1.00  0.00     0.202 C 
BRANCH  28  29
ATOM     29  C   UNL A   1      42.359  23.378  25.621  1.00  0.00     0.261 C 
BRANCH  29  30
ATOM     30  O   UNL A   1      42.952  24.500  26.301  1.00  0.00    -0.460 OA
BRANCH  30  31
ATOM     31  C   UNL A   1      42.457  25.717  25.955  1.00  0.00     0.338 C 
ATOM     32  O   UNL A   1      42.032  26.052  24.871  1.00  0.00    -0.246 OA
BRANCH  31  33
ATOM     33  C   UNL A   1      42.283  26.527  27.186  1.00  0.00     0.060 A 
ATOM     34  C   UNL A   1      42.889  27.773  27.349  1.00  0.00     0.016 A 
ATOM     35  C   UNL A   1      41.490  25.985  28.208  1.00  0.00     0.016 A 
ATOM     36  C   UNL A   1      42.673  28.492  28.529  1.00  0.00     0.010 A 
ATOM     37  C   UNL A   1      41.278  26.704  29.385  1.00  0.00     0.010 A 
ATOM     38  C   UNL A   1      41.852  27.971  29.548  1.00  0.00    -0.014 A 
BRANCH  38  39
ATOM     39  C   UNL A   1      41.486  28.804  30.719  1.00  0.00     0.031 A 
ATOM     40  C   UNL A   1      42.273  28.767  31.993  1.00  0.00     0.074 A 
ATOM     41  C   UNL A   1      40.397  29.592  30.625  1.00  0.00     0.049 A 
ATOM     42  N   UNL A   1      42.112  29.485  33.074  1.00  0.00    -0.248 NA
ATOM     43  C   UNL A   1      43.380  27.802  32.067  1.00  0.00     0.031 C 
ATOM     44  C   UNL A   1      39.540  29.690  29.443  1.00  0.00     0.029 A 
ATOM     45  N   UNL A   1      39.833  30.462  31.524  1.00  0.00    -0.354 N 
ATOM     46  C   UNL A   1      43.117  29.090  33.947  1.00  0.00     0.074 A 
ATOM     47  C   UNL A   1      43.839  28.018  33.293  1.00  0.00     0.031 C 
ATOM     48  C   UNL A   1      38.586  30.603  29.672  1.00  0.00     0.029 A 
ATOM     49  C   UNL A   1      38.737  31.127  31.029  1.00  0.00     0.049 A 
ATOM     50  H   UNL A   1      40.181  30.598  32.435  1.00  0.00     0.167 HD
ATOM     51  C   UNL A   1      43.424  29.596  35.166  1.00  0.00     0.031 A 
ATOM     52  C   UNL A   1      37.944  32.061  31.589  1.00  0.00     0.031 A 
ATOM     53  C   UNL A   1      42.667  30.631  35.826  1.00  0.00     0.049 A 
ATOM     54  C   UNL A   1      38.253  32.558  32.971  1.00  0.00     0.074 A 
ATOM     55  C   UNL A   1      42.902  31.208  37.063  1.00  0.00     0.029 A 
ATOM     56  N   UNL A   1      41.528  31.239  35.316  1.00  0.00    -0.354 N 
ATOM     57  N   UNL A   1      39.241  32.212  33.763  1.00  0.00    -0.248 NA
ATOM     58  C   UNL A   1      37.358  33.577  33.534  1.00  0.00     0.031 C 
ATOM     59  C   UNL A   1      41.868  32.108  37.331  1.00  0.00     0.029 A 
ATOM     60  C   UNL A   1      41.032  32.161  36.227  1.00  0.00     0.049 A 
ATOM     61  H   UNL A   1      41.130  31.045  34.437  1.00  0.00     0.167 HD
ATOM     62  C   UNL A   1      39.097  32.984  34.910  1.00  0.00     0.074 A 
ATOM     63  C   UNL A   1      37.935  33.826  34.703  1.00  0.00     0.031 C 
ATOM     64  C   UNL A   1      39.866  32.991  36.028  1.00  0.00     0.031 A 
BRANCH  51  65
ATOM     65  C   UNL A   1      44.645  29.052  35.866  1.00  0.00    -0.014 A 
ATOM     66  C   UNL A   1      44.538  27.967  36.754  1.00  0.00     0.010 A 
ATOM     67  C   UNL A   1      45.895  29.681  35.709  1.00  0.00     0.010 A 
ATOM     68  C   UNL A   1      45.650  27.529  37.480  1.00  0.00     0.020 A 
ATOM     69  C   UNL A   1      47.017  29.225  36.407  1.00  0.00     0.020 A 
ATOM     70  C   UNL A   1      46.883  28.161  37.302  1.00  0.00     0.054 A 
BRANCH  70  71
ATOM     71  S   UNL A   1      48.321  27.567  38.235  1.00  0.00     0.124 S 
ATOM     72  O   UNL A   1      49.211  27.108  37.174  1.00  0.00    -0.237 OA
ATOM     73  O   UNL A   1      48.753  28.766  38.950  1.00  0.00    -0.237 OA
ATOM     74  O   UNL A   1      47.765  26.516  39.085  1.00  0.00    -0.744 OA
ENDBRANCH  70  71
ENDBRANCH  51  65
BRANCH  52  75
ATOM     75  C   UNL A   1      36.834  32.625  30.774  1.00  0.00    -0.014 A 
ATOM     76  C   UNL A   1      37.059  33.731  29.930  1.00  0.00     0.010 A 
ATOM     77  C   UNL A   1      35.519  32.165  30.961  1.00  0.00     0.010 A 
ATOM     78  C   UNL A   1      35.984  34.419  29.363  1.00  0.00     0.020 A 
ATOM     79  C   UNL A   1      34.442  32.833  30.370  1.00  0.00     0.020 A 
ATOM     80  C   UNL A   1      34.681  33.979  29.608  1.00  0.00     0.054 A 
BRANCH  80  81
ATOM     81  S   UNL A   1      33.298  34.967  28.970  1.00  0.00     0.124 S 
ATOM     82  O   UNL A   1      32.492  35.161  30.172  1.00  0.00    -0.237 OA
ATOM     83  O   UNL A   1      33.969  36.159  28.461  1.00  0.00    -0.237 OA
ATOM     84  O   UNL A   1      32.703  34.105  27.952  1.00  0.00    -0.744 OA
ENDBRANCH  80  81
ENDBRANCH  52  75
BRANCH  64  85
ATOM     85  C   UNL A   1      39.490  33.927  37.151  1.00  0.00    -0.014 A 
ATOM     86  C   UNL A   1      39.985  35.245  37.157  1.00  0.00     0.010 A 
ATOM     87  C   UNL A   1      38.780  33.461  38.273  1.00  0.00     0.010 A 
ATOM     88  C   UNL A   1      39.824  36.062  38.280  1.00  0.00     0.020 A 
ATOM     89  C   UNL A   1      38.589  34.287  39.386  1.00  0.00     0.020 A 
ATOM     90  C   UNL A   1      39.140  35.571  39.394  1.00  0.00     0.054 A 
BRANCH  90  91
ATOM     91  S   UNL A   1      39.002  36.621  40.867  1.00  0.00     0.124 S 
ATOM     92  O   UNL A   1      40.374  36.630  41.368  1.00  0.00    -0.237 OA
ATOM     93  O   UNL A   1      38.524  37.887  40.315  1.00  0.00    -0.237 OA
ATOM     94  O   UNL A   1      38.037  35.913  41.706  1.00  0.00    -0.744 OA
ENDBRANCH  90  91
ENDBRANCH  64  85
ENDBRANCH  38  39
ENDBRANCH  31  33
ENDBRANCH  30  31
ENDBRANCH  29  30
ENDBRANCH  28  29
ENDBRANCH   1  28
TORSDOF 21
ENDMDL
MODEL 2
REMARK VINA RESULT:     -10.5      5.918     11.846
REMARK SMILES CC(C)CN(C)c1cc2c(cc1Cl)C=C(C(=O)OCCOCCOC(=O)c1ccc(-c3c4nc(c(-c5ccc(S(=O)(=O)[O-])cc5)c5ccc([nH]5)c(-c5ccc(S(=O)(=O)[O-])cc5)c5nc(c(-c6ccc(S(=O)(=O)[O-])cc6)c6ccc3[nH]6)C=C5)C=C4)cc1)[C@H](C(F)(F)F)O2
REMARK SMILES IDX 21 1 20 2 19 3 18 4 16 5 17 6 15 7 7 8 8 9 12 10 9 11 11 12
REMARK SMILES IDX 13 13 10 14 92 15 14 16 87 17 5 18 6 19 4 20 2 21 1 22 3 23
REMARK SMILES IDX 88 24 89 25 90 26 91 27 22 28 23 29 24 30 25 31 26 32 27 33
REMARK SMILES IDX 28 34 86 35 29 36 85 37 30 38 31 39 32 40 79 41 33 42 84 43
REMARK SMILES IDX 78 44 80 45 34 46 83 47 77 48 76 49 35 51 65 52 46 53 64 54
REMARK SMILES IDX 47 55 50 56 63 57 81 58 48 59 49 60 62 62 82 63 51 64 36 65
REMARK SMILES IDX 37 66 45 67 38 68 44 69 39 70 40 71 41 72 42 73 43 74 66 75
REMARK SMILES IDX 67 76 75 77 68 78 74 79 69 80 70 81 71 82 72 83 73 84 52 85
REMARK SMILES IDX 53 86 61 87 54 88 60 89 55 90 56 91 57 92 58 93 59 94
REMARK H PARENT 80 50 50 61
REMARK Flexibility Score: inf
ROOT
ATOM      1  O   UNL A   1      34.834  31.937  27.820  1.00  0.00    -0.374 OA
ENDROOT
BRANCH   1   2
ATOM      2  C   UNL A   1      33.604  31.262  27.548  1.00  0.00     0.202 C 
BRANCH   2   3
ATOM      3  C   UNL A   1      33.722  29.774  27.222  1.00  0.00     0.261 C 
BRANCH   3   4
ATOM      4  O   UNL A   1      32.413  29.181  27.158  1.00  0.00    -0.460 OA
BRANCH   4   5
ATOM      5  C   UNL A   1      31.926  29.048  25.913  1.00  0.00     0.338 C 
ATOM      6  O   UNL A   1      31.308  29.908  25.300  1.00  0.00    -0.246 OA
BRANCH   5   7
ATOM      7  C   UNL A   1      32.323  27.762  25.302  1.00  0.00     0.087 C 
ATOM      8  C   UNL A   1      33.677  22.911  25.497  1.00  0.00     0.059 A 
ATOM      9  C   UNL A   1      33.925  23.963  24.585  1.00  0.00     0.074 A 
ATOM     10  C   UNL A   1      32.858  23.207  26.607  1.00  0.00     0.065 A 
ATOM     11  C   UNL A   1      33.358  25.233  24.761  1.00  0.00     0.130 A 
ATOM     12  C   UNL A   1      32.180  24.418  26.698  1.00  0.00     0.034 A 
ATOM     13  Cl  UNL A   1      32.738  22.182  27.998  1.00  0.00    -0.082 Cl
ATOM     14  C   UNL A   1      32.436  25.429  25.777  1.00  0.00     0.019 A 
ATOM     15  O   UNL A   1      33.792  26.242  23.947  1.00  0.00    -0.475 OA
ATOM     16  C   UNL A   1      31.855  26.726  26.006  1.00  0.00     0.027 C 
ATOM     17  C   UNL A   1      33.287  27.614  24.147  1.00  0.00     0.316 C 
BRANCH   8  18
ATOM     18  N   UNL A   1      34.250  21.643  25.320  1.00  0.00    -0.373 N 
ATOM     19  C   UNL A   1      35.647  21.514  25.728  1.00  0.00     0.143 C 
BRANCH  18  20
ATOM     20  C   UNL A   1      33.822  20.841  24.149  1.00  0.00     0.119 C 
BRANCH  20  21
ATOM     21  C   UNL A   1      32.692  19.838  24.471  1.00  0.00     0.002 C 
ATOM     22  C   UNL A   1      32.532  18.776  23.378  1.00  0.00     0.009 C 
ATOM     23  C   UNL A   1      32.904  19.136  25.815  1.00  0.00     0.009 C 
ENDBRANCH  20  21
ENDBRANCH  18  20
ENDBRANCH   8  18
BRANCH  17  24
ATOM     24  C   UNL A   1      32.753  28.062  22.769  1.00  0.00     0.430 C 
ATOM     25  F   UNL A   1      33.339  27.372  21.760  1.00  0.00    -0.167 F 
ATOM     26  F   UNL A   1      31.420  27.922  22.629  1.00  0.00    -0.167 F 
ATOM     27  F   UNL A   1      33.018  29.377  22.557  1.00  0.00    -0.167 F 
ENDBRANCH  17  24
ENDBRANCH   5   7
ENDBRANCH   4   5
ENDBRANCH   3   4
ENDBRANCH   2   3
ENDBRANCH   1   2
BRANCH   1  28
ATOM     28  C   UNL A   1      34.807  32.953  28.827  1.00  0.00     0.202 C 
BRANCH  28  29
ATOM     29  C   UNL A   1      35.096  32.503  30.265  1.00  0.00     0.261 C 
BRANCH  29  30
ATOM     30  O   UNL A   1      35.808  31.252  30.287  1.00  0.00    -0.460 OA
BRANCH  30  31
ATOM     31  C   UNL A   1      36.785  31.155  31.227  1.00  0.00     0.338 C 
ATOM     32  O   UNL A   1      36.664  31.300  32.424  1.00  0.00    -0.246 OA
BRANCH  31  33
ATOM     33  C   UNL A   1      38.003  30.594  30.591  1.00  0.00     0.060 A 
ATOM     34  C   UNL A   1      38.168  30.556  29.206  1.00  0.00     0.016 A 
ATOM     35  C   UNL A   1      38.993  30.076  31.438  1.00  0.00     0.016 A 
ATOM     36  C   UNL A   1      39.346  30.025  28.671  1.00  0.00     0.010 A 
ATOM     37  C   UNL A   1      40.166  29.546  30.900  1.00  0.00     0.010 A 
ATOM     38  C   UNL A   1      40.360  29.533  29.513  1.00  0.00    -0.014 A 
BRANCH  38  39
ATOM     39  C   UNL A   1      41.675  29.131  28.954  1.00  0.00     0.031 A 
ATOM     40  C   UNL A   1      42.822  30.090  28.867  1.00  0.00     0.074 A 
ATOM     41  C   UNL A   1      41.814  27.873  28.493  1.00  0.00     0.049 A 
ATOM     42  N   UNL A   1      44.046  29.864  28.465  1.00  0.00    -0.248 NA
ATOM     43  C   UNL A   1      42.568  31.478  29.281  1.00  0.00     0.031 C 
ATOM     44  C   UNL A   1      40.757  26.861  28.504  1.00  0.00     0.029 A 
ATOM     45  N   UNL A   1      42.893  27.228  27.943  1.00  0.00    -0.354 N 
ATOM     46  C   UNL A   1      44.723  31.068  28.609  1.00  0.00     0.074 A 
ATOM     47  C   UNL A   1      43.751  32.039  29.072  1.00  0.00     0.031 C 
ATOM     48  C   UNL A   1      41.252  25.711  28.026  1.00  0.00     0.029 A 
ATOM     49  C   UNL A   1      42.647  25.911  27.638  1.00  0.00     0.049 A 
ATOM     50  H   UNL A   1      43.760  27.667  27.783  1.00  0.00     0.167 HD
ATOM     51  C   UNL A   1      46.037  31.328  28.404  1.00  0.00     0.031 A 
ATOM     52  C   UNL A   1      43.448  24.961  27.117  1.00  0.00     0.031 A 
ATOM     53  C   UNL A   1      46.983  30.365  27.899  1.00  0.00     0.049 A 
ATOM     54  C   UNL A   1      44.884  25.287  26.824  1.00  0.00     0.074 A 
ATOM     55  C   UNL A   1      48.335  30.537  27.657  1.00  0.00     0.029 A 
ATOM     56  N   UNL A   1      46.682  29.056  27.546  1.00  0.00    -0.354 N 
ATOM     57  N   UNL A   1      45.522  26.417  27.019  1.00  0.00    -0.248 NA
ATOM     58  C   UNL A   1      45.713  24.215  26.259  1.00  0.00     0.031 C 
ATOM     59  C   UNL A   1      48.834  29.361  27.093  1.00  0.00     0.029 A 
ATOM     60  C   UNL A   1      47.816  28.421  27.061  1.00  0.00     0.049 A 
ATOM     61  H   UNL A   1      45.794  28.639  27.628  1.00  0.00     0.167 HD
ATOM     62  C   UNL A   1      46.833  26.187  26.616  1.00  0.00     0.074 A 
ATOM     63  C   UNL A   1      46.899  24.806  26.181  1.00  0.00     0.031 C 
ATOM     64  C   UNL A   1      47.881  27.048  26.614  1.00  0.00     0.031 A 
BRANCH  51  65
ATOM     65  C   UNL A   1      46.542  32.710  28.744  1.00  0.00    -0.014 A 
ATOM     66  C   UNL A   1      46.837  33.056  30.075  1.00  0.00     0.010 A 
ATOM     67  C   UNL A   1      46.639  33.699  27.747  1.00  0.00     0.010 A 
ATOM     68  C   UNL A   1      47.206  34.364  30.405  1.00  0.00     0.020 A 
ATOM     69  C   UNL A   1      47.040  34.999  28.067  1.00  0.00     0.020 A 
ATOM     70  C   UNL A   1      47.305  35.328  29.398  1.00  0.00     0.054 A 
BRANCH  70  71
ATOM     71  S   UNL A   1      47.806  37.015  29.839  1.00  0.00     0.124 S 
ATOM     72  O   UNL A   1      48.403  37.495  28.597  1.00  0.00    -0.237 OA
ATOM     73  O   UNL A   1      46.537  37.636  30.213  1.00  0.00    -0.237 OA
ATOM     74  O   UNL A   1      48.738  36.815  30.947  1.00  0.00    -0.744 OA
ENDBRANCH  70  71
ENDBRANCH  51  65
BRANCH  52  75
ATOM     75  C   UNL A   1      42.891  23.594  26.929  1.00  0.00    -0.014 A 
ATOM     76  C   UNL A   1      42.944  22.652  27.976  1.00  0.00     0.010 A 
ATOM     77  C   UNL A   1      42.457  23.180  25.659  1.00  0.00     0.010 A 
ATOM     78  C   UNL A   1      42.661  21.306  27.733  1.00  0.00     0.020 A 
ATOM     79  C   UNL A   1      42.142  21.838  25.419  1.00  0.00     0.020 A 
ATOM     80  C   UNL A   1      42.286  20.905  26.448  1.00  0.00     0.054 A 
BRANCH  80  81
ATOM     81  S   UNL A   1      42.052  19.134  26.127  1.00  0.00     0.124 S 
ATOM     82  O   UNL A   1      40.641  19.083  25.755  1.00  0.00    -0.237 OA
ATOM     83  O   UNL A   1      42.998  18.881  25.044  1.00  0.00    -0.237 OA
ATOM     84  O   UNL A   1      42.386  18.507  27.403  1.00  0.00    -0.744 OA
ENDBRANCH  80  81
ENDBRANCH  52  75
BRANCH  64  85
ATOM     85  C   UNL A   1      49.216  26.552  26.114  1.00  0.00    -0.014 A 
ATOM     86  C   UNL A   1      50.084  25.876  26.993  1.00  0.00     0.010 A 
ATOM     87  C   UNL A   1      49.676  26.888  24.828  1.00  0.00     0.010 A 
ATOM     88  C   UNL A   1      51.400  25.590  26.617  1.00  0.00     0.020 A 
ATOM     89  C   UNL A   1      50.982  26.574  24.435  1.00  0.00     0.020 A 
ATOM     90  C   UNL A   1      51.844  25.956  25.345  1.00  0.00     0.054 A 
BRANCH  90  91
ATOM     91  S   UNL A   1      53.575  25.640  24.901  1.00  0.00     0.124 S 
ATOM     92  O   UNL A   1      54.263  26.767  25.524  1.00  0.00    -0.237 OA
ATOM     93  O   UNL A   1      53.828  24.334  25.506  1.00  0.00    -0.237 OA
ATOM     94  O   UNL A   1      53.563  25.649  23.439  1.00  0.00    -0.744 OA
ENDBRANCH  90  91
ENDBRANCH  64  85
ENDBRANCH  38  39
ENDBRANCH  31  33
ENDBRANCH  30  31
ENDBRANCH  29  30
ENDBRANCH  28  29
ENDBRANCH   1  28
TORSDOF 21
ENDMDL
MODEL 3
REMARK VINA RESULT:     -10.4      0.835      7.982
REMARK SMILES CC(C)CN(C)c1cc2c(cc1Cl)C=C(C(=O)OCCOCCOC(=O)c1ccc(-c3c4nc(c(-c5ccc(S(=O)(=O)[O-])cc5)c5ccc([nH]5)c(-c5ccc(S(=O)(=O)[O-])cc5)c5nc(c(-c6ccc(S(=O)(=O)[O-])cc6)c6ccc3[nH]6)C=C5)C=C4)cc1)[C@H](C(F)(F)F)O2
REMARK SMILES IDX 21 1 20 2 19 3 18 4 16 5 17 6 15 7 7 8 8 9 12 10 9 11 11 12
REMARK SMILES IDX 13 13 10 14 92 15 14 16 87 17 5 18 6 19 4 20 2 21 1 22 3 23
REMARK SMILES IDX 88 24 89 25 90 26 91 27 22 28 23 29 24 30 25 31 26 32 27 33
REMARK SMILES IDX 28 34 86 35 29 36 85 37 30 38 31 39 32 40 79 41 33 42 84 43
REMARK SMILES IDX 78 44 80 45 34 46 83 47 77 48 76 49 35 51 65 52 46 53 64 54
REMARK SMILES IDX 47 55 50 56 63 57 81 58 48 59 49 60 62 62 82 63 51 64 36 65
REMARK SMILES IDX 37 66 45 67 38 68 44 69 39 70 40 71 41 72 42 73 43 74 66 75
REMARK SMILES IDX 67 76 75 77 68 78 74 79 69 80 70 81 71 82 72 83 73 84 52 85
REMARK SMILES IDX 53 86 61 87 54 88 60 89 55 90 56 91 57 92 58 93 59 94
REMARK H PARENT 80 50 50 61
REMARK Flexibility Score: inf
ROOT
ATOM      1  O   UNL A   1      39.930  21.485  25.666  1.00  0.00    -0.374 OA
ENDROOT
BRANCH   1   2
ATOM      2  C   UNL A   1      38.527  21.344  25.894  1.00  0.00     0.202 C 
BRANCH   2   3
ATOM      3  C   UNL A   1      37.656  22.503  25.410  1.00  0.00     0.261 C 
BRANCH   3   4
ATOM      4  O   UNL A   1      36.847  22.077  24.299  1.00  0.00    -0.460 OA
BRANCH   4   5
ATOM      5  C   UNL A   1      35.626  21.634  24.641  1.00  0.00     0.338 C 
ATOM      6  O   UNL A   1      35.299  20.459  24.734  1.00  0.00    -0.246 OA
BRANCH   5   7
ATOM      7  C   UNL A   1      34.724  22.746  25.015  1.00  0.00     0.087 C 
ATOM      8  C   UNL A   1      33.005  27.469  24.645  1.00  0.00     0.059 A 
ATOM      9  C   UNL A   1      33.034  26.514  25.688  1.00  0.00     0.074 A 
ATOM     10  C   UNL A   1      33.534  27.071  23.399  1.00  0.00     0.065 A 
ATOM     11  C   UNL A   1      33.539  25.223  25.484  1.00  0.00     0.130 A 
ATOM     12  C   UNL A   1      33.896  25.749  23.160  1.00  0.00     0.034 A 
ATOM     13  Cl  UNL A   1      33.918  28.187  22.131  1.00  0.00    -0.082 Cl
ATOM     14  C   UNL A   1      33.900  24.830  24.205  1.00  0.00     0.019 A 
ATOM     15  O   UNL A   1      33.705  24.423  26.581  1.00  0.00    -0.475 OA
ATOM     16  C   UNL A   1      34.450  23.522  23.961  1.00  0.00     0.027 C 
ATOM     17  C   UNL A   1      34.310  23.086  26.428  1.00  0.00     0.316 C 
BRANCH   8  18
ATOM     18  N   UNL A   1      32.503  28.762  24.854  1.00  0.00    -0.373 N 
ATOM     19  C   UNL A   1      33.297  29.617  25.732  1.00  0.00     0.143 C 
BRANCH  18  20
ATOM     20  C   UNL A   1      31.032  28.940  24.904  1.00  0.00     0.119 C 
BRANCH  20  21
ATOM     21  C   UNL A   1      30.390  29.141  23.514  1.00  0.00     0.002 C 
ATOM     22  C   UNL A   1      29.597  27.911  23.060  1.00  0.00     0.009 C 
ATOM     23  C   UNL A   1      29.470  30.365  23.471  1.00  0.00     0.009 C 
ENDBRANCH  20  21
ENDBRANCH  18  20
ENDBRANCH   8  18
BRANCH  17  24
ATOM     24  C   UNL A   1      33.317  22.106  27.088  1.00  0.00     0.430 C 
ATOM     25  F   UNL A   1      32.220  21.914  26.315  1.00  0.00    -0.167 F 
ATOM     26  F   UNL A   1      33.840  20.891  27.349  1.00  0.00    -0.167 F 
ATOM     27  F   UNL A   1      32.882  22.592  28.279  1.00  0.00    -0.167 F 
ENDBRANCH  17  24
ENDBRANCH   5   7
ENDBRANCH   4   5
ENDBRANCH   3   4
ENDBRANCH   2   3
ENDBRANCH   1   2
BRANCH   1  28
ATOM     28  C   UNL A   1      40.678  22.205  26.651  1.00  0.00     0.202 C 
BRANCH  28  29
ATOM     29  C   UNL A   1      42.175  22.396  26.372  1.00  0.00     0.261 C 
BRANCH  29  30
ATOM     30  O   UNL A   1      42.702  23.520  27.099  1.00  0.00    -0.460 OA
BRANCH  30  31
ATOM     31  C   UNL A   1      42.542  24.729  26.499  1.00  0.00     0.338 C 
ATOM     32  O   UNL A   1      42.494  24.953  25.309  1.00  0.00    -0.246 OA
BRANCH  31  33
ATOM     33  C   UNL A   1      42.180  25.729  27.533  1.00  0.00     0.060 A 
ATOM     34  C   UNL A   1      41.036  25.601  28.323  1.00  0.00     0.016 A 
ATOM     35  C   UNL A   1      43.027  26.836  27.686  1.00  0.00     0.016 A 
ATOM     36  C   UNL A   1      40.759  26.573  29.290  1.00  0.00     0.010 A 
ATOM     37  C   UNL A   1      42.746  27.804  28.650  1.00  0.00     0.010 A 
ATOM     38  C   UNL A   1      41.620  27.671  29.473  1.00  0.00    -0.014 A 
BRANCH  38  39
ATOM     39  C   UNL A   1      41.420  28.604  30.609  1.00  0.00     0.031 A 
ATOM     40  C   UNL A   1      40.364  29.666  30.582  1.00  0.00     0.074 A 
ATOM     41  C   UNL A   1      42.237  28.495  31.675  1.00  0.00     0.049 A 
ATOM     42  N   UNL A   1      40.029  30.509  31.525  1.00  0.00    -0.248 NA
ATOM     43  C   UNL A   1      39.585  29.804  29.343  1.00  0.00     0.031 C 
ATOM     44  C   UNL A   1      43.315  27.515  31.800  1.00  0.00     0.029 A 
ATOM     45  N   UNL A   1      42.281  29.198  32.852  1.00  0.00    -0.354 N 
ATOM     46  C   UNL A   1      38.977  31.256  31.012  1.00  0.00     0.074 A 
ATOM     47  C   UNL A   1      38.776  30.811  29.648  1.00  0.00     0.031 C 
ATOM     48  C   UNL A   1      43.887  27.649  33.005  1.00  0.00     0.029 A 
ATOM     49  C   UNL A   1      43.244  28.748  33.723  1.00  0.00     0.049 A 
ATOM     50  H   UNL A   1      41.680  29.951  33.055  1.00  0.00     0.167 HD
ATOM     51  C   UNL A   1      38.231  32.201  31.633  1.00  0.00     0.031 A 
ATOM     52  C   UNL A   1      43.573  29.157  34.965  1.00  0.00     0.031 A 
ATOM     53  C   UNL A   1      38.472  32.668  32.976  1.00  0.00     0.049 A 
ATOM     54  C   UNL A   1      42.784  30.258  35.611  1.00  0.00     0.074 A 
ATOM     55  C   UNL A   1      37.769  33.624  33.690  1.00  0.00     0.029 A 
ATOM     56  N   UNL A   1      39.495  32.229  33.805  1.00  0.00    -0.354 N 
ATOM     57  N   UNL A   1      41.755  30.917  35.132  1.00  0.00    -0.248 NA
ATOM     58  C   UNL A   1      43.183  30.664  36.964  1.00  0.00     0.031 C 
ATOM     59  C   UNL A   1      38.408  33.813  34.917  1.00  0.00     0.029 A 
ATOM     60  C   UNL A   1      39.459  32.915  35.010  1.00  0.00     0.049 A 
ATOM     61  H   UNL A   1      40.149  31.531  33.573  1.00  0.00     0.167 HD
ATOM     62  C   UNL A   1      41.372  31.803  36.132  1.00  0.00     0.074 A 
ATOM     63  C   UNL A   1      42.271  31.586  37.248  1.00  0.00     0.031 C 
ATOM     64  C   UNL A   1      40.363  32.709  36.120  1.00  0.00     0.031 A 
BRANCH  51  65
ATOM     65  C   UNL A   1      37.065  32.787  30.875  1.00  0.00    -0.014 A 
ATOM     66  C   UNL A   1      37.258  33.845  29.969  1.00  0.00     0.010 A 
ATOM     67  C   UNL A   1      35.753  32.342  31.131  1.00  0.00     0.010 A 
ATOM     68  C   UNL A   1      36.166  34.456  29.345  1.00  0.00     0.020 A 
ATOM     69  C   UNL A   1      34.662  32.926  30.482  1.00  0.00     0.020 A 
ATOM     70  C   UNL A   1      34.874  33.992  29.605  1.00  0.00     0.054 A 
BRANCH  70  71
ATOM     71  S   UNL A   1      33.469  34.780  28.770  1.00  0.00     0.124 S 
ATOM     72  O   UNL A   1      34.064  36.011  28.259  1.00  0.00    -0.237 OA
ATOM     73  O   UNL A   1      33.101  33.789  27.763  1.00  0.00    -0.237 OA
ATOM     74  O   UNL A   1      32.491  34.955  29.842  1.00  0.00    -0.744 OA
ENDBRANCH  70  71
ENDBRANCH  51  65
BRANCH  52  75
ATOM     75  C   UNL A   1      44.661  28.436  35.679  1.00  0.00    -0.014 A 
ATOM     76  C   UNL A   1      46.007  28.808  35.491  1.00  0.00     0.010 A 
ATOM     77  C   UNL A   1      44.370  27.276  36.417  1.00  0.00     0.010 A 
ATOM     78  C   UNL A   1      47.039  27.988  35.950  1.00  0.00     0.020 A 
ATOM     79  C   UNL A   1      45.401  26.468  36.906  1.00  0.00     0.020 A 
ATOM     80  C   UNL A   1      46.728  26.809  36.633  1.00  0.00     0.054 A 
BRANCH  80  81
ATOM     81  S   UNL A   1      48.082  25.695  37.101  1.00  0.00     0.124 S 
ATOM     82  O   UNL A   1      47.656  25.249  38.425  1.00  0.00    -0.237 OA
ATOM     83  O   UNL A   1      48.037  24.683  36.051  1.00  0.00    -0.237 OA
ATOM     84  O   UNL A   1      49.259  26.560  37.082  1.00  0.00    -0.744 OA
ENDBRANCH  80  81
ENDBRANCH  52  75
BRANCH  64  85
ATOM     85  C   UNL A   1      40.156  33.570  37.342  1.00  0.00    -0.014 A 
ATOM     86  C   UNL A   1      39.199  33.196  38.305  1.00  0.00     0.010 A 
ATOM     87  C   UNL A   1      40.790  34.819  37.462  1.00  0.00     0.010 A 
ATOM     88  C   UNL A   1      38.843  34.073  39.334  1.00  0.00     0.020 A 
ATOM     89  C   UNL A   1      40.460  35.687  38.509  1.00  0.00     0.020 A 
ATOM     90  C   UNL A   1      39.465  35.320  39.419  1.00  0.00     0.054 A 
BRANCH  90  91
ATOM     91  S   UNL A   1      38.939  36.471  40.720  1.00  0.00     0.124 S 
ATOM     92  O   UNL A   1      40.179  36.687  41.459  1.00  0.00    -0.237 OA
ATOM     93  O   UNL A   1      38.452  37.617  39.955  1.00  0.00    -0.237 OA
ATOM     94  O   UNL A   1      37.906  35.729  41.439  1.00  0.00    -0.744 OA
ENDBRANCH  90  91
ENDBRANCH  64  85
ENDBRANCH  38  39
ENDBRANCH  31  33
ENDBRANCH  30  31
ENDBRANCH  29  30
ENDBRANCH  28  29
ENDBRANCH   1  28
TORSDOF 21
ENDMDL
