MODEL 1
REMARK VINA RESULT:     -10.5      0.000      0.000
REMARK SMILES O=C(OCCOCCOC(=O)c1cc(-c2ccc(C(F)(F)F)cc2)cc([N+](=O)[O-])c1)c1ccc(-c2c3nc(c(-c4ccc(S(=O)(=O)[O-])cc4)c4ccc([nH]4)c(-c4ccc(S(=O)(=O)[O-])cc4)c4nc(c(-c5ccc(S(=O)(=O)[O-])cc5)c5ccc2[nH]5)C=C4)C=C3)cc1
REMARK SMILES IDX 5 1 4 2 3 3 2 4 1 5 31 6 32 7 90 8 33 9 89 10 34 11 35 12
REMARK SMILES IDX 36 13 83 14 37 15 88 16 82 17 84 18 38 19 87 20 81 21 80 22
REMARK SMILES IDX 39 24 69 25 50 26 68 27 51 28 54 29 67 30 85 31 52 32 53 33
REMARK SMILES IDX 66 35 86 36 55 37 40 38 41 39 49 40 42 41 48 42 43 43 44 44
REMARK SMILES IDX 45 45 46 46 47 47 70 48 71 49 79 50 72 51 78 52 73 53 74 54
REMARK SMILES IDX 75 55 76 56 77 57 56 58 57 59 65 60 58 61 64 62 59 63 60 64
REMARK SMILES IDX 61 65 62 66 63 67 6 68 7 69 8 70 9 71 10 72 11 73 12 74
REMARK SMILES IDX 13 75 30 76 14 77 26 78 25 79 15 80 16 81 24 82 17 83 23 84
REMARK SMILES IDX 18 85 19 86 20 87 21 88 22 89 27 90 28 91 29 92
REMARK H PARENT 84 23 54 34
REMARK Flexibility Score: inf
ROOT
ATOM      1  C   UNL A   1      37.606  22.746  25.559  1.00  0.00     0.202 C 
ENDROOT
BRANCH   1   2
ATOM      2  C   UNL A   1      38.776  23.150  26.462  1.00  0.00     0.261 C 
BRANCH   2   3
ATOM      3  O   UNL A   1      38.609  24.499  26.921  1.00  0.00    -0.460 OA
BRANCH   3   4
ATOM      4  C   UNL A   1      39.534  25.486  26.938  1.00  0.00     0.338 C 
ATOM      5  O   UNL A   1      40.311  25.574  25.989  1.00  0.00    -0.246 OA
BRANCH   4   6
ATOM      6  C   UNL A   1      39.661  26.484  28.041  1.00  0.00     0.060 A 
ATOM      7  C   UNL A   1      40.302  27.724  27.938  1.00  0.00     0.016 A 
ATOM      8  C   UNL A   1      38.993  26.185  29.237  1.00  0.00     0.016 A 
ATOM      9  C   UNL A   1      40.305  28.635  28.977  1.00  0.00     0.010 A 
ATOM     10  C   UNL A   1      38.982  27.098  30.292  1.00  0.00     0.010 A 
ATOM     11  C   UNL A   1      39.649  28.320  30.156  1.00  0.00    -0.014 A 
BRANCH  11  12
ATOM     12  C   UNL A   1      39.829  29.226  31.291  1.00  0.00     0.031 A 
ATOM     13  C   UNL A   1      41.044  29.032  32.133  1.00  0.00     0.074 A 
ATOM     14  C   UNL A   1      38.971  30.241  31.476  1.00  0.00     0.049 A 
ATOM     15  N   UNL A   1      41.366  29.599  33.260  1.00  0.00    -0.248 NA
ATOM     16  C   UNL A   1      42.037  28.065  31.631  1.00  0.00     0.031 C 
ATOM     17  C   UNL A   1      37.857  30.580  30.584  1.00  0.00     0.029 A 
ATOM     18  N   UNL A   1      38.905  31.179  32.467  1.00  0.00    -0.354 N 
ATOM     19  C   UNL A   1      42.571  29.019  33.630  1.00  0.00     0.074 A 
ATOM     20  C   UNL A   1      42.928  28.064  32.608  1.00  0.00     0.031 C 
ATOM     21  C   UNL A   1      37.207  31.644  31.083  1.00  0.00     0.029 A 
ATOM     22  C   UNL A   1      37.813  32.004  32.360  1.00  0.00     0.049 A 
ATOM     23  H   UNL A   1      39.574  31.255  33.186  1.00  0.00     0.167 HD
ATOM     24  C   UNL A   1      43.290  29.256  34.750  1.00  0.00     0.031 A 
ATOM     25  C   UNL A   1      37.330  32.903  33.238  1.00  0.00     0.031 A 
ATOM     26  C   UNL A   1      42.863  30.197  35.748  1.00  0.00     0.049 A 
ATOM     27  C   UNL A   1      38.082  33.078  34.528  1.00  0.00     0.074 A 
ATOM     28  C   UNL A   1      43.449  30.501  36.960  1.00  0.00     0.029 A 
ATOM     29  N   UNL A   1      41.720  30.983  35.639  1.00  0.00    -0.354 N 
ATOM     30  N   UNL A   1      39.181  32.475  34.925  1.00  0.00    -0.248 NA
ATOM     31  C   UNL A   1      37.540  34.041  35.492  1.00  0.00     0.031 C 
ATOM     32  C   UNL A   1      42.626  31.426  37.610  1.00  0.00     0.029 A 
ATOM     33  C   UNL A   1      41.571  31.761  36.769  1.00  0.00     0.049 A 
ATOM     34  H   UNL A   1      41.108  30.985  34.867  1.00  0.00     0.167 HD
ATOM     35  C   UNL A   1      39.482  33.006  36.172  1.00  0.00     0.074 A 
ATOM     36  C   UNL A   1      38.444  33.980  36.462  1.00  0.00     0.031 C 
ATOM     37  C   UNL A   1      40.520  32.727  36.999  1.00  0.00     0.031 A 
BRANCH  24  38
ATOM     38  C   UNL A   1      44.506  28.400  34.973  1.00  0.00    -0.014 A 
ATOM     39  C   UNL A   1      44.433  27.156  35.630  1.00  0.00     0.010 A 
ATOM     40  C   UNL A   1      45.766  28.890  34.583  1.00  0.00     0.010 A 
ATOM     41  C   UNL A   1      45.601  26.458  35.955  1.00  0.00     0.020 A 
ATOM     42  C   UNL A   1      46.932  28.179  34.876  1.00  0.00     0.020 A 
ATOM     43  C   UNL A   1      46.844  26.982  35.587  1.00  0.00     0.054 A 
BRANCH  43  44
ATOM     44  S   UNL A   1      48.344  26.077  36.054  1.00  0.00     0.124 S 
ATOM     45  O   UNL A   1      49.256  27.166  36.399  1.00  0.00    -0.237 OA
ATOM     46  O   UNL A   1      47.890  25.261  37.177  1.00  0.00    -0.237 OA
ATOM     47  O   UNL A   1      48.693  25.333  34.846  1.00  0.00    -0.744 OA
ENDBRANCH  43  44
ENDBRANCH  24  38
BRANCH  25  48
ATOM     48  C   UNL A   1      36.065  33.625  32.935  1.00  0.00    -0.014 A 
ATOM     49  C   UNL A   1      34.816  33.055  33.229  1.00  0.00     0.010 A 
ATOM     50  C   UNL A   1      36.108  34.932  32.410  1.00  0.00     0.010 A 
ATOM     51  C   UNL A   1      33.637  33.777  33.011  1.00  0.00     0.020 A 
ATOM     52  C   UNL A   1      34.935  35.668  32.216  1.00  0.00     0.020 A 
ATOM     53  C   UNL A   1      33.704  35.084  32.515  1.00  0.00     0.054 A 
BRANCH  53  54
ATOM     54  S   UNL A   1      32.168  36.028  32.318  1.00  0.00     0.124 S 
ATOM     55  O   UNL A   1      31.160  35.068  32.757  1.00  0.00    -0.237 OA
ATOM     56  O   UNL A   1      32.384  37.169  33.206  1.00  0.00    -0.237 OA
ATOM     57  O   UNL A   1      32.143  36.354  30.894  1.00  0.00    -0.744 OA
ENDBRANCH  53  54
ENDBRANCH  25  48
BRANCH  37  58
ATOM     58  C   UNL A   1      40.627  33.529  38.263  1.00  0.00    -0.014 A 
ATOM     59  C   UNL A   1      40.060  33.081  39.467  1.00  0.00     0.010 A 
ATOM     60  C   UNL A   1      41.425  34.689  38.259  1.00  0.00     0.010 A 
ATOM     61  C   UNL A   1      40.289  33.785  40.651  1.00  0.00     0.020 A 
ATOM     62  C   UNL A   1      41.681  35.375  39.445  1.00  0.00     0.020 A 
ATOM     63  C   UNL A   1      41.108  34.919  40.633  1.00  0.00     0.054 A 
BRANCH  63  64
ATOM     64  S   UNL A   1      41.475  35.752  42.200  1.00  0.00     0.124 S 
ATOM     65  O   UNL A   1      42.931  35.846  42.160  1.00  0.00    -0.237 OA
ATOM     66  O   UNL A   1      40.758  37.019  42.062  1.00  0.00    -0.237 OA
ATOM     67  O   UNL A   1      40.935  34.845  43.210  1.00  0.00    -0.744 OA
ENDBRANCH  63  64
ENDBRANCH  37  58
ENDBRANCH  11  12
ENDBRANCH   4   6
ENDBRANCH   3   4
ENDBRANCH   2   3
ENDBRANCH   1   2
BRANCH   1  68
ATOM     68  O   UNL A   1      36.319  22.820  26.172  1.00  0.00    -0.374 OA
BRANCH  68  69
ATOM     69  C   UNL A   1      35.193  22.931  25.295  1.00  0.00     0.202 C 
BRANCH  69  70
ATOM     70  C   UNL A   1      33.903  22.915  26.115  1.00  0.00     0.261 C 
BRANCH  70  71
ATOM     71  O   UNL A   1      33.575  24.271  26.455  1.00  0.00    -0.460 OA
BRANCH  71  72
ATOM     72  C   UNL A   1      32.249  24.503  26.598  1.00  0.00     0.338 C 
ATOM     73  O   UNL A   1      31.437  23.865  27.248  1.00  0.00    -0.246 OA
BRANCH  72  74
ATOM     74  C   UNL A   1      31.946  25.806  25.980  1.00  0.00     0.067 A 
ATOM     75  C   UNL A   1      32.606  26.943  26.470  1.00  0.00     0.025 A 
ATOM     76  C   UNL A   1      31.011  25.913  24.952  1.00  0.00     0.101 A 
ATOM     77  C   UNL A   1      32.341  28.211  25.939  1.00  0.00    -0.011 A 
ATOM     78  C   UNL A   1      30.724  27.179  24.439  1.00  0.00     0.270 A 
ATOM     79  C   UNL A   1      31.393  28.322  24.910  1.00  0.00     0.094 A 
BRANCH  77  80
ATOM     80  C   UNL A   1      32.913  29.403  26.567  1.00  0.00    -0.018 A 
ATOM     81  C   UNL A   1      32.196  30.594  26.746  1.00  0.00     0.009 A 
ATOM     82  C   UNL A   1      34.255  29.361  26.975  1.00  0.00     0.009 A 
ATOM     83  C   UNL A   1      32.812  31.713  27.326  1.00  0.00     0.014 A 
ATOM     84  C   UNL A   1      34.869  30.471  27.550  1.00  0.00     0.014 A 
ATOM     85  C   UNL A   1      34.156  31.661  27.734  1.00  0.00     0.056 A 
BRANCH  85  86
ATOM     86  C   UNL A   1      34.824  32.864  28.355  1.00  0.00     0.416 C 
ATOM     87  F   UNL A   1      34.437  34.036  27.783  1.00  0.00    -0.166 F 
ATOM     88  F   UNL A   1      34.547  32.984  29.684  1.00  0.00    -0.166 F 
ATOM     89  F   UNL A   1      36.184  32.835  28.265  1.00  0.00    -0.166 F 
ENDBRANCH  85  86
ENDBRANCH  77  80
BRANCH  78  90
ATOM     90  N   UNL A   1      29.648  27.321  23.454  1.00  0.00     0.062 N 
ATOM     91  O   UNL A   1      29.915  27.897  22.390  1.00  0.00    -0.258 OA
ATOM     92  O   UNL A   1      28.532  26.874  23.752  1.00  0.00    -0.258 OA
ENDBRANCH  78  90
ENDBRANCH  72  74
ENDBRANCH  71  72
ENDBRANCH  70  71
ENDBRANCH  69  70
ENDBRANCH  68  69
ENDBRANCH   1  68
TORSDOF 20
ENDMDL
MODEL 2
REMARK VINA RESULT:     -10.4      4.481      5.335
REMARK SMILES O=C(OCCOCCOC(=O)c1cc(-c2ccc(C(F)(F)F)cc2)cc([N+](=O)[O-])c1)c1ccc(-c2c3nc(c(-c4ccc(S(=O)(=O)[O-])cc4)c4ccc([nH]4)c(-c4ccc(S(=O)(=O)[O-])cc4)c4nc(c(-c5ccc(S(=O)(=O)[O-])cc5)c5ccc2[nH]5)C=C4)C=C3)cc1
REMARK SMILES IDX 5 1 4 2 3 3 2 4 1 5 31 6 32 7 90 8 33 9 89 10 34 11 35 12
REMARK SMILES IDX 36 13 83 14 37 15 88 16 82 17 84 18 38 19 87 20 81 21 80 22
REMARK SMILES IDX 39 24 69 25 50 26 68 27 51 28 54 29 67 30 85 31 52 32 53 33
REMARK SMILES IDX 66 35 86 36 55 37 40 38 41 39 49 40 42 41 48 42 43 43 44 44
REMARK SMILES IDX 45 45 46 46 47 47 70 48 71 49 79 50 72 51 78 52 73 53 74 54
REMARK SMILES IDX 75 55 76 56 77 57 56 58 57 59 65 60 58 61 64 62 59 63 60 64
REMARK SMILES IDX 61 65 62 66 63 67 6 68 7 69 8 70 9 71 10 72 11 73 12 74
REMARK SMILES IDX 13 75 30 76 14 77 26 78 25 79 15 80 16 81 24 82 17 83 23 84
REMARK SMILES IDX 18 85 19 86 20 87 21 88 22 89 27 90 28 91 29 92
REMARK H PARENT 84 23 54 34
REMARK Flexibility Score: inf
ROOT
ATOM      1  C   UNL A   1      35.744  22.665  24.747  1.00  0.00     0.202 C 
ENDROOT
BRANCH   1   2
ATOM      2  C   UNL A   1      36.833  23.411  25.524  1.00  0.00     0.261 C 
BRANCH   2   3
ATOM      3  O   UNL A   1      38.044  22.643  25.545  1.00  0.00    -0.460 OA
BRANCH   3   4
ATOM      4  C   UNL A   1      39.090  22.775  26.393  1.00  0.00     0.338 C 
ATOM      5  O   UNL A   1      39.637  21.755  26.810  1.00  0.00    -0.246 OA
BRANCH   4   6
ATOM      6  C   UNL A   1      39.628  24.092  26.848  1.00  0.00     0.060 A 
ATOM      7  C   UNL A   1      40.136  25.089  26.009  1.00  0.00     0.016 A 
ATOM      8  C   UNL A   1      39.513  24.377  28.216  1.00  0.00     0.016 A 
ATOM      9  C   UNL A   1      40.537  26.319  26.493  1.00  0.00     0.010 A 
ATOM     10  C   UNL A   1      39.907  25.618  28.718  1.00  0.00     0.010 A 
ATOM     11  C   UNL A   1      40.427  26.582  27.849  1.00  0.00    -0.014 A 
BRANCH  11  12
ATOM     12  C   UNL A   1      41.028  27.820  28.348  1.00  0.00     0.031 A 
ATOM     13  C   UNL A   1      42.516  27.922  28.306  1.00  0.00     0.074 A 
ATOM     14  C   UNL A   1      40.240  28.839  28.726  1.00  0.00     0.049 A 
ATOM     15  N   UNL A   1      43.294  28.837  28.806  1.00  0.00    -0.248 NA
ATOM     16  C   UNL A   1      43.222  26.840  27.596  1.00  0.00     0.031 C 
ATOM     17  C   UNL A   1      38.777  28.857  28.631  1.00  0.00     0.029 A 
ATOM     18  N   UNL A   1      40.558  30.057  29.255  1.00  0.00    -0.354 N 
ATOM     19  C   UNL A   1      44.585  28.415  28.520  1.00  0.00     0.074 A 
ATOM     20  C   UNL A   1      44.487  27.169  27.798  1.00  0.00     0.031 C 
ATOM     21  C   UNL A   1      38.324  30.028  29.105  1.00  0.00     0.029 A 
ATOM     22  C   UNL A   1      39.456  30.799  29.605  1.00  0.00     0.049 A 
ATOM     23  H   UNL A   1      41.483  30.372  29.374  1.00  0.00     0.167 HD
ATOM     24  C   UNL A   1      45.745  29.017  28.867  1.00  0.00     0.031 A 
ATOM     25  C   UNL A   1      39.384  31.944  30.309  1.00  0.00     0.031 A 
ATOM     26  C   UNL A   1      45.776  30.242  29.616  1.00  0.00     0.049 A 
ATOM     27  C   UNL A   1      40.679  32.546  30.781  1.00  0.00     0.074 A 
ATOM     28  C   UNL A   1      46.867  30.939  30.094  1.00  0.00     0.029 A 
ATOM     29  N   UNL A   1      44.641  30.946  30.006  1.00  0.00    -0.354 N 
ATOM     30  N   UNL A   1      41.904  32.111  30.585  1.00  0.00    -0.248 NA
ATOM     31  C   UNL A   1      40.594  33.779  31.570  1.00  0.00     0.031 C 
ATOM     32  C   UNL A   1      46.388  32.030  30.825  1.00  0.00     0.029 A 
ATOM     33  C   UNL A   1      45.002  32.061  30.734  1.00  0.00     0.049 A 
ATOM     34  H   UNL A   1      43.715  30.687  29.792  1.00  0.00     0.167 HD
ATOM     35  C   UNL A   1      42.741  33.033  31.198  1.00  0.00     0.074 A 
ATOM     36  C   UNL A   1      41.877  34.050  31.773  1.00  0.00     0.031 C 
ATOM     37  C   UNL A   1      44.096  33.050  31.273  1.00  0.00     0.031 A 
BRANCH  24  38
ATOM     38  C   UNL A   1      47.017  28.285  28.538  1.00  0.00    -0.014 A 
ATOM     39  C   UNL A   1      47.588  28.321  27.252  1.00  0.00     0.010 A 
ATOM     40  C   UNL A   1      47.612  27.478  29.525  1.00  0.00     0.010 A 
ATOM     41  C   UNL A   1      48.683  27.508  26.941  1.00  0.00     0.020 A 
ATOM     42  C   UNL A   1      48.728  26.691  29.228  1.00  0.00     0.020 A 
ATOM     43  C   UNL A   1      49.238  26.690  27.929  1.00  0.00     0.054 A 
BRANCH  43  44
ATOM     44  S   UNL A   1      50.633  25.617  27.490  1.00  0.00     0.124 S 
ATOM     45  O   UNL A   1      50.861  25.977  26.092  1.00  0.00    -0.237 OA
ATOM     46  O   UNL A   1      51.671  26.043  28.424  1.00  0.00    -0.237 OA
ATOM     47  O   UNL A   1      50.117  24.268  27.709  1.00  0.00    -0.744 OA
ENDBRANCH  43  44
ENDBRANCH  24  38
BRANCH  25  48
ATOM     48  C   UNL A   1      38.054  32.522  30.644  1.00  0.00    -0.014 A 
ATOM     49  C   UNL A   1      37.399  32.190  31.841  1.00  0.00     0.010 A 
ATOM     50  C   UNL A   1      37.464  33.473  29.787  1.00  0.00     0.010 A 
ATOM     51  C   UNL A   1      36.186  32.802  32.179  1.00  0.00     0.020 A 
ATOM     52  C   UNL A   1      36.266  34.106  30.133  1.00  0.00     0.020 A 
ATOM     53  C   UNL A   1      35.632  33.764  31.327  1.00  0.00     0.054 A 
BRANCH  53  54
ATOM     54  S   UNL A   1      34.101  34.600  31.826  1.00  0.00     0.124 S 
ATOM     55  O   UNL A   1      34.607  35.823  32.442  1.00  0.00    -0.237 OA
ATOM     56  O   UNL A   1      33.409  34.774  30.550  1.00  0.00    -0.237 OA
ATOM     57  O   UNL A   1      33.472  33.652  32.742  1.00  0.00    -0.744 OA
ENDBRANCH  53  54
ENDBRANCH  25  48
BRANCH  37  58
ATOM     58  C   UNL A   1      44.732  34.234  31.941  1.00  0.00    -0.014 A 
ATOM     59  C   UNL A   1      45.073  34.212  33.303  1.00  0.00     0.010 A 
ATOM     60  C   UNL A   1      45.108  35.333  31.147  1.00  0.00     0.010 A 
ATOM     61  C   UNL A   1      45.782  35.278  33.862  1.00  0.00     0.020 A 
ATOM     62  C   UNL A   1      45.843  36.383  31.695  1.00  0.00     0.020 A 
ATOM     63  C   UNL A   1      46.172  36.349  33.051  1.00  0.00     0.054 A 
BRANCH  63  64
ATOM     64  S   UNL A   1      47.181  37.667  33.777  1.00  0.00     0.124 S 
ATOM     65  O   UNL A   1      48.178  36.908  34.528  1.00  0.00    -0.237 OA
ATOM     66  O   UNL A   1      47.682  38.371  32.598  1.00  0.00    -0.237 OA
ATOM     67  O   UNL A   1      46.231  38.424  34.590  1.00  0.00    -0.744 OA
ENDBRANCH  63  64
ENDBRANCH  37  58
ENDBRANCH  11  12
ENDBRANCH   4   6
ENDBRANCH   3   4
ENDBRANCH   2   3
ENDBRANCH   1   2
BRANCH   1  68
ATOM     68  O   UNL A   1      35.151  21.569  25.443  1.00  0.00    -0.374 OA
BRANCH  68  69
ATOM     69  C   UNL A   1      34.733  21.811  26.791  1.00  0.00     0.202 C 
BRANCH  69  70
ATOM     70  C   UNL A   1      33.281  21.363  26.963  1.00  0.00     0.261 C 
BRANCH  70  71
ATOM     71  O   UNL A   1      32.473  22.112  26.043  1.00  0.00    -0.460 OA
BRANCH  71  72
ATOM     72  C   UNL A   1      31.953  23.251  26.560  1.00  0.00     0.338 C 
ATOM     73  O   UNL A   1      31.378  23.403  27.625  1.00  0.00    -0.246 OA
BRANCH  72  74
ATOM     74  C   UNL A   1      32.367  24.372  25.697  1.00  0.00     0.067 A 
ATOM     75  C   UNL A   1      32.716  25.586  26.307  1.00  0.00     0.025 A 
ATOM     76  C   UNL A   1      32.388  24.240  24.310  1.00  0.00     0.101 A 
ATOM     77  C   UNL A   1      33.094  26.693  25.538  1.00  0.00    -0.011 A 
ATOM     78  C   UNL A   1      32.737  25.350  23.538  1.00  0.00     0.270 A 
ATOM     79  C   UNL A   1      33.106  26.565  24.140  1.00  0.00     0.094 A 
BRANCH  77  80
ATOM     80  C   UNL A   1      33.296  27.995  26.176  1.00  0.00    -0.018 A 
ATOM     81  C   UNL A   1      32.251  28.890  26.439  1.00  0.00     0.009 A 
ATOM     82  C   UNL A   1      34.605  28.377  26.505  1.00  0.00     0.009 A 
ATOM     83  C   UNL A   1      32.516  30.138  27.023  1.00  0.00     0.014 A 
ATOM     84  C   UNL A   1      34.871  29.616  27.084  1.00  0.00     0.014 A 
ATOM     85  C   UNL A   1      33.830  30.512  27.352  1.00  0.00     0.056 A 
BRANCH  85  86
ATOM     86  C   UNL A   1      34.120  31.855  27.978  1.00  0.00     0.416 C 
ATOM     87  F   UNL A   1      35.275  32.411  27.522  1.00  0.00    -0.166 F 
ATOM     88  F   UNL A   1      33.138  32.767  27.728  1.00  0.00    -0.166 F 
ATOM     89  F   UNL A   1      34.238  31.806  29.335  1.00  0.00    -0.166 F 
ENDBRANCH  85  86
ENDBRANCH  77  80
BRANCH  78  90
ATOM     90  N   UNL A   1      32.633  25.263  22.079  1.00  0.00     0.062 N 
ATOM     91  O   UNL A   1      31.814  26.005  21.517  1.00  0.00    -0.258 OA
ATOM     92  O   UNL A   1      33.354  24.442  21.497  1.00  0.00    -0.258 OA
ENDBRANCH  78  90
ENDBRANCH  72  74
ENDBRANCH  71  72
ENDBRANCH  70  71
ENDBRANCH  69  70
ENDBRANCH  68  69
ENDBRANCH   1  68
TORSDOF 20
ENDMDL
MODEL 3
REMARK VINA RESULT:     -10.2      4.299      9.579
REMARK SMILES O=C(OCCOCCOC(=O)c1cc(-c2ccc(C(F)(F)F)cc2)cc([N+](=O)[O-])c1)c1ccc(-c2c3nc(c(-c4ccc(S(=O)(=O)[O-])cc4)c4ccc([nH]4)c(-c4ccc(S(=O)(=O)[O-])cc4)c4nc(c(-c5ccc(S(=O)(=O)[O-])cc5)c5ccc2[nH]5)C=C4)C=C3)cc1
REMARK SMILES IDX 5 1 4 2 3 3 2 4 1 5 31 6 32 7 90 8 33 9 89 10 34 11 35 12
REMARK SMILES IDX 36 13 83 14 37 15 88 16 82 17 84 18 38 19 87 20 81 21 80 22
REMARK SMILES IDX 39 24 69 25 50 26 68 27 51 28 54 29 67 30 85 31 52 32 53 33
REMARK SMILES IDX 66 35 86 36 55 37 40 38 41 39 49 40 42 41 48 42 43 43 44 44
REMARK SMILES IDX 45 45 46 46 47 47 70 48 71 49 79 50 72 51 78 52 73 53 74 54
REMARK SMILES IDX 75 55 76 56 77 57 56 58 57 59 65 60 58 61 64 62 59 63 60 64
REMARK SMILES IDX 61 65 62 66 63 67 6 68 7 69 8 70 9 71 10 72 11 73 12 74
REMARK SMILES IDX 13 75 30 76 14 77 26 78 25 79 15 80 16 81 24 82 17 83 23 84
REMARK SMILES IDX 18 85 19 86 20 87 21 88 22 89 27 90 28 91 29 92
REMARK H PARENT 84 23 54 34
REMARK Flexibility Score: inf
ROOT
ATOM      1  C   UNL A   1      35.796  21.589  25.332  1.00  0.00     0.202 C 
ENDROOT
BRANCH   1   2
ATOM      2  C   UNL A   1      36.423  22.905  25.801  1.00  0.00     0.261 C 
BRANCH   2   3
ATOM      3  O   UNL A   1      37.784  22.995  25.356  1.00  0.00    -0.460 OA
BRANCH   3   4
ATOM      4  C   UNL A   1      38.901  23.024  26.119  1.00  0.00     0.338 C 
ATOM      5  O   UNL A   1      39.531  21.979  26.273  1.00  0.00    -0.246 OA
BRANCH   4   6
ATOM      6  C   UNL A   1      39.423  24.259  26.779  1.00  0.00     0.060 A 
ATOM      7  C   UNL A   1      40.173  25.256  26.147  1.00  0.00     0.016 A 
ATOM      8  C   UNL A   1      39.034  24.469  28.109  1.00  0.00     0.016 A 
ATOM      9  C   UNL A   1      40.549  26.414  26.800  1.00  0.00     0.010 A 
ATOM     10  C   UNL A   1      39.400  25.637  28.779  1.00  0.00     0.010 A 
ATOM     11  C   UNL A   1      40.165  26.603  28.118  1.00  0.00    -0.014 A 
BRANCH  11  12
ATOM     12  C   UNL A   1      40.733  27.750  28.829  1.00  0.00     0.031 A 
ATOM     13  C   UNL A   1      39.834  28.915  29.072  1.00  0.00     0.074 A 
ATOM     14  C   UNL A   1      41.982  27.681  29.315  1.00  0.00     0.049 A 
ATOM     15  N   UNL A   1      40.121  30.092  29.547  1.00  0.00    -0.248 NA
ATOM     16  C   UNL A   1      38.412  28.722  28.735  1.00  0.00     0.031 C 
ATOM     17  C   UNL A   1      42.850  26.501  29.252  1.00  0.00     0.029 A 
ATOM     18  N   UNL A   1      42.734  28.618  29.965  1.00  0.00    -0.354 N 
ATOM     19  C   UNL A   1      38.927  30.800  29.516  1.00  0.00     0.074 A 
ATOM     20  C   UNL A   1      37.913  29.921  28.984  1.00  0.00     0.031 C 
ATOM     21  C   UNL A   1      44.027  26.795  29.827  1.00  0.00     0.029 A 
ATOM     22  C   UNL A   1      44.016  28.198  30.224  1.00  0.00     0.049 A 
ATOM     23  H   UNL A   1      42.392  29.504  30.222  1.00  0.00     0.167 HD
ATOM     24  C   UNL A   1      38.721  32.086  29.878  1.00  0.00     0.031 A 
ATOM     25  C   UNL A   1      45.073  28.902  30.671  1.00  0.00     0.031 A 
ATOM     26  C   UNL A   1      39.782  32.921  30.369  1.00  0.00     0.049 A 
ATOM     27  C   UNL A   1      44.854  30.360  30.967  1.00  0.00     0.074 A 
ATOM     28  C   UNL A   1      39.744  34.255  30.717  1.00  0.00     0.029 A 
ATOM     29  N   UNL A   1      41.087  32.484  30.571  1.00  0.00    -0.354 N 
ATOM     30  N   UNL A   1      43.746  31.060  30.865  1.00  0.00    -0.248 NA
ATOM     31  C   UNL A   1      46.014  31.128  31.432  1.00  0.00     0.031 C 
ATOM     32  C   UNL A   1      41.042  34.640  31.070  1.00  0.00     0.029 A 
ATOM     33  C   UNL A   1      41.871  33.526  31.021  1.00  0.00     0.049 A 
ATOM     34  H   UNL A   1      41.405  31.565  30.415  1.00  0.00     0.167 HD
ATOM     35  C   UNL A   1      44.065  32.346  31.281  1.00  0.00     0.074 A 
ATOM     36  C   UNL A   1      45.473  32.323  31.635  1.00  0.00     0.031 C 
ATOM     37  C   UNL A   1      43.271  33.442  31.372  1.00  0.00     0.031 A 
BRANCH  24  38
ATOM     38  C   UNL A   1      37.351  32.652  29.629  1.00  0.00    -0.014 A 
ATOM     39  C   UNL A   1      36.950  33.108  28.359  1.00  0.00     0.010 A 
ATOM     40  C   UNL A   1      36.469  32.804  30.716  1.00  0.00     0.010 A 
ATOM     41  C   UNL A   1      35.727  33.768  28.197  1.00  0.00     0.020 A 
ATOM     42  C   UNL A   1      35.232  33.432  30.551  1.00  0.00     0.020 A 
ATOM     43  C   UNL A   1      34.882  33.936  29.297  1.00  0.00     0.054 A 
BRANCH  43  44
ATOM     44  S   UNL A   1      33.320  34.829  29.069  1.00  0.00     0.124 S 
ATOM     45  O   UNL A   1      33.787  36.146  28.641  1.00  0.00    -0.237 OA
ATOM     46  O   UNL A   1      32.646  34.039  28.043  1.00  0.00    -0.237 OA
ATOM     47  O   UNL A   1      32.700  34.789  30.391  1.00  0.00    -0.744 OA
ENDBRANCH  43  44
ENDBRANCH  24  38
BRANCH  25  48
ATOM     48  C   UNL A   1      46.401  28.243  30.790  1.00  0.00    -0.014 A 
ATOM     49  C   UNL A   1      46.755  27.525  31.944  1.00  0.00     0.010 A 
ATOM     50  C   UNL A   1      47.302  28.273  29.707  1.00  0.00     0.010 A 
ATOM     51  C   UNL A   1      47.977  26.846  32.011  1.00  0.00     0.020 A 
ATOM     52  C   UNL A   1      48.512  27.574  29.758  1.00  0.00     0.020 A 
ATOM     53  C   UNL A   1      48.844  26.866  30.913  1.00  0.00     0.054 A 
BRANCH  53  54
ATOM     54  S   UNL A   1      50.385  25.911  30.993  1.00  0.00     0.124 S 
ATOM     55  O   UNL A   1      51.325  26.790  30.305  1.00  0.00    -0.237 OA
ATOM     56  O   UNL A   1      50.590  25.768  32.433  1.00  0.00    -0.237 OA
ATOM     57  O   UNL A   1      50.060  24.671  30.292  1.00  0.00    -0.744 OA
ENDBRANCH  53  54
ENDBRANCH  25  48
BRANCH  37  58
ATOM     58  C   UNL A   1      43.885  34.689  31.939  1.00  0.00    -0.014 A 
ATOM     59  C   UNL A   1      44.424  35.684  31.109  1.00  0.00     0.010 A 
ATOM     60  C   UNL A   1      43.796  34.914  33.326  1.00  0.00     0.010 A 
ATOM     61  C   UNL A   1      44.869  36.888  31.659  1.00  0.00     0.020 A 
ATOM     62  C   UNL A   1      44.208  36.126  33.874  1.00  0.00     0.020 A 
ATOM     63  C   UNL A   1      44.745  37.105  33.036  1.00  0.00     0.054 A 
BRANCH  63  64
ATOM     64  S   UNL A   1      45.231  38.715  33.710  1.00  0.00     0.124 S 
ATOM     65  O   UNL A   1      44.437  39.635  32.900  1.00  0.00    -0.237 OA
ATOM     66  O   UNL A   1      44.832  38.607  35.112  1.00  0.00    -0.237 OA
ATOM     67  O   UNL A   1      46.673  38.767  33.482  1.00  0.00    -0.744 OA
ENDBRANCH  63  64
ENDBRANCH  37  58
ENDBRANCH  11  12
ENDBRANCH   4   6
ENDBRANCH   3   4
ENDBRANCH   2   3
ENDBRANCH   1   2
BRANCH   1  68
ATOM     68  O   UNL A   1      34.400  21.458  25.599  1.00  0.00    -0.374 OA
BRANCH  68  69
ATOM     69  C   UNL A   1      33.955  21.841  26.905  1.00  0.00     0.202 C 
BRANCH  69  70
ATOM     70  C   UNL A   1      32.458  22.150  26.864  1.00  0.00     0.261 C 
BRANCH  70  71
ATOM     71  O   UNL A   1      32.286  23.550  27.132  1.00  0.00    -0.460 OA
BRANCH  71  72
ATOM     72  C   UNL A   1      31.152  24.080  26.614  1.00  0.00     0.338 C 
ATOM     73  O   UNL A   1      30.023  24.043  27.073  1.00  0.00    -0.246 OA
BRANCH  72  74
ATOM     74  C   UNL A   1      31.526  24.908  25.453  1.00  0.00     0.067 A 
ATOM     75  C   UNL A   1      30.853  26.124  25.261  1.00  0.00     0.025 A 
ATOM     76  C   UNL A   1      32.506  24.487  24.556  1.00  0.00     0.101 A 
ATOM     77  C   UNL A   1      31.148  26.942  24.164  1.00  0.00    -0.011 A 
ATOM     78  C   UNL A   1      32.783  25.287  23.446  1.00  0.00     0.270 A 
ATOM     79  C   UNL A   1      32.127  26.515  23.254  1.00  0.00     0.094 A 
BRANCH  77  80
ATOM     80  C   UNL A   1      30.327  28.122  23.887  1.00  0.00    -0.018 A 
ATOM     81  C   UNL A   1      29.129  28.070  23.162  1.00  0.00     0.009 A 
ATOM     82  C   UNL A   1      30.783  29.370  24.339  1.00  0.00     0.009 A 
ATOM     83  C   UNL A   1      28.405  29.243  22.902  1.00  0.00     0.014 A 
ATOM     84  C   UNL A   1      30.067  30.537  24.080  1.00  0.00     0.014 A 
ATOM     85  C   UNL A   1      28.868  30.488  23.360  1.00  0.00     0.056 A 
BRANCH  85  86
ATOM     86  C   UNL A   1      28.093  31.754  23.079  1.00  0.00     0.416 C 
ATOM     87  F   UNL A   1      27.732  31.871  21.773  1.00  0.00    -0.166 F 
ATOM     88  F   UNL A   1      26.938  31.826  23.799  1.00  0.00    -0.166 F 
ATOM     89  F   UNL A   1      28.784  32.889  23.380  1.00  0.00    -0.166 F 
ENDBRANCH  85  86
ENDBRANCH  77  80
BRANCH  78  90
ATOM     90  N   UNL A   1      33.712  24.792  22.426  1.00  0.00     0.062 N 
ATOM     91  O   UNL A   1      34.641  24.061  22.801  1.00  0.00    -0.258 OA
ATOM     92  O   UNL A   1      33.526  25.149  21.255  1.00  0.00    -0.258 OA
ENDBRANCH  78  90
ENDBRANCH  72  74
ENDBRANCH  71  72
ENDBRANCH  70  71
ENDBRANCH  69  70
ENDBRANCH  68  69
ENDBRANCH   1  68
TORSDOF 20
ENDMDL
