MODEL 1
REMARK VINA RESULT:      -9.1      0.000      0.000
REMARK SMILES [NH3+][C@H](CSCc1ccco1)C(=O)OCCOCCOC(=O)c1ccc(-c2c3nc(c(-c4ccc(S(=O)(=O)[O-])cc4)c4ccc([nH]4)c(-c4ccc(S(=O)(=O)[O-])cc4)c4nc(c(-c5ccc(S(=O)(=O)[O-])cc5)c5ccc2[nH]5)C=C4)C=C3)cc1
REMARK SMILES IDX 15 1 14 2 13 3 11 4 12 5 2 6 1 7 3 11 4 12 5 13 6 14 7 15
REMARK SMILES IDX 10 16 8 17 9 18 16 19 17 20 18 21 19 22 20 23 21 24 22 25
REMARK SMILES IDX 23 26 81 27 24 28 80 29 25 30 26 31 27 32 74 33 28 34 79 35
REMARK SMILES IDX 73 36 75 37 29 38 78 39 72 40 71 41 30 43 60 44 41 45 59 46
REMARK SMILES IDX 42 47 45 48 58 49 76 50 43 51 44 52 57 54 77 55 46 56 31 57
REMARK SMILES IDX 32 58 40 59 33 60 39 61 34 62 35 63 36 64 37 65 38 66 61 67
REMARK SMILES IDX 62 68 70 69 63 70 69 71 64 72 65 73 66 74 67 75 68 76 47 77
REMARK SMILES IDX 48 78 56 79 49 80 55 81 50 82 51 83 52 84 53 85 54 86
REMARK H PARENT 1 8 1 9 1 10 75 42 45 53
REMARK Flexibility Score: inf
ROOT
ATOM      1  C   UNL A   1      33.372  25.786  25.822  1.00  0.00     0.202 C 
ENDROOT
BRANCH   1   2
ATOM      2  C   UNL A   1      32.377  26.846  26.446  1.00  0.00     0.261 C 
BRANCH   2   3
ATOM      3  O   UNL A   1      31.106  26.933  25.854  1.00  0.00    -0.459 OA
BRANCH   3   4
ATOM      4  C   UNL A   1      31.090  27.739  24.790  1.00  0.00     0.365 C 
ATOM      5  O   UNL A   1      30.297  27.638  23.847  1.00  0.00    -0.245 OA
BRANCH   4   6
ATOM      6  C   UNL A   1      32.126  28.820  24.964  1.00  0.00     0.301 C 
BRANCH   6   7
ATOM      7  N   UNL A   1      31.541  29.949  25.719  1.00  0.00    -0.345 N 
ATOM      8  H   UNL A   1      30.795  29.603  26.323  1.00  0.00     0.345 HD
ATOM      9  H   UNL A   1      31.159  30.633  25.065  1.00  0.00     0.345 HD
ATOM     10  H   UNL A   1      32.263  30.388  26.288  1.00  0.00     0.345 HD
ENDBRANCH   6   7
BRANCH   6  11
ATOM     11  C   UNL A   1      32.944  29.216  23.665  1.00  0.00     0.147 C 
BRANCH  11  12
ATOM     12  S   UNL A   1      33.880  28.105  22.352  1.00  0.00    -0.147 SA
BRANCH  12  13
ATOM     13  C   UNL A   1      32.960  26.469  21.889  1.00  0.00     0.145 C 
BRANCH  13  14
ATOM     14  C   UNL A   1      32.625  25.010  22.444  1.00  0.00     0.113 A 
ATOM     15  C   UNL A   1      31.631  24.204  23.020  1.00  0.00     0.046 A 
ATOM     16  O   UNL A   1      33.738  24.181  22.430  1.00  0.00    -0.468 OA
ATOM     17  C   UNL A   1      32.066  22.837  22.980  1.00  0.00     0.042 A 
ATOM     18  C   UNL A   1      33.380  22.892  22.625  1.00  0.00     0.195 A 
ENDBRANCH  13  14
ENDBRANCH  12  13
ENDBRANCH  11  12
ENDBRANCH   6  11
ENDBRANCH   4   6
ENDBRANCH   3   4
ENDBRANCH   2   3
ENDBRANCH   1   2
BRANCH   1  19
ATOM     19  O   UNL A   1      33.762  24.432  26.181  1.00  0.00    -0.374 OA
BRANCH  19  20
ATOM     20  C   UNL A   1      34.828  23.464  26.297  1.00  0.00     0.202 C 
BRANCH  20  21
ATOM     21  C   UNL A   1      35.973  22.679  25.268  1.00  0.00     0.261 C 
BRANCH  21  22
ATOM     22  O   UNL A   1      37.394  23.150  25.140  1.00  0.00    -0.460 OA
BRANCH  22  23
ATOM     23  C   UNL A   1      38.505  22.863  25.910  1.00  0.00     0.338 C 
ATOM     24  O   UNL A   1      39.010  21.753  25.993  1.00  0.00    -0.246 OA
BRANCH  23  25
ATOM     25  C   UNL A   1      39.140  24.097  26.622  1.00  0.00     0.060 A 
ATOM     26  C   UNL A   1      40.094  24.973  26.044  1.00  0.00     0.016 A 
ATOM     27  C   UNL A   1      38.817  24.370  27.951  1.00  0.00     0.016 A 
ATOM     28  C   UNL A   1      40.532  26.174  26.664  1.00  0.00     0.010 A 
ATOM     29  C   UNL A   1      39.314  25.527  28.609  1.00  0.00     0.010 A 
ATOM     30  C   UNL A   1      40.140  26.470  27.966  1.00  0.00    -0.014 A 
BRANCH  30  31
ATOM     31  C   UNL A   1      40.639  27.653  28.742  1.00  0.00     0.031 A 
ATOM     32  C   UNL A   1      41.841  27.473  29.634  1.00  0.00     0.074 A 
ATOM     33  C   UNL A   1      39.946  28.811  28.794  1.00  0.00     0.049 A 
ATOM     34  N   UNL A   1      42.208  28.153  30.688  1.00  0.00    -0.248 NA
ATOM     35  C   UNL A   1      42.737  26.356  29.298  1.00  0.00     0.031 C 
ATOM     36  C   UNL A   1      38.830  29.171  27.921  1.00  0.00     0.029 A 
ATOM     37  N   UNL A   1      40.039  29.878  29.667  1.00  0.00    -0.354 N 
ATOM     38  C   UNL A   1      43.336  27.504  31.185  1.00  0.00     0.074 A 
ATOM     39  C   UNL A   1      43.612  26.398  30.294  1.00  0.00     0.031 C 
ATOM     40  C   UNL A   1      38.289  30.326  28.350  1.00  0.00     0.029 A 
ATOM     41  C   UNL A   1      38.977  30.757  29.567  1.00  0.00     0.049 A 
ATOM     42  H   UNL A   1      40.785  29.999  30.298  1.00  0.00     0.167 HD
ATOM     43  C   UNL A   1      44.047  27.785  32.305  1.00  0.00     0.031 A 
ATOM     44  C   UNL A   1      38.557  31.737  30.398  1.00  0.00     0.031 A 
ATOM     45  C   UNL A   1      43.753  28.891  33.179  1.00  0.00     0.049 A 
ATOM     46  C   UNL A   1      39.317  31.987  31.682  1.00  0.00     0.074 A 
ATOM     47  C   UNL A   1      44.433  29.291  34.318  1.00  0.00     0.029 A 
ATOM     48  N   UNL A   1      42.689  29.764  33.020  1.00  0.00    -0.354 N 
ATOM     49  N   UNL A   1      40.385  31.376  32.139  1.00  0.00    -0.248 NA
ATOM     50  C   UNL A   1      38.810  33.048  32.567  1.00  0.00     0.031 C 
ATOM     51  C   UNL A   1      43.736  30.362  34.885  1.00  0.00     0.029 A 
ATOM     52  C   UNL A   1      42.665  30.674  34.062  1.00  0.00     0.049 A 
ATOM     53  H   UNL A   1      42.045  29.740  32.277  1.00  0.00     0.167 HD
ATOM     54  C   UNL A   1      40.687  31.991  33.351  1.00  0.00     0.074 A 
ATOM     55  C   UNL A   1      39.705  33.037  33.546  1.00  0.00     0.031 C 
ATOM     56  C   UNL A   1      41.682  31.714  34.230  1.00  0.00     0.031 A 
BRANCH  43  57
ATOM     57  C   UNL A   1      45.173  26.861  32.697  1.00  0.00    -0.014 A 
ATOM     58  C   UNL A   1      46.498  27.098  32.296  1.00  0.00     0.010 A 
ATOM     59  C   UNL A   1      44.909  25.788  33.572  1.00  0.00     0.010 A 
ATOM     60  C   UNL A   1      47.535  26.277  32.754  1.00  0.00     0.020 A 
ATOM     61  C   UNL A   1      45.943  24.980  34.051  1.00  0.00     0.020 A 
ATOM     62  C   UNL A   1      47.252  25.227  33.635  1.00  0.00     0.054 A 
BRANCH  62  63
ATOM     63  S   UNL A   1      48.628  24.229  34.272  1.00  0.00     0.124 S 
ATOM     64  O   UNL A   1      49.035  24.989  35.452  1.00  0.00    -0.237 OA
ATOM     65  O   UNL A   1      47.988  22.944  34.544  1.00  0.00    -0.237 OA
ATOM     66  O   UNL A   1      49.592  24.221  33.174  1.00  0.00    -0.744 OA
ENDBRANCH  62  63
ENDBRANCH  43  57
BRANCH  44  67
ATOM     67  C   UNL A   1      37.301  32.499  30.111  1.00  0.00    -0.014 A 
ATOM     68  C   UNL A   1      36.074  32.114  30.683  1.00  0.00     0.010 A 
ATOM     69  C   UNL A   1      37.315  33.594  29.227  1.00  0.00     0.010 A 
ATOM     70  C   UNL A   1      34.890  32.791  30.361  1.00  0.00     0.020 A 
ATOM     71  C   UNL A   1      36.141  34.296  28.928  1.00  0.00     0.020 A 
ATOM     72  C   UNL A   1      34.932  33.880  29.485  1.00  0.00     0.054 A 
BRANCH  72  73
ATOM     73  S   UNL A   1      33.390  34.763  29.108  1.00  0.00     0.124 S 
ATOM     74  O   UNL A   1      33.886  36.030  28.582  1.00  0.00    -0.237 OA
ATOM     75  O   UNL A   1      32.751  33.881  28.136  1.00  0.00    -0.237 OA
ATOM     76  O   UNL A   1      32.717  34.843  30.404  1.00  0.00    -0.744 OA
ENDBRANCH  72  73
ENDBRANCH  44  67
BRANCH  56  77
ATOM     77  C   UNL A   1      41.786  32.572  35.462  1.00  0.00    -0.014 A 
ATOM     78  C   UNL A   1      41.154  32.202  36.662  1.00  0.00     0.010 A 
ATOM     79  C   UNL A   1      42.591  33.726  35.439  1.00  0.00     0.010 A 
ATOM     80  C   UNL A   1      41.310  32.980  37.812  1.00  0.00     0.020 A 
ATOM     81  C   UNL A   1      42.775  34.489  36.593  1.00  0.00     0.020 A 
ATOM     82  C   UNL A   1      42.124  34.117  37.772  1.00  0.00     0.054 A 
BRANCH  82  83
ATOM     83  S   UNL A   1      42.362  35.073  39.294  1.00  0.00     0.124 S 
ATOM     84  O   UNL A   1      41.199  34.679  40.085  1.00  0.00    -0.237 OA
ATOM     85  O   UNL A   1      43.648  34.583  39.782  1.00  0.00    -0.237 OA
ATOM     86  O   UNL A   1      42.362  36.461  38.838  1.00  0.00    -0.744 OA
ENDBRANCH  82  83
ENDBRANCH  56  77
ENDBRANCH  30  31
ENDBRANCH  23  25
ENDBRANCH  22  23
ENDBRANCH  21  22
ENDBRANCH  20  21
ENDBRANCH  19  20
ENDBRANCH   1  19
TORSDOF 22
ENDMDL
MODEL 2
REMARK VINA RESULT:      -9.1      5.818     10.539
REMARK SMILES [NH3+][C@H](CSCc1ccco1)C(=O)OCCOCCOC(=O)c1ccc(-c2c3nc(c(-c4ccc(S(=O)(=O)[O-])cc4)c4ccc([nH]4)c(-c4ccc(S(=O)(=O)[O-])cc4)c4nc(c(-c5ccc(S(=O)(=O)[O-])cc5)c5ccc2[nH]5)C=C4)C=C3)cc1
REMARK SMILES IDX 15 1 14 2 13 3 11 4 12 5 2 6 1 7 3 11 4 12 5 13 6 14 7 15
REMARK SMILES IDX 10 16 8 17 9 18 16 19 17 20 18 21 19 22 20 23 21 24 22 25
REMARK SMILES IDX 23 26 81 27 24 28 80 29 25 30 26 31 27 32 74 33 28 34 79 35
REMARK SMILES IDX 73 36 75 37 29 38 78 39 72 40 71 41 30 43 60 44 41 45 59 46
REMARK SMILES IDX 42 47 45 48 58 49 76 50 43 51 44 52 57 54 77 55 46 56 31 57
REMARK SMILES IDX 32 58 40 59 33 60 39 61 34 62 35 63 36 64 37 65 38 66 61 67
REMARK SMILES IDX 62 68 70 69 63 70 69 71 64 72 65 73 66 74 67 75 68 76 47 77
REMARK SMILES IDX 48 78 56 79 49 80 55 81 50 82 51 83 52 84 53 85 54 86
REMARK H PARENT 1 8 1 9 1 10 75 42 45 53
REMARK Flexibility Score: inf
ROOT
ATOM      1  C   UNL A   1      34.376  32.615  28.717  1.00  0.00     0.202 C 
ENDROOT
BRANCH   1   2
ATOM      2  C   UNL A   1      34.118  31.621  27.515  1.00  0.00     0.261 C 
BRANCH   2   3
ATOM      3  O   UNL A   1      33.336  30.489  27.798  1.00  0.00    -0.459 OA
BRANCH   3   4
ATOM      4  C   UNL A   1      32.305  30.354  26.961  1.00  0.00     0.365 C 
ATOM      5  O   UNL A   1      31.781  31.287  26.340  1.00  0.00    -0.245 OA
BRANCH   4   6
ATOM      6  C   UNL A   1      31.945  28.896  26.839  1.00  0.00     0.301 C 
BRANCH   6   7
ATOM      7  N   UNL A   1      32.292  28.195  28.094  1.00  0.00    -0.345 N 
ATOM      8  H   UNL A   1      31.444  28.027  28.635  1.00  0.00     0.345 HD
ATOM      9  H   UNL A   1      32.934  28.771  28.638  1.00  0.00     0.345 HD
ATOM     10  H   UNL A   1      32.736  27.304  27.874  1.00  0.00     0.345 HD
ENDBRANCH   6   7
BRANCH   6  11
ATOM     11  C   UNL A   1      32.402  28.175  25.503  1.00  0.00     0.147 C 
BRANCH  11  12
ATOM     12  S   UNL A   1      32.469  28.823  23.656  1.00  0.00    -0.147 SA
BRANCH  12  13
ATOM     13  C   UNL A   1      30.743  28.981  22.801  1.00  0.00     0.145 C 
BRANCH  13  14
ATOM     14  C   UNL A   1      29.510  29.980  22.624  1.00  0.00     0.113 A 
ATOM     15  C   UNL A   1      28.527  30.718  23.300  1.00  0.00     0.046 A 
ATOM     16  O   UNL A   1      29.206  30.197  21.286  1.00  0.00    -0.468 OA
ATOM     17  C   UNL A   1      27.920  31.633  22.375  1.00  0.00     0.042 A 
ATOM     18  C   UNL A   1      28.367  31.248  21.148  1.00  0.00     0.195 A 
ENDBRANCH  13  14
ENDBRANCH  12  13
ENDBRANCH  11  12
ENDBRANCH   6  11
ENDBRANCH   4   6
ENDBRANCH   3   4
ENDBRANCH   2   3
ENDBRANCH   1   2
BRANCH   1  19
ATOM     19  O   UNL A   1      34.225  32.517  30.160  1.00  0.00    -0.374 OA
BRANCH  19  20
ATOM     20  C   UNL A   1      34.673  32.957  31.462  1.00  0.00     0.202 C 
BRANCH  20  21
ATOM     21  C   UNL A   1      35.806  32.464  32.669  1.00  0.00     0.261 C 
BRANCH  21  22
ATOM     22  O   UNL A   1      37.138  31.862  32.324  1.00  0.00    -0.460 OA
BRANCH  22  23
ATOM     23  C   UNL A   1      37.513  30.539  32.188  1.00  0.00     0.338 C 
ATOM     24  O   UNL A   1      36.870  29.598  32.632  1.00  0.00    -0.246 OA
BRANCH  23  25
ATOM     25  C   UNL A   1      38.799  30.310  31.337  1.00  0.00     0.060 A 
ATOM     26  C   UNL A   1      40.079  29.990  31.859  1.00  0.00     0.016 A 
ATOM     27  C   UNL A   1      38.751  30.474  29.953  1.00  0.00     0.016 A 
ATOM     28  C   UNL A   1      41.190  29.634  31.048  1.00  0.00     0.010 A 
ATOM     29  C   UNL A   1      39.881  30.199  29.137  1.00  0.00     0.010 A 
ATOM     30  C   UNL A   1      41.102  29.732  29.663  1.00  0.00    -0.014 A 
BRANCH  30  31
ATOM     31  C   UNL A   1      42.252  29.488  28.732  1.00  0.00     0.031 A 
ATOM     32  C   UNL A   1      42.437  28.105  28.163  1.00  0.00     0.074 A 
ATOM     33  C   UNL A   1      43.212  30.419  28.530  1.00  0.00     0.049 A 
ATOM     34  N   UNL A   1      43.518  27.525  27.711  1.00  0.00    -0.248 NA
ATOM     35  C   UNL A   1      41.237  27.255  28.121  1.00  0.00     0.031 C 
ATOM     36  C   UNL A   1      43.127  31.823  28.927  1.00  0.00     0.029 A 
ATOM     37  N   UNL A   1      44.481  30.302  27.996  1.00  0.00    -0.354 N 
ATOM     38  C   UNL A   1      43.147  26.219  27.399  1.00  0.00     0.074 A 
ATOM     39  C   UNL A   1      41.732  26.106  27.680  1.00  0.00     0.031 C 
ATOM     40  C   UNL A   1      44.314  32.417  28.703  1.00  0.00     0.029 A 
ATOM     41  C   UNL A   1      45.264  31.421  28.208  1.00  0.00     0.049 A 
ATOM     42  H   UNL A   1      44.796  29.504  27.515  1.00  0.00     0.167 HD
ATOM     43  C   UNL A   1      43.927  25.202  26.959  1.00  0.00     0.031 A 
ATOM     44  C   UNL A   1      46.600  31.601  28.099  1.00  0.00     0.031 A 
ATOM     45  C   UNL A   1      45.334  25.336  26.687  1.00  0.00     0.049 A 
ATOM     46  C   UNL A   1      47.466  30.434  27.680  1.00  0.00     0.074 A 
ATOM     47  C   UNL A   1      46.212  24.382  26.200  1.00  0.00     0.029 A 
ATOM     48  N   UNL A   1      46.073  26.492  26.890  1.00  0.00    -0.354 N 
ATOM     49  N   UNL A   1      47.106  29.208  27.380  1.00  0.00    -0.248 NA
ATOM     50  C   UNL A   1      48.917  30.669  27.598  1.00  0.00     0.031 C 
ATOM     51  C   UNL A   1      47.493  24.941  26.176  1.00  0.00     0.029 A 
ATOM     52  C   UNL A   1      47.401  26.264  26.581  1.00  0.00     0.049 A 
ATOM     53  H   UNL A   1      45.705  27.348  27.209  1.00  0.00     0.167 HD
ATOM     54  C   UNL A   1      48.281  28.535  27.054  1.00  0.00     0.074 A 
ATOM     55  C   UNL A   1      49.359  29.493  27.171  1.00  0.00     0.031 C 
ATOM     56  C   UNL A   1      48.457  27.238  26.696  1.00  0.00     0.031 A 
BRANCH  43  57
ATOM     57  C   UNL A   1      43.309  23.835  26.796  1.00  0.00    -0.014 A 
ATOM     58  C   UNL A   1      43.076  23.275  25.529  1.00  0.00     0.010 A 
ATOM     59  C   UNL A   1      43.051  23.057  27.942  1.00  0.00     0.010 A 
ATOM     60  C   UNL A   1      42.590  21.967  25.411  1.00  0.00     0.020 A 
ATOM     61  C   UNL A   1      42.588  21.743  27.829  1.00  0.00     0.020 A 
ATOM     62  C   UNL A   1      42.357  21.207  26.562  1.00  0.00     0.054 A 
BRANCH  62  63
ATOM     63  S   UNL A   1      41.801  19.489  26.374  1.00  0.00     0.124 S 
ATOM     64  O   UNL A   1      40.349  19.644  26.319  1.00  0.00    -0.237 OA
ATOM     65  O   UNL A   1      42.435  19.086  25.121  1.00  0.00    -0.237 OA
ATOM     66  O   UNL A   1      42.311  18.823  27.569  1.00  0.00    -0.744 OA
ENDBRANCH  62  63
ENDBRANCH  43  57
BRANCH  44  67
ATOM     67  C   UNL A   1      47.232  32.902  28.485  1.00  0.00    -0.014 A 
ATOM     68  C   UNL A   1      47.646  33.142  29.809  1.00  0.00     0.010 A 
ATOM     69  C   UNL A   1      47.387  33.930  27.536  1.00  0.00     0.010 A 
ATOM     70  C   UNL A   1      48.178  34.384  30.178  1.00  0.00     0.020 A 
ATOM     71  C   UNL A   1      47.951  35.162  27.892  1.00  0.00     0.020 A 
ATOM     72  C   UNL A   1      48.328  35.386  29.216  1.00  0.00     0.054 A 
BRANCH  72  73
ATOM     73  S   UNL A   1      49.051  36.977  29.711  1.00  0.00     0.124 S 
ATOM     74  O   UNL A   1      49.585  36.670  31.034  1.00  0.00    -0.237 OA
ATOM     75  O   UNL A   1      50.044  37.212  28.667  1.00  0.00    -0.237 OA
ATOM     76  O   UNL A   1      47.911  37.892  29.693  1.00  0.00    -0.744 OA
ENDBRANCH  72  73
ENDBRANCH  44  67
BRANCH  56  77
ATOM     77  C   UNL A   1      49.855  26.786  26.370  1.00  0.00    -0.014 A 
ATOM     78  C   UNL A   1      50.670  26.181  27.343  1.00  0.00     0.010 A 
ATOM     79  C   UNL A   1      50.331  26.898  25.050  1.00  0.00     0.010 A 
ATOM     80  C   UNL A   1      51.943  25.714  27.006  1.00  0.00     0.020 A 
ATOM     81  C   UNL A   1      51.590  26.405  24.703  1.00  0.00     0.020 A 
ATOM     82  C   UNL A   1      52.393  25.825  25.686  1.00  0.00     0.054 A 
BRANCH  82  83
ATOM     83  S   UNL A   1      54.023  25.152  25.263  1.00  0.00     0.124 S 
ATOM     84  O   UNL A   1      53.687  23.807  24.804  1.00  0.00    -0.237 OA
ATOM     85  O   UNL A   1      54.489  26.071  24.227  1.00  0.00    -0.237 OA
ATOM     86  O   UNL A   1      54.763  25.213  26.522  1.00  0.00    -0.744 OA
ENDBRANCH  82  83
ENDBRANCH  56  77
ENDBRANCH  30  31
ENDBRANCH  23  25
ENDBRANCH  22  23
ENDBRANCH  21  22
ENDBRANCH  20  21
ENDBRANCH  19  20
ENDBRANCH   1  19
TORSDOF 22
ENDMDL
MODEL 3
REMARK VINA RESULT:      -8.8      5.876      7.413
REMARK SMILES [NH3+][C@H](CSCc1ccco1)C(=O)OCCOCCOC(=O)c1ccc(-c2c3nc(c(-c4ccc(S(=O)(=O)[O-])cc4)c4ccc([nH]4)c(-c4ccc(S(=O)(=O)[O-])cc4)c4nc(c(-c5ccc(S(=O)(=O)[O-])cc5)c5ccc2[nH]5)C=C4)C=C3)cc1
REMARK SMILES IDX 15 1 14 2 13 3 11 4 12 5 2 6 1 7 3 11 4 12 5 13 6 14 7 15
REMARK SMILES IDX 10 16 8 17 9 18 16 19 17 20 18 21 19 22 20 23 21 24 22 25
REMARK SMILES IDX 23 26 81 27 24 28 80 29 25 30 26 31 27 32 74 33 28 34 79 35
REMARK SMILES IDX 73 36 75 37 29 38 78 39 72 40 71 41 30 43 60 44 41 45 59 46
REMARK SMILES IDX 42 47 45 48 58 49 76 50 43 51 44 52 57 54 77 55 46 56 31 57
REMARK SMILES IDX 32 58 40 59 33 60 39 61 34 62 35 63 36 64 37 65 38 66 61 67
REMARK SMILES IDX 62 68 70 69 63 70 69 71 64 72 65 73 66 74 67 75 68 76 47 77
REMARK SMILES IDX 48 78 56 79 49 80 55 81 50 82 51 83 52 84 53 85 54 86
REMARK H PARENT 1 8 1 9 1 10 75 42 45 53
REMARK Flexibility Score: inf
ROOT
ATOM      1  C   UNL A   1      39.470  23.163  26.511  1.00  0.00     0.202 C 
ENDROOT
BRANCH   1   2
ATOM      2  C   UNL A   1      38.133  23.820  25.982  1.00  0.00     0.261 C 
BRANCH   2   3
ATOM      3  O   UNL A   1      36.940  23.369  26.573  1.00  0.00    -0.459 OA
BRANCH   3   4
ATOM      4  C   UNL A   1      35.882  23.523  25.774  1.00  0.00     0.365 C 
ATOM      5  O   UNL A   1      35.676  24.517  25.068  1.00  0.00    -0.245 OA
BRANCH   4   6
ATOM      6  C   UNL A   1      35.039  22.274  25.813  1.00  0.00     0.301 C 
BRANCH   6   7
ATOM      7  N   UNL A   1      35.417  21.387  24.692  1.00  0.00    -0.345 N 
ATOM      8  H   UNL A   1      34.674  21.385  23.994  1.00  0.00     0.345 HD
ATOM      9  H   UNL A   1      35.558  20.439  25.042  1.00  0.00     0.345 HD
ATOM     10  H   UNL A   1      36.281  21.724  24.268  1.00  0.00     0.345 HD
ENDBRANCH   6   7
BRANCH   6  11
ATOM     11  C   UNL A   1      33.482  22.491  26.019  1.00  0.00     0.147 C 
BRANCH  11  12
ATOM     12  S   UNL A   1      31.944  21.613  25.182  1.00  0.00    -0.147 SA
BRANCH  12  13
ATOM     13  C   UNL A   1      32.345  19.907  24.367  1.00  0.00     0.145 C 
BRANCH  13  14
ATOM     14  C   UNL A   1      32.970  18.472  24.685  1.00  0.00     0.113 A 
ATOM     15  C   UNL A   1      32.689  17.178  25.147  1.00  0.00     0.046 A 
ATOM     16  O   UNL A   1      34.347  18.456  24.507  1.00  0.00    -0.468 OA
ATOM     17  C   UNL A   1      33.819  16.336  24.873  1.00  0.00     0.042 A 
ATOM     18  C   UNL A   1      34.815  17.187  24.499  1.00  0.00     0.195 A 
ENDBRANCH  13  14
ENDBRANCH  12  13
ENDBRANCH  11  12
ENDBRANCH   6  11
ENDBRANCH   4   6
ENDBRANCH   3   4
ENDBRANCH   2   3
ENDBRANCH   1   2
BRANCH   1  19
ATOM     19  O   UNL A   1      39.888  21.795  26.779  1.00  0.00    -0.374 OA
BRANCH  19  20
ATOM     20  C   UNL A   1      40.176  20.485  26.244  1.00  0.00     0.202 C 
BRANCH  20  21
ATOM     21  C   UNL A   1      41.424  19.295  26.350  1.00  0.00     0.261 C 
BRANCH  21  22
ATOM     22  O   UNL A   1      42.401  19.053  25.235  1.00  0.00    -0.460 OA
BRANCH  22  23
ATOM     23  C   UNL A   1      43.743  19.370  25.138  1.00  0.00     0.338 C 
ATOM     24  O   UNL A   1      44.630  18.544  24.971  1.00  0.00    -0.246 OA
BRANCH  23  25
ATOM     25  C   UNL A   1      44.056  20.897  25.171  1.00  0.00     0.060 A 
ATOM     26  C   UNL A   1      44.444  21.677  24.051  1.00  0.00     0.016 A 
ATOM     27  C   UNL A   1      44.017  21.585  26.384  1.00  0.00     0.016 A 
ATOM     28  C   UNL A   1      44.568  23.092  24.087  1.00  0.00     0.010 A 
ATOM     29  C   UNL A   1      44.219  22.990  26.443  1.00  0.00     0.010 A 
ATOM     30  C   UNL A   1      44.452  23.772  25.295  1.00  0.00    -0.014 A 
BRANCH  30  31
ATOM     31  C   UNL A   1      44.679  25.247  25.450  1.00  0.00     0.031 A 
ATOM     32  C   UNL A   1      46.094  25.764  25.431  1.00  0.00     0.074 A 
ATOM     33  C   UNL A   1      43.673  26.089  25.775  1.00  0.00     0.049 A 
ATOM     34  N   UNL A   1      46.591  26.858  25.945  1.00  0.00    -0.248 NA
ATOM     35  C   UNL A   1      47.086  24.913  24.753  1.00  0.00     0.031 C 
ATOM     36  C   UNL A   1      42.248  25.762  25.736  1.00  0.00     0.029 A 
ATOM     37  N   UNL A   1      43.703  27.378  26.270  1.00  0.00    -0.354 N 
ATOM     38  C   UNL A   1      47.964  26.794  25.719  1.00  0.00     0.074 A 
ATOM     39  C   UNL A   1      48.214  25.570  24.989  1.00  0.00     0.031 C 
ATOM     40  C   UNL A   1      41.547  26.784  26.263  1.00  0.00     0.029 A 
ATOM     41  C   UNL A   1      42.475  27.810  26.737  1.00  0.00     0.049 A 
ATOM     42  H   UNL A   1      44.515  27.934  26.290  1.00  0.00     0.167 HD
ATOM     43  C   UNL A   1      48.927  27.659  26.122  1.00  0.00     0.031 A 
ATOM     44  C   UNL A   1      42.146  28.859  27.524  1.00  0.00     0.031 A 
ATOM     45  C   UNL A   1      48.656  28.872  26.850  1.00  0.00     0.049 A 
ATOM     46  C   UNL A   1      43.242  29.771  28.029  1.00  0.00     0.074 A 
ATOM     47  C   UNL A   1      49.552  29.840  27.273  1.00  0.00     0.029 A 
ATOM     48  N   UNL A   1      47.400  29.276  27.273  1.00  0.00    -0.354 N 
ATOM     49  N   UNL A   1      44.534  29.708  27.804  1.00  0.00    -0.248 NA
ATOM     50  C   UNL A   1      42.840  30.886  28.902  1.00  0.00     0.031 C 
ATOM     51  C   UNL A   1      48.845  30.792  28.012  1.00  0.00     0.029 A 
ATOM     52  C   UNL A   1      47.500  30.455  27.990  1.00  0.00     0.049 A 
ATOM     53  H   UNL A   1      46.561  28.795  27.091  1.00  0.00     0.167 HD
ATOM     54  C   UNL A   1      45.093  30.784  28.489  1.00  0.00     0.074 A 
ATOM     55  C   UNL A   1      43.999  31.495  29.118  1.00  0.00     0.031 C 
ATOM     56  C   UNL A   1      46.394  31.150  28.598  1.00  0.00     0.031 A 
BRANCH  43  57
ATOM     57  C   UNL A   1      50.370  27.313  25.848  1.00  0.00    -0.014 A 
ATOM     58  C   UNL A   1      51.159  26.633  26.792  1.00  0.00     0.010 A 
ATOM     59  C   UNL A   1      50.913  27.587  24.577  1.00  0.00     0.010 A 
ATOM     60  C   UNL A   1      52.465  26.243  26.473  1.00  0.00     0.020 A 
ATOM     61  C   UNL A   1      52.208  27.177  24.246  1.00  0.00     0.020 A 
ATOM     62  C   UNL A   1      52.979  26.510  25.199  1.00  0.00     0.054 A 
BRANCH  62  63
ATOM     63  S   UNL A   1      54.647  25.922  24.791  1.00  0.00     0.124 S 
ATOM     64  O   UNL A   1      55.460  26.582  25.810  1.00  0.00    -0.237 OA
ATOM     65  O   UNL A   1      54.516  24.473  24.935  1.00  0.00    -0.237 OA
ATOM     66  O   UNL A   1      54.859  26.392  23.424  1.00  0.00    -0.744 OA
ENDBRANCH  62  63
ENDBRANCH  43  57
BRANCH  44  67
ATOM     67  C   UNL A   1      40.734  29.062  27.979  1.00  0.00    -0.014 A 
ATOM     68  C   UNL A   1      39.726  29.431  27.070  1.00  0.00     0.010 A 
ATOM     69  C   UNL A   1      40.396  28.930  29.340  1.00  0.00     0.010 A 
ATOM     70  C   UNL A   1      38.420  29.683  27.512  1.00  0.00     0.020 A 
ATOM     71  C   UNL A   1      39.085  29.146  29.782  1.00  0.00     0.020 A 
ATOM     72  C   UNL A   1      38.108  29.538  28.867  1.00  0.00     0.054 A 
BRANCH  72  73
ATOM     73  S   UNL A   1      36.402  29.837  29.411  1.00  0.00     0.124 S 
ATOM     74  O   UNL A   1      36.355  29.113  30.677  1.00  0.00    -0.237 OA
ATOM     75  O   UNL A   1      36.354  31.293  29.513  1.00  0.00    -0.237 OA
ATOM     76  O   UNL A   1      35.594  29.268  28.334  1.00  0.00    -0.744 OA
ENDBRANCH  72  73
ENDBRANCH  44  67
BRANCH  56  77
ATOM     77  C   UNL A   1      46.708  32.390  29.391  1.00  0.00    -0.014 A 
ATOM     78  C   UNL A   1      46.699  33.661  28.790  1.00  0.00     0.010 A 
ATOM     79  C   UNL A   1      46.940  32.288  30.776  1.00  0.00     0.010 A 
ATOM     80  C   UNL A   1      46.935  34.806  29.555  1.00  0.00     0.020 A 
ATOM     81  C   UNL A   1      47.146  33.432  31.549  1.00  0.00     0.020 A 
ATOM     82  C   UNL A   1      47.152  34.685  30.932  1.00  0.00     0.054 A 
BRANCH  82  83
ATOM     83  S   UNL A   1      47.391  36.191  31.912  1.00  0.00     0.124 S 
ATOM     84  O   UNL A   1      46.631  35.890  33.123  1.00  0.00    -0.237 OA
ATOM     85  O   UNL A   1      48.841  36.239  32.076  1.00  0.00    -0.237 OA
ATOM     86  O   UNL A   1      46.829  37.247  31.071  1.00  0.00    -0.744 OA
ENDBRANCH  82  83
ENDBRANCH  56  77
ENDBRANCH  30  31
ENDBRANCH  23  25
ENDBRANCH  22  23
ENDBRANCH  21  22
ENDBRANCH  20  21
ENDBRANCH  19  20
ENDBRANCH   1  19
TORSDOF 22
ENDMDL
