MODEL 1
REMARK VINA RESULT:      -8.5      0.000      0.000
REMARK SMILES C[C@H](CC(=O)OCCOCCOC(=O)c1ccc(-c2c3nc(c(-c4ccc(S(=O)(=O)[O-])cc4)c4ccc([nH]4)c(-c4ccc(S(=O)(=O)[O-])cc4)c4nc(c(-c5ccc(S(=O)(=O)[O-])cc5)c5ccc2[nH]5)C=C4)C=C3)cc1)[NH2+][C@H](C)c1ccccc1
REMARK SMILES IDX 8 1 7 2 6 3 4 4 5 5 3 6 2 7 1 8 75 9 76 12 77 13 78 14 79 15
REMARK SMILES IDX 83 16 80 17 82 18 81 19 9 20 10 21 11 22 12 23 13 24 14 25
REMARK SMILES IDX 15 26 16 27 74 28 17 29 73 30 18 31 19 32 20 33 67 34 21 35
REMARK SMILES IDX 72 36 66 37 68 38 22 39 71 40 65 41 64 42 23 44 53 45 34 46
REMARK SMILES IDX 52 47 35 48 38 49 51 50 69 51 36 52 37 53 50 55 70 56 39 57
REMARK SMILES IDX 24 58 25 59 33 60 26 61 32 62 27 63 28 64 29 65 30 66 31 67
REMARK SMILES IDX 54 68 55 69 63 70 56 71 62 72 57 73 58 74 59 75 60 76 61 77
REMARK SMILES IDX 40 78 41 79 49 80 42 81 48 82 43 83 44 84 45 85 46 86 47 87
REMARK H PARENT 75 10 75 11 68 43 38 54
REMARK Flexibility Score: inf
ROOT
ATOM      1  C   UNL A   1      43.700  21.339  25.291  1.00  0.00     0.202 C 
ENDROOT
BRANCH   1   2
ATOM      2  C   UNL A   1      45.214  21.245  25.062  1.00  0.00     0.261 C 
BRANCH   2   3
ATOM      3  O   UNL A   1      46.025  21.826  26.105  1.00  0.00    -0.463 OA
BRANCH   3   4
ATOM      4  C   UNL A   1      45.713  23.109  26.449  1.00  0.00     0.311 C 
ATOM      5  O   UNL A   1      45.008  23.423  27.403  1.00  0.00    -0.252 OA
BRANCH   4   6
ATOM      6  C   UNL A   1      46.242  24.130  25.470  1.00  0.00     0.187 C 
BRANCH   6   7
ATOM      7  C   UNL A   1      46.959  25.388  25.999  1.00  0.00     0.190 C 
ATOM      8  C   UNL A   1      47.433  26.290  24.859  1.00  0.00     0.076 C 
BRANCH   7   9
ATOM      9  N   UNL A   1      46.159  26.047  27.024  1.00  0.00    -0.338 N 
ATOM     10  H   UNL A   1      46.682  25.954  27.895  1.00  0.00     0.347 HD
ATOM     11  H   UNL A   1      45.261  25.575  26.924  1.00  0.00     0.347 HD
BRANCH   9  12
ATOM     12  C   UNL A   1      45.767  27.462  26.932  1.00  0.00     0.210 C 
ATOM     13  C   UNL A   1      46.138  28.316  28.148  1.00  0.00     0.081 C 
BRANCH  12  14
ATOM     14  C   UNL A   1      44.367  27.806  26.434  1.00  0.00     0.009 A 
ATOM     15  C   UNL A   1      43.588  26.946  25.645  1.00  0.00     0.010 A 
ATOM     16  C   UNL A   1      43.760  28.993  26.885  1.00  0.00     0.010 A 
ATOM     17  C   UNL A   1      42.283  27.280  25.272  1.00  0.00     0.001 A 
ATOM     18  C   UNL A   1      42.443  29.314  26.543  1.00  0.00     0.001 A 
ATOM     19  C   UNL A   1      41.708  28.462  25.726  1.00  0.00     0.000 A 
ENDBRANCH  12  14
ENDBRANCH   9  12
ENDBRANCH   7   9
ENDBRANCH   6   7
ENDBRANCH   4   6
ENDBRANCH   3   4
ENDBRANCH   2   3
ENDBRANCH   1   2
BRANCH   1  20
ATOM     20  O   UNL A   1      42.947  20.130  25.216  1.00  0.00    -0.374 OA
BRANCH  20  21
ATOM     21  C   UNL A   1      42.122  19.811  26.332  1.00  0.00     0.202 C 
BRANCH  21  22
ATOM     22  C   UNL A   1      40.610  19.946  26.126  1.00  0.00     0.261 C 
BRANCH  22  23
ATOM     23  O   UNL A   1      40.026  20.945  26.985  1.00  0.00    -0.460 OA
BRANCH  23  24
ATOM     24  C   UNL A   1      39.447  21.976  26.322  1.00  0.00     0.338 C 
ATOM     25  O   UNL A   1      38.531  21.912  25.515  1.00  0.00    -0.246 OA
BRANCH  24  26
ATOM     26  C   UNL A   1      39.981  23.264  26.791  1.00  0.00     0.060 A 
ATOM     27  C   UNL A   1      41.156  23.243  27.553  1.00  0.00     0.016 A 
ATOM     28  C   UNL A   1      39.260  24.449  26.628  1.00  0.00     0.016 A 
ATOM     29  C   UNL A   1      41.587  24.401  28.198  1.00  0.00     0.010 A 
ATOM     30  C   UNL A   1      39.696  25.610  27.278  1.00  0.00     0.010 A 
ATOM     31  C   UNL A   1      40.837  25.583  28.099  1.00  0.00    -0.014 A 
BRANCH  31  32
ATOM     32  C   UNL A   1      41.183  26.740  28.962  1.00  0.00     0.031 A 
ATOM     33  C   UNL A   1      42.483  26.734  29.722  1.00  0.00     0.074 A 
ATOM     34  C   UNL A   1      40.365  27.807  29.035  1.00  0.00     0.049 A 
ATOM     35  N   UNL A   1      42.989  27.654  30.504  1.00  0.00    -0.248 NA
ATOM     36  C   UNL A   1      43.324  25.534  29.585  1.00  0.00     0.031 C 
ATOM     37  C   UNL A   1      39.092  27.944  28.328  1.00  0.00     0.029 A 
ATOM     38  N   UNL A   1      40.488  28.979  29.738  1.00  0.00    -0.354 N 
ATOM     39  C   UNL A   1      44.203  27.146  30.953  1.00  0.00     0.074 A 
ATOM     40  C   UNL A   1      44.344  25.825  30.381  1.00  0.00     0.031 C 
ATOM     41  C   UNL A   1      38.550  29.136  28.633  1.00  0.00     0.029 A 
ATOM     42  C   UNL A   1      39.426  29.835  29.572  1.00  0.00     0.049 A 
ATOM     43  H   UNL A   1      41.264  29.187  30.306  1.00  0.00     0.167 HD
ATOM     44  C   UNL A   1      45.121  27.728  31.762  1.00  0.00     0.031 A 
ATOM     45  C   UNL A   1      39.181  31.041  30.121  1.00  0.00     0.031 A 
ATOM     46  C   UNL A   1      44.977  29.039  32.339  1.00  0.00     0.049 A 
ATOM     47  C   UNL A   1      40.194  31.649  31.054  1.00  0.00     0.074 A 
ATOM     48  C   UNL A   1      45.862  29.723  33.153  1.00  0.00     0.029 A 
ATOM     49  N   UNL A   1      43.873  29.860  32.168  1.00  0.00    -0.354 N 
ATOM     50  N   UNL A   1      41.354  31.168  31.437  1.00  0.00    -0.248 NA
ATOM     51  C   UNL A   1      39.870  32.966  31.620  1.00  0.00     0.031 C 
ATOM     52  C   UNL A   1      45.273  30.941  33.512  1.00  0.00     0.029 A 
ATOM     53  C   UNL A   1      44.044  31.035  32.881  1.00  0.00     0.049 A 
ATOM     54  H   UNL A   1      43.085  29.641  31.621  1.00  0.00     0.167 HD
ATOM     55  C   UNL A   1      41.907  32.134  32.271  1.00  0.00     0.074 A 
ATOM     56  C   UNL A   1      40.962  33.230  32.327  1.00  0.00     0.031 C 
ATOM     57  C   UNL A   1      43.092  32.116  32.929  1.00  0.00     0.031 A 
BRANCH  44  58
ATOM     58  C   UNL A   1      46.358  26.935  32.091  1.00  0.00    -0.014 A 
ATOM     59  C   UNL A   1      46.409  26.107  33.226  1.00  0.00     0.010 A 
ATOM     60  C   UNL A   1      47.472  26.993  31.234  1.00  0.00     0.010 A 
ATOM     61  C   UNL A   1      47.566  25.380  33.519  1.00  0.00     0.020 A 
ATOM     62  C   UNL A   1      48.622  26.249  31.512  1.00  0.00     0.020 A 
ATOM     63  C   UNL A   1      48.668  25.460  32.663  1.00  0.00     0.054 A 
BRANCH  63  64
ATOM     64  S   UNL A   1      50.154  24.497  33.058  1.00  0.00     0.124 S 
ATOM     65  O   UNL A   1      49.607  23.432  33.897  1.00  0.00    -0.237 OA
ATOM     66  O   UNL A   1      50.627  24.078  31.742  1.00  0.00    -0.237 OA
ATOM     67  O   UNL A   1      51.014  25.454  33.750  1.00  0.00    -0.744 OA
ENDBRANCH  63  64
ENDBRANCH  44  58
BRANCH  45  68
ATOM     68  C   UNL A   1      37.914  31.753  29.805  1.00  0.00    -0.014 A 
ATOM     69  C   UNL A   1      37.893  32.804  28.872  1.00  0.00     0.010 A 
ATOM     70  C   UNL A   1      36.715  31.371  30.433  1.00  0.00     0.010 A 
ATOM     71  C   UNL A   1      36.696  33.467  28.580  1.00  0.00     0.020 A 
ATOM     72  C   UNL A   1      35.512  32.015  30.126  1.00  0.00     0.020 A 
ATOM     73  C   UNL A   1      35.513  33.066  29.208  1.00  0.00     0.054 A 
BRANCH  73  74
ATOM     74  S   UNL A   1      33.960  33.897  28.770  1.00  0.00     0.124 S 
ATOM     75  O   UNL A   1      33.271  32.865  28.001  1.00  0.00    -0.237 OA
ATOM     76  O   UNL A   1      33.384  34.203  30.077  1.00  0.00    -0.237 OA
ATOM     77  O   UNL A   1      34.401  35.061  28.005  1.00  0.00    -0.744 OA
ENDBRANCH  73  74
ENDBRANCH  45  68
BRANCH  57  78
ATOM     78  C   UNL A   1      43.448  33.326  33.749  1.00  0.00    -0.014 A 
ATOM     79  C   UNL A   1      44.118  34.422  33.176  1.00  0.00     0.010 A 
ATOM     80  C   UNL A   1      43.058  33.389  35.100  1.00  0.00     0.010 A 
ATOM     81  C   UNL A   1      44.415  35.549  33.947  1.00  0.00     0.020 A 
ATOM     82  C   UNL A   1      43.333  34.525  35.867  1.00  0.00     0.020 A 
ATOM     83  C   UNL A   1      44.022  35.592  35.289  1.00  0.00     0.054 A 
BRANCH  83  84
ATOM     84  S   UNL A   1      44.378  37.085  36.258  1.00  0.00     0.124 S 
ATOM     85  O   UNL A   1      45.736  36.824  36.728  1.00  0.00    -0.237 OA
ATOM     86  O   UNL A   1      44.250  38.151  35.268  1.00  0.00    -0.237 OA
ATOM     87  O   UNL A   1      43.347  37.078  37.292  1.00  0.00    -0.744 OA
ENDBRANCH  83  84
ENDBRANCH  57  78
ENDBRANCH  31  32
ENDBRANCH  24  26
ENDBRANCH  23  24
ENDBRANCH  22  23
ENDBRANCH  21  22
ENDBRANCH  20  21
ENDBRANCH   1  20
TORSDOF 21
ENDMDL
MODEL 2
REMARK VINA RESULT:      -8.3      0.586      8.337
REMARK SMILES C[C@H](CC(=O)OCCOCCOC(=O)c1ccc(-c2c3nc(c(-c4ccc(S(=O)(=O)[O-])cc4)c4ccc([nH]4)c(-c4ccc(S(=O)(=O)[O-])cc4)c4nc(c(-c5ccc(S(=O)(=O)[O-])cc5)c5ccc2[nH]5)C=C4)C=C3)cc1)[NH2+][C@H](C)c1ccccc1
REMARK SMILES IDX 8 1 7 2 6 3 4 4 5 5 3 6 2 7 1 8 75 9 76 12 77 13 78 14 79 15
REMARK SMILES IDX 83 16 80 17 82 18 81 19 9 20 10 21 11 22 12 23 13 24 14 25
REMARK SMILES IDX 15 26 16 27 74 28 17 29 73 30 18 31 19 32 20 33 67 34 21 35
REMARK SMILES IDX 72 36 66 37 68 38 22 39 71 40 65 41 64 42 23 44 53 45 34 46
REMARK SMILES IDX 52 47 35 48 38 49 51 50 69 51 36 52 37 53 50 55 70 56 39 57
REMARK SMILES IDX 24 58 25 59 33 60 26 61 32 62 27 63 28 64 29 65 30 66 31 67
REMARK SMILES IDX 54 68 55 69 63 70 56 71 62 72 57 73 58 74 59 75 60 76 61 77
REMARK SMILES IDX 40 78 41 79 49 80 42 81 48 82 43 83 44 84 45 85 46 86 47 87
REMARK H PARENT 75 10 75 11 68 43 38 54
REMARK Flexibility Score: inf
ROOT
ATOM      1  C   UNL A   1      43.624  21.556  25.264  1.00  0.00     0.202 C 
ENDROOT
BRANCH   1   2
ATOM      2  C   UNL A   1      45.061  21.751  24.763  1.00  0.00     0.261 C 
BRANCH   2   3
ATOM      3  O   UNL A   1      46.042  21.980  25.795  1.00  0.00    -0.463 OA
BRANCH   3   4
ATOM      4  C   UNL A   1      45.992  23.204  26.395  1.00  0.00     0.311 C 
ATOM      5  O   UNL A   1      45.512  23.420  27.504  1.00  0.00    -0.252 OA
BRANCH   4   6
ATOM      6  C   UNL A   1      46.501  24.317  25.509  1.00  0.00     0.187 C 
BRANCH   6   7
ATOM      7  C   UNL A   1      47.071  25.598  26.152  1.00  0.00     0.190 C 
ATOM      8  C   UNL A   1      47.624  26.560  25.101  1.00  0.00     0.076 C 
BRANCH   7   9
ATOM      9  N   UNL A   1      46.113  26.178  27.086  1.00  0.00    -0.338 N 
ATOM     10  H   UNL A   1      46.509  26.048  28.016  1.00  0.00     0.347 HD
ATOM     11  H   UNL A   1      45.253  25.692  26.833  1.00  0.00     0.347 HD
BRANCH   9  12
ATOM     12  C   UNL A   1      45.693  27.587  27.014  1.00  0.00     0.210 C 
ATOM     13  C   UNL A   1      46.025  28.424  28.252  1.00  0.00     0.081 C 
BRANCH  12  14
ATOM     14  C   UNL A   1      44.295  27.912  26.498  1.00  0.00     0.009 A 
ATOM     15  C   UNL A   1      43.579  27.087  25.617  1.00  0.00     0.010 A 
ATOM     16  C   UNL A   1      43.623  29.033  27.020  1.00  0.00     0.010 A 
ATOM     17  C   UNL A   1      42.272  27.396  25.228  1.00  0.00     0.001 A 
ATOM     18  C   UNL A   1      42.305  29.326  26.660  1.00  0.00     0.001 A 
ATOM     19  C   UNL A   1      41.633  28.513  25.753  1.00  0.00     0.000 A 
ENDBRANCH  12  14
ENDBRANCH   9  12
ENDBRANCH   7   9
ENDBRANCH   6   7
ENDBRANCH   4   6
ENDBRANCH   3   4
ENDBRANCH   2   3
ENDBRANCH   1   2
BRANCH   1  20
ATOM     20  O   UNL A   1      43.022  20.279  25.056  1.00  0.00    -0.374 OA
BRANCH  20  21
ATOM     21  C   UNL A   1      42.300  19.719  26.148  1.00  0.00     0.202 C 
BRANCH  21  22
ATOM     22  C   UNL A   1      40.780  19.908  26.132  1.00  0.00     0.261 C 
BRANCH  22  23
ATOM     23  O   UNL A   1      40.348  20.958  27.020  1.00  0.00    -0.460 OA
BRANCH  23  24
ATOM     24  C   UNL A   1      39.644  21.944  26.412  1.00  0.00     0.338 C 
ATOM     25  O   UNL A   1      38.709  21.811  25.634  1.00  0.00    -0.246 OA
BRANCH  24  26
ATOM     26  C   UNL A   1      40.063  23.265  26.905  1.00  0.00     0.060 A 
ATOM     27  C   UNL A   1      41.437  23.517  27.007  1.00  0.00     0.016 A 
ATOM     28  C   UNL A   1      39.134  24.177  27.410  1.00  0.00     0.016 A 
ATOM     29  C   UNL A   1      41.887  24.661  27.662  1.00  0.00     0.010 A 
ATOM     30  C   UNL A   1      39.590  25.326  28.068  1.00  0.00     0.010 A 
ATOM     31  C   UNL A   1      40.968  25.553  28.234  1.00  0.00    -0.014 A 
BRANCH  31  32
ATOM     32  C   UNL A   1      41.459  26.644  29.113  1.00  0.00     0.031 A 
ATOM     33  C   UNL A   1      40.604  27.865  29.325  1.00  0.00     0.074 A 
ATOM     34  C   UNL A   1      42.639  26.529  29.750  1.00  0.00     0.049 A 
ATOM     35  N   UNL A   1      40.830  28.915  30.074  1.00  0.00    -0.248 NA
ATOM     36  C   UNL A   1      39.325  27.912  28.597  1.00  0.00     0.031 C 
ATOM     37  C   UNL A   1      43.546  25.387  29.647  1.00  0.00     0.029 A 
ATOM     38  N   UNL A   1      43.273  27.387  30.614  1.00  0.00    -0.354 N 
ATOM     39  C   UNL A   1      39.727  29.746  29.907  1.00  0.00     0.074 A 
ATOM     40  C   UNL A   1      38.847  29.093  28.963  1.00  0.00     0.031 C 
ATOM     41  C   UNL A   1      44.622  25.614  30.420  1.00  0.00     0.029 A 
ATOM     42  C   UNL A   1      44.491  26.925  31.054  1.00  0.00     0.049 A 
ATOM     43  H   UNL A   1      42.892  28.250  30.892  1.00  0.00     0.167 HD
ATOM     44  C   UNL A   1      39.467  30.940  30.492  1.00  0.00     0.031 A 
ATOM     45  C   UNL A   1      45.400  27.497  31.866  1.00  0.00     0.031 A 
ATOM     46  C   UNL A   1      40.348  31.594  31.424  1.00  0.00     0.049 A 
ATOM     47  C   UNL A   1      45.112  28.845  32.469  1.00  0.00     0.074 A 
ATOM     48  C   UNL A   1      40.162  32.795  32.087  1.00  0.00     0.029 A 
ATOM     49  N   UNL A   1      41.583  31.105  31.820  1.00  0.00    -0.354 N 
ATOM     50  N   UNL A   1      44.046  29.598  32.328  1.00  0.00    -0.248 NA
ATOM     51  C   UNL A   1      46.142  29.416  33.348  1.00  0.00     0.031 C 
ATOM     52  C   UNL A   1      41.306  33.055  32.849  1.00  0.00     0.029 A 
ATOM     53  C   UNL A   1      42.182  31.992  32.700  1.00  0.00     0.049 A 
ATOM     54  H   UNL A   1      41.976  30.254  31.522  1.00  0.00     0.167 HD
ATOM     55  C   UNL A   1      44.269  30.722  33.118  1.00  0.00     0.074 A 
ATOM     56  C   UNL A   1      45.564  30.543  33.743  1.00  0.00     0.031 C 
ATOM     57  C   UNL A   1      43.473  31.801  33.311  1.00  0.00     0.031 A 
BRANCH  44  58
ATOM     58  C   UNL A   1      38.183  31.631  30.119  1.00  0.00    -0.014 A 
ATOM     59  C   UNL A   1      36.978  31.334  30.782  1.00  0.00     0.010 A 
ATOM     60  C   UNL A   1      38.188  32.616  29.114  1.00  0.00     0.010 A 
ATOM     61  C   UNL A   1      35.794  31.982  30.420  1.00  0.00     0.020 A 
ATOM     62  C   UNL A   1      37.009  33.282  28.766  1.00  0.00     0.020 A 
ATOM     63  C   UNL A   1      35.816  32.949  29.410  1.00  0.00     0.054 A 
BRANCH  63  64
ATOM     64  S   UNL A   1      34.268  33.785  28.969  1.00  0.00     0.124 S 
ATOM     65  O   UNL A   1      34.754  34.948  28.230  1.00  0.00    -0.237 OA
ATOM     66  O   UNL A   1      33.574  32.779  28.170  1.00  0.00    -0.237 OA
ATOM     67  O   UNL A   1      33.654  34.082  30.261  1.00  0.00    -0.744 OA
ENDBRANCH  63  64
ENDBRANCH  44  58
BRANCH  45  68
ATOM     68  C   UNL A   1      46.679  26.793  32.154  1.00  0.00    -0.014 A 
ATOM     69  C   UNL A   1      46.831  26.023  33.320  1.00  0.00     0.010 A 
ATOM     70  C   UNL A   1      47.752  26.883  31.249  1.00  0.00     0.010 A 
ATOM     71  C   UNL A   1      48.036  25.364  33.582  1.00  0.00     0.020 A 
ATOM     72  C   UNL A   1      48.951  26.206  31.494  1.00  0.00     0.020 A 
ATOM     73  C   UNL A   1      49.088  25.458  32.665  1.00  0.00     0.054 A 
BRANCH  73  74
ATOM     74  S   UNL A   1      50.623  24.546  32.991  1.00  0.00     0.124 S 
ATOM     75  O   UNL A   1      50.256  23.743  34.154  1.00  0.00    -0.237 OA
ATOM     76  O   UNL A   1      50.821  23.805  31.748  1.00  0.00    -0.237 OA
ATOM     77  O   UNL A   1      51.600  25.603  33.240  1.00  0.00    -0.744 OA
ENDBRANCH  73  74
ENDBRANCH  45  68
BRANCH  57  78
ATOM     78  C   UNL A   1      43.965  32.867  34.253  1.00  0.00    -0.014 A 
ATOM     79  C   UNL A   1      44.712  33.962  33.786  1.00  0.00     0.010 A 
ATOM     80  C   UNL A   1      43.625  32.798  35.617  1.00  0.00     0.010 A 
ATOM     81  C   UNL A   1      45.136  34.956  34.672  1.00  0.00     0.020 A 
ATOM     82  C   UNL A   1      44.028  33.803  36.501  1.00  0.00     0.020 A 
ATOM     83  C   UNL A   1      44.792  34.869  36.025  1.00  0.00     0.054 A 
BRANCH  83  84
ATOM     84  S   UNL A   1      45.314  36.195  37.149  1.00  0.00     0.124 S 
ATOM     85  O   UNL A   1      46.270  35.504  38.010  1.00  0.00    -0.237 OA
ATOM     86  O   UNL A   1      45.889  37.182  36.238  1.00  0.00    -0.237 OA
ATOM     87  O   UNL A   1      44.072  36.606  37.798  1.00  0.00    -0.744 OA
ENDBRANCH  83  84
ENDBRANCH  57  78
ENDBRANCH  31  32
ENDBRANCH  24  26
ENDBRANCH  23  24
ENDBRANCH  22  23
ENDBRANCH  21  22
ENDBRANCH  20  21
ENDBRANCH   1  20
TORSDOF 21
ENDMDL
MODEL 3
REMARK VINA RESULT:      -8.2      3.139      5.021
REMARK SMILES C[C@H](CC(=O)OCCOCCOC(=O)c1ccc(-c2c3nc(c(-c4ccc(S(=O)(=O)[O-])cc4)c4ccc([nH]4)c(-c4ccc(S(=O)(=O)[O-])cc4)c4nc(c(-c5ccc(S(=O)(=O)[O-])cc5)c5ccc2[nH]5)C=C4)C=C3)cc1)[NH2+][C@H](C)c1ccccc1
REMARK SMILES IDX 8 1 7 2 6 3 4 4 5 5 3 6 2 7 1 8 75 9 76 12 77 13 78 14 79 15
REMARK SMILES IDX 83 16 80 17 82 18 81 19 9 20 10 21 11 22 12 23 13 24 14 25
REMARK SMILES IDX 15 26 16 27 74 28 17 29 73 30 18 31 19 32 20 33 67 34 21 35
REMARK SMILES IDX 72 36 66 37 68 38 22 39 71 40 65 41 64 42 23 44 53 45 34 46
REMARK SMILES IDX 52 47 35 48 38 49 51 50 69 51 36 52 37 53 50 55 70 56 39 57
REMARK SMILES IDX 24 58 25 59 33 60 26 61 32 62 27 63 28 64 29 65 30 66 31 67
REMARK SMILES IDX 54 68 55 69 63 70 56 71 62 72 57 73 58 74 59 75 60 76 61 77
REMARK SMILES IDX 40 78 41 79 49 80 42 81 48 82 43 83 44 84 45 85 46 86 47 87
REMARK H PARENT 75 10 75 11 68 43 38 54
REMARK Flexibility Score: inf
ROOT
ATOM      1  C   UNL A   1      45.711  22.761  24.407  1.00  0.00     0.202 C 
ENDROOT
BRANCH   1   2
ATOM      2  C   UNL A   1      46.092  21.290  24.615  1.00  0.00     0.261 C 
BRANCH   2   3
ATOM      3  O   UNL A   1      45.145  20.335  24.091  1.00  0.00    -0.463 OA
BRANCH   3   4
ATOM      4  C   UNL A   1      44.635  19.452  24.997  1.00  0.00     0.311 C 
ATOM      5  O   UNL A   1      44.805  18.238  24.961  1.00  0.00    -0.252 OA
BRANCH   4   6
ATOM      6  C   UNL A   1      43.736  20.107  26.019  1.00  0.00     0.187 C 
BRANCH   6   7
ATOM      7  C   UNL A   1      42.310  19.561  26.236  1.00  0.00     0.190 C 
ATOM      8  C   UNL A   1      42.101  19.080  27.672  1.00  0.00     0.076 C 
BRANCH   7   9
ATOM      9  N   UNL A   1      41.314  20.506  25.744  1.00  0.00    -0.338 N 
ATOM     10  H   UNL A   1      41.348  20.450  24.727  1.00  0.00     0.347 HD
ATOM     11  H   UNL A   1      41.596  21.369  26.209  1.00  0.00     0.347 HD
BRANCH   9  12
ATOM     12  C   UNL A   1      39.892  20.418  26.110  1.00  0.00     0.210 C 
ATOM     13  C   UNL A   1      39.136  19.242  25.486  1.00  0.00     0.081 C 
BRANCH  12  14
ATOM     14  C   UNL A   1      39.045  21.686  26.079  1.00  0.00     0.009 A 
ATOM     15  C   UNL A   1      39.402  22.877  26.730  1.00  0.00     0.010 A 
ATOM     16  C   UNL A   1      37.904  21.719  25.255  1.00  0.00     0.010 A 
ATOM     17  C   UNL A   1      38.624  24.033  26.613  1.00  0.00     0.001 A 
ATOM     18  C   UNL A   1      37.144  22.883  25.109  1.00  0.00     0.001 A 
ATOM     19  C   UNL A   1      37.498  24.037  25.798  1.00  0.00     0.000 A 
ENDBRANCH  12  14
ENDBRANCH   9  12
ENDBRANCH   7   9
ENDBRANCH   6   7
ENDBRANCH   4   6
ENDBRANCH   3   4
ENDBRANCH   2   3
ENDBRANCH   1   2
BRANCH   1  20
ATOM     20  O   UNL A   1      45.777  23.624  25.541  1.00  0.00    -0.374 OA
BRANCH  20  21
ATOM     21  C   UNL A   1      44.610  24.379  25.849  1.00  0.00     0.202 C 
BRANCH  21  22
ATOM     22  C   UNL A   1      43.267  23.663  25.678  1.00  0.00     0.261 C 
BRANCH  22  23
ATOM     23  O   UNL A   1      42.145  24.547  25.874  1.00  0.00    -0.460 OA
BRANCH  23  24
ATOM     24  C   UNL A   1      42.455  25.864  25.792  1.00  0.00     0.338 C 
ATOM     25  O   UNL A   1      42.636  26.517  24.774  1.00  0.00    -0.246 OA
BRANCH  24  26
ATOM     26  C   UNL A   1      42.431  26.490  27.124  1.00  0.00     0.060 A 
ATOM     27  C   UNL A   1      41.462  26.049  28.033  1.00  0.00     0.016 A 
ATOM     28  C   UNL A   1      43.232  27.595  27.418  1.00  0.00     0.016 A 
ATOM     29  C   UNL A   1      41.256  26.746  29.222  1.00  0.00     0.010 A 
ATOM     30  C   UNL A   1      43.023  28.293  28.614  1.00  0.00     0.010 A 
ATOM     31  C   UNL A   1      42.006  27.898  29.502  1.00  0.00    -0.014 A 
BRANCH  31  32
ATOM     32  C   UNL A   1      41.630  28.752  30.656  1.00  0.00     0.031 A 
ATOM     33  C   UNL A   1      42.438  28.678  31.925  1.00  0.00     0.074 A 
ATOM     34  C   UNL A   1      40.603  29.616  30.562  1.00  0.00     0.049 A 
ATOM     35  N   UNL A   1      42.299  29.356  33.036  1.00  0.00    -0.248 NA
ATOM     36  C   UNL A   1      43.549  27.712  31.947  1.00  0.00     0.031 C 
ATOM     37  C   UNL A   1      39.760  29.800  29.380  1.00  0.00     0.029 A 
ATOM     38  N   UNL A   1      40.097  30.505  31.477  1.00  0.00    -0.354 N 
ATOM     39  C   UNL A   1      43.299  28.900  33.888  1.00  0.00     0.074 A 
ATOM     40  C   UNL A   1      44.019  27.866  33.177  1.00  0.00     0.031 C 
ATOM     41  C   UNL A   1      38.841  30.744  29.643  1.00  0.00     0.029 A 
ATOM     42  C   UNL A   1      39.015  31.215  31.016  1.00  0.00     0.049 A 
ATOM     43  H   UNL A   1      40.474  30.621  32.379  1.00  0.00     0.167 HD
ATOM     44  C   UNL A   1      43.596  29.310  35.145  1.00  0.00     0.031 A 
ATOM     45  C   UNL A   1      38.246  32.134  31.632  1.00  0.00     0.031 A 
ATOM     46  C   UNL A   1      42.874  30.332  35.856  1.00  0.00     0.049 A 
ATOM     47  C   UNL A   1      38.566  32.541  33.045  1.00  0.00     0.074 A 
ATOM     48  C   UNL A   1      43.113  30.831  37.124  1.00  0.00     0.029 A 
ATOM     49  N   UNL A   1      41.769  31.006  35.363  1.00  0.00    -0.354 N 
ATOM     50  N   UNL A   1      39.540  32.125  33.821  1.00  0.00    -0.248 NA
ATOM     51  C   UNL A   1      37.692  33.548  33.662  1.00  0.00     0.031 C 
ATOM     52  C   UNL A   1      42.124  31.776  37.416  1.00  0.00     0.029 A 
ATOM     53  C   UNL A   1      41.298  31.900  36.310  1.00  0.00     0.049 A 
ATOM     54  H   UNL A   1      41.375  30.871  34.470  1.00  0.00     0.167 HD
ATOM     55  C   UNL A   1      39.407  32.836  35.009  1.00  0.00     0.074 A 
ATOM     56  C   UNL A   1      38.268  33.716  34.845  1.00  0.00     0.031 C 
ATOM     57  C   UNL A   1      40.162  32.768  36.133  1.00  0.00     0.031 A 
BRANCH  44  58
ATOM     58  C   UNL A   1      44.743  28.629  35.843  1.00  0.00    -0.014 A 
ATOM     59  C   UNL A   1      44.542  27.467  36.608  1.00  0.00     0.010 A 
ATOM     60  C   UNL A   1      46.047  29.140  35.703  1.00  0.00     0.010 A 
ATOM     61  C   UNL A   1      45.617  26.849  37.253  1.00  0.00     0.020 A 
ATOM     62  C   UNL A   1      47.128  28.511  36.327  1.00  0.00     0.020 A 
ATOM     63  C   UNL A   1      46.903  27.379  37.113  1.00  0.00     0.054 A 
BRANCH  63  64
ATOM     64  S   UNL A   1      48.284  26.551  37.949  1.00  0.00     0.124 S 
ATOM     65  O   UNL A   1      47.598  25.820  39.011  1.00  0.00    -0.237 OA
ATOM     66  O   UNL A   1      48.856  25.726  36.888  1.00  0.00    -0.237 OA
ATOM     67  O   UNL A   1      49.129  27.655  38.399  1.00  0.00    -0.744 OA
ENDBRANCH  63  64
ENDBRANCH  44  58
BRANCH  45  68
ATOM     68  C   UNL A   1      37.089  32.731  30.912  1.00  0.00    -0.014 A 
ATOM     69  C   UNL A   1      37.281  33.738  29.950  1.00  0.00     0.010 A 
ATOM     70  C   UNL A   1      35.783  32.282  31.181  1.00  0.00     0.010 A 
ATOM     71  C   UNL A   1      36.187  34.292  29.277  1.00  0.00     0.020 A 
ATOM     72  C   UNL A   1      34.689  32.816  30.493  1.00  0.00     0.020 A 
ATOM     73  C   UNL A   1      34.898  33.826  29.552  1.00  0.00     0.054 A 
BRANCH  73  74
ATOM     74  S   UNL A   1      33.498  34.513  28.625  1.00  0.00     0.124 S 
ATOM     75  O   UNL A   1      34.129  35.605  27.890  1.00  0.00    -0.237 OA
ATOM     76  O   UNL A   1      33.063  33.376  27.818  1.00  0.00    -0.237 OA
ATOM     77  O   UNL A   1      32.563  34.918  29.671  1.00  0.00    -0.744 OA
ENDBRANCH  73  74
ENDBRANCH  45  68
BRANCH  57  78
ATOM     78  C   UNL A   1      39.798  33.686  37.269  1.00  0.00    -0.014 A 
ATOM     79  C   UNL A   1      38.964  33.253  38.315  1.00  0.00     0.010 A 
ATOM     80  C   UNL A   1      40.346  34.981  37.317  1.00  0.00     0.010 A 
ATOM     81  C   UNL A   1      38.661  34.111  39.376  1.00  0.00     0.020 A 
ATOM     82  C   UNL A   1      40.063  35.833  38.389  1.00  0.00     0.020 A 
ATOM     83  C   UNL A   1      39.211  35.396  39.405  1.00  0.00     0.054 A 
BRANCH  83  84
ATOM     84  S   UNL A   1      38.841  36.476  40.816  1.00  0.00     0.124 S 
ATOM     85  O   UNL A   1      40.159  36.644  41.423  1.00  0.00    -0.237 OA
ATOM     86  O   UNL A   1      38.289  37.667  40.175  1.00  0.00    -0.237 OA
ATOM     87  O   UNL A   1      37.885  35.701  41.602  1.00  0.00    -0.744 OA
ENDBRANCH  83  84
ENDBRANCH  57  78
ENDBRANCH  31  32
ENDBRANCH  24  26
ENDBRANCH  23  24
ENDBRANCH  22  23
ENDBRANCH  21  22
ENDBRANCH  20  21
ENDBRANCH   1  20
TORSDOF 21
ENDMDL
