MODEL 1
REMARK VINA RESULT:     -10.3      0.000      0.000
REMARK SMILES C[C@H](C(=O)OCCOCCOC(=O)c1ccc(-c2c3nc(c(-c4ccc(S(=O)(=O)[O-])cc4)c4ccc([nH]4)c(-c4ccc(S(=O)(=O)[O-])cc4)c4nc(c(-c5ccc(S(=O)(=O)[O-])cc5)c5ccc2[nH]5)C=C4)C=C3)cc1)c1ccc(C[C@@H]2CCC[C@H]2O)cc1
REMARK SMILES IDX 7 1 6 2 5 3 3 4 4 5 2 6 1 7 74 8 75 9 86 10 76 11 85 12
REMARK SMILES IDX 77 13 78 14 79 15 80 16 83 17 81 18 82 19 84 20 8 22 9 23
REMARK SMILES IDX 10 24 11 25 12 26 13 27 14 28 15 29 73 30 16 31 72 32 17 33
REMARK SMILES IDX 18 34 19 35 66 36 20 37 71 38 65 39 67 40 21 41 70 42 64 43
REMARK SMILES IDX 63 44 22 46 52 47 33 48 51 49 34 50 37 51 50 52 68 53 35 54
REMARK SMILES IDX 36 55 49 57 69 58 38 59 23 60 24 61 32 62 25 63 31 64 26 65
REMARK SMILES IDX 27 66 28 67 29 68 30 69 53 70 54 71 62 72 55 73 61 74 56 75
REMARK SMILES IDX 57 76 58 77 59 78 60 79 39 80 40 81 48 82 41 83 47 84 42 85
REMARK SMILES IDX 43 86 44 87 45 88 46 89
REMARK H PARENT 84 21 67 45 37 56
REMARK Flexibility Score: inf
ROOT
ATOM      1  C   UNL A   1      35.633  23.758  25.892  1.00  0.00     0.202 C 
ENDROOT
BRANCH   1   2
ATOM      2  C   UNL A   1      34.206  23.412  25.449  1.00  0.00     0.261 C 
BRANCH   2   3
ATOM      3  O   UNL A   1      34.249  22.490  24.346  1.00  0.00    -0.463 OA
BRANCH   3   4
ATOM      4  C   UNL A   1      34.483  23.025  23.114  1.00  0.00     0.313 C 
ATOM      5  O   UNL A   1      35.590  23.270  22.653  1.00  0.00    -0.252 OA
BRANCH   4   6
ATOM      6  C   UNL A   1      33.157  23.219  22.374  1.00  0.00     0.126 C 
ATOM      7  C   UNL A   1      32.304  21.990  22.685  1.00  0.00     0.025 C 
BRANCH   6   8
ATOM      8  C   UNL A   1      32.503  24.567  22.682  1.00  0.00    -0.034 A 
ATOM      9  C   UNL A   1      33.197  25.758  22.419  1.00  0.00     0.005 A 
ATOM     10  C   UNL A   1      31.206  24.686  23.193  1.00  0.00     0.005 A 
ATOM     11  C   UNL A   1      32.661  27.006  22.718  1.00  0.00     0.004 A 
ATOM     12  C   UNL A   1      30.695  25.936  23.571  1.00  0.00     0.004 A 
ATOM     13  C   UNL A   1      31.451  27.100  23.395  1.00  0.00    -0.048 A 
BRANCH  13  14
ATOM     14  C   UNL A   1      31.034  28.409  24.012  1.00  0.00     0.041 C 
BRANCH  14  15
ATOM     15  C   UNL A   1      31.471  28.650  25.481  1.00  0.00     0.022 C 
ATOM     16  C   UNL A   1      32.827  29.353  25.659  1.00  0.00     0.007 C 
ATOM     17  C   UNL A   1      31.617  27.385  26.337  1.00  0.00     0.117 C 
ATOM     18  C   UNL A   1      33.854  28.279  26.028  1.00  0.00     0.003 C 
ATOM     19  C   UNL A   1      33.084  26.976  26.234  1.00  0.00     0.032 C 
BRANCH  17  20
ATOM     20  O   UNL A   1      31.318  27.705  27.699  1.00  0.00    -0.393 OA
ATOM     21  H   UNL A   1      30.428  27.388  27.918  1.00  0.00     0.210 HD
ENDBRANCH  17  20
ENDBRANCH  14  15
ENDBRANCH  13  14
ENDBRANCH   6   8
ENDBRANCH   4   6
ENDBRANCH   3   4
ENDBRANCH   2   3
ENDBRANCH   1   2
BRANCH   1  22
ATOM     22  O   UNL A   1      36.501  22.646  26.132  1.00  0.00    -0.374 OA
BRANCH  22  23
ATOM     23  C   UNL A   1      37.788  22.687  25.522  1.00  0.00     0.202 C 
BRANCH  23  24
ATOM     24  C   UNL A   1      38.968  23.166  26.370  1.00  0.00     0.261 C 
BRANCH  24  25
ATOM     25  O   UNL A   1      38.876  24.562  26.664  1.00  0.00    -0.460 OA
BRANCH  25  26
ATOM     26  C   UNL A   1      40.054  25.218  26.568  1.00  0.00     0.338 C 
ATOM     27  O   UNL A   1      40.796  25.270  25.596  1.00  0.00    -0.246 OA
BRANCH  26  28
ATOM     28  C   UNL A   1      40.247  26.044  27.767  1.00  0.00     0.060 A 
ATOM     29  C   UNL A   1      39.300  25.919  28.791  1.00  0.00     0.016 A 
ATOM     30  C   UNL A   1      41.307  26.949  27.874  1.00  0.00     0.016 A 
ATOM     31  C   UNL A   1      39.374  26.744  29.904  1.00  0.00     0.010 A 
ATOM     32  C   UNL A   1      41.375  27.783  28.990  1.00  0.00     0.010 A 
ATOM     33  C   UNL A   1      40.385  27.710  29.986  1.00  0.00    -0.014 A 
BRANCH  33  34
ATOM     34  C   UNL A   1      40.302  28.754  31.031  1.00  0.00     0.031 A 
ATOM     35  C   UNL A   1      41.214  28.652  32.220  1.00  0.00     0.074 A 
ATOM     36  C   UNL A   1      39.454  29.787  30.897  1.00  0.00     0.049 A 
ATOM     37  N   UNL A   1      41.303  29.434  33.263  1.00  0.00    -0.248 NA
ATOM     38  C   UNL A   1      42.152  27.515  32.236  1.00  0.00     0.031 C 
ATOM     39  C   UNL A   1      38.558  30.006  29.763  1.00  0.00     0.029 A 
ATOM     40  N   UNL A   1      39.210  30.848  31.731  1.00  0.00    -0.354 N 
ATOM     41  C   UNL A   1      42.298  28.883  34.062  1.00  0.00     0.074 A 
ATOM     42  C   UNL A   1      42.760  27.683  33.402  1.00  0.00     0.031 C 
ATOM     43  C   UNL A   1      37.853  31.130  29.976  1.00  0.00     0.029 A 
ATOM     44  C   UNL A   1      38.225  31.688  31.275  1.00  0.00     0.049 A 
ATOM     45  H   UNL A   1      39.695  30.993  32.575  1.00  0.00     0.167 HD
ATOM     46  C   UNL A   1      42.787  29.343  35.238  1.00  0.00     0.031 A 
ATOM     47  C   UNL A   1      37.670  32.771  31.852  1.00  0.00     0.031 A 
ATOM     48  C   UNL A   1      42.305  30.528  35.895  1.00  0.00     0.049 A 
ATOM     49  C   UNL A   1      38.179  33.223  33.196  1.00  0.00     0.074 A 
ATOM     50  C   UNL A   1      42.733  31.087  37.087  1.00  0.00     0.029 A 
ATOM     51  N   UNL A   1      41.283  31.335  35.419  1.00  0.00    -0.354 N 
ATOM     52  N   UNL A   1      39.133  32.704  33.932  1.00  0.00    -0.248 NA
ATOM     53  C   UNL A   1      37.545  34.411  33.780  1.00  0.00     0.031 C 
ATOM     54  C   UNL A   1      41.929  32.198  37.359  1.00  0.00     0.029 A 
ATOM     55  C   UNL A   1      41.046  32.372  36.305  1.00  0.00     0.049 A 
ATOM     56  H   UNL A   1      40.797  31.192  34.575  1.00  0.00     0.167 HD
ATOM     57  C   UNL A   1      39.231  33.518  35.056  1.00  0.00     0.074 A 
ATOM     58  C   UNL A   1      38.248  34.572  34.893  1.00  0.00     0.031 C 
ATOM     59  C   UNL A   1      40.060  33.408  36.124  1.00  0.00     0.031 A 
BRANCH  46  60
ATOM     60  C   UNL A   1      43.871  28.536  35.902  1.00  0.00    -0.014 A 
ATOM     61  C   UNL A   1      43.563  27.502  36.806  1.00  0.00     0.010 A 
ATOM     62  C   UNL A   1      45.219  28.798  35.599  1.00  0.00     0.010 A 
ATOM     63  C   UNL A   1      44.583  26.775  37.424  1.00  0.00     0.020 A 
ATOM     64  C   UNL A   1      46.242  28.055  36.194  1.00  0.00     0.020 A 
ATOM     65  C   UNL A   1      45.918  27.058  37.116  1.00  0.00     0.054 A 
BRANCH  65  66
ATOM     66  S   UNL A   1      47.222  26.088  37.923  1.00  0.00     0.124 S 
ATOM     67  O   UNL A   1      48.432  26.723  37.408  1.00  0.00    -0.237 OA
ATOM     68  O   UNL A   1      46.952  26.307  39.341  1.00  0.00    -0.237 OA
ATOM     69  O   UNL A   1      46.983  24.727  37.450  1.00  0.00    -0.744 OA
ENDBRANCH  65  66
ENDBRANCH  46  60
BRANCH  47  70
ATOM     70  C   UNL A   1      36.559  33.487  31.169  1.00  0.00    -0.014 A 
ATOM     71  C   UNL A   1      36.700  33.947  29.849  1.00  0.00     0.010 A 
ATOM     72  C   UNL A   1      35.338  33.696  31.839  1.00  0.00     0.010 A 
ATOM     73  C   UNL A   1      35.646  34.615  29.216  1.00  0.00     0.020 A 
ATOM     74  C   UNL A   1      34.274  34.338  31.201  1.00  0.00     0.020 A 
ATOM     75  C   UNL A   1      34.439  34.802  29.895  1.00  0.00     0.054 A 
BRANCH  75  76
ATOM     76  S   UNL A   1      33.066  35.619  29.033  1.00  0.00     0.124 S 
ATOM     77  O   UNL A   1      32.230  36.059  30.145  1.00  0.00    -0.237 OA
ATOM     78  O   UNL A   1      33.746  36.678  28.293  1.00  0.00    -0.237 OA
ATOM     79  O   UNL A   1      32.501  34.554  28.206  1.00  0.00    -0.744 OA
ENDBRANCH  75  76
ENDBRANCH  47  70
BRANCH  59  80
ATOM     80  C   UNL A   1      39.966  34.472  37.186  1.00  0.00    -0.014 A 
ATOM     81  C   UNL A   1      40.718  35.657  37.104  1.00  0.00     0.010 A 
ATOM     82  C   UNL A   1      39.062  34.305  38.253  1.00  0.00     0.010 A 
ATOM     83  C   UNL A   1      40.592  36.642  38.088  1.00  0.00     0.020 A 
ATOM     84  C   UNL A   1      38.911  35.300  39.221  1.00  0.00     0.020 A 
ATOM     85  C   UNL A   1      39.688  36.457  39.140  1.00  0.00     0.054 A 
BRANCH  85  86
ATOM     86  S   UNL A   1      39.512  37.769  40.380  1.00  0.00     0.124 S 
ATOM     87  O   UNL A   1      40.697  38.584  40.130  1.00  0.00    -0.237 OA
ATOM     88  O   UNL A   1      38.238  38.384  40.017  1.00  0.00    -0.237 OA
ATOM     89  O   UNL A   1      39.509  37.047  41.650  1.00  0.00    -0.744 OA
ENDBRANCH  85  86
ENDBRANCH  59  80
ENDBRANCH  33  34
ENDBRANCH  26  28
ENDBRANCH  25  26
ENDBRANCH  24  25
ENDBRANCH  23  24
ENDBRANCH  22  23
ENDBRANCH   1  22
TORSDOF 21
ENDMDL
MODEL 2
REMARK VINA RESULT:     -10.1      6.688     11.990
REMARK SMILES C[C@H](C(=O)OCCOCCOC(=O)c1ccc(-c2c3nc(c(-c4ccc(S(=O)(=O)[O-])cc4)c4ccc([nH]4)c(-c4ccc(S(=O)(=O)[O-])cc4)c4nc(c(-c5ccc(S(=O)(=O)[O-])cc5)c5ccc2[nH]5)C=C4)C=C3)cc1)c1ccc(C[C@@H]2CCC[C@H]2O)cc1
REMARK SMILES IDX 7 1 6 2 5 3 3 4 4 5 2 6 1 7 74 8 75 9 86 10 76 11 85 12
REMARK SMILES IDX 77 13 78 14 79 15 80 16 83 17 81 18 82 19 84 20 8 22 9 23
REMARK SMILES IDX 10 24 11 25 12 26 13 27 14 28 15 29 73 30 16 31 72 32 17 33
REMARK SMILES IDX 18 34 19 35 66 36 20 37 71 38 65 39 67 40 21 41 70 42 64 43
REMARK SMILES IDX 63 44 22 46 52 47 33 48 51 49 34 50 37 51 50 52 68 53 35 54
REMARK SMILES IDX 36 55 49 57 69 58 38 59 23 60 24 61 32 62 25 63 31 64 26 65
REMARK SMILES IDX 27 66 28 67 29 68 30 69 53 70 54 71 62 72 55 73 61 74 56 75
REMARK SMILES IDX 57 76 58 77 59 78 60 79 39 80 40 81 48 82 41 83 47 84 42 85
REMARK SMILES IDX 43 86 44 87 45 88 46 89
REMARK H PARENT 84 21 67 45 37 56
REMARK Flexibility Score: inf
ROOT
ATOM      1  C   UNL A   1      33.987  34.475  29.117  1.00  0.00     0.202 C 
ENDROOT
BRANCH   1   2
ATOM      2  C   UNL A   1      34.219  33.577  27.895  1.00  0.00     0.261 C 
BRANCH   2   3
ATOM      3  O   UNL A   1      33.215  32.548  27.849  1.00  0.00    -0.463 OA
BRANCH   3   4
ATOM      4  C   UNL A   1      33.657  31.278  27.625  1.00  0.00     0.313 C 
ATOM      5  O   UNL A   1      34.793  30.879  27.847  1.00  0.00    -0.252 OA
BRANCH   4   6
ATOM      6  C   UNL A   1      32.504  30.412  27.109  1.00  0.00     0.126 C 
ATOM      7  C   UNL A   1      31.671  31.305  26.191  1.00  0.00     0.025 C 
BRANCH   6   8
ATOM      8  C   UNL A   1      32.986  29.100  26.487  1.00  0.00    -0.034 A 
ATOM      9  C   UNL A   1      33.581  29.105  25.216  1.00  0.00     0.005 A 
ATOM     10  C   UNL A   1      32.897  27.867  27.143  1.00  0.00     0.005 A 
ATOM     11  C   UNL A   1      34.000  27.935  24.592  1.00  0.00     0.004 A 
ATOM     12  C   UNL A   1      33.242  26.678  26.486  1.00  0.00     0.004 A 
ATOM     13  C   UNL A   1      33.736  26.702  25.177  1.00  0.00    -0.048 A 
BRANCH  13  14
ATOM     14  C   UNL A   1      33.878  25.440  24.366  1.00  0.00     0.041 C 
BRANCH  14  15
ATOM     15  C   UNL A   1      32.970  25.318  23.114  1.00  0.00     0.022 C 
ATOM     16  C   UNL A   1      31.460  25.259  23.398  1.00  0.00     0.007 C 
ATOM     17  C   UNL A   1      33.213  24.075  22.247  1.00  0.00     0.117 C 
ATOM     18  C   UNL A   1      31.028  23.796  23.269  1.00  0.00     0.003 C 
ATOM     19  C   UNL A   1      32.234  23.017  22.747  1.00  0.00     0.032 C 
BRANCH  17  20
ATOM     20  O   UNL A   1      32.904  24.388  20.885  1.00  0.00    -0.393 OA
ATOM     21  H   UNL A   1      32.634  25.318  20.820  1.00  0.00     0.210 HD
ENDBRANCH  17  20
ENDBRANCH  14  15
ENDBRANCH  13  14
ENDBRANCH   6   8
ENDBRANCH   4   6
ENDBRANCH   3   4
ENDBRANCH   2   3
ENDBRANCH   1   2
BRANCH   1  22
ATOM     22  O   UNL A   1      34.019  33.820  30.389  1.00  0.00    -0.374 OA
BRANCH  22  23
ATOM     23  C   UNL A   1      35.279  33.320  30.827  1.00  0.00     0.202 C 
BRANCH  23  24
ATOM     24  C   UNL A   1      35.327  31.907  31.411  1.00  0.00     0.261 C 
BRANCH  24  25
ATOM     25  O   UNL A   1      36.671  31.468  31.625  1.00  0.00    -0.460 OA
BRANCH  25  26
ATOM     26  C   UNL A   1      36.932  30.243  31.116  1.00  0.00     0.338 C 
ATOM     27  O   UNL A   1      36.133  29.335  30.924  1.00  0.00    -0.246 OA
BRANCH  26  28
ATOM     28  C   UNL A   1      38.318  30.204  30.635  1.00  0.00     0.060 A 
ATOM     29  C   UNL A   1      38.518  30.264  29.250  1.00  0.00     0.016 A 
ATOM     30  C   UNL A   1      39.398  30.074  31.512  1.00  0.00     0.016 A 
ATOM     31  C   UNL A   1      39.798  30.132  28.730  1.00  0.00     0.010 A 
ATOM     32  C   UNL A   1      40.683  29.933  30.987  1.00  0.00     0.010 A 
ATOM     33  C   UNL A   1      40.879  29.920  29.595  1.00  0.00    -0.014 A 
BRANCH  33  34
ATOM     34  C   UNL A   1      42.185  29.515  29.031  1.00  0.00     0.031 A 
ATOM     35  C   UNL A   1      42.355  28.097  28.563  1.00  0.00     0.074 A 
ATOM     36  C   UNL A   1      43.182  30.407  28.908  1.00  0.00     0.049 A 
ATOM     37  N   UNL A   1      43.410  27.515  28.057  1.00  0.00    -0.248 NA
ATOM     38  C   UNL A   1      41.178  27.217  28.681  1.00  0.00     0.031 C 
ATOM     39  C   UNL A   1      43.107  31.817  29.289  1.00  0.00     0.029 A 
ATOM     40  N   UNL A   1      44.456  30.253  28.427  1.00  0.00    -0.354 N 
ATOM     41  C   UNL A   1      43.029  26.202  27.804  1.00  0.00     0.074 A 
ATOM     42  C   UNL A   1      41.659  26.063  28.241  1.00  0.00     0.031 C 
ATOM     43  C   UNL A   1      44.291  32.398  29.035  1.00  0.00     0.029 A 
ATOM     44  C   UNL A   1      45.213  31.395  28.506  1.00  0.00     0.049 A 
ATOM     45  H   UNL A   1      44.795  29.404  28.060  1.00  0.00     0.167 HD
ATOM     46  C   UNL A   1      43.757  25.205  27.248  1.00  0.00     0.031 A 
ATOM     47  C   UNL A   1      46.511  31.600  28.207  1.00  0.00     0.031 A 
ATOM     48  C   UNL A   1      45.126  25.350  26.833  1.00  0.00     0.049 A 
ATOM     49  C   UNL A   1      47.322  30.456  27.659  1.00  0.00     0.074 A 
ATOM     50  C   UNL A   1      45.956  24.406  26.255  1.00  0.00     0.029 A 
ATOM     51  N   UNL A   1      45.871  26.514  26.959  1.00  0.00    -0.354 N 
ATOM     52  N   UNL A   1      46.946  29.225  27.406  1.00  0.00    -0.248 NA
ATOM     53  C   UNL A   1      48.730  30.732  27.344  1.00  0.00     0.031 C 
ATOM     54  C   UNL A   1      47.218  24.982  26.085  1.00  0.00     0.029 A 
ATOM     55  C   UNL A   1      47.158  26.305  26.495  1.00  0.00     0.049 A 
ATOM     56  H   UNL A   1      45.533  27.363  27.326  1.00  0.00     0.167 HD
ATOM     57  C   UNL A   1      48.063  28.586  26.879  1.00  0.00     0.074 A 
ATOM     58  C   UNL A   1      49.124  29.572  26.836  1.00  0.00     0.031 C 
ATOM     59  C   UNL A   1      48.200  27.301  26.464  1.00  0.00     0.031 A 
BRANCH  46  60
ATOM     60  C   UNL A   1      43.091  23.862  27.095  1.00  0.00    -0.014 A 
ATOM     61  C   UNL A   1      42.956  22.985  28.188  1.00  0.00     0.010 A 
ATOM     62  C   UNL A   1      42.572  23.480  25.845  1.00  0.00     0.010 A 
ATOM     63  C   UNL A   1      42.350  21.737  28.023  1.00  0.00     0.020 A 
ATOM     64  C   UNL A   1      41.940  22.245  25.682  1.00  0.00     0.020 A 
ATOM     65  C   UNL A   1      41.848  21.373  26.769  1.00  0.00     0.054 A 
BRANCH  65  66
ATOM     66  S   UNL A   1      41.054  19.753  26.588  1.00  0.00     0.124 S 
ATOM     67  O   UNL A   1      42.006  19.043  25.739  1.00  0.00    -0.237 OA
ATOM     68  O   UNL A   1      40.968  19.283  27.967  1.00  0.00    -0.237 OA
ATOM     69  O   UNL A   1      39.772  20.065  25.959  1.00  0.00    -0.744 OA
ENDBRANCH  65  66
ENDBRANCH  46  60
BRANCH  47  70
ATOM     70  C   UNL A   1      47.122  32.936  28.441  1.00  0.00    -0.014 A 
ATOM     71  C   UNL A   1      47.175  33.895  27.415  1.00  0.00     0.010 A 
ATOM     72  C   UNL A   1      47.643  33.261  29.708  1.00  0.00     0.010 A 
ATOM     73  C   UNL A   1      47.750  35.149  27.648  1.00  0.00     0.020 A 
ATOM     74  C   UNL A   1      48.191  34.522  29.952  1.00  0.00     0.020 A 
ATOM     75  C   UNL A   1      48.249  35.456  28.917  1.00  0.00     0.054 A 
BRANCH  75  76
ATOM     76  S   UNL A   1      48.935  37.110  29.212  1.00  0.00     0.124 S 
ATOM     77  O   UNL A   1      50.077  37.131  28.302  1.00  0.00    -0.237 OA
ATOM     78  O   UNL A   1      47.821  37.982  28.852  1.00  0.00    -0.237 OA
ATOM     79  O   UNL A   1      49.268  37.092  30.635  1.00  0.00    -0.744 OA
ENDBRANCH  75  76
ENDBRANCH  47  70
BRANCH  59  80
ATOM     80  C   UNL A   1      49.534  26.895  25.896  1.00  0.00    -0.014 A 
ATOM     81  C   UNL A   1      49.862  27.140  24.552  1.00  0.00     0.010 A 
ATOM     82  C   UNL A   1      50.497  26.312  26.742  1.00  0.00     0.010 A 
ATOM     83  C   UNL A   1      51.118  26.779  24.055  1.00  0.00     0.020 A 
ATOM     84  C   UNL A   1      51.763  25.977  26.257  1.00  0.00     0.020 A 
ATOM     85  C   UNL A   1      52.061  26.201  24.912  1.00  0.00     0.054 A 
BRANCH  85  86
ATOM     86  S   UNL A   1      53.697  25.782  24.253  1.00  0.00     0.124 S 
ATOM     87  O   UNL A   1      53.501  25.956  22.817  1.00  0.00    -0.237 OA
ATOM     88  O   UNL A   1      54.563  26.769  24.894  1.00  0.00    -0.237 OA
ATOM     89  O   UNL A   1      53.904  24.403  24.691  1.00  0.00    -0.744 OA
ENDBRANCH  85  86
ENDBRANCH  59  80
ENDBRANCH  33  34
ENDBRANCH  26  28
ENDBRANCH  25  26
ENDBRANCH  24  25
ENDBRANCH  23  24
ENDBRANCH  22  23
ENDBRANCH   1  22
TORSDOF 21
ENDMDL
MODEL 3
REMARK VINA RESULT:     -10.0      7.142     12.529
REMARK SMILES C[C@H](C(=O)OCCOCCOC(=O)c1ccc(-c2c3nc(c(-c4ccc(S(=O)(=O)[O-])cc4)c4ccc([nH]4)c(-c4ccc(S(=O)(=O)[O-])cc4)c4nc(c(-c5ccc(S(=O)(=O)[O-])cc5)c5ccc2[nH]5)C=C4)C=C3)cc1)c1ccc(C[C@@H]2CCC[C@H]2O)cc1
REMARK SMILES IDX 7 1 6 2 5 3 3 4 4 5 2 6 1 7 74 8 75 9 86 10 76 11 85 12
REMARK SMILES IDX 77 13 78 14 79 15 80 16 83 17 81 18 82 19 84 20 8 22 9 23
REMARK SMILES IDX 10 24 11 25 12 26 13 27 14 28 15 29 73 30 16 31 72 32 17 33
REMARK SMILES IDX 18 34 19 35 66 36 20 37 71 38 65 39 67 40 21 41 70 42 64 43
REMARK SMILES IDX 63 44 22 46 52 47 33 48 51 49 34 50 37 51 50 52 68 53 35 54
REMARK SMILES IDX 36 55 49 57 69 58 38 59 23 60 24 61 32 62 25 63 31 64 26 65
REMARK SMILES IDX 27 66 28 67 29 68 30 69 53 70 54 71 62 72 55 73 61 74 56 75
REMARK SMILES IDX 57 76 58 77 59 78 60 79 39 80 40 81 48 82 41 83 47 84 42 85
REMARK SMILES IDX 43 86 44 87 45 88 46 89
REMARK H PARENT 84 21 67 45 37 56
REMARK Flexibility Score: inf
ROOT
ATOM      1  C   UNL A   1      32.877  30.961  27.199  1.00  0.00     0.202 C 
ENDROOT
BRANCH   1   2
ATOM      2  C   UNL A   1      31.583  30.382  26.614  1.00  0.00     0.261 C 
BRANCH   2   3
ATOM      3  O   UNL A   1      31.771  28.991  26.301  1.00  0.00    -0.463 OA
BRANCH   3   4
ATOM      4  C   UNL A   1      31.426  28.599  25.041  1.00  0.00     0.313 C 
ATOM      5  O   UNL A   1      31.443  29.321  24.052  1.00  0.00    -0.252 OA
BRANCH   4   6
ATOM      6  C   UNL A   1      31.070  27.110  25.041  1.00  0.00     0.126 C 
ATOM      7  C   UNL A   1      30.016  26.919  23.952  1.00  0.00     0.025 C 
BRANCH   6   8
ATOM      8  C   UNL A   1      32.303  26.211  24.926  1.00  0.00    -0.034 A 
ATOM      9  C   UNL A   1      32.863  25.949  23.667  1.00  0.00     0.005 A 
ATOM     10  C   UNL A   1      32.941  25.647  26.037  1.00  0.00     0.005 A 
ATOM     11  C   UNL A   1      33.958  25.107  23.507  1.00  0.00     0.004 A 
ATOM     12  C   UNL A   1      33.993  24.735  25.873  1.00  0.00     0.004 A 
ATOM     13  C   UNL A   1      34.464  24.409  24.596  1.00  0.00    -0.048 A 
BRANCH  13  14
ATOM     14  C   UNL A   1      35.414  23.260  24.378  1.00  0.00     0.041 C 
BRANCH  14  15
ATOM     15  C   UNL A   1      34.773  21.855  24.227  1.00  0.00     0.022 C 
ATOM     16  C   UNL A   1      33.259  21.846  23.956  1.00  0.00     0.007 C 
ATOM     17  C   UNL A   1      34.917  20.934  25.446  1.00  0.00     0.117 C 
ATOM     18  C   UNL A   1      32.562  21.501  25.275  1.00  0.00     0.003 C 
ATOM     19  C   UNL A   1      33.655  21.142  26.279  1.00  0.00     0.032 C 
BRANCH  17  20
ATOM     20  O   UNL A   1      34.963  19.575  25.003  1.00  0.00    -0.393 OA
ATOM     21  H   UNL A   1      34.408  19.473  24.213  1.00  0.00     0.210 HD
ENDBRANCH  17  20
ENDBRANCH  14  15
ENDBRANCH  13  14
ENDBRANCH   6   8
ENDBRANCH   4   6
ENDBRANCH   3   4
ENDBRANCH   2   3
ENDBRANCH   1   2
BRANCH   1  22
ATOM     22  O   UNL A   1      34.096  30.452  26.648  1.00  0.00    -0.374 OA
BRANCH  22  23
ATOM     23  C   UNL A   1      35.079  29.989  27.571  1.00  0.00     0.202 C 
BRANCH  23  24
ATOM     24  C   UNL A   1      35.497  30.926  28.704  1.00  0.00     0.261 C 
BRANCH  24  25
ATOM     25  O   UNL A   1      36.904  30.862  28.952  1.00  0.00    -0.460 OA
BRANCH  25  26
ATOM     26  C   UNL A   1      37.283  29.773  29.659  1.00  0.00     0.338 C 
ATOM     27  O   UNL A   1      36.626  29.166  30.495  1.00  0.00    -0.246 OA
BRANCH  26  28
ATOM     28  C   UNL A   1      38.568  29.284  29.142  1.00  0.00     0.060 A 
ATOM     29  C   UNL A   1      39.487  28.788  30.075  1.00  0.00     0.016 A 
ATOM     30  C   UNL A   1      38.884  29.343  27.782  1.00  0.00     0.016 A 
ATOM     31  C   UNL A   1      40.754  28.404  29.658  1.00  0.00     0.010 A 
ATOM     32  C   UNL A   1      40.160  28.964  27.367  1.00  0.00     0.010 A 
ATOM     33  C   UNL A   1      41.110  28.534  28.310  1.00  0.00    -0.014 A 
BRANCH  33  34
ATOM     34  C   UNL A   1      42.529  28.381  27.921  1.00  0.00     0.031 A 
ATOM     35  C   UNL A   1      43.455  29.550  28.110  1.00  0.00     0.074 A 
ATOM     36  C   UNL A   1      42.983  27.211  27.443  1.00  0.00     0.049 A 
ATOM     37  N   UNL A   1      44.725  29.653  27.822  1.00  0.00    -0.248 NA
ATOM     38  C   UNL A   1      42.869  30.765  28.704  1.00  0.00     0.031 C 
ATOM     39  C   UNL A   1      42.181  26.002  27.262  1.00  0.00     0.029 A 
ATOM     40  N   UNL A   1      44.237  26.851  27.021  1.00  0.00    -0.354 N 
ATOM     41  C   UNL A   1      45.090  30.942  28.191  1.00  0.00     0.074 A 
ATOM     42  C   UNL A   1      43.902  31.596  28.691  1.00  0.00     0.031 C 
ATOM     43  C   UNL A   1      42.962  25.033  26.756  1.00  0.00     0.029 A 
ATOM     44  C   UNL A   1      44.308  25.565  26.547  1.00  0.00     0.049 A 
ATOM     45  H   UNL A   1      45.012  27.458  27.055  1.00  0.00     0.167 HD
ATOM     46  C   UNL A   1      46.310  31.526  28.124  1.00  0.00     0.031 A 
ATOM     47  C   UNL A   1      45.337  24.901  25.987  1.00  0.00     0.031 A 
ATOM     48  C   UNL A   1      47.481  30.871  27.606  1.00  0.00     0.049 A 
ATOM     49  C   UNL A   1      46.667  25.595  25.855  1.00  0.00     0.074 A 
ATOM     50  C   UNL A   1      48.768  31.368  27.497  1.00  0.00     0.029 A 
ATOM     51  N   UNL A   1      47.507  29.578  27.104  1.00  0.00    -0.354 N 
ATOM     52  N   UNL A   1      47.005  26.808  26.224  1.00  0.00    -0.248 NA
ATOM     53  C   UNL A   1      47.758  24.826  25.241  1.00  0.00     0.031 C 
ATOM     54  C   UNL A   1      49.558  30.396  26.875  1.00  0.00     0.029 A 
ATOM     55  C   UNL A   1      48.781  29.269  26.659  1.00  0.00     0.049 A 
ATOM     56  H   UNL A   1      46.733  28.971  27.070  1.00  0.00     0.167 HD
ATOM     57  C   UNL A   1      48.354  26.939  25.911  1.00  0.00     0.074 A 
ATOM     58  C   UNL A   1      48.772  25.676  25.336  1.00  0.00     0.031 C 
ATOM     59  C   UNL A   1      49.174  28.006  26.086  1.00  0.00     0.031 A 
BRANCH  46  60
ATOM     60  C   UNL A   1      46.423  32.954  28.589  1.00  0.00    -0.014 A 
ATOM     61  C   UNL A   1      46.302  34.027  27.687  1.00  0.00     0.010 A 
ATOM     62  C   UNL A   1      46.630  33.228  29.953  1.00  0.00     0.010 A 
ATOM     63  C   UNL A   1      46.426  35.345  28.134  1.00  0.00     0.020 A 
ATOM     64  C   UNL A   1      46.726  34.545  30.409  1.00  0.00     0.020 A 
ATOM     65  C   UNL A   1      46.641  35.596  29.494  1.00  0.00     0.054 A 
BRANCH  65  66
ATOM     66  S   UNL A   1      46.783  37.317  30.048  1.00  0.00     0.124 S 
ATOM     67  O   UNL A   1      46.329  38.052  28.871  1.00  0.00    -0.237 OA
ATOM     68  O   UNL A   1      45.885  37.357  31.200  1.00  0.00    -0.237 OA
ATOM     69  O   UNL A   1      48.202  37.463  30.365  1.00  0.00    -0.744 OA
ENDBRANCH  65  66
ENDBRANCH  46  60
BRANCH  47  70
ATOM     70  C   UNL A   1      45.140  23.512  25.492  1.00  0.00    -0.014 A 
ATOM     71  C   UNL A   1      44.451  23.264  24.293  1.00  0.00     0.010 A 
ATOM     72  C   UNL A   1      45.662  22.424  26.217  1.00  0.00     0.010 A 
ATOM     73  C   UNL A   1      44.275  21.953  23.836  1.00  0.00     0.020 A 
ATOM     74  C   UNL A   1      45.513  21.116  25.750  1.00  0.00     0.020 A 
ATOM     75  C   UNL A   1      44.811  20.889  24.565  1.00  0.00     0.054 A 
BRANCH  75  76
ATOM     76  S   UNL A   1      44.622  19.202  23.922  1.00  0.00     0.124 S 
ATOM     77  O   UNL A   1      45.845  18.560  24.392  1.00  0.00    -0.237 OA
ATOM     78  O   UNL A   1      43.386  18.759  24.562  1.00  0.00    -0.237 OA
ATOM     79  O   UNL A   1      44.531  19.397  22.476  1.00  0.00    -0.744 OA
ENDBRANCH  75  76
ENDBRANCH  47  70
BRANCH  59  80
ATOM     80  C   UNL A   1      50.616  27.844  25.682  1.00  0.00    -0.014 A 
ATOM     81  C   UNL A   1      51.580  27.368  26.588  1.00  0.00     0.010 A 
ATOM     82  C   UNL A   1      50.997  28.116  24.355  1.00  0.00     0.010 A 
ATOM     83  C   UNL A   1      52.907  27.200  26.181  1.00  0.00     0.020 A 
ATOM     84  C   UNL A   1      52.314  27.920  23.937  1.00  0.00     0.020 A 
ATOM     85  C   UNL A   1      53.265  27.476  24.857  1.00  0.00     0.054 A 
BRANCH  85  86
ATOM     86  S   UNL A   1      54.984  27.208  24.344  1.00  0.00     0.124 S 
ATOM     87  O   UNL A   1      54.878  27.255  22.888  1.00  0.00    -0.237 OA
ATOM     88  O   UNL A   1      55.681  28.334  24.960  1.00  0.00    -0.237 OA
ATOM     89  O   UNL A   1      55.312  25.899  24.903  1.00  0.00    -0.744 OA
ENDBRANCH  85  86
ENDBRANCH  59  80
ENDBRANCH  33  34
ENDBRANCH  26  28
ENDBRANCH  25  26
ENDBRANCH  24  25
ENDBRANCH  23  24
ENDBRANCH  22  23
ENDBRANCH   1  22
TORSDOF 21
ENDMDL
