MODEL 1
REMARK VINA RESULT:     -11.4      0.000      0.000
REMARK SMILES Cc1ccc(Nc2c(Cl)cccc2Cl)c(CC(=O)OCCOCCOC(=O)c2ccc(-c3c4nc(c(-c5ccc(S(=O)(=O)[O-])cc5)c5ccc([nH]5)c(-c5ccc(S(=O)(=O)[O-])cc5)c5nc(c(-c6ccc(S(=O)(=O)[O-])cc6)c6ccc3[nH]6)C=C5)C=C4)cc2)c1
REMARK SMILES IDX 22 1 21 2 20 3 19 4 17 5 18 6 16 7 15 8 1 9 2 10 3 11 88 12
REMARK SMILES IDX 4 13 5 14 6 15 7 17 8 18 13 19 9 20 10 21 12 22 14 23 11 24
REMARK SMILES IDX 23 25 24 26 25 27 26 28 27 29 28 30 29 31 87 32 30 33 86 34
REMARK SMILES IDX 31 35 32 36 33 37 80 38 34 39 85 40 79 41 81 42 35 43 84 44
REMARK SMILES IDX 78 45 77 46 36 48 66 49 47 50 65 51 48 52 51 53 64 54 82 55
REMARK SMILES IDX 49 56 50 57 63 59 83 60 52 61 37 62 38 63 46 64 39 65 45 66
REMARK SMILES IDX 40 67 41 68 42 69 43 70 44 71 67 72 68 73 76 74 69 75 75 76
REMARK SMILES IDX 70 77 71 78 72 79 73 80 74 81 53 82 54 83 62 84 55 85 61 86
REMARK SMILES IDX 56 87 57 88 58 89 59 90 60 91
REMARK H PARENT 6 16 81 47 51 58
REMARK Flexibility Score: inf
ROOT
ATOM      1  O   UNL A   1      31.930  28.508  24.845  1.00  0.00    -0.374 OA
ENDROOT
BRANCH   1   2
ATOM      2  C   UNL A   1      31.001  27.796  24.057  1.00  0.00     0.202 C 
BRANCH   2   3
ATOM      3  C   UNL A   1      31.710  26.542  23.601  1.00  0.00     0.261 C 
BRANCH   3   4
ATOM      4  O   UNL A   1      33.078  26.505  23.969  1.00  0.00    -0.463 OA
BRANCH   4   5
ATOM      5  C   UNL A   1      33.740  25.304  23.889  1.00  0.00     0.310 C 
ATOM      6  O   UNL A   1      34.324  24.847  22.930  1.00  0.00    -0.252 OA
BRANCH   5   7
ATOM      7  C   UNL A   1      33.621  24.558  25.212  1.00  0.00     0.160 C 
BRANCH   7   8
ATOM      8  C   UNL A   1      34.740  23.538  25.330  1.00  0.00    -0.013 A 
ATOM      9  C   UNL A   1      38.440  24.107  26.113  1.00  0.00     0.044 C 
ATOM     10  C   UNL A   1      37.169  23.452  25.665  1.00  0.00    -0.051 A 
ATOM     11  C   UNL A   1      37.201  22.300  24.888  1.00  0.00     0.005 A 
ATOM     12  C   UNL A   1      35.931  24.029  25.934  1.00  0.00     0.009 A 
ATOM     13  C   UNL A   1      36.019  21.768  24.355  1.00  0.00     0.026 A 
ATOM     14  C   UNL A   1      34.760  22.369  24.541  1.00  0.00     0.042 A 
BRANCH  14  15
ATOM     15  N   UNL A   1      33.584  21.847  23.927  1.00  0.00    -0.353 N 
ATOM     16  H   UNL A   1      33.150  22.434  23.268  1.00  0.00     0.167 HD
BRANCH  15  17
ATOM     17  C   UNL A   1      32.955  20.585  24.142  1.00  0.00     0.076 A 
ATOM     18  C   UNL A   1      33.031  19.895  25.364  1.00  0.00     0.066 A 
ATOM     19  C   UNL A   1      32.393  19.874  23.060  1.00  0.00     0.066 A 
ATOM     20  Cl  UNL A   1      33.281  20.728  26.866  1.00  0.00    -0.082 Cl
ATOM     21  C   UNL A   1      32.821  18.512  25.432  1.00  0.00     0.023 A 
ATOM     22  C   UNL A   1      32.227  18.485  23.107  1.00  0.00     0.023 A 
ATOM     23  Cl  UNL A   1      31.781  20.701  21.669  1.00  0.00    -0.082 Cl
ATOM     24  C   UNL A   1      32.492  17.796  24.287  1.00  0.00     0.003 A 
ENDBRANCH  15  17
ENDBRANCH  14  15
ENDBRANCH   7   8
ENDBRANCH   5   7
ENDBRANCH   4   5
ENDBRANCH   3   4
ENDBRANCH   2   3
ENDBRANCH   1   2
BRANCH   1  25
ATOM     25  C   UNL A   1      31.506  29.775  25.278  1.00  0.00     0.202 C 
BRANCH  25  26
ATOM     26  C   UNL A   1      32.171  30.071  26.614  1.00  0.00     0.261 C 
BRANCH  26  27
ATOM     27  O   UNL A   1      33.618  30.091  26.528  1.00  0.00    -0.460 OA
BRANCH  27  28
ATOM     28  C   UNL A   1      34.290  30.828  27.467  1.00  0.00     0.338 C 
ATOM     29  O   UNL A   1      33.861  31.876  27.927  1.00  0.00    -0.246 OA
BRANCH  28  30
ATOM     30  C   UNL A   1      35.454  30.102  28.034  1.00  0.00     0.060 A 
ATOM     31  C   UNL A   1      35.478  29.707  29.382  1.00  0.00     0.016 A 
ATOM     32  C   UNL A   1      36.595  29.975  27.247  1.00  0.00     0.016 A 
ATOM     33  C   UNL A   1      36.691  29.343  29.985  1.00  0.00     0.010 A 
ATOM     34  C   UNL A   1      37.801  29.725  27.869  1.00  0.00     0.010 A 
ATOM     35  C   UNL A   1      37.864  29.425  29.241  1.00  0.00    -0.014 A 
BRANCH  35  36
ATOM     36  C   UNL A   1      39.227  29.228  29.734  1.00  0.00     0.031 A 
ATOM     37  C   UNL A   1      39.907  27.965  29.364  1.00  0.00     0.074 A 
ATOM     38  C   UNL A   1      39.948  30.247  30.258  1.00  0.00     0.049 A 
ATOM     39  N   UNL A   1      41.095  27.662  29.738  1.00  0.00    -0.248 NA
ATOM     40  C   UNL A   1      39.294  26.898  28.566  1.00  0.00     0.031 C 
ATOM     41  C   UNL A   1      41.403  30.439  30.238  1.00  0.00     0.029 A 
ATOM     42  N   UNL A   1      39.531  31.368  30.940  1.00  0.00    -0.354 N 
ATOM     43  C   UNL A   1      41.531  26.634  28.944  1.00  0.00     0.074 A 
ATOM     44  C   UNL A   1      40.343  26.105  28.327  1.00  0.00     0.031 C 
ATOM     45  C   UNL A   1      41.740  31.435  31.077  1.00  0.00     0.029 A 
ATOM     46  C   UNL A   1      40.532  31.833  31.782  1.00  0.00     0.049 A 
ATOM     47  H   UNL A   1      38.644  31.783  30.844  1.00  0.00     0.167 HD
ATOM     48  C   UNL A   1      42.874  26.463  28.819  1.00  0.00     0.031 A 
ATOM     49  C   UNL A   1      40.330  31.844  33.133  1.00  0.00     0.031 A 
ATOM     50  C   UNL A   1      43.602  27.293  29.793  1.00  0.00     0.049 A 
ATOM     51  C   UNL A   1      41.198  30.773  33.779  1.00  0.00     0.074 A 
ATOM     52  C   UNL A   1      44.425  28.402  29.712  1.00  0.00     0.029 A 
ATOM     53  N   UNL A   1      43.241  27.192  31.134  1.00  0.00    -0.354 N 
ATOM     54  N   UNL A   1      41.886  29.912  33.076  1.00  0.00    -0.248 NA
ATOM     55  C   UNL A   1      41.390  30.560  35.210  1.00  0.00     0.031 C 
ATOM     56  C   UNL A   1      44.511  28.983  31.020  1.00  0.00     0.029 A 
ATOM     57  C   UNL A   1      43.776  28.206  31.902  1.00  0.00     0.049 A 
ATOM     58  H   UNL A   1      42.668  26.478  31.494  1.00  0.00     0.167 HD
ATOM     59  C   UNL A   1      42.636  29.110  33.869  1.00  0.00     0.074 A 
ATOM     60  C   UNL A   1      42.228  29.502  35.213  1.00  0.00     0.031 C 
ATOM     61  C   UNL A   1      43.529  28.214  33.347  1.00  0.00     0.031 A 
BRANCH  48  62
ATOM     62  C   UNL A   1      43.540  25.664  27.721  1.00  0.00    -0.014 A 
ATOM     63  C   UNL A   1      44.381  24.591  28.072  1.00  0.00     0.010 A 
ATOM     64  C   UNL A   1      43.460  25.963  26.343  1.00  0.00     0.010 A 
ATOM     65  C   UNL A   1      45.101  23.861  27.112  1.00  0.00     0.020 A 
ATOM     66  C   UNL A   1      44.152  25.223  25.368  1.00  0.00     0.020 A 
ATOM     67  C   UNL A   1      44.979  24.180  25.762  1.00  0.00     0.054 A 
BRANCH  67  68
ATOM     68  S   UNL A   1      45.924  23.233  24.541  1.00  0.00     0.124 S 
ATOM     69  O   UNL A   1      44.924  22.965  23.510  1.00  0.00    -0.237 OA
ATOM     70  O   UNL A   1      46.982  24.167  24.165  1.00  0.00    -0.237 OA
ATOM     71  O   UNL A   1      46.374  22.056  25.283  1.00  0.00    -0.744 OA
ENDBRANCH  67  68
ENDBRANCH  48  62
BRANCH  49  72
ATOM     72  C   UNL A   1      38.920  32.269  33.455  1.00  0.00    -0.014 A 
ATOM     73  C   UNL A   1      38.616  33.635  33.213  1.00  0.00     0.010 A 
ATOM     74  C   UNL A   1      37.854  31.347  33.408  1.00  0.00     0.010 A 
ATOM     75  C   UNL A   1      37.342  34.038  32.778  1.00  0.00     0.020 A 
ATOM     76  C   UNL A   1      36.571  31.755  32.977  1.00  0.00     0.020 A 
ATOM     77  C   UNL A   1      36.333  33.090  32.629  1.00  0.00     0.054 A 
BRANCH  77  78
ATOM     78  S   UNL A   1      34.784  33.583  31.785  1.00  0.00     0.124 S 
ATOM     79  O   UNL A   1      33.776  32.845  32.535  1.00  0.00    -0.237 OA
ATOM     80  O   UNL A   1      34.760  35.034  31.971  1.00  0.00    -0.237 OA
ATOM     81  O   UNL A   1      34.999  33.145  30.410  1.00  0.00    -0.744 OA
ENDBRANCH  77  78
ENDBRANCH  49  72
BRANCH  61  82
ATOM     82  C   UNL A   1      44.240  27.201  34.191  1.00  0.00    -0.014 A 
ATOM     83  C   UNL A   1      45.505  27.420  34.745  1.00  0.00     0.010 A 
ATOM     84  C   UNL A   1      43.629  25.950  34.436  1.00  0.00     0.010 A 
ATOM     85  C   UNL A   1      46.058  26.504  35.640  1.00  0.00     0.020 A 
ATOM     86  C   UNL A   1      44.189  25.008  35.291  1.00  0.00     0.020 A 
ATOM     87  C   UNL A   1      45.383  25.315  35.926  1.00  0.00     0.054 A 
BRANCH  87  88
ATOM     88  S   UNL A   1      46.099  24.166  37.114  1.00  0.00     0.124 S 
ATOM     89  O   UNL A   1      47.028  25.016  37.855  1.00  0.00    -0.237 OA
ATOM     90  O   UNL A   1      44.919  23.729  37.856  1.00  0.00    -0.237 OA
ATOM     91  O   UNL A   1      46.725  23.144  36.279  1.00  0.00    -0.744 OA
ENDBRANCH  87  88
ENDBRANCH  61  82
ENDBRANCH  35  36
ENDBRANCH  28  30
ENDBRANCH  27  28
ENDBRANCH  26  27
ENDBRANCH  25  26
ENDBRANCH   1  25
TORSDOF 20
ENDMDL
MODEL 2
REMARK VINA RESULT:     -11.3      1.394      2.357
REMARK SMILES Cc1ccc(Nc2c(Cl)cccc2Cl)c(CC(=O)OCCOCCOC(=O)c2ccc(-c3c4nc(c(-c5ccc(S(=O)(=O)[O-])cc5)c5ccc([nH]5)c(-c5ccc(S(=O)(=O)[O-])cc5)c5nc(c(-c6ccc(S(=O)(=O)[O-])cc6)c6ccc3[nH]6)C=C5)C=C4)cc2)c1
REMARK SMILES IDX 22 1 21 2 20 3 19 4 17 5 18 6 16 7 15 8 1 9 2 10 3 11 88 12
REMARK SMILES IDX 4 13 5 14 6 15 7 17 8 18 13 19 9 20 10 21 12 22 14 23 11 24
REMARK SMILES IDX 23 25 24 26 25 27 26 28 27 29 28 30 29 31 87 32 30 33 86 34
REMARK SMILES IDX 31 35 32 36 33 37 80 38 34 39 85 40 79 41 81 42 35 43 84 44
REMARK SMILES IDX 78 45 77 46 36 48 66 49 47 50 65 51 48 52 51 53 64 54 82 55
REMARK SMILES IDX 49 56 50 57 63 59 83 60 52 61 37 62 38 63 46 64 39 65 45 66
REMARK SMILES IDX 40 67 41 68 42 69 43 70 44 71 67 72 68 73 76 74 69 75 75 76
REMARK SMILES IDX 70 77 71 78 72 79 73 80 74 81 53 82 54 83 62 84 55 85 61 86
REMARK SMILES IDX 56 87 57 88 58 89 59 90 60 91
REMARK H PARENT 6 16 81 47 51 58
REMARK Flexibility Score: inf
ROOT
ATOM      1  O   UNL A   1      31.833  28.678  24.533  1.00  0.00    -0.374 OA
ENDROOT
BRANCH   1   2
ATOM      2  C   UNL A   1      31.447  27.532  25.262  1.00  0.00     0.202 C 
BRANCH   2   3
ATOM      3  C   UNL A   1      31.004  26.511  24.239  1.00  0.00     0.261 C 
BRANCH   3   4
ATOM      4  O   UNL A   1      31.987  26.240  23.255  1.00  0.00    -0.463 OA
BRANCH   4   5
ATOM      5  C   UNL A   1      33.056  25.452  23.604  1.00  0.00     0.310 C 
ATOM      6  O   UNL A   1      34.112  25.811  24.080  1.00  0.00    -0.252 OA
BRANCH   5   7
ATOM      7  C   UNL A   1      32.756  23.996  23.274  1.00  0.00     0.160 C 
BRANCH   7   8
ATOM      8  C   UNL A   1      32.586  23.202  24.558  1.00  0.00    -0.013 A 
ATOM      9  C   UNL A   1      29.659  23.211  27.021  1.00  0.00     0.044 C 
ATOM     10  C   UNL A   1      31.022  22.991  26.437  1.00  0.00    -0.051 A 
ATOM     11  C   UNL A   1      32.100  22.671  27.254  1.00  0.00     0.005 A 
ATOM     12  C   UNL A   1      31.262  23.193  25.081  1.00  0.00     0.009 A 
ATOM     13  C   UNL A   1      33.397  22.602  26.727  1.00  0.00     0.026 A 
ATOM     14  C   UNL A   1      33.687  22.878  25.377  1.00  0.00     0.042 A 
BRANCH  14  15
ATOM     15  N   UNL A   1      35.024  22.870  24.884  1.00  0.00    -0.353 N 
ATOM     16  H   UNL A   1      35.225  23.536  24.187  1.00  0.00     0.167 HD
BRANCH  15  17
ATOM     17  C   UNL A   1      36.109  22.027  25.266  1.00  0.00     0.076 A 
ATOM     18  C   UNL A   1      37.337  22.531  25.730  1.00  0.00     0.066 A 
ATOM     19  C   UNL A   1      36.065  20.642  25.001  1.00  0.00     0.066 A 
ATOM     20  Cl  UNL A   1      37.452  24.081  26.501  1.00  0.00    -0.082 Cl
ATOM     21  C   UNL A   1      38.507  21.764  25.667  1.00  0.00     0.023 A 
ATOM     22  C   UNL A   1      37.236  19.883  24.889  1.00  0.00     0.023 A 
ATOM     23  Cl  UNL A   1      34.558  19.796  24.912  1.00  0.00    -0.082 Cl
ATOM     24  C   UNL A   1      38.468  20.464  25.176  1.00  0.00     0.003 A 
ENDBRANCH  15  17
ENDBRANCH  14  15
ENDBRANCH   7   8
ENDBRANCH   5   7
ENDBRANCH   4   5
ENDBRANCH   3   4
ENDBRANCH   2   3
ENDBRANCH   1   2
BRANCH   1  25
ATOM     25  C   UNL A   1      32.969  29.345  25.017  1.00  0.00     0.202 C 
BRANCH  25  26
ATOM     26  C   UNL A   1      32.521  30.359  26.058  1.00  0.00     0.261 C 
BRANCH  26  27
ATOM     27  O   UNL A   1      33.232  30.224  27.315  1.00  0.00    -0.460 OA
BRANCH  27  28
ATOM     28  C   UNL A   1      34.367  30.974  27.474  1.00  0.00     0.338 C 
ATOM     29  O   UNL A   1      34.385  32.191  27.368  1.00  0.00    -0.246 OA
BRANCH  28  30
ATOM     30  C   UNL A   1      35.498  30.185  28.023  1.00  0.00     0.060 A 
ATOM     31  C   UNL A   1      35.504  29.756  29.361  1.00  0.00     0.016 A 
ATOM     32  C   UNL A   1      36.634  30.027  27.232  1.00  0.00     0.016 A 
ATOM     33  C   UNL A   1      36.699  29.326  29.955  1.00  0.00     0.010 A 
ATOM     34  C   UNL A   1      37.826  29.710  27.848  1.00  0.00     0.010 A 
ATOM     35  C   UNL A   1      37.875  29.375  29.213  1.00  0.00    -0.014 A 
BRANCH  35  36
ATOM     36  C   UNL A   1      39.229  29.106  29.700  1.00  0.00     0.031 A 
ATOM     37  C   UNL A   1      39.855  27.826  29.296  1.00  0.00     0.074 A 
ATOM     38  C   UNL A   1      39.991  30.079  30.252  1.00  0.00     0.049 A 
ATOM     39  N   UNL A   1      41.028  27.463  29.663  1.00  0.00    -0.248 NA
ATOM     40  C   UNL A   1      39.198  26.809  28.469  1.00  0.00     0.031 C 
ATOM     41  C   UNL A   1      41.452  30.210  30.237  1.00  0.00     0.029 A 
ATOM     42  N   UNL A   1      39.621  31.198  30.964  1.00  0.00    -0.354 N 
ATOM     43  C   UNL A   1      41.421  26.440  28.840  1.00  0.00     0.074 A 
ATOM     44  C   UNL A   1      40.213  25.978  28.209  1.00  0.00     0.031 C 
ATOM     45  C   UNL A   1      41.831  31.168  31.104  1.00  0.00     0.029 A 
ATOM     46  C   UNL A   1      40.640  31.597  31.819  1.00  0.00     0.049 A 
ATOM     47  H   UNL A   1      38.752  31.653  30.879  1.00  0.00     0.167 HD
ATOM     48  C   UNL A   1      42.756  26.215  28.711  1.00  0.00     0.031 A 
ATOM     49  C   UNL A   1      40.437  31.580  33.169  1.00  0.00     0.031 A 
ATOM     50  C   UNL A   1      43.517  26.987  29.708  1.00  0.00     0.049 A 
ATOM     51  C   UNL A   1      41.257  30.456  33.787  1.00  0.00     0.074 A 
ATOM     52  C   UNL A   1      44.387  28.062  29.657  1.00  0.00     0.029 A 
ATOM     53  N   UNL A   1      43.150  26.865  31.045  1.00  0.00    -0.354 N 
ATOM     54  N   UNL A   1      41.909  29.586  33.060  1.00  0.00    -0.248 NA
ATOM     55  C   UNL A   1      41.438  30.196  35.211  1.00  0.00     0.031 C 
ATOM     56  C   UNL A   1      44.495  28.603  30.980  1.00  0.00     0.029 A 
ATOM     57  C   UNL A   1      43.727  27.834  31.841  1.00  0.00     0.049 A 
ATOM     58  H   UNL A   1      42.547  26.166  31.386  1.00  0.00     0.167 HD
ATOM     59  C   UNL A   1      42.623  28.732  33.832  1.00  0.00     0.074 A 
ATOM     60  C   UNL A   1      42.230  29.104  35.186  1.00  0.00     0.031 C 
ATOM     61  C   UNL A   1      43.478  27.814  33.285  1.00  0.00     0.031 A 
BRANCH  48  62
ATOM     62  C   UNL A   1      43.389  25.419  27.592  1.00  0.00    -0.014 A 
ATOM     63  C   UNL A   1      43.244  24.019  27.584  1.00  0.00     0.010 A 
ATOM     64  C   UNL A   1      44.207  25.963  26.577  1.00  0.00     0.010 A 
ATOM     65  C   UNL A   1      43.877  23.208  26.628  1.00  0.00     0.020 A 
ATOM     66  C   UNL A   1      44.822  25.167  25.596  1.00  0.00     0.020 A 
ATOM     67  C   UNL A   1      44.661  23.789  25.634  1.00  0.00     0.054 A 
BRANCH  67  68
ATOM     68  S   UNL A   1      45.476  22.724  24.416  1.00  0.00     0.124 S 
ATOM     69  O   UNL A   1      44.382  22.400  23.502  1.00  0.00    -0.237 OA
ATOM     70  O   UNL A   1      46.512  23.599  23.874  1.00  0.00    -0.237 OA
ATOM     71  O   UNL A   1      45.970  21.599  25.209  1.00  0.00    -0.744 OA
ENDBRANCH  67  68
ENDBRANCH  48  62
BRANCH  49  72
ATOM     72  C   UNL A   1      39.045  32.055  33.503  1.00  0.00    -0.014 A 
ATOM     73  C   UNL A   1      38.795  33.436  33.283  1.00  0.00     0.010 A 
ATOM     74  C   UNL A   1      37.944  31.178  33.445  1.00  0.00     0.010 A 
ATOM     75  C   UNL A   1      37.538  33.897  32.858  1.00  0.00     0.020 A 
ATOM     76  C   UNL A   1      36.677  31.643  33.025  1.00  0.00     0.020 A 
ATOM     77  C   UNL A   1      36.491  32.991  32.698  1.00  0.00     0.054 A 
BRANCH  77  78
ATOM     78  S   UNL A   1      34.961  33.559  31.866  1.00  0.00     0.124 S 
ATOM     79  O   UNL A   1      34.179  32.332  31.788  1.00  0.00    -0.237 OA
ATOM     80  O   UNL A   1      34.443  34.568  32.791  1.00  0.00    -0.237 OA
ATOM     81  O   UNL A   1      35.447  34.083  30.595  1.00  0.00    -0.744 OA
ENDBRANCH  77  78
ENDBRANCH  49  72
BRANCH  61  82
ATOM     82  C   UNL A   1      44.144  26.748  34.102  1.00  0.00    -0.014 A 
ATOM     83  C   UNL A   1      43.436  25.751  34.780  1.00  0.00     0.010 A 
ATOM     84  C   UNL A   1      45.553  26.743  34.219  1.00  0.00     0.010 A 
ATOM     85  C   UNL A   1      44.111  24.700  35.404  1.00  0.00     0.020 A 
ATOM     86  C   UNL A   1      46.236  25.726  34.876  1.00  0.00     0.020 A 
ATOM     87  C   UNL A   1      45.507  24.683  35.425  1.00  0.00     0.054 A 
BRANCH  87  88
ATOM     88  S   UNL A   1      46.354  23.297  36.204  1.00  0.00     0.124 S 
ATOM     89  O   UNL A   1      47.595  23.214  35.437  1.00  0.00    -0.237 OA
ATOM     90  O   UNL A   1      46.495  23.768  37.580  1.00  0.00    -0.237 OA
ATOM     91  O   UNL A   1      45.435  22.176  36.019  1.00  0.00    -0.744 OA
ENDBRANCH  87  88
ENDBRANCH  61  82
ENDBRANCH  35  36
ENDBRANCH  28  30
ENDBRANCH  27  28
ENDBRANCH  26  27
ENDBRANCH  25  26
ENDBRANCH   1  25
TORSDOF 20
ENDMDL
MODEL 3
REMARK VINA RESULT:     -11.1      1.926      3.272
REMARK SMILES Cc1ccc(Nc2c(Cl)cccc2Cl)c(CC(=O)OCCOCCOC(=O)c2ccc(-c3c4nc(c(-c5ccc(S(=O)(=O)[O-])cc5)c5ccc([nH]5)c(-c5ccc(S(=O)(=O)[O-])cc5)c5nc(c(-c6ccc(S(=O)(=O)[O-])cc6)c6ccc3[nH]6)C=C5)C=C4)cc2)c1
REMARK SMILES IDX 22 1 21 2 20 3 19 4 17 5 18 6 16 7 15 8 1 9 2 10 3 11 88 12
REMARK SMILES IDX 4 13 5 14 6 15 7 17 8 18 13 19 9 20 10 21 12 22 14 23 11 24
REMARK SMILES IDX 23 25 24 26 25 27 26 28 27 29 28 30 29 31 87 32 30 33 86 34
REMARK SMILES IDX 31 35 32 36 33 37 80 38 34 39 85 40 79 41 81 42 35 43 84 44
REMARK SMILES IDX 78 45 77 46 36 48 66 49 47 50 65 51 48 52 51 53 64 54 82 55
REMARK SMILES IDX 49 56 50 57 63 59 83 60 52 61 37 62 38 63 46 64 39 65 45 66
REMARK SMILES IDX 40 67 41 68 42 69 43 70 44 71 67 72 68 73 76 74 69 75 75 76
REMARK SMILES IDX 70 77 71 78 72 79 73 80 74 81 53 82 54 83 62 84 55 85 61 86
REMARK SMILES IDX 56 87 57 88 58 89 59 90 60 91
REMARK H PARENT 6 16 81 47 51 58
REMARK Flexibility Score: inf
ROOT
ATOM      1  O   UNL A   1      32.617  27.908  26.602  1.00  0.00    -0.374 OA
ENDROOT
BRANCH   1   2
ATOM      2  C   UNL A   1      32.657  26.590  26.100  1.00  0.00     0.202 C 
BRANCH   2   3
ATOM      3  C   UNL A   1      31.926  25.733  27.107  1.00  0.00     0.261 C 
BRANCH   3   4
ATOM      4  O   UNL A   1      30.955  24.883  26.521  1.00  0.00    -0.463 OA
BRANCH   4   5
ATOM      5  C   UNL A   1      31.090  23.527  26.692  1.00  0.00     0.310 C 
ATOM      6  O   UNL A   1      31.539  22.948  27.658  1.00  0.00    -0.252 OA
BRANCH   5   7
ATOM      7  C   UNL A   1      30.611  22.798  25.444  1.00  0.00     0.160 C 
BRANCH   7   8
ATOM      8  C   UNL A   1      31.761  22.647  24.464  1.00  0.00    -0.013 A 
ATOM      9  C   UNL A   1      35.256  21.210  25.057  1.00  0.00     0.044 C 
ATOM     10  C   UNL A   1      34.112  21.944  24.425  1.00  0.00    -0.051 A 
ATOM     11  C   UNL A   1      34.334  22.860  23.405  1.00  0.00     0.005 A 
ATOM     12  C   UNL A   1      32.813  21.797  24.905  1.00  0.00     0.009 A 
ATOM     13  C   UNL A   1      33.283  23.646  22.911  1.00  0.00     0.026 A 
ATOM     14  C   UNL A   1      31.975  23.580  23.428  1.00  0.00     0.042 A 
BRANCH  14  15
ATOM     15  N   UNL A   1      30.942  24.441  22.956  1.00  0.00    -0.353 N 
ATOM     16  H   UNL A   1      30.100  23.998  22.703  1.00  0.00     0.167 HD
BRANCH  15  17
ATOM     17  C   UNL A   1      30.965  25.859  22.803  1.00  0.00     0.076 A 
ATOM     18  C   UNL A   1      31.935  26.525  22.033  1.00  0.00     0.066 A 
ATOM     19  C   UNL A   1      30.127  26.676  23.591  1.00  0.00     0.066 A 
ATOM     20  Cl  UNL A   1      32.742  25.743  20.711  1.00  0.00    -0.082 Cl
ATOM     21  C   UNL A   1      32.229  27.877  22.247  1.00  0.00     0.023 A 
ATOM     22  C   UNL A   1      30.445  28.016  23.845  1.00  0.00     0.023 A 
ATOM     23  Cl  UNL A   1      28.611  26.092  24.185  1.00  0.00    -0.082 Cl
ATOM     24  C   UNL A   1      31.533  28.603  23.207  1.00  0.00     0.003 A 
ENDBRANCH  15  17
ENDBRANCH  14  15
ENDBRANCH   7   8
ENDBRANCH   5   7
ENDBRANCH   4   5
ENDBRANCH   3   4
ENDBRANCH   2   3
ENDBRANCH   1   2
BRANCH   1  25
ATOM     25  C   UNL A   1      33.850  28.578  26.636  1.00  0.00     0.202 C 
BRANCH  25  26
ATOM     26  C   UNL A   1      33.593  30.063  26.429  1.00  0.00     0.261 C 
BRANCH  26  27
ATOM     27  O   UNL A   1      33.834  30.846  27.627  1.00  0.00    -0.460 OA
BRANCH  27  28
ATOM     28  C   UNL A   1      35.063  31.438  27.749  1.00  0.00     0.338 C 
ATOM     29  O   UNL A   1      35.236  32.645  27.664  1.00  0.00    -0.246 OA
BRANCH  28  30
ATOM     30  C   UNL A   1      36.103  30.495  28.234  1.00  0.00     0.060 A 
ATOM     31  C   UNL A   1      35.987  29.865  29.484  1.00  0.00     0.016 A 
ATOM     32  C   UNL A   1      37.281  30.384  27.500  1.00  0.00     0.016 A 
ATOM     33  C   UNL A   1      37.109  29.265  30.074  1.00  0.00     0.010 A 
ATOM     34  C   UNL A   1      38.405  29.892  28.129  1.00  0.00     0.010 A 
ATOM     35  C   UNL A   1      38.336  29.346  29.423  1.00  0.00    -0.014 A 
BRANCH  35  36
ATOM     36  C   UNL A   1      39.632  28.911  29.944  1.00  0.00     0.031 A 
ATOM     37  C   UNL A   1      40.177  27.634  29.428  1.00  0.00     0.074 A 
ATOM     38  C   UNL A   1      40.436  29.749  30.640  1.00  0.00     0.049 A 
ATOM     39  N   UNL A   1      41.295  27.134  29.809  1.00  0.00    -0.248 NA
ATOM     40  C   UNL A   1      39.492  26.773  28.459  1.00  0.00     0.031 C 
ATOM     41  C   UNL A   1      41.901  29.755  30.714  1.00  0.00     0.029 A 
ATOM     42  N   UNL A   1      40.114  30.811  31.456  1.00  0.00    -0.354 N 
ATOM     43  C   UNL A   1      41.653  26.177  28.896  1.00  0.00     0.074 A 
ATOM     44  C   UNL A   1      40.452  25.892  28.157  1.00  0.00     0.031 C 
ATOM     45  C   UNL A   1      42.302  30.577  31.701  1.00  0.00     0.029 A 
ATOM     46  C   UNL A   1      41.109  31.025  32.400  1.00  0.00     0.049 A 
ATOM     47  H   UNL A   1      39.291  31.345  31.380  1.00  0.00     0.167 HD
ATOM     48  C   UNL A   1      42.971  25.854  28.809  1.00  0.00     0.031 A 
ATOM     49  C   UNL A   1      40.825  30.878  33.728  1.00  0.00     0.031 A 
ATOM     50  C   UNL A   1      43.731  26.444  29.924  1.00  0.00     0.049 A 
ATOM     51  C   UNL A   1      41.516  29.627  34.254  1.00  0.00     0.074 A 
ATOM     52  C   UNL A   1      44.685  27.440  30.039  1.00  0.00     0.029 A 
ATOM     53  N   UNL A   1      43.277  26.209  31.219  1.00  0.00    -0.354 N 
ATOM     54  N   UNL A   1      42.139  28.789  33.466  1.00  0.00    -0.248 NA
ATOM     55  C   UNL A   1      41.591  29.198  35.646  1.00  0.00     0.031 C 
ATOM     56  C   UNL A   1      44.757  27.822  31.419  1.00  0.00     0.029 A 
ATOM     57  C   UNL A   1      43.881  27.032  32.147  1.00  0.00     0.049 A 
ATOM     58  H   UNL A   1      42.601  25.531  31.447  1.00  0.00     0.167 HD
ATOM     59  C   UNL A   1      42.736  27.798  34.170  1.00  0.00     0.074 A 
ATOM     60  C   UNL A   1      42.294  28.051  35.537  1.00  0.00     0.031 C 
ATOM     61  C   UNL A   1      43.545  26.875  33.566  1.00  0.00     0.031 A 
BRANCH  48  62
ATOM     62  C   UNL A   1      43.604  25.134  27.640  1.00  0.00    -0.014 A 
ATOM     63  C   UNL A   1      43.764  23.737  27.704  1.00  0.00     0.010 A 
ATOM     64  C   UNL A   1      44.142  25.767  26.497  1.00  0.00     0.010 A 
ATOM     65  C   UNL A   1      44.421  23.013  26.696  1.00  0.00     0.020 A 
ATOM     66  C   UNL A   1      44.776  25.052  25.467  1.00  0.00     0.020 A 
ATOM     67  C   UNL A   1      44.922  23.676  25.579  1.00  0.00     0.054 A 
BRANCH  67  68
ATOM     68  S   UNL A   1      45.775  22.725  24.295  1.00  0.00     0.124 S 
ATOM     69  O   UNL A   1      46.336  21.609  25.053  1.00  0.00    -0.237 OA
ATOM     70  O   UNL A   1      44.688  22.382  23.381  1.00  0.00    -0.237 OA
ATOM     71  O   UNL A   1      46.759  23.664  23.759  1.00  0.00    -0.744 OA
ENDBRANCH  67  68
ENDBRANCH  48  62
BRANCH  49  72
ATOM     72  C   UNL A   1      39.459  31.431  34.044  1.00  0.00    -0.014 A 
ATOM     73  C   UNL A   1      39.377  32.844  34.161  1.00  0.00     0.010 A 
ATOM     74  C   UNL A   1      38.290  30.742  33.664  1.00  0.00     0.010 A 
ATOM     75  C   UNL A   1      38.232  33.551  33.755  1.00  0.00     0.020 A 
ATOM     76  C   UNL A   1      37.135  31.452  33.263  1.00  0.00     0.020 A 
ATOM     77  C   UNL A   1      37.127  32.852  33.275  1.00  0.00     0.054 A 
BRANCH  77  78
ATOM     78  S   UNL A   1      35.772  33.795  32.480  1.00  0.00     0.124 S 
ATOM     79  O   UNL A   1      35.950  35.126  33.047  1.00  0.00    -0.237 OA
ATOM     80  O   UNL A   1      36.086  33.678  31.056  1.00  0.00    -0.237 OA
ATOM     81  O   UNL A   1      34.575  33.080  32.906  1.00  0.00    -0.744 OA
ENDBRANCH  77  78
ENDBRANCH  49  72
BRANCH  61  82
ATOM     82  C   UNL A   1      44.076  25.673  34.288  1.00  0.00    -0.014 A 
ATOM     83  C   UNL A   1      43.414  24.441  34.309  1.00  0.00     0.010 A 
ATOM     84  C   UNL A   1      45.292  25.773  35.002  1.00  0.00     0.010 A 
ATOM     85  C   UNL A   1      44.021  23.318  34.873  1.00  0.00     0.020 A 
ATOM     86  C   UNL A   1      45.887  24.672  35.605  1.00  0.00     0.020 A 
ATOM     87  C   UNL A   1      45.266  23.437  35.494  1.00  0.00     0.054 A 
BRANCH  87  88
ATOM     88  S   UNL A   1      46.045  21.965  36.181  1.00  0.00     0.124 S 
ATOM     89  O   UNL A   1      47.442  22.136  35.787  1.00  0.00    -0.237 OA
ATOM     90  O   UNL A   1      45.771  22.119  37.607  1.00  0.00    -0.237 OA
ATOM     91  O   UNL A   1      45.347  20.861  35.526  1.00  0.00    -0.744 OA
ENDBRANCH  87  88
ENDBRANCH  61  82
ENDBRANCH  35  36
ENDBRANCH  28  30
ENDBRANCH  27  28
ENDBRANCH  26  27
ENDBRANCH  25  26
ENDBRANCH   1  25
TORSDOF 20
ENDMDL
