MODEL 1
REMARK VINA RESULT:     -10.8      0.000      0.000
REMARK SMILES CC1(C)[C@H](C(=O)Nc2cccc3[nH]ccc23)[C@H]1C(=O)OCCOCCOC(=O)c1ccc(-c2c3nc(c(-c4ccc(S(=O)(=O)[O-])cc4)c4ccc([nH]4)c(-c4ccc(S(=O)(=O)[O-])cc4)c4nc(c(-c5ccc(S(=O)(=O)[O-])cc5)c5ccc2[nH]5)C=C4)C=C3)cc1
REMARK SMILES IDX 24 1 23 2 22 3 21 4 20 5 18 6 19 7 17 8 1 9 2 10 3 11 4 12
REMARK SMILES IDX 5 13 6 14 7 15 8 17 9 18 16 19 10 20 12 21 15 22 11 23 13 24
REMARK SMILES IDX 14 25 25 27 26 28 27 29 28 30 29 31 30 32 88 33 31 34 87 35
REMARK SMILES IDX 32 36 33 37 34 38 81 39 35 40 86 41 80 42 82 43 36 44 85 45
REMARK SMILES IDX 79 46 78 47 37 49 67 50 48 51 66 52 49 53 52 54 65 55 83 56
REMARK SMILES IDX 50 57 51 58 64 60 84 61 53 62 38 63 39 64 47 65 40 66 46 67
REMARK SMILES IDX 41 68 42 69 43 70 44 71 45 72 68 73 69 74 77 75 70 76 76 77
REMARK SMILES IDX 71 78 72 79 73 80 74 81 75 82 54 83 55 84 63 85 56 86 62 87
REMARK SMILES IDX 57 88 58 89 59 90 60 91 61 92
REMARK H PARENT 7 16 13 26 82 48 52 59
REMARK Flexibility Score: inf
ROOT
ATOM      1  C   UNL A   1      31.786  28.097  26.004  1.00  0.00     0.202 C 
ENDROOT
BRANCH   1   2
ATOM      2  O   UNL A   1      32.464  28.356  24.774  1.00  0.00    -0.374 OA
BRANCH   2   3
ATOM      3  C   UNL A   1      32.834  27.232  23.968  1.00  0.00     0.202 C 
BRANCH   3   4
ATOM      4  C   UNL A   1      33.864  26.285  24.590  1.00  0.00     0.261 C 
BRANCH   4   5
ATOM      5  O   UNL A   1      33.379  24.939  24.498  1.00  0.00    -0.463 OA
BRANCH   5   6
ATOM      6  C   UNL A   1      34.041  24.133  23.636  1.00  0.00     0.310 C 
ATOM      7  O   UNL A   1      34.420  24.420  22.511  1.00  0.00    -0.252 OA
BRANCH   6   8
ATOM      8  C   UNL A   1      34.447  22.864  24.277  1.00  0.00     0.118 C 
ATOM      9  C   UNL A   1      36.495  23.847  25.624  1.00  0.00     0.013 C 
ATOM     10  C   UNL A   1      35.620  22.679  25.234  1.00  0.00    -0.009 C 
ATOM     11  C   UNL A   1      36.410  21.397  25.107  1.00  0.00     0.013 C 
ATOM     12  C   UNL A   1      34.176  22.688  25.749  1.00  0.00     0.100 C 
BRANCH  12  13
ATOM     13  C   UNL A   1      33.437  21.512  26.298  1.00  0.00     0.228 C 
ATOM     14  O   UNL A   1      33.663  21.142  27.443  1.00  0.00    -0.274 OA
ATOM     15  N   UNL A   1      32.356  21.065  25.574  1.00  0.00    -0.325 N 
ATOM     16  H   UNL A   1      31.470  21.432  25.802  1.00  0.00     0.169 HD
BRANCH  15  17
ATOM     17  C   UNL A   1      32.420  20.124  24.530  1.00  0.00     0.050 A 
ATOM     18  C   UNL A   1      32.300  20.517  23.191  1.00  0.00     0.027 A 
ATOM     19  C   UNL A   1      32.586  18.750  24.814  1.00  0.00     0.023 A 
ATOM     20  C   UNL A   1      32.209  19.581  22.162  1.00  0.00     0.004 A 
ATOM     21  C   UNL A   1      32.495  17.832  23.762  1.00  0.00     0.047 A 
ATOM     22  C   UNL A   1      32.809  17.985  25.999  1.00  0.00     0.030 A 
ATOM     23  C   UNL A   1      32.277  18.216  22.434  1.00  0.00     0.027 A 
ATOM     24  N   UNL A   1      32.645  16.573  24.298  1.00  0.00    -0.361 N 
ATOM     25  C   UNL A   1      32.862  16.656  25.646  1.00  0.00     0.083 A 
ATOM     26  H   UNL A   1      32.601  15.734  23.785  1.00  0.00     0.166 HD
ENDBRANCH  15  17
ENDBRANCH  12  13
ENDBRANCH   6   8
ENDBRANCH   5   6
ENDBRANCH   4   5
ENDBRANCH   3   4
ENDBRANCH   2   3
ENDBRANCH   1   2
BRANCH   1  27
ATOM     27  C   UNL A   1      32.466  28.590  27.287  1.00  0.00     0.261 C 
BRANCH  27  28
ATOM     28  O   UNL A   1      33.875  28.823  27.125  1.00  0.00    -0.460 OA
BRANCH  28  29
ATOM     29  C   UNL A   1      34.312  30.011  27.612  1.00  0.00     0.338 C 
ATOM     30  O   UNL A   1      33.657  31.028  27.771  1.00  0.00    -0.246 OA
BRANCH  29  31
ATOM     31  C   UNL A   1      35.699  29.881  28.096  1.00  0.00     0.060 A 
ATOM     32  C   UNL A   1      36.731  30.040  27.162  1.00  0.00     0.016 A 
ATOM     33  C   UNL A   1      35.986  29.538  29.419  1.00  0.00     0.016 A 
ATOM     34  C   UNL A   1      38.055  29.830  27.541  1.00  0.00     0.010 A 
ATOM     35  C   UNL A   1      37.316  29.314  29.795  1.00  0.00     0.010 A 
ATOM     36  C   UNL A   1      38.353  29.435  28.852  1.00  0.00    -0.014 A 
BRANCH  36  37
ATOM     37  C   UNL A   1      39.741  29.054  29.209  1.00  0.00     0.031 A 
ATOM     38  C   UNL A   1      40.623  30.049  29.911  1.00  0.00     0.074 A 
ATOM     39  C   UNL A   1      40.206  27.826  28.922  1.00  0.00     0.049 A 
ATOM     40  N   UNL A   1      41.871  29.928  30.284  1.00  0.00    -0.248 NA
ATOM     41  C   UNL A   1      40.017  31.349  30.242  1.00  0.00     0.031 C 
ATOM     42  C   UNL A   1      39.436  26.758  28.284  1.00  0.00     0.029 A 
ATOM     43  N   UNL A   1      41.445  27.272  29.128  1.00  0.00    -0.354 N 
ATOM     44  C   UNL A   1      42.204  31.135  30.889  1.00  0.00     0.074 A 
ATOM     45  C   UNL A   1      41.032  31.982  30.813  1.00  0.00     0.031 C 
ATOM     46  C   UNL A   1      40.225  25.678  28.142  1.00  0.00     0.029 A 
ATOM     47  C   UNL A   1      41.561  25.990  28.647  1.00  0.00     0.049 A 
ATOM     48  H   UNL A   1      42.181  27.747  29.577  1.00  0.00     0.167 HD
ATOM     49  C   UNL A   1      43.376  31.503  31.459  1.00  0.00     0.031 A 
ATOM     50  C   UNL A   1      42.628  25.169  28.597  1.00  0.00     0.031 A 
ATOM     51  C   UNL A   1      44.547  30.669  31.513  1.00  0.00     0.049 A 
ATOM     52  C   UNL A   1      43.948  25.635  29.150  1.00  0.00     0.074 A 
ATOM     53  C   UNL A   1      45.776  30.948  32.086  1.00  0.00     0.029 A 
ATOM     54  N   UNL A   1      44.641  29.400  30.965  1.00  0.00    -0.354 N 
ATOM     55  N   UNL A   1      44.238  26.769  29.743  1.00  0.00    -0.248 NA
ATOM     56  C   UNL A   1      45.085  24.711  29.025  1.00  0.00     0.031 C 
ATOM     57  C   UNL A   1      46.631  29.869  31.834  1.00  0.00     0.029 A 
ATOM     58  C   UNL A   1      45.918  28.896  31.151  1.00  0.00     0.049 A 
ATOM     59  H   UNL A   1      43.908  28.926  30.509  1.00  0.00     0.167 HD
ATOM     60  C   UNL A   1      45.587  26.689  30.073  1.00  0.00     0.074 A 
ATOM     61  C   UNL A   1      46.051  25.390  29.629  1.00  0.00     0.031 C 
ATOM     62  C   UNL A   1      46.371  27.608  30.690  1.00  0.00     0.031 A 
BRANCH  49  63
ATOM     63  C   UNL A   1      43.457  32.890  32.036  1.00  0.00    -0.014 A 
ATOM     64  C   UNL A   1      43.787  33.995  31.231  1.00  0.00     0.010 A 
ATOM     65  C   UNL A   1      43.175  33.094  33.399  1.00  0.00     0.010 A 
ATOM     66  C   UNL A   1      43.875  35.274  31.788  1.00  0.00     0.020 A 
ATOM     67  C   UNL A   1      43.240  34.376  33.955  1.00  0.00     0.020 A 
ATOM     68  C   UNL A   1      43.609  35.454  33.149  1.00  0.00     0.054 A 
BRANCH  68  69
ATOM     69  S   UNL A   1      43.725  37.125  33.847  1.00  0.00     0.124 S 
ATOM     70  O   UNL A   1      44.688  36.932  34.927  1.00  0.00    -0.237 OA
ATOM     71  O   UNL A   1      44.202  37.914  32.714  1.00  0.00    -0.237 OA
ATOM     72  O   UNL A   1      42.359  37.418  34.274  1.00  0.00    -0.744 OA
ENDBRANCH  68  69
ENDBRANCH  49  63
BRANCH  50  73
ATOM     73  C   UNL A   1      42.500  23.826  27.968  1.00  0.00    -0.014 A 
ATOM     74  C   UNL A   1      42.741  23.652  26.595  1.00  0.00     0.010 A 
ATOM     75  C   UNL A   1      42.144  22.711  28.749  1.00  0.00     0.010 A 
ATOM     76  C   UNL A   1      42.620  22.387  26.012  1.00  0.00     0.020 A 
ATOM     77  C   UNL A   1      42.046  21.441  28.175  1.00  0.00     0.020 A 
ATOM     78  C   UNL A   1      42.276  21.289  26.806  1.00  0.00     0.054 A 
BRANCH  78  79
ATOM     79  S   UNL A   1      42.187  19.647  26.041  1.00  0.00     0.124 S 
ATOM     80  O   UNL A   1      40.772  19.548  25.697  1.00  0.00    -0.237 OA
ATOM     81  O   UNL A   1      43.106  19.773  24.912  1.00  0.00    -0.237 OA
ATOM     82  O   UNL A   1      42.638  18.751  27.104  1.00  0.00    -0.744 OA
ENDBRANCH  78  79
ENDBRANCH  50  73
BRANCH  62  83
ATOM     83  C   UNL A   1      47.811  27.243  30.929  1.00  0.00    -0.014 A 
ATOM     84  C   UNL A   1      48.198  26.552  32.092  1.00  0.00     0.010 A 
ATOM     85  C   UNL A   1      48.780  27.545  29.956  1.00  0.00     0.010 A 
ATOM     86  C   UNL A   1      49.535  26.191  32.286  1.00  0.00     0.020 A 
ATOM     87  C   UNL A   1      50.113  27.164  30.135  1.00  0.00     0.020 A 
ATOM     88  C   UNL A   1      50.484  26.500  31.306  1.00  0.00     0.054 A 
BRANCH  88  89
ATOM     89  S   UNL A   1      52.203  25.976  31.559  1.00  0.00     0.124 S 
ATOM     90  O   UNL A   1      52.039  24.587  31.974  1.00  0.00    -0.237 OA
ATOM     91  O   UNL A   1      52.797  26.172  30.238  1.00  0.00    -0.237 OA
ATOM     92  O   UNL A   1      52.692  26.884  32.595  1.00  0.00    -0.744 OA
ENDBRANCH  88  89
ENDBRANCH  62  83
ENDBRANCH  36  37
ENDBRANCH  29  31
ENDBRANCH  28  29
ENDBRANCH  27  28
ENDBRANCH   1  27
TORSDOF 19
ENDMDL
MODEL 2
REMARK VINA RESULT:     -10.7      1.618      2.641
REMARK SMILES CC1(C)[C@H](C(=O)Nc2cccc3[nH]ccc23)[C@H]1C(=O)OCCOCCOC(=O)c1ccc(-c2c3nc(c(-c4ccc(S(=O)(=O)[O-])cc4)c4ccc([nH]4)c(-c4ccc(S(=O)(=O)[O-])cc4)c4nc(c(-c5ccc(S(=O)(=O)[O-])cc5)c5ccc2[nH]5)C=C4)C=C3)cc1
REMARK SMILES IDX 24 1 23 2 22 3 21 4 20 5 18 6 19 7 17 8 1 9 2 10 3 11 4 12
REMARK SMILES IDX 5 13 6 14 7 15 8 17 9 18 16 19 10 20 12 21 15 22 11 23 13 24
REMARK SMILES IDX 14 25 25 27 26 28 27 29 28 30 29 31 30 32 88 33 31 34 87 35
REMARK SMILES IDX 32 36 33 37 34 38 81 39 35 40 86 41 80 42 82 43 36 44 85 45
REMARK SMILES IDX 79 46 78 47 37 49 67 50 48 51 66 52 49 53 52 54 65 55 83 56
REMARK SMILES IDX 50 57 51 58 64 60 84 61 53 62 38 63 39 64 47 65 40 66 46 67
REMARK SMILES IDX 41 68 42 69 43 70 44 71 45 72 68 73 69 74 77 75 70 76 76 77
REMARK SMILES IDX 71 78 72 79 73 80 74 81 75 82 54 83 55 84 63 85 56 86 62 87
REMARK SMILES IDX 57 88 58 89 59 90 60 91 61 92
REMARK H PARENT 7 16 13 26 82 48 52 59
REMARK Flexibility Score: inf
ROOT
ATOM      1  C   UNL A   1      31.832  28.797  25.993  1.00  0.00     0.202 C 
ENDROOT
BRANCH   1   2
ATOM      2  O   UNL A   1      32.622  29.215  24.879  1.00  0.00    -0.374 OA
BRANCH   2   3
ATOM      3  C   UNL A   1      32.139  28.906  23.567  1.00  0.00     0.202 C 
BRANCH   3   4
ATOM      4  C   UNL A   1      33.083  28.075  22.694  1.00  0.00     0.261 C 
BRANCH   4   5
ATOM      5  O   UNL A   1      32.324  27.068  22.011  1.00  0.00    -0.463 OA
BRANCH   5   6
ATOM      6  C   UNL A   1      32.849  25.821  22.034  1.00  0.00     0.310 C 
ATOM      7  O   UNL A   1      33.531  25.298  21.166  1.00  0.00    -0.252 OA
BRANCH   6   8
ATOM      8  C   UNL A   1      32.668  25.175  23.352  1.00  0.00     0.118 C 
ATOM      9  C   UNL A   1      32.601  22.689  22.466  1.00  0.00     0.013 C 
ATOM     10  C   UNL A   1      32.540  23.677  23.607  1.00  0.00    -0.009 C 
ATOM     11  C   UNL A   1      31.566  23.247  24.677  1.00  0.00     0.013 C 
ATOM     12  C   UNL A   1      33.833  24.427  23.948  1.00  0.00     0.100 C 
BRANCH  12  13
ATOM     13  C   UNL A   1      34.348  24.700  25.323  1.00  0.00     0.228 C 
ATOM     14  O   UNL A   1      34.138  25.791  25.837  1.00  0.00    -0.274 OA
ATOM     15  N   UNL A   1      34.809  23.619  26.038  1.00  0.00    -0.325 N 
ATOM     16  H   UNL A   1      34.169  23.153  26.624  1.00  0.00     0.169 HD
BRANCH  15  17
ATOM     17  C   UNL A   1      36.128  23.130  25.996  1.00  0.00     0.050 A 
ATOM     18  C   UNL A   1      37.213  23.936  26.362  1.00  0.00     0.027 A 
ATOM     19  C   UNL A   1      36.388  21.810  25.560  1.00  0.00     0.023 A 
ATOM     20  C   UNL A   1      38.528  23.514  26.180  1.00  0.00     0.004 A 
ATOM     21  C   UNL A   1      37.719  21.412  25.391  1.00  0.00     0.047 A 
ATOM     22  C   UNL A   1      35.581  20.695  25.185  1.00  0.00     0.030 A 
ATOM     23  C   UNL A   1      38.805  22.250  25.662  1.00  0.00     0.027 A 
ATOM     24  N   UNL A   1      37.705  20.117  24.922  1.00  0.00    -0.361 N 
ATOM     25  C   UNL A   1      36.417  19.666  24.820  1.00  0.00     0.083 A 
ATOM     26  H   UNL A   1      38.506  19.593  24.692  1.00  0.00     0.166 HD
ENDBRANCH  15  17
ENDBRANCH  12  13
ENDBRANCH   6   8
ENDBRANCH   5   6
ENDBRANCH   4   5
ENDBRANCH   3   4
ENDBRANCH   2   3
ENDBRANCH   1   2
BRANCH   1  27
ATOM     27  C   UNL A   1      32.553  28.655  27.339  1.00  0.00     0.261 C 
BRANCH  27  28
ATOM     28  O   UNL A   1      33.977  28.810  27.235  1.00  0.00    -0.460 OA
BRANCH  28  29
ATOM     29  C   UNL A   1      34.452  29.997  27.687  1.00  0.00     0.338 C 
ATOM     30  O   UNL A   1      33.823  31.030  27.844  1.00  0.00    -0.246 OA
BRANCH  29  31
ATOM     31  C   UNL A   1      35.848  29.846  28.139  1.00  0.00     0.060 A 
ATOM     32  C   UNL A   1      36.859  29.982  27.179  1.00  0.00     0.016 A 
ATOM     33  C   UNL A   1      36.162  29.506  29.456  1.00  0.00     0.016 A 
ATOM     34  C   UNL A   1      38.189  29.751  27.527  1.00  0.00     0.010 A 
ATOM     35  C   UNL A   1      37.496  29.262  29.801  1.00  0.00     0.010 A 
ATOM     36  C   UNL A   1      38.512  29.360  28.833  1.00  0.00    -0.014 A 
BRANCH  36  37
ATOM     37  C   UNL A   1      39.902  28.957  29.158  1.00  0.00     0.031 A 
ATOM     38  C   UNL A   1      40.817  29.940  29.831  1.00  0.00     0.074 A 
ATOM     39  C   UNL A   1      40.339  27.718  28.868  1.00  0.00     0.049 A 
ATOM     40  N   UNL A   1      42.073  29.801  30.174  1.00  0.00    -0.248 NA
ATOM     41  C   UNL A   1      40.242  31.253  30.168  1.00  0.00     0.031 C 
ATOM     42  C   UNL A   1      39.535  26.660  28.257  1.00  0.00     0.029 A 
ATOM     43  N   UNL A   1      41.572  27.144  29.048  1.00  0.00    -0.354 N 
ATOM     44  C   UNL A   1      42.440  31.006  30.763  1.00  0.00     0.074 A 
ATOM     45  C   UNL A   1      41.282  31.872  30.709  1.00  0.00     0.031 C 
ATOM     46  C   UNL A   1      40.301  25.566  28.103  1.00  0.00     0.029 A 
ATOM     47  C   UNL A   1      41.654  25.858  28.573  1.00  0.00     0.049 A 
ATOM     48  H   UNL A   1      42.327  27.610  29.475  1.00  0.00     0.167 HD
ATOM     49  C   UNL A   1      43.632  31.357  31.300  1.00  0.00     0.031 A 
ATOM     50  C   UNL A   1      42.706  25.018  28.503  1.00  0.00     0.031 A 
ATOM     51  C   UNL A   1      44.790  30.504  31.332  1.00  0.00     0.049 A 
ATOM     52  C   UNL A   1      44.047  25.465  29.019  1.00  0.00     0.074 A 
ATOM     53  C   UNL A   1      46.038  30.765  31.872  1.00  0.00     0.029 A 
ATOM     54  N   UNL A   1      44.849  29.230  30.790  1.00  0.00    -0.354 N 
ATOM     55  N   UNL A   1      44.371  26.598  29.598  1.00  0.00    -0.248 NA
ATOM     56  C   UNL A   1      45.164  24.521  28.873  1.00  0.00     0.031 C 
ATOM     57  C   UNL A   1      46.867  29.669  31.607  1.00  0.00     0.029 A 
ATOM     58  C   UNL A   1      46.121  28.705  30.949  1.00  0.00     0.049 A 
ATOM     59  H   UNL A   1      44.097  28.765  30.356  1.00  0.00     0.167 HD
ATOM     60  C   UNL A   1      45.726  26.497  29.895  1.00  0.00     0.074 A 
ATOM     61  C   UNL A   1      46.156  25.187  29.449  1.00  0.00     0.031 C 
ATOM     62  C   UNL A   1      46.540  27.405  30.486  1.00  0.00     0.031 A 
BRANCH  49  63
ATOM     63  C   UNL A   1      43.752  32.747  31.866  1.00  0.00    -0.014 A 
ATOM     64  C   UNL A   1      43.435  33.015  33.210  1.00  0.00     0.010 A 
ATOM     65  C   UNL A   1      44.210  33.794  31.046  1.00  0.00     0.010 A 
ATOM     66  C   UNL A   1      43.535  34.315  33.713  1.00  0.00     0.020 A 
ATOM     67  C   UNL A   1      44.332  35.092  31.552  1.00  0.00     0.020 A 
ATOM     68  C   UNL A   1      43.975  35.346  32.878  1.00  0.00     0.054 A 
BRANCH  68  69
ATOM     69  S   UNL A   1      44.101  37.024  33.556  1.00  0.00     0.124 S 
ATOM     70  O   UNL A   1      45.537  37.148  33.787  1.00  0.00    -0.237 OA
ATOM     71  O   UNL A   1      43.566  37.850  32.476  1.00  0.00    -0.237 OA
ATOM     72  O   UNL A   1      43.279  36.974  34.762  1.00  0.00    -0.744 OA
ENDBRANCH  68  69
ENDBRANCH  49  63
BRANCH  50  73
ATOM     73  C   UNL A   1      42.539  23.674  27.887  1.00  0.00    -0.014 A 
ATOM     74  C   UNL A   1      42.983  23.425  26.577  1.00  0.00     0.010 A 
ATOM     75  C   UNL A   1      41.941  22.631  28.617  1.00  0.00     0.010 A 
ATOM     76  C   UNL A   1      42.824  22.159  26.006  1.00  0.00     0.020 A 
ATOM     77  C   UNL A   1      41.802  21.357  28.059  1.00  0.00     0.020 A 
ATOM     78  C   UNL A   1      42.238  21.132  26.752  1.00  0.00     0.054 A 
BRANCH  78  79
ATOM     79  S   UNL A   1      42.100  19.481  26.014  1.00  0.00     0.124 S 
ATOM     80  O   UNL A   1      42.940  19.607  24.827  1.00  0.00    -0.237 OA
ATOM     81  O   UNL A   1      42.622  18.617  27.071  1.00  0.00    -0.237 OA
ATOM     82  O   UNL A   1      40.668  19.341  25.756  1.00  0.00    -0.744 OA
ENDBRANCH  78  79
ENDBRANCH  50  73
BRANCH  62  83
ATOM     83  C   UNL A   1      47.979  27.018  30.692  1.00  0.00    -0.014 A 
ATOM     84  C   UNL A   1      48.966  27.375  29.756  1.00  0.00     0.010 A 
ATOM     85  C   UNL A   1      48.359  26.337  31.863  1.00  0.00     0.010 A 
ATOM     86  C   UNL A   1      50.305  27.037  29.977  1.00  0.00     0.020 A 
ATOM     87  C   UNL A   1      49.700  26.018  32.098  1.00  0.00     0.020 A 
ATOM     88  C   UNL A   1      50.663  26.360  31.147  1.00  0.00     0.054 A 
BRANCH  88  89
ATOM     89  S   UNL A   1      52.413  25.976  31.434  1.00  0.00     0.124 S 
ATOM     90  O   UNL A   1      52.816  27.054  32.332  1.00  0.00    -0.237 OA
ATOM     91  O   UNL A   1      52.357  24.646  32.035  1.00  0.00    -0.237 OA
ATOM     92  O   UNL A   1      53.001  26.025  30.097  1.00  0.00    -0.744 OA
ENDBRANCH  88  89
ENDBRANCH  62  83
ENDBRANCH  36  37
ENDBRANCH  29  31
ENDBRANCH  28  29
ENDBRANCH  27  28
ENDBRANCH   1  27
TORSDOF 19
ENDMDL
MODEL 3
REMARK VINA RESULT:     -10.7      4.384      9.976
REMARK SMILES CC1(C)[C@H](C(=O)Nc2cccc3[nH]ccc23)[C@H]1C(=O)OCCOCCOC(=O)c1ccc(-c2c3nc(c(-c4ccc(S(=O)(=O)[O-])cc4)c4ccc([nH]4)c(-c4ccc(S(=O)(=O)[O-])cc4)c4nc(c(-c5ccc(S(=O)(=O)[O-])cc5)c5ccc2[nH]5)C=C4)C=C3)cc1
REMARK SMILES IDX 24 1 23 2 22 3 21 4 20 5 18 6 19 7 17 8 1 9 2 10 3 11 4 12
REMARK SMILES IDX 5 13 6 14 7 15 8 17 9 18 16 19 10 20 12 21 15 22 11 23 13 24
REMARK SMILES IDX 14 25 25 27 26 28 27 29 28 30 29 31 30 32 88 33 31 34 87 35
REMARK SMILES IDX 32 36 33 37 34 38 81 39 35 40 86 41 80 42 82 43 36 44 85 45
REMARK SMILES IDX 79 46 78 47 37 49 67 50 48 51 66 52 49 53 52 54 65 55 83 56
REMARK SMILES IDX 50 57 51 58 64 60 84 61 53 62 38 63 39 64 47 65 40 66 46 67
REMARK SMILES IDX 41 68 42 69 43 70 44 71 45 72 68 73 69 74 77 75 70 76 76 77
REMARK SMILES IDX 71 78 72 79 73 80 74 81 75 82 54 83 55 84 63 85 56 86 62 87
REMARK SMILES IDX 57 88 58 89 59 90 60 91 61 92
REMARK H PARENT 7 16 13 26 82 48 52 59
REMARK Flexibility Score: inf
ROOT
ATOM      1  C   UNL A   1      37.856  22.344  25.753  1.00  0.00     0.202 C 
ENDROOT
BRANCH   1   2
ATOM      2  O   UNL A   1      37.453  22.923  24.511  1.00  0.00    -0.374 OA
BRANCH   2   3
ATOM      3  C   UNL A   1      36.237  22.451  23.921  1.00  0.00     0.202 C 
BRANCH   3   4
ATOM      4  C   UNL A   1      35.050  23.416  23.991  1.00  0.00     0.261 C 
BRANCH   4   5
ATOM      5  O   UNL A   1      34.888  24.053  22.717  1.00  0.00    -0.463 OA
BRANCH   5   6
ATOM      6  C   UNL A   1      33.959  25.035  22.665  1.00  0.00     0.310 C 
ATOM      7  O   UNL A   1      33.521  25.574  21.660  1.00  0.00    -0.252 OA
BRANCH   6   8
ATOM      8  C   UNL A   1      33.353  25.286  23.990  1.00  0.00     0.118 C 
ATOM      9  C   UNL A   1      33.054  27.893  23.699  1.00  0.00     0.013 C 
ATOM     10  C   UNL A   1      32.907  26.641  24.530  1.00  0.00    -0.009 C 
ATOM     11  C   UNL A   1      33.148  26.904  25.998  1.00  0.00     0.013 C 
ATOM     12  C   UNL A   1      31.882  25.606  24.054  1.00  0.00     0.100 C 
BRANCH  12  13
ATOM     13  C   UNL A   1      30.930  24.853  24.927  1.00  0.00     0.228 C 
ATOM     14  O   UNL A   1      29.975  25.440  25.418  1.00  0.00    -0.274 OA
ATOM     15  N   UNL A   1      31.038  23.482  24.923  1.00  0.00    -0.325 N 
ATOM     16  H   UNL A   1      30.479  22.982  24.283  1.00  0.00     0.169 HD
BRANCH  15  17
ATOM     17  C   UNL A   1      31.885  22.738  25.765  1.00  0.00     0.050 A 
ATOM     18  C   UNL A   1      32.195  23.182  27.057  1.00  0.00     0.027 A 
ATOM     19  C   UNL A   1      32.462  21.529  25.313  1.00  0.00     0.023 A 
ATOM     20  C   UNL A   1      33.149  22.536  27.839  1.00  0.00     0.004 A 
ATOM     21  C   UNL A   1      33.414  20.898  26.122  1.00  0.00     0.047 A 
ATOM     22  C   UNL A   1      32.342  20.733  24.135  1.00  0.00     0.030 A 
ATOM     23  C   UNL A   1      33.799  21.394  27.373  1.00  0.00     0.027 A 
ATOM     24  N   UNL A   1      33.852  19.780  25.449  1.00  0.00    -0.361 N 
ATOM     25  C   UNL A   1      33.190  19.657  24.257  1.00  0.00     0.083 A 
ATOM     26  H   UNL A   1      34.542  19.160  25.777  1.00  0.00     0.166 HD
ENDBRANCH  15  17
ENDBRANCH  12  13
ENDBRANCH   6   8
ENDBRANCH   5   6
ENDBRANCH   4   5
ENDBRANCH   3   4
ENDBRANCH   2   3
ENDBRANCH   1   2
BRANCH   1  27
ATOM     27  C   UNL A   1      39.103  22.937  26.421  1.00  0.00     0.261 C 
BRANCH  27  28
ATOM     28  O   UNL A   1      39.035  24.364  26.576  1.00  0.00    -0.460 OA
BRANCH  28  29
ATOM     29  C   UNL A   1      40.236  24.994  26.547  1.00  0.00     0.338 C 
ATOM     30  O   UNL A   1      41.063  24.962  25.652  1.00  0.00    -0.246 OA
BRANCH  29  31
ATOM     31  C   UNL A   1      40.366  25.892  27.711  1.00  0.00     0.060 A 
ATOM     32  C   UNL A   1      39.379  25.816  28.702  1.00  0.00     0.016 A 
ATOM     33  C   UNL A   1      41.388  26.839  27.798  1.00  0.00     0.016 A 
ATOM     34  C   UNL A   1      39.395  26.708  29.773  1.00  0.00     0.010 A 
ATOM     35  C   UNL A   1      41.395  27.742  28.867  1.00  0.00     0.010 A 
ATOM     36  C   UNL A   1      40.386  27.696  29.846  1.00  0.00    -0.014 A 
BRANCH  36  37
ATOM     37  C   UNL A   1      40.306  28.743  30.893  1.00  0.00     0.031 A 
ATOM     38  C   UNL A   1      41.218  28.665  32.086  1.00  0.00     0.074 A 
ATOM     39  C   UNL A   1      39.438  29.762  30.774  1.00  0.00     0.049 A 
ATOM     40  N   UNL A   1      41.291  29.457  33.125  1.00  0.00    -0.248 NA
ATOM     41  C   UNL A   1      42.180  27.551  32.108  1.00  0.00     0.031 C 
ATOM     42  C   UNL A   1      38.532  29.974  29.645  1.00  0.00     0.029 A 
ATOM     43  N   UNL A   1      39.174  30.811  31.620  1.00  0.00    -0.354 N 
ATOM     44  C   UNL A   1      42.300  28.938  33.927  1.00  0.00     0.074 A 
ATOM     45  C   UNL A   1      42.796  27.750  33.265  1.00  0.00     0.031 C 
ATOM     46  C   UNL A   1      37.803  31.081  29.874  1.00  0.00     0.029 A 
ATOM     47  C   UNL A   1      38.167  31.634  31.177  1.00  0.00     0.049 A 
ATOM     48  H   UNL A   1      39.659  30.958  32.464  1.00  0.00     0.167 HD
ATOM     49  C   UNL A   1      42.773  29.409  35.106  1.00  0.00     0.031 A 
ATOM     50  C   UNL A   1      37.588  32.700  31.764  1.00  0.00     0.031 A 
ATOM     51  C   UNL A   1      42.263  30.577  35.774  1.00  0.00     0.049 A 
ATOM     52  C   UNL A   1      38.065  33.149  33.119  1.00  0.00     0.074 A 
ATOM     53  C   UNL A   1      42.690  31.142  36.964  1.00  0.00     0.029 A 
ATOM     54  N   UNL A   1      41.207  31.350  35.321  1.00  0.00    -0.354 N 
ATOM     55  N   UNL A   1      39.039  32.663  33.853  1.00  0.00    -0.248 NA
ATOM     56  C   UNL A   1      37.364  34.289  33.727  1.00  0.00     0.031 C 
ATOM     57  C   UNL A   1      41.854  32.226  37.257  1.00  0.00     0.029 A 
ATOM     58  C   UNL A   1      40.941  32.366  36.224  1.00  0.00     0.049 A 
ATOM     59  H   UNL A   1      40.716  31.199  34.481  1.00  0.00     0.167 HD
ATOM     60  C   UNL A   1      39.075  33.446  35.002  1.00  0.00     0.074 A 
ATOM     61  C   UNL A   1      38.037  34.447  34.859  1.00  0.00     0.031 C 
ATOM     62  C   UNL A   1      39.894  33.347  36.078  1.00  0.00     0.031 A 
BRANCH  49  63
ATOM     63  C   UNL A   1      43.878  28.630  35.766  1.00  0.00    -0.014 A 
ATOM     64  C   UNL A   1      45.229  28.904  35.486  1.00  0.00     0.010 A 
ATOM     65  C   UNL A   1      43.560  27.626  36.700  1.00  0.00     0.010 A 
ATOM     66  C   UNL A   1      46.242  28.159  36.096  1.00  0.00     0.020 A 
ATOM     67  C   UNL A   1      44.572  26.894  37.329  1.00  0.00     0.020 A 
ATOM     68  C   UNL A   1      45.905  27.153  37.008  1.00  0.00     0.054 A 
BRANCH  68  69
ATOM     69  S   UNL A   1      47.239  26.203  37.790  1.00  0.00     0.124 S 
ATOM     70  O   UNL A   1      46.935  24.843  37.352  1.00  0.00    -0.237 OA
ATOM     71  O   UNL A   1      48.440  26.796  37.207  1.00  0.00    -0.237 OA
ATOM     72  O   UNL A   1      47.053  26.455  39.216  1.00  0.00    -0.744 OA
ENDBRANCH  68  69
ENDBRANCH  49  63
BRANCH  50  73
ATOM     73  C   UNL A   1      36.465  33.400  31.085  1.00  0.00    -0.014 A 
ATOM     74  C   UNL A   1      35.212  33.517  31.708  1.00  0.00     0.010 A 
ATOM     75  C   UNL A   1      36.652  33.962  29.808  1.00  0.00     0.010 A 
ATOM     76  C   UNL A   1      34.161  34.178  31.063  1.00  0.00     0.020 A 
ATOM     77  C   UNL A   1      35.612  34.644  29.171  1.00  0.00     0.020 A 
ATOM     78  C   UNL A   1      34.369  34.740  29.800  1.00  0.00     0.054 A 
BRANCH  78  79
ATOM     79  S   UNL A   1      33.012  35.648  29.010  1.00  0.00     0.124 S 
ATOM     80  O   UNL A   1      32.220  36.073  30.160  1.00  0.00    -0.237 OA
ATOM     81  O   UNL A   1      33.716  36.712  28.298  1.00  0.00    -0.237 OA
ATOM     82  O   UNL A   1      32.385  34.644  28.153  1.00  0.00    -0.744 OA
ENDBRANCH  78  79
ENDBRANCH  50  73
BRANCH  62  83
ATOM     83  C   UNL A   1      39.710  34.348  37.185  1.00  0.00    -0.014 A 
ATOM     84  C   UNL A   1      38.957  34.029  38.330  1.00  0.00     0.010 A 
ATOM     85  C   UNL A   1      40.344  35.601  37.108  1.00  0.00     0.010 A 
ATOM     86  C   UNL A   1      38.821  34.957  39.367  1.00  0.00     0.020 A 
ATOM     87  C   UNL A   1      40.230  36.522  38.154  1.00  0.00     0.020 A 
ATOM     88  C   UNL A   1      39.458  36.198  39.272  1.00  0.00     0.054 A 
BRANCH  88  89
ATOM     89  S   UNL A   1      39.309  37.366  40.652  1.00  0.00     0.124 S 
ATOM     90  O   UNL A   1      38.370  38.348  40.118  1.00  0.00    -0.237 OA
ATOM     91  O   UNL A   1      38.794  36.526  41.731  1.00  0.00    -0.237 OA
ATOM     92  O   UNL A   1      40.675  37.849  40.846  1.00  0.00    -0.744 OA
ENDBRANCH  88  89
ENDBRANCH  62  83
ENDBRANCH  36  37
ENDBRANCH  29  31
ENDBRANCH  28  29
ENDBRANCH  27  28
ENDBRANCH   1  27
TORSDOF 19
ENDMDL
