MODEL 1
REMARK VINA RESULT:      -9.7      0.000      0.000
REMARK SMILES C[C@@H](C(=O)OCCOCCOC(=O)c1ccc(-c2c3nc(c(-c4ccc(S(=O)(=O)[O-])cc4)c4ccc([nH]4)c(-c4ccc(S(=O)(=O)[O-])cc4)c4nc(c(-c5ccc(S(=O)(=O)[O-])cc5)c5ccc2[nH]5)C=C4)C=C3)cc1)c1ccc(N[C@H]2CCC[C@@H]2O)cc1F
REMARK SMILES IDX 7 1 6 2 5 3 3 4 4 5 2 6 1 7 74 8 75 9 86 10 76 11 85 12
REMARK SMILES IDX 87 13 77 14 78 15 79 17 80 18 83 19 81 20 82 21 84 22 8 24
REMARK SMILES IDX 9 25 10 26 11 27 12 28 13 29 14 30 15 31 73 32 16 33 72 34
REMARK SMILES IDX 17 35 18 36 19 37 66 38 20 39 71 40 65 41 67 42 21 43 70 44
REMARK SMILES IDX 64 45 63 46 22 48 52 49 33 50 51 51 34 52 37 53 50 54 68 55
REMARK SMILES IDX 35 56 36 57 49 59 69 60 38 61 23 62 24 63 32 64 25 65 31 66
REMARK SMILES IDX 26 67 27 68 28 69 29 70 30 71 53 72 54 73 62 74 55 75 61 76
REMARK SMILES IDX 56 77 57 78 58 79 59 80 60 81 39 82 40 83 48 84 41 85 47 86
REMARK SMILES IDX 42 87 43 88 44 89 45 90 46 91
REMARK H PARENT 78 16 84 23 67 47 37 58
REMARK Flexibility Score: inf
ROOT
ATOM      1  C   UNL A   1      33.565  30.222  27.089  1.00  0.00     0.202 C 
ENDROOT
BRANCH   1   2
ATOM      2  C   UNL A   1      33.528  28.724  27.409  1.00  0.00     0.261 C 
BRANCH   2   3
ATOM      3  O   UNL A   1      33.052  27.972  26.272  1.00  0.00    -0.463 OA
BRANCH   3   4
ATOM      4  C   UNL A   1      31.872  27.318  26.439  1.00  0.00     0.313 C 
ATOM      5  O   UNL A   1      31.210  27.345  27.473  1.00  0.00    -0.252 OA
BRANCH   4   6
ATOM      6  C   UNL A   1      31.449  26.523  25.196  1.00  0.00     0.129 C 
ATOM      7  C   UNL A   1      29.969  26.144  25.121  1.00  0.00     0.025 C 
BRANCH   6   8
ATOM      8  C   UNL A   1      32.373  25.326  25.017  1.00  0.00     0.002 A 
ATOM      9  C   UNL A   1      33.107  25.195  23.837  1.00  0.00     0.010 A 
ATOM     10  C   UNL A   1      32.632  24.407  26.035  1.00  0.00     0.129 A 
ATOM     11  C   UNL A   1      34.098  24.211  23.718  1.00  0.00     0.026 A 
ATOM     12  C   UNL A   1      33.648  23.456  25.926  1.00  0.00     0.065 A 
ATOM     13  F   UNL A   1      31.918  24.418  27.165  1.00  0.00    -0.207 F 
ATOM     14  C   UNL A   1      34.430  23.360  24.774  1.00  0.00     0.037 A 
BRANCH  14  15
ATOM     15  N   UNL A   1      35.456  22.440  24.749  1.00  0.00    -0.380 N 
ATOM     16  H   UNL A   1      35.180  21.502  24.638  1.00  0.00     0.160 HD
BRANCH  15  17
ATOM     17  C   UNL A   1      36.893  22.661  24.863  1.00  0.00     0.107 C 
ATOM     18  C   UNL A   1      37.248  24.048  25.411  1.00  0.00     0.027 C 
ATOM     19  C   UNL A   1      37.644  21.635  25.731  1.00  0.00     0.136 C 
ATOM     20  C   UNL A   1      38.276  23.807  26.513  1.00  0.00     0.005 C 
ATOM     21  C   UNL A   1      38.845  22.424  26.232  1.00  0.00     0.034 C 
BRANCH  19  22
ATOM     22  O   UNL A   1      38.060  20.501  24.980  1.00  0.00    -0.391 OA
ATOM     23  H   UNL A   1      37.442  19.769  25.130  1.00  0.00     0.211 HD
ENDBRANCH  19  22
ENDBRANCH  15  17
ENDBRANCH  14  15
ENDBRANCH   6   8
ENDBRANCH   4   6
ENDBRANCH   3   4
ENDBRANCH   2   3
ENDBRANCH   1   2
BRANCH   1  24
ATOM     24  O   UNL A   1      34.834  30.873  27.215  1.00  0.00    -0.374 OA
BRANCH  24  25
ATOM     25  C   UNL A   1      34.855  32.107  27.926  1.00  0.00     0.202 C 
BRANCH  25  26
ATOM     26  C   UNL A   1      34.779  32.032  29.456  1.00  0.00     0.261 C 
BRANCH  26  27
ATOM     27  O   UNL A   1      35.720  31.097  30.007  1.00  0.00    -0.460 OA
BRANCH  27  28
ATOM     28  C   UNL A   1      36.875  31.662  30.429  1.00  0.00     0.338 C 
ATOM     29  O   UNL A   1      37.000  32.606  31.200  1.00  0.00    -0.246 OA
BRANCH  28  30
ATOM     30  C   UNL A   1      38.023  30.862  29.974  1.00  0.00     0.060 A 
ATOM     31  C   UNL A   1      39.007  30.562  30.925  1.00  0.00     0.016 A 
ATOM     32  C   UNL A   1      38.171  30.461  28.645  1.00  0.00     0.016 A 
ATOM     33  C   UNL A   1      40.172  29.908  30.538  1.00  0.00     0.010 A 
ATOM     34  C   UNL A   1      39.349  29.812  28.255  1.00  0.00     0.010 A 
ATOM     35  C   UNL A   1      40.368  29.570  29.194  1.00  0.00    -0.014 A 
BRANCH  35  36
ATOM     36  C   UNL A   1      41.709  29.116  28.757  1.00  0.00     0.031 A 
ATOM     37  C   UNL A   1      42.842  30.107  28.751  1.00  0.00     0.074 A 
ATOM     38  C   UNL A   1      41.926  27.831  28.426  1.00  0.00     0.049 A 
ATOM     39  N   UNL A   1      44.096  29.928  28.429  1.00  0.00    -0.248 NA
ATOM     40  C   UNL A   1      42.518  31.482  29.169  1.00  0.00     0.031 C 
ATOM     41  C   UNL A   1      40.919  26.771  28.442  1.00  0.00     0.029 A 
ATOM     42  N   UNL A   1      43.074  27.199  28.017  1.00  0.00    -0.354 N 
ATOM     43  C   UNL A   1      44.709  31.164  28.596  1.00  0.00     0.074 A 
ATOM     44  C   UNL A   1      43.684  32.092  29.022  1.00  0.00     0.031 C 
ATOM     45  C   UNL A   1      41.494  25.617  28.062  1.00  0.00     0.029 A 
ATOM     46  C   UNL A   1      42.900  25.863  27.745  1.00  0.00     0.049 A 
ATOM     47  H   UNL A   1      43.940  27.658  27.927  1.00  0.00     0.167 HD
ATOM     48  C   UNL A   1      46.009  31.496  28.416  1.00  0.00     0.031 A 
ATOM     49  C   UNL A   1      43.773  24.948  27.281  1.00  0.00     0.031 A 
ATOM     50  C   UNL A   1      47.023  30.572  27.982  1.00  0.00     0.049 A 
ATOM     51  C   UNL A   1      45.198  25.358  27.018  1.00  0.00     0.074 A 
ATOM     52  C   UNL A   1      48.372  30.804  27.785  1.00  0.00     0.029 A 
ATOM     53  N   UNL A   1      46.796  29.240  27.669  1.00  0.00    -0.354 N 
ATOM     54  N   UNL A   1      45.767  26.525  27.205  1.00  0.00    -0.248 NA
ATOM     55  C   UNL A   1      46.099  24.325  26.488  1.00  0.00     0.031 C 
ATOM     56  C   UNL A   1      48.951  29.628  27.297  1.00  0.00     0.029 A 
ATOM     57  C   UNL A   1      47.974  28.646  27.251  1.00  0.00     0.049 A 
ATOM     58  H   UNL A   1      45.925  28.784  27.736  1.00  0.00     0.167 HD
ATOM     59  C   UNL A   1      47.100  26.360  26.842  1.00  0.00     0.074 A 
ATOM     60  C   UNL A   1      47.253  24.977  26.436  1.00  0.00     0.031 C 
ATOM     61  C   UNL A   1      48.108  27.268  26.847  1.00  0.00     0.031 A 
BRANCH  48  62
ATOM     62  C   UNL A   1      46.400  32.932  28.648  1.00  0.00    -0.014 A 
ATOM     63  C   UNL A   1      46.684  33.414  29.938  1.00  0.00     0.010 A 
ATOM     64  C   UNL A   1      46.514  33.804  27.551  1.00  0.00     0.010 A 
ATOM     65  C   UNL A   1      47.038  34.752  30.131  1.00  0.00     0.020 A 
ATOM     66  C   UNL A   1      46.894  35.137  27.736  1.00  0.00     0.020 A 
ATOM     67  C   UNL A   1      47.138  35.606  29.028  1.00  0.00     0.054 A 
BRANCH  67  68
ATOM     68  S   UNL A   1      47.618  37.334  29.303  1.00  0.00     0.124 S 
ATOM     69  O   UNL A   1      49.067  37.222  29.458  1.00  0.00    -0.237 OA
ATOM     70  O   UNL A   1      47.166  37.991  28.080  1.00  0.00    -0.237 OA
ATOM     71  O   UNL A   1      46.890  37.709  30.514  1.00  0.00    -0.744 OA
ENDBRANCH  67  68
ENDBRANCH  48  62
BRANCH  49  72
ATOM     72  C   UNL A   1      43.319  23.553  27.021  1.00  0.00    -0.014 A 
ATOM     73  C   UNL A   1      42.953  22.706  28.081  1.00  0.00     0.010 A 
ATOM     74  C   UNL A   1      43.250  23.067  25.702  1.00  0.00     0.010 A 
ATOM     75  C   UNL A   1      42.539  21.395  27.829  1.00  0.00     0.020 A 
ATOM     76  C   UNL A   1      42.811  21.766  25.444  1.00  0.00     0.020 A 
ATOM     77  C   UNL A   1      42.468  20.934  26.510  1.00  0.00     0.054 A 
BRANCH  77  78
ATOM     78  S   UNL A   1      41.876  19.246  26.202  1.00  0.00     0.124 S 
ATOM     79  O   UNL A   1      40.480  19.473  25.845  1.00  0.00    -0.237 OA
ATOM     80  O   UNL A   1      42.745  18.801  25.116  1.00  0.00    -0.237 OA
ATOM     81  O   UNL A   1      42.094  18.571  27.481  1.00  0.00    -0.744 OA
ENDBRANCH  77  78
ENDBRANCH  49  72
BRANCH  61  82
ATOM     82  C   UNL A   1      49.475  26.791  26.434  1.00  0.00    -0.014 A 
ATOM     83  C   UNL A   1      50.283  26.045  27.310  1.00  0.00     0.010 A 
ATOM     84  C   UNL A   1      49.931  27.043  25.128  1.00  0.00     0.010 A 
ATOM     85  C   UNL A   1      51.537  25.587  26.895  1.00  0.00     0.020 A 
ATOM     86  C   UNL A   1      51.171  26.563  24.700  1.00  0.00     0.020 A 
ATOM     87  C   UNL A   1      51.973  25.850  25.593  1.00  0.00     0.054 A 
BRANCH  87  88
ATOM     88  S   UNL A   1      53.584  25.207  25.065  1.00  0.00     0.124 S 
ATOM     89  O   UNL A   1      53.434  23.774  25.308  1.00  0.00    -0.237 OA
ATOM     90  O   UNL A   1      53.645  25.603  23.660  1.00  0.00    -0.237 OA
ATOM     91  O   UNL A   1      54.535  25.891  25.940  1.00  0.00    -0.744 OA
ENDBRANCH  87  88
ENDBRANCH  61  82
ENDBRANCH  35  36
ENDBRANCH  28  30
ENDBRANCH  27  28
ENDBRANCH  26  27
ENDBRANCH  25  26
ENDBRANCH  24  25
ENDBRANCH   1  24
TORSDOF 21
ENDMDL
MODEL 2
REMARK VINA RESULT:      -9.5      3.001      9.730
REMARK SMILES C[C@@H](C(=O)OCCOCCOC(=O)c1ccc(-c2c3nc(c(-c4ccc(S(=O)(=O)[O-])cc4)c4ccc([nH]4)c(-c4ccc(S(=O)(=O)[O-])cc4)c4nc(c(-c5ccc(S(=O)(=O)[O-])cc5)c5ccc2[nH]5)C=C4)C=C3)cc1)c1ccc(N[C@H]2CCC[C@@H]2O)cc1F
REMARK SMILES IDX 7 1 6 2 5 3 3 4 4 5 2 6 1 7 74 8 75 9 86 10 76 11 85 12
REMARK SMILES IDX 87 13 77 14 78 15 79 17 80 18 83 19 81 20 82 21 84 22 8 24
REMARK SMILES IDX 9 25 10 26 11 27 12 28 13 29 14 30 15 31 73 32 16 33 72 34
REMARK SMILES IDX 17 35 18 36 19 37 66 38 20 39 71 40 65 41 67 42 21 43 70 44
REMARK SMILES IDX 64 45 63 46 22 48 52 49 33 50 51 51 34 52 37 53 50 54 68 55
REMARK SMILES IDX 35 56 36 57 49 59 69 60 38 61 23 62 24 63 32 64 25 65 31 66
REMARK SMILES IDX 26 67 27 68 28 69 29 70 30 71 53 72 54 73 62 74 55 75 61 76
REMARK SMILES IDX 56 77 57 78 58 79 59 80 60 81 39 82 40 83 48 84 41 85 47 86
REMARK SMILES IDX 42 87 43 88 44 89 45 90 46 91
REMARK H PARENT 78 16 84 23 67 47 37 58
REMARK Flexibility Score: inf
ROOT
ATOM      1  C   UNL A   1      36.006  23.326  24.622  1.00  0.00     0.202 C 
ENDROOT
BRANCH   1   2
ATOM      2  C   UNL A   1      35.683  23.184  23.131  1.00  0.00     0.261 C 
BRANCH   2   3
ATOM      3  O   UNL A   1      34.578  24.039  22.766  1.00  0.00    -0.463 OA
BRANCH   3   4
ATOM      4  C   UNL A   1      33.339  23.488  22.859  1.00  0.00     0.313 C 
ATOM      5  O   UNL A   1      32.933  22.580  22.140  1.00  0.00    -0.252 OA
BRANCH   4   6
ATOM      6  C   UNL A   1      32.481  24.130  23.959  1.00  0.00     0.129 C 
ATOM      7  C   UNL A   1      31.196  23.383  24.321  1.00  0.00     0.025 C 
BRANCH   6   8
ATOM      8  C   UNL A   1      32.236  25.595  23.625  1.00  0.00     0.002 A 
ATOM      9  C   UNL A   1      31.896  25.955  22.320  1.00  0.00     0.010 A 
ATOM     10  C   UNL A   1      32.201  26.600  24.593  1.00  0.00     0.129 A 
ATOM     11  C   UNL A   1      31.486  27.262  22.023  1.00  0.00     0.026 A 
ATOM     12  C   UNL A   1      31.753  27.889  24.300  1.00  0.00     0.065 A 
ATOM     13  F   UNL A   1      32.586  26.353  25.850  1.00  0.00    -0.207 F 
ATOM     14  C   UNL A   1      31.351  28.240  23.010  1.00  0.00     0.037 A 
BRANCH  14  15
ATOM     15  N   UNL A   1      30.863  29.511  22.795  1.00  0.00    -0.380 N 
ATOM     16  H   UNL A   1      31.504  30.241  22.946  1.00  0.00     0.160 HD
BRANCH  15  17
ATOM     17  C   UNL A   1      29.529  29.925  22.375  1.00  0.00     0.107 C 
ATOM     18  C   UNL A   1      28.443  28.901  22.719  1.00  0.00     0.027 C 
ATOM     19  C   UNL A   1      29.058  31.278  22.939  1.00  0.00     0.136 C 
ATOM     20  C   UNL A   1      27.319  29.694  23.380  1.00  0.00     0.005 C 
ATOM     21  C   UNL A   1      27.543  31.136  22.949  1.00  0.00     0.034 C 
BRANCH  19  22
ATOM     22  O   UNL A   1      29.459  32.369  22.119  1.00  0.00    -0.391 OA
ATOM     23  H   UNL A   1      30.176  32.085  21.531  1.00  0.00     0.211 HD
ENDBRANCH  19  22
ENDBRANCH  15  17
ENDBRANCH  14  15
ENDBRANCH   6   8
ENDBRANCH   4   6
ENDBRANCH   3   4
ENDBRANCH   2   3
ENDBRANCH   1   2
BRANCH   1  24
ATOM     24  O   UNL A   1      35.834  22.157  25.430  1.00  0.00    -0.374 OA
BRANCH  24  25
ATOM     25  C   UNL A   1      36.475  20.967  24.980  1.00  0.00     0.202 C 
BRANCH  25  26
ATOM     26  C   UNL A   1      37.983  20.849  25.229  1.00  0.00     0.261 C 
BRANCH  26  27
ATOM     27  O   UNL A   1      38.555  22.070  25.725  1.00  0.00    -0.460 OA
BRANCH  27  28
ATOM     28  C   UNL A   1      39.701  21.898  26.424  1.00  0.00     0.338 C 
ATOM     29  O   UNL A   1      40.426  20.911  26.426  1.00  0.00    -0.246 OA
BRANCH  28  30
ATOM     30  C   UNL A   1      40.090  23.160  27.073  1.00  0.00     0.060 A 
ATOM     31  C   UNL A   1      39.456  24.327  26.627  1.00  0.00     0.016 A 
ATOM     32  C   UNL A   1      41.085  23.219  28.051  1.00  0.00     0.016 A 
ATOM     33  C   UNL A   1      39.856  25.566  27.116  1.00  0.00     0.010 A 
ATOM     34  C   UNL A   1      41.494  24.467  28.535  1.00  0.00     0.010 A 
ATOM     35  C   UNL A   1      40.906  25.646  28.039  1.00  0.00    -0.014 A 
BRANCH  35  36
ATOM     36  C   UNL A   1      41.490  26.972  28.349  1.00  0.00     0.031 A 
ATOM     37  C   UNL A   1      42.962  27.187  28.119  1.00  0.00     0.074 A 
ATOM     38  C   UNL A   1      40.712  27.984  28.773  1.00  0.00     0.049 A 
ATOM     39  N   UNL A   1      43.678  28.265  28.299  1.00  0.00    -0.248 NA
ATOM     40  C   UNL A   1      43.725  26.033  27.614  1.00  0.00     0.031 C 
ATOM     41  C   UNL A   1      39.266  27.909  28.982  1.00  0.00     0.029 A 
ATOM     42  N   UNL A   1      41.033  29.278  29.096  1.00  0.00    -0.354 N 
ATOM     43  C   UNL A   1      44.976  27.919  27.940  1.00  0.00     0.074 A 
ATOM     44  C   UNL A   1      44.953  26.525  27.556  1.00  0.00     0.031 C 
ATOM     45  C   UNL A   1      38.824  29.108  29.398  1.00  0.00     0.029 A 
ATOM     46  C   UNL A   1      39.957  30.025  29.514  1.00  0.00     0.049 A 
ATOM     47  H   UNL A   1      41.947  29.639  29.033  1.00  0.00     0.167 HD
ATOM     48  C   UNL A   1      46.086  28.695  27.925  1.00  0.00     0.031 A 
ATOM     49  C   UNL A   1      39.898  31.297  29.952  1.00  0.00     0.031 A 
ATOM     50  C   UNL A   1      46.105  30.079  28.318  1.00  0.00     0.049 A 
ATOM     51  C   UNL A   1      41.159  32.119  29.997  1.00  0.00     0.074 A 
ATOM     52  C   UNL A   1      47.174  30.957  28.323  1.00  0.00     0.029 A 
ATOM     53  N   UNL A   1      45.005  30.783  28.783  1.00  0.00    -0.354 N 
ATOM     54  N   UNL A   1      42.373  31.785  29.630  1.00  0.00    -0.248 NA
ATOM     55  C   UNL A   1      41.039  33.492  30.508  1.00  0.00     0.031 C 
ATOM     56  C   UNL A   1      46.733  32.177  28.848  1.00  0.00     0.029 A 
ATOM     57  C   UNL A   1      45.375  32.077  29.108  1.00  0.00     0.049 A 
ATOM     58  H   UNL A   1      44.094  30.418  28.869  1.00  0.00     0.167 HD
ATOM     59  C   UNL A   1      43.158  32.916  29.840  1.00  0.00     0.074 A 
ATOM     60  C   UNL A   1      42.276  33.944  30.355  1.00  0.00     0.031 C 
ATOM     61  C   UNL A   1      44.485  33.088  29.623  1.00  0.00     0.031 A 
BRANCH  48  62
ATOM     62  C   UNL A   1      47.381  28.050  27.510  1.00  0.00    -0.014 A 
ATOM     63  C   UNL A   1      47.814  28.071  26.172  1.00  0.00     0.010 A 
ATOM     64  C   UNL A   1      48.193  27.438  28.482  1.00  0.00     0.010 A 
ATOM     65  C   UNL A   1      49.016  27.459  25.808  1.00  0.00     0.020 A 
ATOM     66  C   UNL A   1      49.410  26.849  28.127  1.00  0.00     0.020 A 
ATOM     67  C   UNL A   1      49.806  26.849  26.788  1.00  0.00     0.054 A 
BRANCH  67  68
ATOM     68  S   UNL A   1      51.372  26.080  26.292  1.00  0.00     0.124 S 
ATOM     69  O   UNL A   1      51.321  26.203  24.837  1.00  0.00    -0.237 OA
ATOM     70  O   UNL A   1      52.366  26.916  26.959  1.00  0.00    -0.237 OA
ATOM     71  O   UNL A   1      51.266  24.715  26.804  1.00  0.00    -0.744 OA
ENDBRANCH  67  68
ENDBRANCH  48  62
BRANCH  49  72
ATOM     72  C   UNL A   1      38.597  31.869  30.400  1.00  0.00    -0.014 A 
ATOM     73  C   UNL A   1      38.201  31.787  31.745  1.00  0.00     0.010 A 
ATOM     74  C   UNL A   1      37.749  32.505  29.474  1.00  0.00     0.010 A 
ATOM     75  C   UNL A   1      36.973  32.317  32.155  1.00  0.00     0.020 A 
ATOM     76  C   UNL A   1      36.534  33.059  29.884  1.00  0.00     0.020 A 
ATOM     77  C   UNL A   1      36.149  32.953  31.221  1.00  0.00     0.054 A 
BRANCH  77  78
ATOM     78  S   UNL A   1      34.585  33.682  31.785  1.00  0.00     0.124 S 
ATOM     79  O   UNL A   1      33.959  34.071  30.526  1.00  0.00    -0.237 OA
ATOM     80  O   UNL A   1      33.955  32.569  32.490  1.00  0.00    -0.237 OA
ATOM     81  O   UNL A   1      35.014  34.788  32.640  1.00  0.00    -0.744 OA
ENDBRANCH  77  78
ENDBRANCH  49  72
BRANCH  61  82
ATOM     82  C   UNL A   1      45.064  34.449  29.908  1.00  0.00    -0.014 A 
ATOM     83  C   UNL A   1      45.555  34.781  31.183  1.00  0.00     0.010 A 
ATOM     84  C   UNL A   1      45.172  35.388  28.865  1.00  0.00     0.010 A 
ATOM     85  C   UNL A   1      46.115  36.040  31.416  1.00  0.00     0.020 A 
ATOM     86  C   UNL A   1      45.756  36.636  29.088  1.00  0.00     0.020 A 
ATOM     87  C   UNL A   1      46.211  36.960  30.368  1.00  0.00     0.054 A 
BRANCH  87  88
ATOM     88  S   UNL A   1      46.982  38.570  30.687  1.00  0.00     0.124 S 
ATOM     89  O   UNL A   1      48.402  38.260  30.546  1.00  0.00    -0.237 OA
ATOM     90  O   UNL A   1      46.416  39.413  29.636  1.00  0.00    -0.237 OA
ATOM     91  O   UNL A   1      46.548  38.901  32.043  1.00  0.00    -0.744 OA
ENDBRANCH  87  88
ENDBRANCH  61  82
ENDBRANCH  35  36
ENDBRANCH  28  30
ENDBRANCH  27  28
ENDBRANCH  26  27
ENDBRANCH  25  26
ENDBRANCH  24  25
ENDBRANCH   1  24
TORSDOF 21
ENDMDL
MODEL 3
REMARK VINA RESULT:      -9.0      6.465     11.449
REMARK SMILES C[C@@H](C(=O)OCCOCCOC(=O)c1ccc(-c2c3nc(c(-c4ccc(S(=O)(=O)[O-])cc4)c4ccc([nH]4)c(-c4ccc(S(=O)(=O)[O-])cc4)c4nc(c(-c5ccc(S(=O)(=O)[O-])cc5)c5ccc2[nH]5)C=C4)C=C3)cc1)c1ccc(N[C@H]2CCC[C@@H]2O)cc1F
REMARK SMILES IDX 7 1 6 2 5 3 3 4 4 5 2 6 1 7 74 8 75 9 86 10 76 11 85 12
REMARK SMILES IDX 87 13 77 14 78 15 79 17 80 18 83 19 81 20 82 21 84 22 8 24
REMARK SMILES IDX 9 25 10 26 11 27 12 28 13 29 14 30 15 31 73 32 16 33 72 34
REMARK SMILES IDX 17 35 18 36 19 37 66 38 20 39 71 40 65 41 67 42 21 43 70 44
REMARK SMILES IDX 64 45 63 46 22 48 52 49 33 50 51 51 34 52 37 53 50 54 68 55
REMARK SMILES IDX 35 56 36 57 49 59 69 60 38 61 23 62 24 63 32 64 25 65 31 66
REMARK SMILES IDX 26 67 27 68 28 69 29 70 30 71 53 72 54 73 62 74 55 75 61 76
REMARK SMILES IDX 56 77 57 78 58 79 59 80 60 81 39 82 40 83 48 84 41 85 47 86
REMARK SMILES IDX 42 87 43 88 44 89 45 90 46 91
REMARK H PARENT 78 16 84 23 67 47 37 58
REMARK Flexibility Score: inf
ROOT
ATOM      1  C   UNL A   1      32.904  29.951  26.998  1.00  0.00     0.202 C 
ENDROOT
BRANCH   1   2
ATOM      2  C   UNL A   1      32.435  28.564  27.451  1.00  0.00     0.261 C 
BRANCH   2   3
ATOM      3  O   UNL A   1      31.764  27.877  26.373  1.00  0.00    -0.463 OA
BRANCH   3   4
ATOM      4  C   UNL A   1      32.558  27.166  25.530  1.00  0.00     0.313 C 
ATOM      5  O   UNL A   1      33.768  27.337  25.416  1.00  0.00    -0.252 OA
BRANCH   4   6
ATOM      6  C   UNL A   1      31.781  26.122  24.715  1.00  0.00     0.129 C 
ATOM      7  C   UNL A   1      32.632  25.157  23.887  1.00  0.00     0.025 C 
BRANCH   6   8
ATOM      8  C   UNL A   1      30.707  26.817  23.888  1.00  0.00     0.002 A 
ATOM      9  C   UNL A   1      29.361  26.595  24.185  1.00  0.00     0.010 A 
ATOM     10  C   UNL A   1      30.996  27.781  22.922  1.00  0.00     0.129 A 
ATOM     11  C   UNL A   1      28.359  27.356  23.569  1.00  0.00     0.026 A 
ATOM     12  C   UNL A   1      29.997  28.564  22.342  1.00  0.00     0.065 A 
ATOM     13  F   UNL A   1      32.255  27.999  22.527  1.00  0.00    -0.207 F 
ATOM     14  C   UNL A   1      28.653  28.391  22.680  1.00  0.00     0.037 A 
BRANCH  14  15
ATOM     15  N   UNL A   1      27.719  29.234  22.118  1.00  0.00    -0.380 N 
ATOM     16  H   UNL A   1      27.073  28.805  21.512  1.00  0.00     0.160 HD
BRANCH  15  17
ATOM     17  C   UNL A   1      27.552  30.671  22.294  1.00  0.00     0.107 C 
ATOM     18  C   UNL A   1      27.985  31.164  23.679  1.00  0.00     0.027 C 
ATOM     19  C   UNL A   1      28.287  31.546  21.262  1.00  0.00     0.136 C 
ATOM     20  C   UNL A   1      28.877  32.377  23.428  1.00  0.00     0.005 C 
ATOM     21  C   UNL A   1      28.528  32.842  22.021  1.00  0.00     0.034 C 
BRANCH  19  22
ATOM     22  O   UNL A   1      27.500  31.779  20.100  1.00  0.00    -0.391 OA
ATOM     23  H   UNL A   1      27.150  30.936  19.773  1.00  0.00     0.211 HD
ENDBRANCH  19  22
ENDBRANCH  15  17
ENDBRANCH  14  15
ENDBRANCH   6   8
ENDBRANCH   4   6
ENDBRANCH   3   4
ENDBRANCH   2   3
ENDBRANCH   1   2
BRANCH   1  24
ATOM     24  O   UNL A   1      33.925  30.571  27.788  1.00  0.00    -0.374 OA
BRANCH  24  25
ATOM     25  C   UNL A   1      34.087  31.978  27.635  1.00  0.00     0.202 C 
BRANCH  25  26
ATOM     26  C   UNL A   1      32.816  32.835  27.671  1.00  0.00     0.261 C 
BRANCH  26  27
ATOM     27  O   UNL A   1      32.827  33.789  28.744  1.00  0.00    -0.460 OA
BRANCH  27  28
ATOM     28  C   UNL A   1      33.869  34.653  28.703  1.00  0.00     0.338 C 
ATOM     29  O   UNL A   1      33.947  35.688  28.053  1.00  0.00    -0.246 OA
BRANCH  28  30
ATOM     30  C   UNL A   1      34.873  34.280  29.712  1.00  0.00     0.060 A 
ATOM     31  C   UNL A   1      36.215  34.525  29.396  1.00  0.00     0.016 A 
ATOM     32  C   UNL A   1      34.526  33.655  30.912  1.00  0.00     0.016 A 
ATOM     33  C   UNL A   1      37.222  34.095  30.254  1.00  0.00     0.010 A 
ATOM     34  C   UNL A   1      35.541  33.214  31.769  1.00  0.00     0.010 A 
ATOM     35  C   UNL A   1      36.892  33.398  31.422  1.00  0.00    -0.014 A 
BRANCH  35  36
ATOM     36  C   UNL A   1      37.969  32.724  32.184  1.00  0.00     0.031 A 
ATOM     37  C   UNL A   1      38.649  31.529  31.572  1.00  0.00     0.074 A 
ATOM     38  C   UNL A   1      38.373  33.203  33.374  1.00  0.00     0.049 A 
ATOM     39  N   UNL A   1      39.626  30.800  32.046  1.00  0.00    -0.248 NA
ATOM     40  C   UNL A   1      38.167  31.102  30.248  1.00  0.00     0.031 C 
ATOM     41  C   UNL A   1      37.824  34.383  34.042  1.00  0.00     0.029 A 
ATOM     42  N   UNL A   1      39.349  32.755  34.228  1.00  0.00    -0.354 N 
ATOM     43  C   UNL A   1      39.869  29.825  31.085  1.00  0.00     0.074 A 
ATOM     44  C   UNL A   1      38.921  30.039  30.014  1.00  0.00     0.031 C 
ATOM     45  C   UNL A   1      38.474  34.567  35.203  1.00  0.00     0.029 A 
ATOM     46  C   UNL A   1      39.461  33.502  35.376  1.00  0.00     0.049 A 
ATOM     47  H   UNL A   1      39.915  31.973  34.037  1.00  0.00     0.167 HD
ATOM     48  C   UNL A   1      40.802  28.844  31.092  1.00  0.00     0.031 A 
ATOM     49  C   UNL A   1      40.259  33.337  36.449  1.00  0.00     0.031 A 
ATOM     50  C   UNL A   1      41.736  28.629  32.166  1.00  0.00     0.049 A 
ATOM     51  C   UNL A   1      41.239  32.193  36.466  1.00  0.00     0.074 A 
ATOM     52  C   UNL A   1      42.731  27.673  32.262  1.00  0.00     0.029 A 
ATOM     53  N   UNL A   1      41.783  29.377  33.333  1.00  0.00    -0.354 N 
ATOM     54  N   UNL A   1      41.474  31.295  35.539  1.00  0.00    -0.248 NA
ATOM     55  C   UNL A   1      42.066  32.046  37.672  1.00  0.00     0.031 C 
ATOM     56  C   UNL A   1      43.342  27.805  33.513  1.00  0.00     0.029 A 
ATOM     57  C   UNL A   1      42.769  28.884  34.169  1.00  0.00     0.049 A 
ATOM     58  H   UNL A   1      41.201  30.145  33.537  1.00  0.00     0.167 HD
ATOM     59  C   UNL A   1      42.496  30.492  36.038  1.00  0.00     0.074 A 
ATOM     60  C   UNL A   1      42.839  31.020  37.344  1.00  0.00     0.031 C 
ATOM     61  C   UNL A   1      43.097  29.419  35.467  1.00  0.00     0.031 A 
BRANCH  48  62
ATOM     62  C   UNL A   1      40.828  27.900  29.919  1.00  0.00    -0.014 A 
ATOM     63  C   UNL A   1      39.743  27.051  29.638  1.00  0.00     0.010 A 
ATOM     64  C   UNL A   1      41.947  27.886  29.066  1.00  0.00     0.010 A 
ATOM     65  C   UNL A   1      39.792  26.178  28.548  1.00  0.00     0.020 A 
ATOM     66  C   UNL A   1      41.989  27.034  27.959  1.00  0.00     0.020 A 
ATOM     67  C   UNL A   1      40.917  26.173  27.717  1.00  0.00     0.054 A 
BRANCH  67  68
ATOM     68  S   UNL A   1      40.947  25.045  26.297  1.00  0.00     0.124 S 
ATOM     69  O   UNL A   1      42.011  24.117  26.672  1.00  0.00    -0.237 OA
ATOM     70  O   UNL A   1      39.597  24.488  26.301  1.00  0.00    -0.237 OA
ATOM     71  O   UNL A   1      41.254  25.918  25.165  1.00  0.00    -0.744 OA
ENDBRANCH  67  68
ENDBRANCH  48  62
BRANCH  49  72
ATOM     72  C   UNL A   1      40.155  34.270  37.604  1.00  0.00    -0.014 A 
ATOM     73  C   UNL A   1      39.286  33.996  38.674  1.00  0.00     0.010 A 
ATOM     74  C   UNL A   1      40.933  35.443  37.639  1.00  0.00     0.010 A 
ATOM     75  C   UNL A   1      39.186  34.884  39.751  1.00  0.00     0.020 A 
ATOM     76  C   UNL A   1      40.856  36.318  38.724  1.00  0.00     0.020 A 
ATOM     77  C   UNL A   1      39.975  36.038  39.769  1.00  0.00     0.054 A 
BRANCH  77  78
ATOM     78  S   UNL A   1      39.869  37.148  41.201  1.00  0.00     0.124 S 
ATOM     79  O   UNL A   1      38.921  36.448  42.061  1.00  0.00    -0.237 OA
ATOM     80  O   UNL A   1      41.250  37.184  41.676  1.00  0.00    -0.237 OA
ATOM     81  O   UNL A   1      39.384  38.401  40.625  1.00  0.00    -0.744 OA
ENDBRANCH  77  78
ENDBRANCH  49  72
BRANCH  61  82
ATOM     82  C   UNL A   1      44.214  28.761  36.233  1.00  0.00    -0.014 A 
ATOM     83  C   UNL A   1      45.560  29.071  35.971  1.00  0.00     0.010 A 
ATOM     84  C   UNL A   1      43.907  27.863  37.271  1.00  0.00     0.010 A 
ATOM     85  C   UNL A   1      46.580  28.469  36.715  1.00  0.00     0.020 A 
ATOM     86  C   UNL A   1      44.921  27.281  38.035  1.00  0.00     0.020 A 
ATOM     87  C   UNL A   1      46.253  27.577  37.741  1.00  0.00     0.054 A 
BRANCH  87  88
ATOM     88  S   UNL A   1      47.593  26.844  38.720  1.00  0.00     0.124 S 
ATOM     89  O   UNL A   1      46.946  25.661  39.281  1.00  0.00    -0.237 OA
ATOM     90  O   UNL A   1      48.620  26.581  37.715  1.00  0.00    -0.237 OA
ATOM     91  O   UNL A   1      47.929  27.888  39.686  1.00  0.00    -0.744 OA
ENDBRANCH  87  88
ENDBRANCH  61  82
ENDBRANCH  35  36
ENDBRANCH  28  30
ENDBRANCH  27  28
ENDBRANCH  26  27
ENDBRANCH  25  26
ENDBRANCH  24  25
ENDBRANCH   1  24
TORSDOF 21
ENDMDL
