MODEL 1
REMARK VINA RESULT:     -12.3      0.000      0.000
REMARK SMILES CC1(C)O[C@@H]2CC3[C@H]4CCC5=CC(=O)C=C[C@@]5(C)[C@]4(F)[C@H](O)C[C@]3(C)[C@]2(C(=O)OCCOCCOC(=O)c2ccc(-c3c4nc(c(-c5ccc(S(=O)(=O)[O-])cc5)c5ccc([nH]5)c(-c5ccc(S(=O)(=O)[O-])cc5)c5nc(c(-c6ccc(S(=O)(=O)[O-])cc6)c6ccc3[nH]6)C=C5)C=C4)cc2)O1
REMARK SMILES IDX 33 1 32 2 31 3 30 4 29 5 27 6 28 7 26 8 1 9 2 10 4 11 98 12
REMARK SMILES IDX 3 13 5 14 6 15 24 16 7 17 23 18 25 19 8 20 21 21 9 22 19 23
REMARK SMILES IDX 10 24 17 25 20 26 11 27 16 28 18 29 12 30 15 31 13 32 14 33
REMARK SMILES IDX 22 34 34 36 35 37 36 38 37 39 38 40 39 41 97 42 40 43 96 44
REMARK SMILES IDX 41 45 42 46 43 47 90 48 44 49 95 50 89 51 91 52 45 53 94 54
REMARK SMILES IDX 88 55 87 56 46 58 76 59 57 60 75 61 58 62 61 63 74 64 92 65
REMARK SMILES IDX 59 66 60 67 73 69 93 70 62 71 47 72 48 73 56 74 49 75 55 76
REMARK SMILES IDX 50 77 51 78 52 79 53 80 54 81 77 82 78 83 86 84 79 85 85 86
REMARK SMILES IDX 80 87 81 88 82 89 83 90 84 91 63 92 64 93 72 94 65 95 71 96
REMARK SMILES IDX 66 97 67 98 68 99 69 100 70 101
REMARK H PARENT 22 35 91 57 61 68
REMARK Flexibility Score: inf
ROOT
ATOM      1  C   UNL A   1      41.371  22.462  27.559  1.00  0.00     0.202 C 
ENDROOT
BRANCH   1   2
ATOM      2  O   UNL A   1      40.239  21.612  27.496  1.00  0.00    -0.374 OA
BRANCH   2   3
ATOM      3  C   UNL A   1      39.701  21.262  26.228  1.00  0.00     0.202 C 
BRANCH   3   4
ATOM      4  C   UNL A   1      38.458  21.968  25.665  1.00  0.00     0.261 C 
BRANCH   4   5
ATOM      5  O   UNL A   1      37.304  21.144  25.406  1.00  0.00    -0.461 OA
BRANCH   5   6
ATOM      6  C   UNL A   1      36.358  21.796  24.691  1.00  0.00     0.341 C 
ATOM      7  O   UNL A   1      36.525  22.168  23.526  1.00  0.00    -0.249 OA
BRANCH   6   8
ATOM      8  C   UNL A   1      35.076  22.140  25.423  1.00  0.00     0.200 C 
ATOM      9  C   UNL A   1      33.415  19.329  24.284  1.00  0.00     0.075 C 
ATOM     10  C   UNL A   1      33.273  20.638  25.049  1.00  0.00     0.165 C 
ATOM     11  O   UNL A   1      33.698  20.450  26.398  1.00  0.00    -0.344 OA
ATOM     12  O   UNL A   1      34.082  21.658  24.431  1.00  0.00    -0.329 OA
ATOM     13  C   UNL A   1      31.779  21.013  24.996  1.00  0.00     0.075 C 
ATOM     14  C   UNL A   1      34.503  21.584  26.746  1.00  0.00     0.166 C 
ATOM     15  C   UNL A   1      33.550  22.755  27.326  1.00  0.00     0.040 C 
ATOM     16  C   UNL A   1      35.023  23.709  25.676  1.00  0.00     0.016 C 
ATOM     17  C   UNL A   1      33.554  23.764  26.156  1.00  0.00     0.008 C 
ATOM     18  C   UNL A   1      35.343  24.688  24.539  1.00  0.00     0.046 C 
ATOM     19  C   UNL A   1      36.053  24.077  26.798  1.00  0.00     0.015 C 
ATOM     20  C   UNL A   1      32.476  24.650  25.477  1.00  0.00     0.035 C 
ATOM     21  C   UNL A   1      34.189  25.023  23.618  1.00  0.00     0.154 C 
ATOM     22  C   UNL A   1      31.385  25.237  26.355  1.00  0.00     0.012 C 
ATOM     23  C   UNL A   1      33.005  25.649  24.422  1.00  0.00     0.152 C 
ATOM     24  C   UNL A   1      30.181  25.549  25.449  1.00  0.00     0.032 C 
ATOM     25  C   UNL A   1      31.830  26.171  23.488  1.00  0.00     0.044 C 
ATOM     26  F   UNL A   1      33.502  26.722  25.124  1.00  0.00    -0.239 F 
ATOM     27  C   UNL A   1      30.528  26.443  24.278  1.00  0.00    -0.053 C 
ATOM     28  C   UNL A   1      32.257  27.440  22.744  1.00  0.00    -0.009 C 
ATOM     29  C   UNL A   1      31.458  25.157  22.370  1.00  0.00     0.024 C 
ATOM     30  C   UNL A   1      29.661  27.396  23.887  1.00  0.00     0.052 C 
ATOM     31  C   UNL A   1      31.400  28.403  22.376  1.00  0.00     0.048 C 
ATOM     32  C   UNL A   1      29.978  28.305  22.762  1.00  0.00     0.178 C 
ATOM     33  O   UNL A   1      29.113  28.973  22.212  1.00  0.00    -0.290 OA
BRANCH  21  34
ATOM     34  O   UNL A   1      33.811  23.865  22.881  1.00  0.00    -0.390 OA
ATOM     35  H   UNL A   1      33.723  23.112  23.485  1.00  0.00     0.211 HD
ENDBRANCH  21  34
ENDBRANCH   6   8
ENDBRANCH   5   6
ENDBRANCH   4   5
ENDBRANCH   3   4
ENDBRANCH   2   3
ENDBRANCH   1   2
BRANCH   1  36
ATOM     36  C   UNL A   1      41.395  23.802  26.810  1.00  0.00     0.261 C 
BRANCH  36  37
ATOM     37  O   UNL A   1      40.281  24.659  27.093  1.00  0.00    -0.460 OA
BRANCH  37  38
ATOM     38  C   UNL A   1      40.475  25.945  26.720  1.00  0.00     0.338 C 
ATOM     39  O   UNL A   1      40.778  26.357  25.606  1.00  0.00    -0.246 OA
BRANCH  38  40
ATOM     40  C   UNL A   1      40.089  26.854  27.807  1.00  0.00     0.060 A 
ATOM     41  C   UNL A   1      40.656  28.135  27.811  1.00  0.00     0.016 A 
ATOM     42  C   UNL A   1      39.292  26.418  28.867  1.00  0.00     0.016 A 
ATOM     43  C   UNL A   1      40.472  28.970  28.905  1.00  0.00     0.010 A 
ATOM     44  C   UNL A   1      39.125  27.251  29.976  1.00  0.00     0.010 A 
ATOM     45  C   UNL A   1      39.752  28.510  30.013  1.00  0.00    -0.014 A 
BRANCH  45  46
ATOM     46  C   UNL A   1      39.826  29.282  31.272  1.00  0.00     0.031 A 
ATOM     47  C   UNL A   1      40.966  29.013  32.216  1.00  0.00     0.074 A 
ATOM     48  C   UNL A   1      38.933  30.251  31.532  1.00  0.00     0.049 A 
ATOM     49  N   UNL A   1      41.250  29.590  33.354  1.00  0.00    -0.248 NA
ATOM     50  C   UNL A   1      41.914  27.956  31.823  1.00  0.00     0.031 C 
ATOM     51  C   UNL A   1      37.821  30.631  30.661  1.00  0.00     0.029 A 
ATOM     52  N   UNL A   1      38.829  31.098  32.604  1.00  0.00    -0.354 N 
ATOM     53  C   UNL A   1      42.406  28.969  33.813  1.00  0.00     0.074 A 
ATOM     54  C   UNL A   1      42.757  27.953  32.845  1.00  0.00     0.031 C 
ATOM     55  C   UNL A   1      37.142  31.638  31.238  1.00  0.00     0.029 A 
ATOM     56  C   UNL A   1      37.758  31.954  32.524  1.00  0.00     0.049 A 
ATOM     57  H   UNL A   1      39.461  31.093  33.358  1.00  0.00     0.167 HD
ATOM     58  C   UNL A   1      43.115  29.227  34.936  1.00  0.00     0.031 A 
ATOM     59  C   UNL A   1      37.320  32.880  33.399  1.00  0.00     0.031 A 
ATOM     60  C   UNL A   1      42.751  30.227  35.902  1.00  0.00     0.049 A 
ATOM     61  C   UNL A   1      38.086  33.101  34.676  1.00  0.00     0.074 A 
ATOM     62  C   UNL A   1      43.401  30.570  37.075  1.00  0.00     0.029 A 
ATOM     63  N   UNL A   1      41.633  31.042  35.810  1.00  0.00    -0.354 N 
ATOM     64  N   UNL A   1      39.186  32.516  35.088  1.00  0.00    -0.248 NA
ATOM     65  C   UNL A   1      37.556  34.113  35.600  1.00  0.00     0.031 C 
ATOM     66  C   UNL A   1      42.649  31.561  37.715  1.00  0.00     0.029 A 
ATOM     67  C   UNL A   1      41.559  31.871  36.915  1.00  0.00     0.049 A 
ATOM     68  H   UNL A   1      40.987  31.033  35.067  1.00  0.00     0.167 HD
ATOM     69  C   UNL A   1      39.491  33.105  36.310  1.00  0.00     0.074 A 
ATOM     70  C   UNL A   1      38.468  34.099  36.564  1.00  0.00     0.031 C 
ATOM     71  C   UNL A   1      40.528  32.849  37.147  1.00  0.00     0.031 A 
BRANCH  58  72
ATOM     72  C   UNL A   1      44.336  28.384  35.193  1.00  0.00    -0.014 A 
ATOM     73  C   UNL A   1      44.246  27.168  35.892  1.00  0.00     0.010 A 
ATOM     74  C   UNL A   1      45.586  28.807  34.707  1.00  0.00     0.010 A 
ATOM     75  C   UNL A   1      45.393  26.407  36.136  1.00  0.00     0.020 A 
ATOM     76  C   UNL A   1      46.731  28.037  34.929  1.00  0.00     0.020 A 
ATOM     77  C   UNL A   1      46.630  26.850  35.658  1.00  0.00     0.054 A 
BRANCH  77  78
ATOM     78  S   UNL A   1      48.103  25.839  35.974  1.00  0.00     0.124 S 
ATOM     79  O   UNL A   1      49.085  26.453  35.084  1.00  0.00    -0.237 OA
ATOM     80  O   UNL A   1      48.334  26.044  37.402  1.00  0.00    -0.237 OA
ATOM     81  O   UNL A   1      47.683  24.490  35.602  1.00  0.00    -0.744 OA
ENDBRANCH  77  78
ENDBRANCH  58  72
BRANCH  59  82
ATOM     82  C   UNL A   1      36.086  33.653  33.100  1.00  0.00    -0.014 A 
ATOM     83  C   UNL A   1      36.161  34.953  32.570  1.00  0.00     0.010 A 
ATOM     84  C   UNL A   1      34.822  33.078  33.332  1.00  0.00     0.010 A 
ATOM     85  C   UNL A   1      34.994  35.668  32.287  1.00  0.00     0.020 A 
ATOM     86  C   UNL A   1      33.654  33.782  33.027  1.00  0.00     0.020 A 
ATOM     87  C   UNL A   1      33.747  35.077  32.515  1.00  0.00     0.054 A 
BRANCH  87  88
ATOM     88  S   UNL A   1      32.245  35.997  32.082  1.00  0.00     0.124 S 
ATOM     89  O   UNL A   1      32.395  37.213  32.875  1.00  0.00    -0.237 OA
ATOM     90  O   UNL A   1      32.380  36.161  30.637  1.00  0.00    -0.237 OA
ATOM     91  O   UNL A   1      31.168  35.103  32.501  1.00  0.00    -0.744 OA
ENDBRANCH  87  88
ENDBRANCH  59  82
BRANCH  71  92
ATOM     92  C   UNL A   1      40.620  33.673  38.402  1.00  0.00    -0.014 A 
ATOM     93  C   UNL A   1      41.300  34.904  38.414  1.00  0.00     0.010 A 
ATOM     94  C   UNL A   1      39.970  33.234  39.570  1.00  0.00     0.010 A 
ATOM     95  C   UNL A   1      41.352  35.669  39.582  1.00  0.00     0.020 A 
ATOM     96  C   UNL A   1      40.000  34.008  40.732  1.00  0.00     0.020 A 
ATOM     97  C   UNL A   1      40.703  35.214  40.734  1.00  0.00     0.054 A 
BRANCH  97  98
ATOM     98  S   UNL A   1      40.747  36.244  42.227  1.00  0.00     0.124 S 
ATOM     99  O   UNL A   1      41.721  37.268  41.859  1.00  0.00    -0.237 OA
ATOM    100  O   UNL A   1      39.365  36.705  42.342  1.00  0.00    -0.237 OA
ATOM    101  O   UNL A   1      41.178  35.320  43.273  1.00  0.00    -0.744 OA
ENDBRANCH  97  98
ENDBRANCH  71  92
ENDBRANCH  45  46
ENDBRANCH  38  40
ENDBRANCH  37  38
ENDBRANCH  36  37
ENDBRANCH   1  36
TORSDOF 18
ENDMDL
MODEL 2
REMARK VINA RESULT:     -12.1      4.387     10.456
REMARK SMILES CC1(C)O[C@@H]2CC3[C@H]4CCC5=CC(=O)C=C[C@@]5(C)[C@]4(F)[C@H](O)C[C@]3(C)[C@]2(C(=O)OCCOCCOC(=O)c2ccc(-c3c4nc(c(-c5ccc(S(=O)(=O)[O-])cc5)c5ccc([nH]5)c(-c5ccc(S(=O)(=O)[O-])cc5)c5nc(c(-c6ccc(S(=O)(=O)[O-])cc6)c6ccc3[nH]6)C=C5)C=C4)cc2)O1
REMARK SMILES IDX 33 1 32 2 31 3 30 4 29 5 27 6 28 7 26 8 1 9 2 10 4 11 98 12
REMARK SMILES IDX 3 13 5 14 6 15 24 16 7 17 23 18 25 19 8 20 21 21 9 22 19 23
REMARK SMILES IDX 10 24 17 25 20 26 11 27 16 28 18 29 12 30 15 31 13 32 14 33
REMARK SMILES IDX 22 34 34 36 35 37 36 38 37 39 38 40 39 41 97 42 40 43 96 44
REMARK SMILES IDX 41 45 42 46 43 47 90 48 44 49 95 50 89 51 91 52 45 53 94 54
REMARK SMILES IDX 88 55 87 56 46 58 76 59 57 60 75 61 58 62 61 63 74 64 92 65
REMARK SMILES IDX 59 66 60 67 73 69 93 70 62 71 47 72 48 73 56 74 49 75 55 76
REMARK SMILES IDX 50 77 51 78 52 79 53 80 54 81 77 82 78 83 86 84 79 85 85 86
REMARK SMILES IDX 80 87 81 88 82 89 83 90 84 91 63 92 64 93 72 94 65 95 71 96
REMARK SMILES IDX 66 97 67 98 68 99 69 100 70 101
REMARK H PARENT 22 35 91 57 61 68
REMARK Flexibility Score: inf
ROOT
ATOM      1  C   UNL A   1      31.794  29.930  26.818  1.00  0.00     0.202 C 
ENDROOT
BRANCH   1   2
ATOM      2  O   UNL A   1      31.479  31.004  25.949  1.00  0.00    -0.374 OA
BRANCH   2   3
ATOM      3  C   UNL A   1      30.833  30.733  24.714  1.00  0.00     0.202 C 
BRANCH   3   4
ATOM      4  C   UNL A   1      30.525  29.293  24.272  1.00  0.00     0.261 C 
BRANCH   4   5
ATOM      5  O   UNL A   1      31.399  28.716  23.281  1.00  0.00    -0.461 OA
BRANCH   5   6
ATOM      6  C   UNL A   1      32.237  27.796  23.811  1.00  0.00     0.341 C 
ATOM      7  O   UNL A   1      33.392  28.054  24.163  1.00  0.00    -0.249 OA
BRANCH   6   8
ATOM      8  C   UNL A   1      31.719  26.372  23.883  1.00  0.00     0.200 C 
ATOM      9  C   UNL A   1      30.468  26.756  27.083  1.00  0.00     0.075 C 
ATOM     10  C   UNL A   1      30.734  25.765  25.958  1.00  0.00     0.165 C 
ATOM     11  O   UNL A   1      29.679  25.836  25.000  1.00  0.00    -0.344 OA
ATOM     12  O   UNL A   1      31.985  26.079  25.313  1.00  0.00    -0.329 OA
ATOM     13  C   UNL A   1      30.785  24.369  26.610  1.00  0.00     0.075 C 
ATOM     14  C   UNL A   1      30.288  25.822  23.702  1.00  0.00     0.166 C 
ATOM     15  C   UNL A   1      30.474  24.290  23.219  1.00  0.00     0.040 C 
ATOM     16  C   UNL A   1      32.549  25.463  22.875  1.00  0.00     0.016 C 
ATOM     17  C   UNL A   1      32.000  24.104  23.367  1.00  0.00     0.008 C 
ATOM     18  C   UNL A   1      34.082  25.542  22.843  1.00  0.00     0.046 C 
ATOM     19  C   UNL A   1      32.120  25.808  21.409  1.00  0.00     0.015 C 
ATOM     20  C   UNL A   1      32.914  22.961  23.884  1.00  0.00     0.035 C 
ATOM     21  C   UNL A   1      34.802  24.684  23.861  1.00  0.00     0.154 C 
ATOM     22  C   UNL A   1      32.478  21.531  23.623  1.00  0.00     0.012 C 
ATOM     23  C   UNL A   1      34.432  23.178  23.675  1.00  0.00     0.152 C 
ATOM     24  C   UNL A   1      33.165  20.640  24.672  1.00  0.00     0.032 C 
ATOM     25  C   UNL A   1      35.282  22.211  24.607  1.00  0.00     0.044 C 
ATOM     26  F   UNL A   1      34.690  22.846  22.366  1.00  0.00    -0.239 F 
ATOM     27  C   UNL A   1      34.671  20.792  24.694  1.00  0.00    -0.053 C 
ATOM     28  C   UNL A   1      36.728  22.121  24.113  1.00  0.00    -0.009 C 
ATOM     29  C   UNL A   1      35.389  22.729  26.069  1.00  0.00     0.024 C 
ATOM     30  C   UNL A   1      35.448  19.708  24.879  1.00  0.00     0.052 C 
ATOM     31  C   UNL A   1      37.496  21.034  24.273  1.00  0.00     0.048 C 
ATOM     32  C   UNL A   1      36.925  19.816  24.882  1.00  0.00     0.178 C 
ATOM     33  O   UNL A   1      37.634  18.922  25.324  1.00  0.00    -0.290 OA
BRANCH  21  34
ATOM     34  O   UNL A   1      34.533  25.165  25.173  1.00  0.00    -0.390 OA
ATOM     35  H   UNL A   1      35.129  24.734  25.804  1.00  0.00     0.211 HD
ENDBRANCH  21  34
ENDBRANCH   6   8
ENDBRANCH   5   6
ENDBRANCH   4   5
ENDBRANCH   3   4
ENDBRANCH   2   3
ENDBRANCH   1   2
BRANCH   1  36
ATOM     36  C   UNL A   1      33.240  29.680  27.272  1.00  0.00     0.261 C 
BRANCH  36  37
ATOM     37  O   UNL A   1      34.104  30.818  27.151  1.00  0.00    -0.460 OA
BRANCH  37  38
ATOM     38  C   UNL A   1      34.792  31.103  28.280  1.00  0.00     0.338 C 
ATOM     39  O   UNL A   1      34.420  31.797  29.220  1.00  0.00    -0.246 OA
BRANCH  38  40
ATOM     40  C   UNL A   1      36.023  30.306  28.341  1.00  0.00     0.060 A 
ATOM     41  C   UNL A   1      36.355  29.720  29.570  1.00  0.00     0.016 A 
ATOM     42  C   UNL A   1      36.898  30.242  27.256  1.00  0.00     0.016 A 
ATOM     43  C   UNL A   1      37.590  29.110  29.736  1.00  0.00     0.010 A 
ATOM     44  C   UNL A   1      38.150  29.646  27.430  1.00  0.00     0.010 A 
ATOM     45  C   UNL A   1      38.513  29.120  28.683  1.00  0.00    -0.014 A 
BRANCH  45  46
ATOM     46  C   UNL A   1      39.915  28.747  28.971  1.00  0.00     0.031 A 
ATOM     47  C   UNL A   1      40.795  29.742  29.677  1.00  0.00     0.074 A 
ATOM     48  C   UNL A   1      40.369  27.519  28.670  1.00  0.00     0.049 A 
ATOM     49  N   UNL A   1      42.038  29.619  30.060  1.00  0.00    -0.248 NA
ATOM     50  C   UNL A   1      40.191  31.047  29.998  1.00  0.00     0.031 C 
ATOM     51  C   UNL A   1      39.586  26.460  28.034  1.00  0.00     0.029 A 
ATOM     52  N   UNL A   1      41.602  26.956  28.869  1.00  0.00    -0.354 N 
ATOM     53  C   UNL A   1      42.367  30.826  30.665  1.00  0.00     0.074 A 
ATOM     54  C   UNL A   1      41.202  31.679  30.576  1.00  0.00     0.031 C 
ATOM     55  C   UNL A   1      40.362  25.372  27.892  1.00  0.00     0.029 A 
ATOM     56  C   UNL A   1      41.698  25.667  28.405  1.00  0.00     0.049 A 
ATOM     57  H   UNL A   1      42.348  27.429  29.304  1.00  0.00     0.167 HD
ATOM     58  C   UNL A   1      43.533  31.189  31.249  1.00  0.00     0.031 A 
ATOM     59  C   UNL A   1      42.750  24.826  28.386  1.00  0.00     0.031 A 
ATOM     60  C   UNL A   1      44.692  30.342  31.320  1.00  0.00     0.049 A 
ATOM     61  C   UNL A   1      44.058  25.277  28.979  1.00  0.00     0.074 A 
ATOM     62  C   UNL A   1      45.924  30.613  31.890  1.00  0.00     0.029 A 
ATOM     63  N   UNL A   1      44.765  29.060  30.796  1.00  0.00    -0.354 N 
ATOM     64  N   UNL A   1      44.348  26.417  29.562  1.00  0.00    -0.248 NA
ATOM     65  C   UNL A   1      45.176  24.326  28.920  1.00  0.00     0.031 C 
ATOM     66  C   UNL A   1      46.757  29.510  31.669  1.00  0.00     0.029 A 
ATOM     67  C   UNL A   1      46.026  28.533  31.008  1.00  0.00     0.049 A 
ATOM     68  H   UNL A   1      44.027  28.593  30.342  1.00  0.00     0.167 HD
ATOM     69  C   UNL A   1      45.676  26.311  29.958  1.00  0.00     0.074 A 
ATOM     70  C   UNL A   1      46.128  24.993  29.560  1.00  0.00     0.031 C 
ATOM     71  C   UNL A   1      46.454  27.221  30.597  1.00  0.00     0.031 A 
BRANCH  58  72
ATOM     72  C   UNL A   1      43.615  32.578  31.824  1.00  0.00    -0.014 A 
ATOM     73  C   UNL A   1      44.092  33.654  31.057  1.00  0.00     0.010 A 
ATOM     74  C   UNL A   1      43.189  32.809  33.144  1.00  0.00     0.010 A 
ATOM     75  C   UNL A   1      44.178  34.935  31.613  1.00  0.00     0.020 A 
ATOM     76  C   UNL A   1      43.252  34.092  33.696  1.00  0.00     0.020 A 
ATOM     77  C   UNL A   1      43.763  35.144  32.932  1.00  0.00     0.054 A 
BRANCH  77  78
ATOM     78  S   UNL A   1      43.871  36.816  33.628  1.00  0.00     0.124 S 
ATOM     79  O   UNL A   1      42.716  36.843  34.522  1.00  0.00    -0.237 OA
ATOM     80  O   UNL A   1      45.175  36.808  34.285  1.00  0.00    -0.237 OA
ATOM     81  O   UNL A   1      43.772  37.685  32.458  1.00  0.00    -0.744 OA
ENDBRANCH  77  78
ENDBRANCH  58  72
BRANCH  59  82
ATOM     82  C   UNL A   1      42.610  23.480  27.771  1.00  0.00    -0.014 A 
ATOM     83  C   UNL A   1      43.018  23.249  26.446  1.00  0.00     0.010 A 
ATOM     84  C   UNL A   1      42.079  22.415  28.522  1.00  0.00     0.010 A 
ATOM     85  C   UNL A   1      42.888  21.977  25.879  1.00  0.00     0.020 A 
ATOM     86  C   UNL A   1      41.970  21.138  27.965  1.00  0.00     0.020 A 
ATOM     87  C   UNL A   1      42.366  20.929  26.643  1.00  0.00     0.054 A 
BRANCH  87  88
ATOM     88  S   UNL A   1      42.264  19.273  25.911  1.00  0.00     0.124 S 
ATOM     89  O   UNL A   1      40.833  19.142  25.657  1.00  0.00    -0.237 OA
ATOM     90  O   UNL A   1      43.111  19.397  24.727  1.00  0.00    -0.237 OA
ATOM     91  O   UNL A   1      42.799  18.405  26.959  1.00  0.00    -0.744 OA
ENDBRANCH  87  88
ENDBRANCH  59  82
BRANCH  71  92
ATOM     92  C   UNL A   1      47.864  26.813  30.927  1.00  0.00    -0.014 A 
ATOM     93  C   UNL A   1      48.928  27.112  30.058  1.00  0.00     0.010 A 
ATOM     94  C   UNL A   1      48.132  26.171  32.150  1.00  0.00     0.010 A 
ATOM     95  C   UNL A   1      50.235  26.749  30.395  1.00  0.00     0.020 A 
ATOM     96  C   UNL A   1      49.440  25.829  32.500  1.00  0.00     0.020 A 
ATOM     97  C   UNL A   1      50.482  26.108  31.613  1.00  0.00     0.054 A 
BRANCH  97  98
ATOM     98  S   UNL A   1      52.191  25.686  32.049  1.00  0.00     0.124 S 
ATOM     99  O   UNL A   1      52.082  24.264  32.360  1.00  0.00    -0.237 OA
ATOM    100  O   UNL A   1      52.924  26.006  30.826  1.00  0.00    -0.237 OA
ATOM    101  O   UNL A   1      52.482  26.554  33.187  1.00  0.00    -0.744 OA
ENDBRANCH  97  98
ENDBRANCH  71  92
ENDBRANCH  45  46
ENDBRANCH  38  40
ENDBRANCH  37  38
ENDBRANCH  36  37
ENDBRANCH   1  36
TORSDOF 18
ENDMDL
MODEL 3
REMARK VINA RESULT:     -11.9      6.386     12.068
REMARK SMILES CC1(C)O[C@@H]2CC3[C@H]4CCC5=CC(=O)C=C[C@@]5(C)[C@]4(F)[C@H](O)C[C@]3(C)[C@]2(C(=O)OCCOCCOC(=O)c2ccc(-c3c4nc(c(-c5ccc(S(=O)(=O)[O-])cc5)c5ccc([nH]5)c(-c5ccc(S(=O)(=O)[O-])cc5)c5nc(c(-c6ccc(S(=O)(=O)[O-])cc6)c6ccc3[nH]6)C=C5)C=C4)cc2)O1
REMARK SMILES IDX 33 1 32 2 31 3 30 4 29 5 27 6 28 7 26 8 1 9 2 10 4 11 98 12
REMARK SMILES IDX 3 13 5 14 6 15 24 16 7 17 23 18 25 19 8 20 21 21 9 22 19 23
REMARK SMILES IDX 10 24 17 25 20 26 11 27 16 28 18 29 12 30 15 31 13 32 14 33
REMARK SMILES IDX 22 34 34 36 35 37 36 38 37 39 38 40 39 41 97 42 40 43 96 44
REMARK SMILES IDX 41 45 42 46 43 47 90 48 44 49 95 50 89 51 91 52 45 53 94 54
REMARK SMILES IDX 88 55 87 56 46 58 76 59 57 60 75 61 58 62 61 63 74 64 92 65
REMARK SMILES IDX 59 66 60 67 73 69 93 70 62 71 47 72 48 73 56 74 49 75 55 76
REMARK SMILES IDX 50 77 51 78 52 79 53 80 54 81 77 82 78 83 86 84 79 85 85 86
REMARK SMILES IDX 80 87 81 88 82 89 83 90 84 91 63 92 64 93 72 94 65 95 71 96
REMARK SMILES IDX 66 97 67 98 68 99 69 100 70 101
REMARK H PARENT 22 35 91 57 61 68
REMARK Flexibility Score: inf
ROOT
ATOM      1  C   UNL A   1      34.238  31.652  27.720  1.00  0.00     0.202 C 
ENDROOT
BRANCH   1   2
ATOM      2  O   UNL A   1      33.484  32.852  27.704  1.00  0.00    -0.374 OA
BRANCH   2   3
ATOM      3  C   UNL A   1      32.216  32.869  27.064  1.00  0.00     0.202 C 
BRANCH   3   4
ATOM      4  C   UNL A   1      31.399  31.580  26.876  1.00  0.00     0.261 C 
BRANCH   4   5
ATOM      5  O   UNL A   1      31.629  30.836  25.663  1.00  0.00    -0.461 OA
BRANCH   5   6
ATOM      6  C   UNL A   1      31.708  29.504  25.885  1.00  0.00     0.341 C 
ATOM      7  O   UNL A   1      31.400  28.977  26.958  1.00  0.00    -0.249 OA
BRANCH   6   8
ATOM      8  C   UNL A   1      32.286  28.665  24.762  1.00  0.00     0.200 C 
ATOM      9  C   UNL A   1      29.423  28.875  22.836  1.00  0.00     0.075 C 
ATOM     10  C   UNL A   1      30.796  28.229  22.964  1.00  0.00     0.165 C 
ATOM     11  O   UNL A   1      31.792  29.125  22.472  1.00  0.00    -0.344 OA
ATOM     12  O   UNL A   1      31.068  27.926  24.346  1.00  0.00    -0.329 OA
ATOM     13  C   UNL A   1      30.752  26.943  22.116  1.00  0.00     0.075 C 
ATOM     14  C   UNL A   1      32.882  29.093  23.403  1.00  0.00     0.166 C 
ATOM     15  C   UNL A   1      33.900  27.907  22.989  1.00  0.00     0.040 C 
ATOM     16  C   UNL A   1      33.436  27.733  25.345  1.00  0.00     0.016 C 
ATOM     17  C   UNL A   1      33.613  26.856  24.084  1.00  0.00     0.008 C 
ATOM     18  C   UNL A   1      33.205  26.932  26.634  1.00  0.00     0.046 C 
ATOM     19  C   UNL A   1      34.691  28.615  25.665  1.00  0.00     0.015 C 
ATOM     20  C   UNL A   1      33.462  25.312  24.101  1.00  0.00     0.035 C 
ATOM     21  C   UNL A   1      32.517  25.595  26.458  1.00  0.00     0.154 C 
ATOM     22  C   UNL A   1      34.332  24.504  23.154  1.00  0.00     0.012 C 
ATOM     23  C   UNL A   1      33.339  24.672  25.504  1.00  0.00     0.152 C 
ATOM     24  C   UNL A   1      33.634  23.153  22.926  1.00  0.00     0.032 C 
ATOM     25  C   UNL A   1      32.753  23.197  25.410  1.00  0.00     0.044 C 
ATOM     26  F   UNL A   1      34.618  24.592  26.003  1.00  0.00    -0.239 F 
ATOM     27  C   UNL A   1      33.329  22.410  24.209  1.00  0.00    -0.053 C 
ATOM     28  C   UNL A   1      33.020  22.429  26.707  1.00  0.00    -0.009 C 
ATOM     29  C   UNL A   1      31.207  23.177  25.244  1.00  0.00     0.024 C 
ATOM     30  C   UNL A   1      33.476  21.073  24.257  1.00  0.00     0.052 C 
ATOM     31  C   UNL A   1      33.192  21.100  26.755  1.00  0.00     0.048 C 
ATOM     32  C   UNL A   1      33.209  20.318  25.503  1.00  0.00     0.178 C 
ATOM     33  O   UNL A   1      33.059  19.104  25.499  1.00  0.00    -0.290 OA
BRANCH  21  34
ATOM     34  O   UNL A   1      31.178  25.797  26.021  1.00  0.00    -0.390 OA
ATOM     35  H   UNL A   1      31.145  26.556  25.419  1.00  0.00     0.211 HD
ENDBRANCH  21  34
ENDBRANCH   6   8
ENDBRANCH   5   6
ENDBRANCH   4   5
ENDBRANCH   3   4
ENDBRANCH   2   3
ENDBRANCH   1   2
BRANCH   1  36
ATOM     36  C   UNL A   1      35.167  31.320  28.897  1.00  0.00     0.261 C 
BRANCH  36  37
ATOM     37  O   UNL A   1      35.791  30.032  28.814  1.00  0.00    -0.460 OA
BRANCH  37  38
ATOM     38  C   UNL A   1      36.568  29.733  29.881  1.00  0.00     0.338 C 
ATOM     39  O   UNL A   1      36.199  29.327  30.977  1.00  0.00    -0.246 OA
BRANCH  38  40
ATOM     40  C   UNL A   1      37.987  29.781  29.506  1.00  0.00     0.060 A 
ATOM     41  C   UNL A   1      38.305  29.602  28.154  1.00  0.00     0.016 A 
ATOM     42  C   UNL A   1      38.988  29.870  30.474  1.00  0.00     0.016 A 
ATOM     43  C   UNL A   1      39.630  29.457  27.767  1.00  0.00     0.010 A 
ATOM     44  C   UNL A   1      40.320  29.703  30.087  1.00  0.00     0.010 A 
ATOM     45  C   UNL A   1      40.637  29.452  28.740  1.00  0.00    -0.014 A 
BRANCH  45  46
ATOM     46  C   UNL A   1      41.989  28.995  28.352  1.00  0.00     0.031 A 
ATOM     47  C   UNL A   1      43.111  29.997  28.330  1.00  0.00     0.074 A 
ATOM     48  C   UNL A   1      42.221  27.697  28.093  1.00  0.00     0.049 A 
ATOM     49  N   UNL A   1      44.375  29.814  28.057  1.00  0.00    -0.248 NA
ATOM     50  C   UNL A   1      42.760  31.388  28.666  1.00  0.00     0.031 C 
ATOM     51  C   UNL A   1      41.218  26.633  28.137  1.00  0.00     0.029 A 
ATOM     52  N   UNL A   1      43.382  27.055  27.749  1.00  0.00    -0.354 N 
ATOM     53  C   UNL A   1      44.972  31.063  28.187  1.00  0.00     0.074 A 
ATOM     54  C   UNL A   1      43.928  32.000  28.537  1.00  0.00     0.031 C 
ATOM     55  C   UNL A   1      41.809  25.466  27.828  1.00  0.00     0.029 A 
ATOM     56  C   UNL A   1      43.222  25.707  27.543  1.00  0.00     0.049 A 
ATOM     57  H   UNL A   1      44.247  27.515  27.659  1.00  0.00     0.167 HD
ATOM     58  C   UNL A   1      46.275  31.398  28.034  1.00  0.00     0.031 A 
ATOM     59  C   UNL A   1      44.115  24.775  27.154  1.00  0.00     0.031 A 
ATOM     60  C   UNL A   1      47.305  30.464  27.669  1.00  0.00     0.049 A 
ATOM     61  C   UNL A   1      45.545  25.184  26.922  1.00  0.00     0.074 A 
ATOM     62  C   UNL A   1      48.657  30.699  27.489  1.00  0.00     0.029 A 
ATOM     63  N   UNL A   1      47.095  29.115  27.422  1.00  0.00    -0.354 N 
ATOM     64  N   UNL A   1      46.096  26.367  27.065  1.00  0.00    -0.248 NA
ATOM     65  C   UNL A   1      46.473  24.132  26.487  1.00  0.00     0.031 C 
ATOM     66  C   UNL A   1      49.257  29.500  27.087  1.00  0.00     0.029 A 
ATOM     67  C   UNL A   1      48.287  28.509  27.068  1.00  0.00     0.049 A 
ATOM     68  H   UNL A   1      46.227  28.658  27.490  1.00  0.00     0.167 HD
ATOM     69  C   UNL A   1      47.441  26.195  26.757  1.00  0.00     0.074 A 
ATOM     70  C   UNL A   1      47.621  24.794  26.433  1.00  0.00     0.031 C 
ATOM     71  C   UNL A   1      48.440  27.113  26.745  1.00  0.00     0.031 A 
BRANCH  58  72
ATOM     72  C   UNL A   1      46.645  32.844  28.228  1.00  0.00    -0.014 A 
ATOM     73  C   UNL A   1      47.199  33.297  29.437  1.00  0.00     0.010 A 
ATOM     74  C   UNL A   1      46.454  33.756  27.175  1.00  0.00     0.010 A 
ATOM     75  C   UNL A   1      47.521  34.648  29.605  1.00  0.00     0.020 A 
ATOM     76  C   UNL A   1      46.795  35.102  27.330  1.00  0.00     0.020 A 
ATOM     77  C   UNL A   1      47.311  35.543  28.552  1.00  0.00     0.054 A 
BRANCH  77  78
ATOM     78  S   UNL A   1      47.748  37.288  28.788  1.00  0.00     0.124 S 
ATOM     79  O   UNL A   1      47.977  37.347  30.230  1.00  0.00    -0.237 OA
ATOM     80  O   UNL A   1      48.939  37.437  27.956  1.00  0.00    -0.237 OA
ATOM     81  O   UNL A   1      46.568  38.008  28.316  1.00  0.00    -0.744 OA
ENDBRANCH  77  78
ENDBRANCH  58  72
BRANCH  59  82
ATOM     82  C   UNL A   1      43.675  23.371  26.947  1.00  0.00    -0.014 A 
ATOM     83  C   UNL A   1      43.263  22.578  28.032  1.00  0.00     0.010 A 
ATOM     84  C   UNL A   1      43.651  22.826  25.650  1.00  0.00     0.010 A 
ATOM     85  C   UNL A   1      42.844  21.260  27.824  1.00  0.00     0.020 A 
ATOM     86  C   UNL A   1      43.211  21.516  25.436  1.00  0.00     0.020 A 
ATOM     87  C   UNL A   1      42.819  20.738  26.527  1.00  0.00     0.054 A 
BRANCH  87  88
ATOM     88  S   UNL A   1      42.214  19.048  26.271  1.00  0.00     0.124 S 
ATOM     89  O   UNL A   1      42.327  18.479  27.609  1.00  0.00    -0.237 OA
ATOM     90  O   UNL A   1      40.853  19.268  25.787  1.00  0.00    -0.237 OA
ATOM     91  O   UNL A   1      43.138  18.504  25.277  1.00  0.00    -0.744 OA
ENDBRANCH  87  88
ENDBRANCH  59  82
BRANCH  71  92
ATOM     92  C   UNL A   1      49.820  26.627  26.396  1.00  0.00    -0.014 A 
ATOM     93  C   UNL A   1      50.674  26.100  27.380  1.00  0.00     0.010 A 
ATOM     94  C   UNL A   1      50.244  26.649  25.055  1.00  0.00     0.010 A 
ATOM     95  C   UNL A   1      51.942  25.628  27.032  1.00  0.00     0.020 A 
ATOM     96  C   UNL A   1      51.502  26.156  24.701  1.00  0.00     0.020 A 
ATOM     97  C   UNL A   1      52.349  25.661  25.694  1.00  0.00     0.054 A 
BRANCH  97  98
ATOM     98  S   UNL A   1      53.982  25.002  25.259  1.00  0.00     0.124 S 
ATOM     99  O   UNL A   1      54.364  25.857  24.139  1.00  0.00    -0.237 OA
ATOM    100  O   UNL A   1      54.747  25.199  26.488  1.00  0.00    -0.237 OA
ATOM    101  O   UNL A   1      53.712  23.608  24.917  1.00  0.00    -0.744 OA
ENDBRANCH  97  98
ENDBRANCH  71  92
ENDBRANCH  45  46
ENDBRANCH  38  40
ENDBRANCH  37  38
ENDBRANCH  36  37
ENDBRANCH   1  36
TORSDOF 18
ENDMDL
