MODEL 1
REMARK VINA RESULT:     -10.4      0.000      0.000
REMARK SMILES CC[C@H](NC(=O)Cc1c(C)c2cc(Cl)c(OC)cc2oc1=O)C(=O)OCCOCCOC(=O)c1ccc(-c2c3nc(c(-c4ccc(S(=O)(=O)[O-])cc4)c4ccc([nH]4)c(-c4ccc(S(=O)(=O)[O-])cc4)c4nc(c(-c5ccc(S(=O)(=O)[O-])cc5)c5ccc2[nH]5)C=C4)C=C3)cc1
REMARK SMILES IDX 27 1 26 2 25 3 23 4 24 5 3 6 2 7 1 8 4 9 5 10 6 12 7 13 8 14
REMARK SMILES IDX 9 15 21 16 10 17 11 18 20 19 22 20 12 21 19 22 13 23 18 24
REMARK SMILES IDX 14 25 15 26 16 27 17 28 28 29 29 30 30 31 31 32 32 33 33 34
REMARK SMILES IDX 34 35 35 36 93 37 36 38 92 39 37 40 38 41 39 42 86 43 40 44
REMARK SMILES IDX 91 45 85 46 87 47 41 48 90 49 84 50 83 51 42 53 72 54 53 55
REMARK SMILES IDX 71 56 54 57 57 58 70 59 88 60 55 61 56 62 69 64 89 65 58 66
REMARK SMILES IDX 43 67 44 68 52 69 45 70 51 71 46 72 47 73 48 74 49 75 50 76
REMARK SMILES IDX 73 77 74 78 82 79 75 80 81 81 76 82 77 83 78 84 79 85 80 86
REMARK SMILES IDX 59 87 60 88 68 89 61 90 67 91 62 92 63 93 64 94 65 95 66 96
REMARK H PARENT 4 11 87 52 57 63
REMARK Flexibility Score: inf
ROOT
ATOM      1  C   UNL A   1      40.010  21.955  26.975  1.00  0.00     0.202 C 
ENDROOT
BRANCH   1   2
ATOM      2  C   UNL A   1      39.379  21.161  25.827  1.00  0.00     0.261 C 
BRANCH   2   3
ATOM      3  O   UNL A   1      38.046  21.633  25.528  1.00  0.00    -0.462 OA
BRANCH   3   4
ATOM      4  C   UNL A   1      37.138  20.694  25.142  1.00  0.00     0.328 C 
ATOM      5  O   UNL A   1      37.418  19.590  24.685  1.00  0.00    -0.250 OA
BRANCH   4   6
ATOM      6  C   UNL A   1      35.705  21.247  25.135  1.00  0.00     0.192 C 
BRANCH   6   7
ATOM      7  C   UNL A   1      35.704  22.416  26.167  1.00  0.00     0.033 C 
ATOM      8  C   UNL A   1      35.566  23.839  25.639  1.00  0.00     0.007 C 
ENDBRANCH   6   7
BRANCH   6   9
ATOM      9  N   UNL A   1      34.632  20.270  25.356  1.00  0.00    -0.342 N 
ATOM     10  C   UNL A   1      33.283  20.359  25.205  1.00  0.00     0.225 C 
ATOM     11  H   UNL A   1      34.945  19.391  25.669  1.00  0.00     0.164 HD
ATOM     12  O   UNL A   1      32.612  19.564  25.876  1.00  0.00    -0.275 OA
BRANCH  10  13
ATOM     13  C   UNL A   1      32.574  21.189  24.119  1.00  0.00     0.143 C 
BRANCH  13  14
ATOM     14  C   UNL A   1      32.351  22.676  24.180  1.00  0.00     0.051 A 
ATOM     15  C   UNL A   1      32.847  23.564  23.284  1.00  0.00    -0.029 A 
ATOM     16  C   UNL A   1      31.378  23.134  25.206  1.00  0.00     0.340 A 
ATOM     17  C   UNL A   1      33.461  23.227  21.951  1.00  0.00     0.046 C 
ATOM     18  C   UNL A   1      32.675  24.997  23.527  1.00  0.00     0.023 A 
ATOM     19  O   UNL A   1      30.938  24.448  25.122  1.00  0.00    -0.422 OA
ATOM     20  O   UNL A   1      30.910  22.370  26.041  1.00  0.00    -0.246 OA
ATOM     21  C   UNL A   1      33.467  25.986  22.930  1.00  0.00     0.036 A 
ATOM     22  C   UNL A   1      31.660  25.392  24.380  1.00  0.00     0.142 A 
ATOM     23  C   UNL A   1      33.186  27.338  23.143  1.00  0.00     0.083 A 
ATOM     24  C   UNL A   1      31.339  26.733  24.569  1.00  0.00     0.095 A 
ATOM     25  Cl  UNL A   1      34.212  28.506  22.383  1.00  0.00    -0.080 Cl
ATOM     26  C   UNL A   1      32.098  27.724  23.941  1.00  0.00     0.141 A 
BRANCH  26  27
ATOM     27  O   UNL A   1      31.868  29.068  24.067  1.00  0.00    -0.495 OA
ATOM     28  C   UNL A   1      31.526  29.543  25.361  1.00  0.00     0.278 C 
ENDBRANCH  26  27
ENDBRANCH  13  14
ENDBRANCH  10  13
ENDBRANCH   6   9
ENDBRANCH   4   6
ENDBRANCH   3   4
ENDBRANCH   2   3
ENDBRANCH   1   2
BRANCH   1  29
ATOM     29  O   UNL A   1      40.674  23.159  26.575  1.00  0.00    -0.374 OA
BRANCH  29  30
ATOM     30  C   UNL A   1      42.043  22.972  26.229  1.00  0.00     0.202 C 
BRANCH  30  31
ATOM     31  C   UNL A   1      42.651  24.258  25.668  1.00  0.00     0.261 C 
BRANCH  31  32
ATOM     32  O   UNL A   1      41.688  25.291  25.843  1.00  0.00    -0.460 OA
BRANCH  32  33
ATOM     33  C   UNL A   1      42.219  26.522  25.744  1.00  0.00     0.338 C 
ATOM     34  O   UNL A   1      42.512  27.118  24.726  1.00  0.00    -0.246 OA
BRANCH  33  35
ATOM     35  C   UNL A   1      42.111  27.117  27.085  1.00  0.00     0.060 A 
ATOM     36  C   UNL A   1      42.939  28.169  27.507  1.00  0.00     0.016 A 
ATOM     37  C   UNL A   1      41.193  26.525  27.951  1.00  0.00     0.016 A 
ATOM     38  C   UNL A   1      42.794  28.676  28.792  1.00  0.00     0.010 A 
ATOM     39  C   UNL A   1      41.035  27.040  29.225  1.00  0.00     0.010 A 
ATOM     40  C   UNL A   1      41.798  28.146  29.625  1.00  0.00    -0.014 A 
BRANCH  40  41
ATOM     41  C   UNL A   1      41.348  28.879  30.818  1.00  0.00     0.031 A 
ATOM     42  C   UNL A   1      40.213  29.841  30.741  1.00  0.00     0.074 A 
ATOM     43  C   UNL A   1      42.112  28.747  31.918  1.00  0.00     0.049 A 
ATOM     44  N   UNL A   1      39.794  30.673  31.655  1.00  0.00    -0.248 NA
ATOM     45  C   UNL A   1      39.458  29.894  29.479  1.00  0.00     0.031 C 
ATOM     46  C   UNL A   1      43.265  27.843  32.036  1.00  0.00     0.029 A 
ATOM     47  N   UNL A   1      42.065  29.378  33.130  1.00  0.00    -0.354 N 
ATOM     48  C   UNL A   1      38.724  31.346  31.087  1.00  0.00     0.074 A 
ATOM     49  C   UNL A   1      38.576  30.853  29.735  1.00  0.00     0.031 C 
ATOM     50  C   UNL A   1      43.805  27.972  33.253  1.00  0.00     0.029 A 
ATOM     51  C   UNL A   1      43.074  28.998  33.983  1.00  0.00     0.049 A 
ATOM     52  H   UNL A   1      41.375  30.039  33.368  1.00  0.00     0.167 HD
ATOM     53  C   UNL A   1      37.938  32.281  31.667  1.00  0.00     0.031 A 
ATOM     54  C   UNL A   1      43.384  29.441  35.214  1.00  0.00     0.031 A 
ATOM     55  C   UNL A   1      38.138  32.754  33.012  1.00  0.00     0.049 A 
ATOM     56  C   UNL A   1      42.515  30.504  35.815  1.00  0.00     0.074 A 
ATOM     57  C   UNL A   1      37.388  33.681  33.714  1.00  0.00     0.029 A 
ATOM     58  N   UNL A   1      39.159  32.340  33.858  1.00  0.00    -0.354 N 
ATOM     59  N   UNL A   1      41.470  31.097  35.286  1.00  0.00    -0.248 NA
ATOM     60  C   UNL A   1      42.848  30.953  37.170  1.00  0.00     0.031 C 
ATOM     61  C   UNL A   1      37.991  33.870  34.959  1.00  0.00     0.029 A 
ATOM     62  C   UNL A   1      39.073  33.009  35.065  1.00  0.00     0.049 A 
ATOM     63  H   UNL A   1      39.844  31.670  33.630  1.00  0.00     0.167 HD
ATOM     64  C   UNL A   1      41.005  31.976  36.254  1.00  0.00     0.074 A 
ATOM     65  C   UNL A   1      41.875  31.824  37.405  1.00  0.00     0.031 C 
ATOM     66  C   UNL A   1      39.957  32.831  36.193  1.00  0.00     0.031 A 
BRANCH  53  67
ATOM     67  C   UNL A   1      36.782  32.840  30.880  1.00  0.00    -0.014 A 
ATOM     68  C   UNL A   1      36.995  33.875  29.952  1.00  0.00     0.010 A 
ATOM     69  C   UNL A   1      35.466  32.436  31.165  1.00  0.00     0.010 A 
ATOM     70  C   UNL A   1      35.912  34.526  29.354  1.00  0.00     0.020 A 
ATOM     71  C   UNL A   1      34.380  33.067  30.550  1.00  0.00     0.020 A 
ATOM     72  C   UNL A   1      34.610  34.127  29.670  1.00  0.00     0.054 A 
BRANCH  72  73
ATOM     73  S   UNL A   1      33.215  35.021  28.929  1.00  0.00     0.124 S 
ATOM     74  O   UNL A   1      33.884  36.122  28.244  1.00  0.00    -0.237 OA
ATOM     75  O   UNL A   1      32.612  34.009  28.065  1.00  0.00    -0.237 OA
ATOM     76  O   UNL A   1      32.403  35.403  30.084  1.00  0.00    -0.744 OA
ENDBRANCH  72  73
ENDBRANCH  53  67
BRANCH  54  77
ATOM     77  C   UNL A   1      44.525  28.827  35.944  1.00  0.00    -0.014 A 
ATOM     78  C   UNL A   1      45.835  29.319  35.786  1.00  0.00     0.010 A 
ATOM     79  C   UNL A   1      44.320  27.671  36.717  1.00  0.00     0.010 A 
ATOM     80  C   UNL A   1      46.921  28.643  36.349  1.00  0.00     0.020 A 
ATOM     81  C   UNL A   1      45.401  27.009  37.307  1.00  0.00     0.020 A 
ATOM     82  C   UNL A   1      46.697  27.483  37.096  1.00  0.00     0.054 A 
BRANCH  82  83
ATOM     83  S   UNL A   1      48.122  26.598  37.786  1.00  0.00     0.124 S 
ATOM     84  O   UNL A   1      49.191  26.993  36.873  1.00  0.00    -0.237 OA
ATOM     85  O   UNL A   1      48.214  27.145  39.138  1.00  0.00    -0.237 OA
ATOM     86  O   UNL A   1      47.721  25.195  37.713  1.00  0.00    -0.744 OA
ENDBRANCH  82  83
ENDBRANCH  54  77
BRANCH  66  87
ATOM     87  C   UNL A   1      39.677  33.675  37.405  1.00  0.00    -0.014 A 
ATOM     88  C   UNL A   1      40.304  34.927  37.537  1.00  0.00     0.010 A 
ATOM     89  C   UNL A   1      38.914  33.167  38.470  1.00  0.00     0.010 A 
ATOM     90  C   UNL A   1      40.212  35.639  38.734  1.00  0.00     0.020 A 
ATOM     91  C   UNL A   1      38.794  33.890  39.657  1.00  0.00     0.020 A 
ATOM     92  C   UNL A   1      39.469  35.108  39.792  1.00  0.00     0.054 A 
BRANCH  92  93
ATOM     93  S   UNL A   1      39.405  36.019  41.357  1.00  0.00     0.124 S 
ATOM     94  O   UNL A   1      40.367  35.287  42.176  1.00  0.00    -0.237 OA
ATOM     95  O   UNL A   1      39.810  37.366  40.961  1.00  0.00    -0.237 OA
ATOM     96  O   UNL A   1      38.009  35.893  41.769  1.00  0.00    -0.744 OA
ENDBRANCH  92  93
ENDBRANCH  66  87
ENDBRANCH  40  41
ENDBRANCH  33  35
ENDBRANCH  32  33
ENDBRANCH  31  32
ENDBRANCH  30  31
ENDBRANCH  29  30
ENDBRANCH   1  29
TORSDOF 22
ENDMDL
MODEL 2
REMARK VINA RESULT:     -10.0      5.579     10.421
REMARK SMILES CC[C@H](NC(=O)Cc1c(C)c2cc(Cl)c(OC)cc2oc1=O)C(=O)OCCOCCOC(=O)c1ccc(-c2c3nc(c(-c4ccc(S(=O)(=O)[O-])cc4)c4ccc([nH]4)c(-c4ccc(S(=O)(=O)[O-])cc4)c4nc(c(-c5ccc(S(=O)(=O)[O-])cc5)c5ccc2[nH]5)C=C4)C=C3)cc1
REMARK SMILES IDX 27 1 26 2 25 3 23 4 24 5 3 6 2 7 1 8 4 9 5 10 6 12 7 13 8 14
REMARK SMILES IDX 9 15 21 16 10 17 11 18 20 19 22 20 12 21 19 22 13 23 18 24
REMARK SMILES IDX 14 25 15 26 16 27 17 28 28 29 29 30 30 31 31 32 32 33 33 34
REMARK SMILES IDX 34 35 35 36 93 37 36 38 92 39 37 40 38 41 39 42 86 43 40 44
REMARK SMILES IDX 91 45 85 46 87 47 41 48 90 49 84 50 83 51 42 53 72 54 53 55
REMARK SMILES IDX 71 56 54 57 57 58 70 59 88 60 55 61 56 62 69 64 89 65 58 66
REMARK SMILES IDX 43 67 44 68 52 69 45 70 51 71 46 72 47 73 48 74 49 75 50 76
REMARK SMILES IDX 73 77 74 78 82 79 75 80 81 81 76 82 77 83 78 84 79 85 80 86
REMARK SMILES IDX 59 87 60 88 68 89 61 90 67 91 62 92 63 93 64 94 65 95 66 96
REMARK H PARENT 4 11 87 52 57 63
REMARK Flexibility Score: inf
ROOT
ATOM      1  C   UNL A   1      38.063  22.007  25.741  1.00  0.00     0.202 C 
ENDROOT
BRANCH   1   2
ATOM      2  C   UNL A   1      37.146  22.206  24.530  1.00  0.00     0.261 C 
BRANCH   2   3
ATOM      3  O   UNL A   1      35.962  21.383  24.625  1.00  0.00    -0.462 OA
BRANCH   3   4
ATOM      4  C   UNL A   1      35.034  21.752  25.551  1.00  0.00     0.328 C 
ATOM      5  O   UNL A   1      35.039  21.407  26.728  1.00  0.00    -0.250 OA
BRANCH   4   6
ATOM      6  C   UNL A   1      33.843  22.483  24.914  1.00  0.00     0.192 C 
BRANCH   6   7
ATOM      7  C   UNL A   1      32.605  21.571  25.176  1.00  0.00     0.033 C 
ATOM      8  C   UNL A   1      31.219  22.193  25.062  1.00  0.00     0.007 C 
ENDBRANCH   6   7
BRANCH   6   9
ATOM      9  N   UNL A   1      33.997  22.871  23.507  1.00  0.00    -0.342 N 
ATOM     10  C   UNL A   1      33.641  23.999  22.836  1.00  0.00     0.225 C 
ATOM     11  H   UNL A   1      34.439  22.192  22.948  1.00  0.00     0.164 HD
ATOM     12  O   UNL A   1      33.483  23.873  21.614  1.00  0.00    -0.275 OA
BRANCH  10  13
ATOM     13  C   UNL A   1      33.654  25.418  23.434  1.00  0.00     0.143 C 
BRANCH  13  14
ATOM     14  C   UNL A   1      32.613  26.473  23.171  1.00  0.00     0.051 A 
ATOM     15  C   UNL A   1      31.396  26.517  23.766  1.00  0.00    -0.029 A 
ATOM     16  C   UNL A   1      33.060  27.613  22.328  1.00  0.00     0.340 A 
ATOM     17  C   UNL A   1      30.967  25.711  24.963  1.00  0.00     0.046 C 
ATOM     18  C   UNL A   1      30.420  27.515  23.326  1.00  0.00     0.023 A 
ATOM     19  O   UNL A   1      32.237  28.730  22.284  1.00  0.00    -0.422 OA
ATOM     20  O   UNL A   1      34.147  27.615  21.764  1.00  0.00    -0.246 OA
ATOM     21  C   UNL A   1      29.042  27.404  23.551  1.00  0.00     0.036 A 
ATOM     22  C   UNL A   1      30.893  28.637  22.670  1.00  0.00     0.142 A 
ATOM     23  C   UNL A   1      28.182  28.441  23.178  1.00  0.00     0.083 A 
ATOM     24  C   UNL A   1      30.057  29.698  22.331  1.00  0.00     0.095 A 
ATOM     25  Cl  UNL A   1      26.490  28.232  23.475  1.00  0.00    -0.080 Cl
ATOM     26  C   UNL A   1      28.687  29.612  22.592  1.00  0.00     0.141 A 
BRANCH  26  27
ATOM     27  O   UNL A   1      27.781  30.595  22.293  1.00  0.00    -0.495 OA
ATOM     28  C   UNL A   1      27.721  31.703  23.178  1.00  0.00     0.278 C 
ENDBRANCH  26  27
ENDBRANCH  13  14
ENDBRANCH  10  13
ENDBRANCH   6   9
ENDBRANCH   4   6
ENDBRANCH   3   4
ENDBRANCH   2   3
ENDBRANCH   1   2
BRANCH   1  29
ATOM     29  O   UNL A   1      39.246  21.245  25.478  1.00  0.00    -0.374 OA
BRANCH  29  30
ATOM     30  C   UNL A   1      39.026  19.837  25.446  1.00  0.00     0.202 C 
BRANCH  30  31
ATOM     31  C   UNL A   1      40.222  19.079  26.024  1.00  0.00     0.261 C 
BRANCH  31  32
ATOM     32  O   UNL A   1      41.386  19.562  25.363  1.00  0.00    -0.460 OA
BRANCH  32  33
ATOM     33  C   UNL A   1      42.461  19.615  26.170  1.00  0.00     0.338 C 
ATOM     34  O   UNL A   1      43.256  18.723  26.395  1.00  0.00    -0.246 OA
BRANCH  33  35
ATOM     35  C   UNL A   1      42.650  21.036  26.499  1.00  0.00     0.060 A 
ATOM     36  C   UNL A   1      42.725  21.494  27.824  1.00  0.00     0.016 A 
ATOM     37  C   UNL A   1      42.668  21.922  25.423  1.00  0.00     0.016 A 
ATOM     38  C   UNL A   1      42.889  22.852  28.065  1.00  0.00     0.010 A 
ATOM     39  C   UNL A   1      42.850  23.272  25.661  1.00  0.00     0.010 A 
ATOM     40  C   UNL A   1      43.012  23.728  26.977  1.00  0.00    -0.014 A 
BRANCH  40  41
ATOM     41  C   UNL A   1      43.563  25.079  27.159  1.00  0.00     0.031 A 
ATOM     42  C   UNL A   1      45.020  25.341  26.986  1.00  0.00     0.074 A 
ATOM     43  C   UNL A   1      42.712  26.008  27.636  1.00  0.00     0.049 A 
ATOM     44  N   UNL A   1      45.683  26.431  27.256  1.00  0.00    -0.248 NA
ATOM     45  C   UNL A   1      45.845  24.241  26.460  1.00  0.00     0.031 C 
ATOM     46  C   UNL A   1      41.276  25.792  27.861  1.00  0.00     0.029 A 
ATOM     47  N   UNL A   1      42.919  27.296  28.042  1.00  0.00    -0.354 N 
ATOM     48  C   UNL A   1      47.002  26.158  26.929  1.00  0.00     0.074 A 
ATOM     49  C   UNL A   1      47.055  24.786  26.474  1.00  0.00     0.031 C 
ATOM     50  C   UNL A   1      40.733  26.912  28.354  1.00  0.00     0.029 A 
ATOM     51  C   UNL A   1      41.785  27.904  28.526  1.00  0.00     0.049 A 
ATOM     52  H   UNL A   1      43.793  27.744  27.991  1.00  0.00     0.167 HD
ATOM     53  C   UNL A   1      48.059  26.998  26.998  1.00  0.00     0.031 A 
ATOM     54  C   UNL A   1      41.615  29.125  29.065  1.00  0.00     0.031 A 
ATOM     55  C   UNL A   1      47.959  28.353  27.478  1.00  0.00     0.049 A 
ATOM     56  C   UNL A   1      42.814  30.019  29.161  1.00  0.00     0.074 A 
ATOM     57  C   UNL A   1      48.957  29.305  27.569  1.00  0.00     0.029 A 
ATOM     58  N   UNL A   1      46.794  28.946  27.948  1.00  0.00    -0.354 N 
ATOM     59  N   UNL A   1      44.050  29.767  28.799  1.00  0.00    -0.248 NA
ATOM     60  C   UNL A   1      42.605  31.357  29.722  1.00  0.00     0.031 C 
ATOM     61  C   UNL A   1      48.410  30.451  28.148  1.00  0.00     0.029 A 
ATOM     62  C   UNL A   1      47.054  30.243  28.352  1.00  0.00     0.049 A 
ATOM     63  H   UNL A   1      45.913  28.507  27.988  1.00  0.00     0.167 HD
ATOM     64  C   UNL A   1      44.766  30.925  29.067  1.00  0.00     0.074 A 
ATOM     65  C   UNL A   1      43.819  31.882  29.608  1.00  0.00     0.031 C 
ATOM     66  C   UNL A   1      46.085  31.171  28.885  1.00  0.00     0.031 A 
BRANCH  53  67
ATOM     67  C   UNL A   1      49.402  26.508  26.529  1.00  0.00    -0.014 A 
ATOM     68  C   UNL A   1      50.293  25.910  27.440  1.00  0.00     0.010 A 
ATOM     69  C   UNL A   1      49.838  26.767  25.217  1.00  0.00     0.010 A 
ATOM     70  C   UNL A   1      51.607  25.620  27.061  1.00  0.00     0.020 A 
ATOM     71  C   UNL A   1      51.143  26.455  24.827  1.00  0.00     0.020 A 
ATOM     72  C   UNL A   1      52.028  25.909  25.760  1.00  0.00     0.054 A 
BRANCH  72  73
ATOM     73  S   UNL A   1      53.752  25.580  25.303  1.00  0.00     0.124 S 
ATOM     74  O   UNL A   1      54.148  24.581  26.291  1.00  0.00    -0.237 OA
ATOM     75  O   UNL A   1      53.631  25.099  23.929  1.00  0.00    -0.237 OA
ATOM     76  O   UNL A   1      54.397  26.885  25.440  1.00  0.00    -0.744 OA
ENDBRANCH  72  73
ENDBRANCH  53  67
BRANCH  54  77
ATOM     77  C   UNL A   1      40.255  29.554  29.484  1.00  0.00    -0.014 A 
ATOM     78  C   UNL A   1      39.336  30.065  28.548  1.00  0.00     0.010 A 
ATOM     79  C   UNL A   1      39.911  29.556  30.847  1.00  0.00     0.010 A 
ATOM     80  C   UNL A   1      38.120  30.611  28.970  1.00  0.00     0.020 A 
ATOM     81  C   UNL A   1      38.684  30.074  31.271  1.00  0.00     0.020 A 
ATOM     82  C   UNL A   1      37.808  30.624  30.332  1.00  0.00     0.054 A 
BRANCH  82  83
ATOM     83  S   UNL A   1      36.243  31.371  30.864  1.00  0.00     0.124 S 
ATOM     84  O   UNL A   1      35.847  30.489  31.959  1.00  0.00    -0.237 OA
ATOM     85  O   UNL A   1      36.649  32.719  31.257  1.00  0.00    -0.237 OA
ATOM     86  O   UNL A   1      35.406  31.300  29.669  1.00  0.00    -0.744 OA
ENDBRANCH  82  83
ENDBRANCH  54  77
BRANCH  66  87
ATOM     87  C   UNL A   1      46.597  32.531  29.267  1.00  0.00    -0.014 A 
ATOM     88  C   UNL A   1      46.634  33.555  28.302  1.00  0.00     0.010 A 
ATOM     89  C   UNL A   1      47.173  32.750  30.530  1.00  0.00     0.010 A 
ATOM     90  C   UNL A   1      47.280  34.760  28.578  1.00  0.00     0.020 A 
ATOM     91  C   UNL A   1      47.792  33.966  30.820  1.00  0.00     0.020 A 
ATOM     92  C   UNL A   1      47.868  34.952  29.831  1.00  0.00     0.054 A 
BRANCH  92  93
ATOM     93  S   UNL A   1      48.750  36.502  30.153  1.00  0.00     0.124 S 
ATOM     94  O   UNL A   1      49.295  36.273  31.487  1.00  0.00    -0.237 OA
ATOM     95  O   UNL A   1      49.730  36.545  29.070  1.00  0.00    -0.237 OA
ATOM     96  O   UNL A   1      47.700  37.515  30.071  1.00  0.00    -0.744 OA
ENDBRANCH  92  93
ENDBRANCH  66  87
ENDBRANCH  40  41
ENDBRANCH  33  35
ENDBRANCH  32  33
ENDBRANCH  31  32
ENDBRANCH  30  31
ENDBRANCH  29  30
ENDBRANCH   1  29
TORSDOF 22
ENDMDL
MODEL 3
REMARK VINA RESULT:      -9.9      5.850     11.771
REMARK SMILES CC[C@H](NC(=O)Cc1c(C)c2cc(Cl)c(OC)cc2oc1=O)C(=O)OCCOCCOC(=O)c1ccc(-c2c3nc(c(-c4ccc(S(=O)(=O)[O-])cc4)c4ccc([nH]4)c(-c4ccc(S(=O)(=O)[O-])cc4)c4nc(c(-c5ccc(S(=O)(=O)[O-])cc5)c5ccc2[nH]5)C=C4)C=C3)cc1
REMARK SMILES IDX 27 1 26 2 25 3 23 4 24 5 3 6 2 7 1 8 4 9 5 10 6 12 7 13 8 14
REMARK SMILES IDX 9 15 21 16 10 17 11 18 20 19 22 20 12 21 19 22 13 23 18 24
REMARK SMILES IDX 14 25 15 26 16 27 17 28 28 29 29 30 30 31 31 32 32 33 33 34
REMARK SMILES IDX 34 35 35 36 93 37 36 38 92 39 37 40 38 41 39 42 86 43 40 44
REMARK SMILES IDX 91 45 85 46 87 47 41 48 90 49 84 50 83 51 42 53 72 54 53 55
REMARK SMILES IDX 71 56 54 57 57 58 70 59 88 60 55 61 56 62 69 64 89 65 58 66
REMARK SMILES IDX 43 67 44 68 52 69 45 70 51 71 46 72 47 73 48 74 49 75 50 76
REMARK SMILES IDX 73 77 74 78 82 79 75 80 81 81 76 82 77 83 78 84 79 85 80 86
REMARK SMILES IDX 59 87 60 88 68 89 61 90 67 91 62 92 63 93 64 94 65 95 66 96
REMARK H PARENT 4 11 87 52 57 63
REMARK Flexibility Score: inf
ROOT
ATOM      1  C   UNL A   1      34.947  33.001  28.868  1.00  0.00     0.202 C 
ENDROOT
BRANCH   1   2
ATOM      2  C   UNL A   1      33.713  33.042  27.961  1.00  0.00     0.261 C 
BRANCH   2   3
ATOM      3  O   UNL A   1      33.372  31.725  27.474  1.00  0.00    -0.462 OA
BRANCH   3   4
ATOM      4  C   UNL A   1      32.214  31.618  26.764  1.00  0.00     0.328 C 
ATOM      5  O   UNL A   1      31.327  32.465  26.732  1.00  0.00    -0.250 OA
BRANCH   4   6
ATOM      6  C   UNL A   1      32.032  30.214  26.167  1.00  0.00     0.192 C 
BRANCH   6   7
ATOM      7  C   UNL A   1      33.456  29.578  26.154  1.00  0.00     0.033 C 
ATOM      8  C   UNL A   1      33.712  28.372  27.050  1.00  0.00     0.007 C 
ENDBRANCH   6   7
BRANCH   6   9
ATOM      9  N   UNL A   1      31.347  30.144  24.871  1.00  0.00    -0.342 N 
ATOM     10  C   UNL A   1      31.021  29.089  24.077  1.00  0.00     0.225 C 
ATOM     11  H   UNL A   1      31.074  31.019  24.512  1.00  0.00     0.164 HD
ATOM     12  O   UNL A   1      30.866  29.346  22.875  1.00  0.00    -0.275 OA
BRANCH  10  13
ATOM     13  C   UNL A   1      30.615  27.695  24.590  1.00  0.00     0.143 C 
BRANCH  13  14
ATOM     14  C   UNL A   1      31.574  26.577  24.897  1.00  0.00     0.051 A 
ATOM     15  C   UNL A   1      32.755  26.382  24.262  1.00  0.00    -0.029 A 
ATOM     16  C   UNL A   1      31.242  25.764  26.097  1.00  0.00     0.340 A 
ATOM     17  C   UNL A   1      33.441  27.363  23.350  1.00  0.00     0.046 C 
ATOM     18  C   UNL A   1      33.536  25.180  24.558  1.00  0.00     0.023 A 
ATOM     19  O   UNL A   1      32.225  24.909  26.575  1.00  0.00    -0.422 OA
ATOM     20  O   UNL A   1      30.184  25.900  26.698  1.00  0.00    -0.246 OA
ATOM     21  C   UNL A   1      34.521  24.665  23.705  1.00  0.00     0.036 A 
ATOM     22  C   UNL A   1      33.298  24.532  25.756  1.00  0.00     0.142 A 
ATOM     23  C   UNL A   1      35.287  23.564  24.097  1.00  0.00     0.083 A 
ATOM     24  C   UNL A   1      34.079  23.461  26.181  1.00  0.00     0.095 A 
ATOM     25  Cl  UNL A   1      36.478  22.974  22.990  1.00  0.00    -0.080 Cl
ATOM     26  C   UNL A   1      35.093  22.970  25.354  1.00  0.00     0.141 A 
BRANCH  26  27
ATOM     27  O   UNL A   1      35.911  21.920  25.676  1.00  0.00    -0.495 OA
ATOM     28  C   UNL A   1      35.429  20.617  25.383  1.00  0.00     0.278 C 
ENDBRANCH  26  27
ENDBRANCH  13  14
ENDBRANCH  10  13
ENDBRANCH   6   9
ENDBRANCH   4   6
ENDBRANCH   3   4
ENDBRANCH   2   3
ENDBRANCH   1   2
BRANCH   1  29
ATOM     29  O   UNL A   1      34.968  33.999  29.894  1.00  0.00    -0.374 OA
BRANCH  29  30
ATOM     30  C   UNL A   1      35.504  33.538  31.132  1.00  0.00     0.202 C 
BRANCH  30  31
ATOM     31  C   UNL A   1      35.560  32.011  31.174  1.00  0.00     0.261 C 
BRANCH  31  32
ATOM     32  O   UNL A   1      36.910  31.646  31.436  1.00  0.00    -0.460 OA
BRANCH  32  33
ATOM     33  C   UNL A   1      37.146  30.338  31.233  1.00  0.00     0.338 C 
ATOM     34  O   UNL A   1      36.334  29.433  31.244  1.00  0.00    -0.246 OA
BRANCH  33  35
ATOM     35  C   UNL A   1      38.519  30.251  30.711  1.00  0.00     0.060 A 
ATOM     36  C   UNL A   1      39.636  30.148  31.554  1.00  0.00     0.016 A 
ATOM     37  C   UNL A   1      38.662  30.359  29.329  1.00  0.00     0.016 A 
ATOM     38  C   UNL A   1      40.906  30.084  30.997  1.00  0.00     0.010 A 
ATOM     39  C   UNL A   1      39.924  30.278  28.770  1.00  0.00     0.010 A 
ATOM     40  C   UNL A   1      41.038  30.089  29.601  1.00  0.00    -0.014 A 
BRANCH  40  41
ATOM     41  C   UNL A   1      42.287  29.643  28.963  1.00  0.00     0.031 A 
ATOM     42  C   UNL A   1      42.468  28.224  28.547  1.00  0.00     0.074 A 
ATOM     43  C   UNL A   1      43.288  30.542  28.926  1.00  0.00     0.049 A 
ATOM     44  N   UNL A   1      43.552  27.640  28.115  1.00  0.00    -0.248 NA
ATOM     45  C   UNL A   1      41.296  27.339  28.639  1.00  0.00     0.031 C 
ATOM     46  C   UNL A   1      43.174  31.943  29.359  1.00  0.00     0.029 A 
ATOM     47  N   UNL A   1      44.593  30.423  28.540  1.00  0.00    -0.354 N 
ATOM     48  C   UNL A   1      43.198  26.321  27.877  1.00  0.00     0.074 A 
ATOM     49  C   UNL A   1      41.806  26.178  28.245  1.00  0.00     0.031 C 
ATOM     50  C   UNL A   1      44.356  32.550  29.203  1.00  0.00     0.029 A 
ATOM     51  C   UNL A   1      45.321  31.577  28.710  1.00  0.00     0.049 A 
ATOM     52  H   UNL A   1      44.974  29.592  28.175  1.00  0.00     0.167 HD
ATOM     53  C   UNL A   1      43.979  25.336  27.381  1.00  0.00     0.031 A 
ATOM     54  C   UNL A   1      46.627  31.819  28.505  1.00  0.00     0.031 A 
ATOM     55  C   UNL A   1      45.368  25.523  27.047  1.00  0.00     0.049 A 
ATOM     56  C   UNL A   1      47.474  30.695  27.989  1.00  0.00     0.074 A 
ATOM     57  C   UNL A   1      46.252  24.603  26.513  1.00  0.00     0.029 A 
ATOM     58  N   UNL A   1      46.074  26.707  27.216  1.00  0.00    -0.354 N 
ATOM     59  N   UNL A   1      47.115  29.463  27.716  1.00  0.00    -0.248 NA
ATOM     60  C   UNL A   1      48.889  30.985  27.741  1.00  0.00     0.031 C 
ATOM     61  C   UNL A   1      47.503  25.214  26.415  1.00  0.00     0.029 A 
ATOM     62  C   UNL A   1      47.387  26.535  26.819  1.00  0.00     0.049 A 
ATOM     63  H   UNL A   1      45.694  27.546  27.568  1.00  0.00     0.167 HD
ATOM     64  C   UNL A   1      48.256  28.833  27.242  1.00  0.00     0.074 A 
ATOM     65  C   UNL A   1      49.313  29.826  27.251  1.00  0.00     0.031 C 
ATOM     66  C   UNL A   1      48.415  27.549  26.839  1.00  0.00     0.031 A 
BRANCH  53  67
ATOM     67  C   UNL A   1      43.366  23.982  27.141  1.00  0.00    -0.014 A 
ATOM     68  C   UNL A   1      42.756  23.691  25.907  1.00  0.00     0.010 A 
ATOM     69  C   UNL A   1      43.271  23.048  28.187  1.00  0.00     0.010 A 
ATOM     70  C   UNL A   1      42.025  22.511  25.737  1.00  0.00     0.020 A 
ATOM     71  C   UNL A   1      42.563  21.855  28.014  1.00  0.00     0.020 A 
ATOM     72  C   UNL A   1      41.921  21.608  26.798  1.00  0.00     0.054 A 
BRANCH  72  73
ATOM     73  S   UNL A   1      40.921  20.110  26.579  1.00  0.00     0.124 S 
ATOM     74  O   UNL A   1      40.958  19.517  27.912  1.00  0.00    -0.237 OA
ATOM     75  O   UNL A   1      39.629  20.649  26.161  1.00  0.00    -0.237 OA
ATOM     76  O   UNL A   1      41.639  19.368  25.544  1.00  0.00    -0.744 OA
ENDBRANCH  72  73
ENDBRANCH  53  67
BRANCH  54  77
ATOM     77  C   UNL A   1      47.161  33.187  28.739  1.00  0.00    -0.014 A 
ATOM     78  C   UNL A   1      47.629  33.574  30.010  1.00  0.00     0.010 A 
ATOM     79  C   UNL A   1      47.100  34.147  27.714  1.00  0.00     0.010 A 
ATOM     80  C   UNL A   1      47.981  34.903  30.263  1.00  0.00     0.020 A 
ATOM     81  C   UNL A   1      47.479  35.471  27.956  1.00  0.00     0.020 A 
ATOM     82  C   UNL A   1      47.892  35.846  29.236  1.00  0.00     0.054 A 
BRANCH  82  83
ATOM     83  S   UNL A   1      48.317  37.573  29.593  1.00  0.00     0.124 S 
ATOM     84  O   UNL A   1      49.214  37.895  28.488  1.00  0.00    -0.237 OA
ATOM     85  O   UNL A   1      47.015  38.236  29.562  1.00  0.00    -0.237 OA
ATOM     86  O   UNL A   1      48.945  37.504  30.911  1.00  0.00    -0.744 OA
ENDBRANCH  82  83
ENDBRANCH  54  77
BRANCH  66  87
ATOM     87  C   UNL A   1      49.779  27.133  26.367  1.00  0.00    -0.014 A 
ATOM     88  C   UNL A   1      50.743  26.723  27.306  1.00  0.00     0.010 A 
ATOM     89  C   UNL A   1      50.147  27.285  25.019  1.00  0.00     0.010 A 
ATOM     90  C   UNL A   1      52.066  26.518  26.913  1.00  0.00     0.020 A 
ATOM     91  C   UNL A   1      51.462  27.050  24.617  1.00  0.00     0.020 A 
ATOM     92  C   UNL A   1      52.420  26.697  25.574  1.00  0.00     0.054 A 
BRANCH  92  93
ATOM     93  S   UNL A   1      54.153  26.480  25.093  1.00  0.00     0.124 S 
ATOM     94  O   UNL A   1      54.109  25.225  24.348  1.00  0.00    -0.237 OA
ATOM     95  O   UNL A   1      54.419  27.676  24.298  1.00  0.00    -0.237 OA
ATOM     96  O   UNL A   1      54.858  26.423  26.372  1.00  0.00    -0.744 OA
ENDBRANCH  92  93
ENDBRANCH  66  87
ENDBRANCH  40  41
ENDBRANCH  33  35
ENDBRANCH  32  33
ENDBRANCH  31  32
ENDBRANCH  30  31
ENDBRANCH  29  30
ENDBRANCH   1  29
TORSDOF 22
ENDMDL
