MODEL 1
REMARK VINA RESULT:     -10.3      0.000      0.000
REMARK SMILES CCOc1ccc2nc(S[C@@H](C(=O)OCCOCCOC(=O)c3ccc(-c4c5nc(c(-c6ccc(S(=O)(=O)[O-])cc6)c6ccc([nH]6)c(-c6ccc(S(=O)(=O)[O-])cc6)c6nc(c(-c7ccc(S(=O)(=O)[O-])cc7)c7ccc4[nH]7)C=C6)C=C5)cc3)c3ccccc3)[nH]c2c1
REMARK SMILES IDX 16 1 15 2 14 3 12 4 13 5 11 6 10 7 9 8 4 9 5 10 91 11 6 12
REMARK SMILES IDX 90 13 7 14 89 15 8 16 3 18 2 19 1 20 83 21 84 22 88 23 85 24
REMARK SMILES IDX 87 25 86 26 17 27 18 28 19 29 20 30 21 31 22 32 23 33 24 34
REMARK SMILES IDX 82 35 25 36 81 37 26 38 27 39 28 40 75 41 29 42 80 43 74 44
REMARK SMILES IDX 76 45 30 46 79 47 73 48 72 49 31 51 61 52 42 53 60 54 43 55
REMARK SMILES IDX 46 56 59 57 77 58 44 59 45 60 58 62 78 63 47 64 32 65 33 66
REMARK SMILES IDX 41 67 34 68 40 69 35 70 36 71 37 72 38 73 39 74 62 75 63 76
REMARK SMILES IDX 71 77 64 78 70 79 65 80 66 81 67 82 68 83 69 84 48 85 49 86
REMARK SMILES IDX 57 87 50 88 56 89 51 90 52 91 53 92 54 93 55 94
REMARK H PARENT 89 17 76 50 46 61
REMARK Flexibility Score: inf
ROOT
ATOM      1  C   UNL A   1      33.760  28.876  26.621  1.00  0.00     0.202 C 
ENDROOT
BRANCH   1   2
ATOM      2  C   UNL A   1      33.790  28.038  25.338  1.00  0.00     0.261 C 
BRANCH   2   3
ATOM      3  O   UNL A   1      32.703  28.343  24.441  1.00  0.00    -0.462 OA
BRANCH   3   4
ATOM      4  C   UNL A   1      31.503  27.774  24.738  1.00  0.00     0.324 C 
ATOM      5  O   UNL A   1      31.079  27.665  25.889  1.00  0.00    -0.251 OA
BRANCH   4   6
ATOM      6  C   UNL A   1      30.680  27.300  23.525  1.00  0.00     0.194 C 
BRANCH   6   7
ATOM      7  S   UNL A   1      31.598  26.249  22.370  1.00  0.00    -0.068 SA
BRANCH   7   8
ATOM      8  C   UNL A   1      32.522  25.038  23.181  1.00  0.00     0.167 A 
ATOM      9  C   UNL A   1      35.800  22.761  25.280  1.00  0.00     0.121 A 
ATOM     10  C   UNL A   1      34.906  22.936  26.337  1.00  0.00     0.049 A 
ATOM     11  C   UNL A   1      35.471  23.132  23.966  1.00  0.00     0.074 A 
ATOM     12  C   UNL A   1      33.640  23.491  26.117  1.00  0.00     0.034 A 
ATOM     13  C   UNL A   1      34.226  23.753  23.789  1.00  0.00     0.070 A 
ATOM     14  C   UNL A   1      33.327  23.949  24.831  1.00  0.00     0.090 A 
ATOM     15  N   UNL A   1      33.631  24.384  22.715  1.00  0.00    -0.333 N 
ATOM     16  N   UNL A   1      32.252  24.684  24.417  1.00  0.00    -0.223 NA
ATOM     17  H   UNL A   1      33.947  24.367  21.783  1.00  0.00     0.169 HD
BRANCH   9  18
ATOM     18  O   UNL A   1      37.106  22.426  25.537  1.00  0.00    -0.494 OA
BRANCH  18  19
ATOM     19  C   UNL A   1      37.905  23.511  26.013  1.00  0.00     0.226 C 
ATOM     20  C   UNL A   1      39.195  23.044  26.667  1.00  0.00     0.049 C 
ENDBRANCH  18  19
ENDBRANCH   9  18
ENDBRANCH   7   8
ENDBRANCH   6   7
BRANCH   6  21
ATOM     21  C   UNL A   1      29.717  28.326  22.921  1.00  0.00    -0.023 A 
ATOM     22  C   UNL A   1      30.161  29.461  22.219  1.00  0.00     0.005 A 
ATOM     23  C   UNL A   1      28.329  28.202  23.139  1.00  0.00     0.005 A 
ATOM     24  C   UNL A   1      29.258  30.420  21.748  1.00  0.00     0.000 A 
ATOM     25  C   UNL A   1      27.427  29.143  22.640  1.00  0.00     0.000 A 
ATOM     26  C   UNL A   1      27.892  30.256  21.950  1.00  0.00     0.000 A 
ENDBRANCH   6  21
ENDBRANCH   4   6
ENDBRANCH   3   4
ENDBRANCH   2   3
ENDBRANCH   1   2
BRANCH   1  27
ATOM     27  O   UNL A   1      33.754  30.292  26.441  1.00  0.00    -0.374 OA
BRANCH  27  28
ATOM     28  C   UNL A   1      33.543  31.091  27.608  1.00  0.00     0.202 C 
BRANCH  28  29
ATOM     29  C   UNL A   1      34.751  31.875  28.125  1.00  0.00     0.261 C 
BRANCH  29  30
ATOM     30  O   UNL A   1      35.719  31.016  28.745  1.00  0.00    -0.460 OA
BRANCH  30  31
ATOM     31  C   UNL A   1      36.863  31.648  29.088  1.00  0.00     0.338 C 
ATOM     32  O   UNL A   1      36.974  32.766  29.577  1.00  0.00    -0.246 OA
BRANCH  31  33
ATOM     33  C   UNL A   1      38.004  30.733  28.973  1.00  0.00     0.060 A 
ATOM     34  C   UNL A   1      38.969  30.781  29.987  1.00  0.00     0.016 A 
ATOM     35  C   UNL A   1      38.194  29.952  27.833  1.00  0.00     0.016 A 
ATOM     36  C   UNL A   1      40.172  30.101  29.829  1.00  0.00     0.010 A 
ATOM     37  C   UNL A   1      39.406  29.276  27.673  1.00  0.00     0.010 A 
ATOM     38  C   UNL A   1      40.415  29.388  28.648  1.00  0.00    -0.014 A 
BRANCH  38  39
ATOM     39  C   UNL A   1      41.787  28.914  28.355  1.00  0.00     0.031 A 
ATOM     40  C   UNL A   1      42.907  29.920  28.340  1.00  0.00     0.074 A 
ATOM     41  C   UNL A   1      42.028  27.611  28.132  1.00  0.00     0.049 A 
ATOM     42  N   UNL A   1      44.171  29.745  28.058  1.00  0.00    -0.248 NA
ATOM     43  C   UNL A   1      42.553  31.308  28.684  1.00  0.00     0.031 C 
ATOM     44  C   UNL A   1      41.022  26.548  28.172  1.00  0.00     0.029 A 
ATOM     45  N   UNL A   1      43.194  26.961  27.821  1.00  0.00    -0.354 N 
ATOM     46  C   UNL A   1      44.760  30.999  28.177  1.00  0.00     0.074 A 
ATOM     47  C   UNL A   1      43.714  31.930  28.538  1.00  0.00     0.031 C 
ATOM     48  C   UNL A   1      41.615  25.378  27.877  1.00  0.00     0.029 A 
ATOM     49  C   UNL A   1      43.029  25.615  27.598  1.00  0.00     0.049 A 
ATOM     50  H   UNL A   1      44.065  27.415  27.763  1.00  0.00     0.167 HD
ATOM     51  C   UNL A   1      46.057  31.342  27.998  1.00  0.00     0.031 A 
ATOM     52  C   UNL A   1      43.917  24.688  27.187  1.00  0.00     0.031 A 
ATOM     53  C   UNL A   1      47.087  30.407  27.633  1.00  0.00     0.049 A 
ATOM     54  C   UNL A   1      45.344  25.103  26.943  1.00  0.00     0.074 A 
ATOM     55  C   UNL A   1      48.434  30.644  27.435  1.00  0.00     0.029 A 
ATOM     56  N   UNL A   1      46.877  29.055  27.407  1.00  0.00    -0.354 N 
ATOM     57  N   UNL A   1      45.890  26.289  27.077  1.00  0.00    -0.248 NA
ATOM     58  C   UNL A   1      46.276  24.057  26.500  1.00  0.00     0.031 C 
ATOM     59  C   UNL A   1      49.034  29.443  27.045  1.00  0.00     0.029 A 
ATOM     60  C   UNL A   1      48.068  28.446  27.054  1.00  0.00     0.049 A 
ATOM     61  H   UNL A   1      46.010  28.596  27.485  1.00  0.00     0.167 HD
ATOM     62  C   UNL A   1      47.236  26.124  26.767  1.00  0.00     0.074 A 
ATOM     63  C   UNL A   1      47.422  24.725  26.442  1.00  0.00     0.031 C 
ATOM     64  C   UNL A   1      48.228  27.047  26.754  1.00  0.00     0.031 A 
BRANCH  51  65
ATOM     65  C   UNL A   1      46.430  32.791  28.163  1.00  0.00    -0.014 A 
ATOM     66  C   UNL A   1      46.407  33.679  27.074  1.00  0.00     0.010 A 
ATOM     67  C   UNL A   1      46.766  33.281  29.438  1.00  0.00     0.010 A 
ATOM     68  C   UNL A   1      46.740  35.025  27.251  1.00  0.00     0.020 A 
ATOM     69  C   UNL A   1      47.077  34.631  29.624  1.00  0.00     0.020 A 
ATOM     70  C   UNL A   1      47.076  35.492  28.526  1.00  0.00     0.054 A 
BRANCH  70  71
ATOM     71  S   UNL A   1      47.472  37.250  28.734  1.00  0.00     0.124 S 
ATOM     72  O   UNL A   1      47.126  37.795  27.424  1.00  0.00    -0.237 OA
ATOM     73  O   UNL A   1      46.594  37.650  29.831  1.00  0.00    -0.237 OA
ATOM     74  O   UNL A   1      48.899  37.250  29.052  1.00  0.00    -0.744 OA
ENDBRANCH  70  71
ENDBRANCH  51  65
BRANCH  52  75
ATOM     75  C   UNL A   1      43.475  23.285  26.957  1.00  0.00    -0.014 A 
ATOM     76  C   UNL A   1      43.154  22.444  28.035  1.00  0.00     0.010 A 
ATOM     77  C   UNL A   1      43.372  22.785  25.645  1.00  0.00     0.010 A 
ATOM     78  C   UNL A   1      42.757  21.121  27.807  1.00  0.00     0.020 A 
ATOM     79  C   UNL A   1      42.951  21.473  25.412  1.00  0.00     0.020 A 
ATOM     80  C   UNL A   1      42.658  20.644  26.496  1.00  0.00     0.054 A 
BRANCH  80  81
ATOM     81  S   UNL A   1      42.101  18.939  26.221  1.00  0.00     0.124 S 
ATOM     82  O   UNL A   1      40.727  19.139  25.771  1.00  0.00    -0.237 OA
ATOM     83  O   UNL A   1      43.036  18.460  25.206  1.00  0.00    -0.237 OA
ATOM     84  O   UNL A   1      42.247  18.317  27.535  1.00  0.00    -0.744 OA
ENDBRANCH  80  81
ENDBRANCH  52  75
BRANCH  64  85
ATOM     85  C   UNL A   1      49.618  26.572  26.431  1.00  0.00    -0.014 A 
ATOM     86  C   UNL A   1      50.166  26.742  25.148  1.00  0.00     0.010 A 
ATOM     87  C   UNL A   1      50.419  26.040  27.458  1.00  0.00     0.010 A 
ATOM     88  C   UNL A   1      51.490  26.376  24.896  1.00  0.00     0.020 A 
ATOM     89  C   UNL A   1      51.750  25.695  27.215  1.00  0.00     0.020 A 
ATOM     90  C   UNL A   1      52.275  25.859  25.932  1.00  0.00     0.054 A 
BRANCH  90  91
ATOM     91  S   UNL A   1      54.015  25.465  25.599  1.00  0.00     0.124 S 
ATOM     92  O   UNL A   1      53.900  24.377  24.632  1.00  0.00    -0.237 OA
ATOM     93  O   UNL A   1      54.534  26.724  25.071  1.00  0.00    -0.237 OA
ATOM     94  O   UNL A   1      54.540  25.083  26.909  1.00  0.00    -0.744 OA
ENDBRANCH  90  91
ENDBRANCH  64  85
ENDBRANCH  38  39
ENDBRANCH  31  33
ENDBRANCH  30  31
ENDBRANCH  29  30
ENDBRANCH  28  29
ENDBRANCH  27  28
ENDBRANCH   1  27
TORSDOF 22
ENDMDL
MODEL 2
REMARK VINA RESULT:     -10.2      1.302      9.097
REMARK SMILES CCOc1ccc2nc(S[C@@H](C(=O)OCCOCCOC(=O)c3ccc(-c4c5nc(c(-c6ccc(S(=O)(=O)[O-])cc6)c6ccc([nH]6)c(-c6ccc(S(=O)(=O)[O-])cc6)c6nc(c(-c7ccc(S(=O)(=O)[O-])cc7)c7ccc4[nH]7)C=C6)C=C5)cc3)c3ccccc3)[nH]c2c1
REMARK SMILES IDX 16 1 15 2 14 3 12 4 13 5 11 6 10 7 9 8 4 9 5 10 91 11 6 12
REMARK SMILES IDX 90 13 7 14 89 15 8 16 3 18 2 19 1 20 83 21 84 22 88 23 85 24
REMARK SMILES IDX 87 25 86 26 17 27 18 28 19 29 20 30 21 31 22 32 23 33 24 34
REMARK SMILES IDX 82 35 25 36 81 37 26 38 27 39 28 40 75 41 29 42 80 43 74 44
REMARK SMILES IDX 76 45 30 46 79 47 73 48 72 49 31 51 61 52 42 53 60 54 43 55
REMARK SMILES IDX 46 56 59 57 77 58 44 59 45 60 58 62 78 63 47 64 32 65 33 66
REMARK SMILES IDX 41 67 34 68 40 69 35 70 36 71 37 72 38 73 39 74 62 75 63 76
REMARK SMILES IDX 71 77 64 78 70 79 65 80 66 81 67 82 68 83 69 84 48 85 49 86
REMARK SMILES IDX 57 87 50 88 56 89 51 90 52 91 53 92 54 93 55 94
REMARK H PARENT 89 17 76 50 46 61
REMARK Flexibility Score: inf
ROOT
ATOM      1  C   UNL A   1      33.366  29.275  26.727  1.00  0.00     0.202 C 
ENDROOT
BRANCH   1   2
ATOM      2  C   UNL A   1      33.076  28.735  25.322  1.00  0.00     0.261 C 
BRANCH   2   3
ATOM      3  O   UNL A   1      33.284  27.313  25.210  1.00  0.00    -0.462 OA
BRANCH   3   4
ATOM      4  C   UNL A   1      33.569  26.846  23.964  1.00  0.00     0.324 C 
ATOM      5  O   UNL A   1      34.188  27.502  23.126  1.00  0.00    -0.251 OA
BRANCH   4   6
ATOM      6  C   UNL A   1      33.094  25.410  23.675  1.00  0.00     0.194 C 
BRANCH   6   7
ATOM      7  S   UNL A   1      31.292  25.211  23.668  1.00  0.00    -0.068 SA
BRANCH   7   8
ATOM      8  C   UNL A   1      30.471  26.713  23.453  1.00  0.00     0.167 A 
ATOM      9  C   UNL A   1      28.470  30.353  21.697  1.00  0.00     0.121 A 
ATOM     10  C   UNL A   1      27.364  29.708  22.251  1.00  0.00     0.049 A 
ATOM     11  C   UNL A   1      29.778  29.887  21.906  1.00  0.00     0.074 A 
ATOM     12  C   UNL A   1      27.527  28.565  23.044  1.00  0.00     0.034 A 
ATOM     13  C   UNL A   1      29.905  28.700  22.642  1.00  0.00     0.070 A 
ATOM     14  C   UNL A   1      28.815  28.034  23.191  1.00  0.00     0.090 A 
ATOM     15  N   UNL A   1      30.972  27.867  22.914  1.00  0.00    -0.333 N 
ATOM     16  N   UNL A   1      29.197  26.845  23.746  1.00  0.00    -0.223 NA
ATOM     17  H   UNL A   1      31.922  28.067  22.749  1.00  0.00     0.169 HD
BRANCH   9  18
ATOM     18  O   UNL A   1      28.288  31.330  20.750  1.00  0.00    -0.494 OA
BRANCH  18  19
ATOM     19  C   UNL A   1      28.019  32.625  21.292  1.00  0.00     0.226 C 
ATOM     20  C   UNL A   1      28.761  32.879  22.594  1.00  0.00     0.049 C 
ENDBRANCH  18  19
ENDBRANCH   9  18
ENDBRANCH   7   8
ENDBRANCH   6   7
BRANCH   6  21
ATOM     21  C   UNL A   1      33.917  24.285  24.309  1.00  0.00    -0.023 A 
ATOM     22  C   UNL A   1      35.083  24.529  25.058  1.00  0.00     0.005 A 
ATOM     23  C   UNL A   1      33.569  22.939  24.075  1.00  0.00     0.005 A 
ATOM     24  C   UNL A   1      35.856  23.476  25.557  1.00  0.00     0.000 A 
ATOM     25  C   UNL A   1      34.324  21.889  24.601  1.00  0.00     0.000 A 
ATOM     26  C   UNL A   1      35.471  22.157  25.337  1.00  0.00     0.000 A 
ENDBRANCH   6  21
ENDBRANCH   4   6
ENDBRANCH   3   4
ENDBRANCH   2   3
ENDBRANCH   1   2
BRANCH   1  27
ATOM     27  O   UNL A   1      34.320  30.335  26.802  1.00  0.00    -0.374 OA
BRANCH  27  28
ATOM     28  C   UNL A   1      34.217  31.218  27.922  1.00  0.00     0.202 C 
BRANCH  28  29
ATOM     29  C   UNL A   1      35.330  31.124  28.969  1.00  0.00     0.261 C 
BRANCH  29  30
ATOM     30  O   UNL A   1      35.900  29.808  29.025  1.00  0.00    -0.460 OA
BRANCH  30  31
ATOM     31  C   UNL A   1      36.705  29.612  30.092  1.00  0.00     0.338 C 
ATOM     32  O   UNL A   1      36.380  29.205  31.202  1.00  0.00    -0.246 OA
BRANCH  31  33
ATOM     33  C   UNL A   1      38.111  29.777  29.706  1.00  0.00     0.060 A 
ATOM     34  C   UNL A   1      38.413  29.703  28.340  1.00  0.00     0.016 A 
ATOM     35  C   UNL A   1      39.121  29.861  30.664  1.00  0.00     0.016 A 
ATOM     36  C   UNL A   1      39.740  29.636  27.928  1.00  0.00     0.010 A 
ATOM     37  C   UNL A   1      40.452  29.786  30.249  1.00  0.00     0.010 A 
ATOM     38  C   UNL A   1      40.762  29.625  28.885  1.00  0.00    -0.014 A 
BRANCH  38  39
ATOM     39  C   UNL A   1      42.137  29.263  28.474  1.00  0.00     0.031 A 
ATOM     40  C   UNL A   1      42.417  27.839  28.073  1.00  0.00     0.074 A 
ATOM     41  C   UNL A   1      43.108  30.192  28.437  1.00  0.00     0.049 A 
ATOM     42  N   UNL A   1      43.549  27.283  27.729  1.00  0.00    -0.248 NA
ATOM     43  C   UNL A   1      41.266  26.918  28.062  1.00  0.00     0.031 C 
ATOM     44  C   UNL A   1      42.932  31.609  28.759  1.00  0.00     0.029 A 
ATOM     45  N   UNL A   1      44.436  30.080  28.118  1.00  0.00    -0.354 N 
ATOM     46  C   UNL A   1      43.251  25.949  27.475  1.00  0.00     0.074 A 
ATOM     47  C   UNL A   1      41.838  25.772  27.722  1.00  0.00     0.031 C 
ATOM     48  C   UNL A   1      44.117  32.232  28.638  1.00  0.00     0.029 A 
ATOM     49  C   UNL A   1      45.136  31.255  28.263  1.00  0.00     0.049 A 
ATOM     50  H   UNL A   1      44.850  29.240  27.816  1.00  0.00     0.167 HD
ATOM     51  C   UNL A   1      44.085  24.961  27.075  1.00  0.00     0.031 A 
ATOM     52  C   UNL A   1      46.454  31.502  28.133  1.00  0.00     0.031 A 
ATOM     53  C   UNL A   1      45.492  25.150  26.840  1.00  0.00     0.049 A 
ATOM     54  C   UNL A   1      47.372  30.375  27.738  1.00  0.00     0.074 A 
ATOM     55  C   UNL A   1      46.428  24.221  26.423  1.00  0.00     0.029 A 
ATOM     56  N   UNL A   1      46.163  26.352  27.006  1.00  0.00    -0.354 N 
ATOM     57  N   UNL A   1      47.074  29.122  27.483  1.00  0.00    -0.248 NA
ATOM     58  C   UNL A   1      48.800  30.693  27.605  1.00  0.00     0.031 C 
ATOM     59  C   UNL A   1      47.675  24.850  26.380  1.00  0.00     0.029 A 
ATOM     60  C   UNL A   1      47.505  26.185  26.718  1.00  0.00     0.049 A 
ATOM     61  H   UNL A   1      45.747  27.198  27.288  1.00  0.00     0.167 HD
ATOM     62  C   UNL A   1      48.272  28.511  27.129  1.00  0.00     0.074 A 
ATOM     63  C   UNL A   1      49.297  29.531  27.198  1.00  0.00     0.031 C 
ATOM     64  C   UNL A   1      48.502  27.224  26.776  1.00  0.00     0.031 A 
BRANCH  51  65
ATOM     65  C   UNL A   1      43.508  23.583  26.898  1.00  0.00    -0.014 A 
ATOM     66  C   UNL A   1      43.247  23.060  25.619  1.00  0.00     0.010 A 
ATOM     67  C   UNL A   1      43.263  22.781  28.028  1.00  0.00     0.010 A 
ATOM     68  C   UNL A   1      42.726  21.771  25.475  1.00  0.00     0.020 A 
ATOM     69  C   UNL A   1      42.764  21.483  27.887  1.00  0.00     0.020 A 
ATOM     70  C   UNL A   1      42.485  20.991  26.611  1.00  0.00     0.054 A 
BRANCH  70  71
ATOM     71  S   UNL A   1      41.841  19.309  26.394  1.00  0.00     0.124 S 
ATOM     72  O   UNL A   1      42.059  18.729  27.717  1.00  0.00    -0.237 OA
ATOM     73  O   UNL A   1      40.445  19.543  26.034  1.00  0.00    -0.237 OA
ATOM     74  O   UNL A   1      42.670  18.754  25.327  1.00  0.00    -0.744 OA
ENDBRANCH  70  71
ENDBRANCH  51  65
BRANCH  52  75
ATOM     75  C   UNL A   1      46.986  32.866  28.404  1.00  0.00    -0.014 A 
ATOM     76  C   UNL A   1      47.081  33.820  27.377  1.00  0.00     0.010 A 
ATOM     77  C   UNL A   1      47.400  33.216  29.703  1.00  0.00     0.010 A 
ATOM     78  C   UNL A   1      47.599  35.094  27.640  1.00  0.00     0.020 A 
ATOM     79  C   UNL A   1      47.894  34.494  29.975  1.00  0.00     0.020 A 
ATOM     80  C   UNL A   1      48.002  35.422  28.938  1.00  0.00     0.054 A 
BRANCH  80  81
ATOM     81  S   UNL A   1      48.632  37.092  29.267  1.00  0.00     0.124 S 
ATOM     82  O   UNL A   1      49.911  37.077  28.565  1.00  0.00    -0.237 OA
ATOM     83  O   UNL A   1      47.598  37.942  28.680  1.00  0.00    -0.237 OA
ATOM     84  O   UNL A   1      48.716  37.143  30.725  1.00  0.00    -0.744 OA
ENDBRANCH  80  81
ENDBRANCH  52  75
BRANCH  64  85
ATOM     85  C   UNL A   1      49.904  26.848  26.383  1.00  0.00    -0.014 A 
ATOM     86  C   UNL A   1      50.783  26.252  27.303  1.00  0.00     0.010 A 
ATOM     87  C   UNL A   1      50.308  27.003  25.044  1.00  0.00     0.010 A 
ATOM     88  C   UNL A   1      52.049  25.829  26.892  1.00  0.00     0.020 A 
ATOM     89  C   UNL A   1      51.563  26.560  24.625  1.00  0.00     0.020 A 
ATOM     90  C   UNL A   1      52.430  25.981  25.554  1.00  0.00     0.054 A 
BRANCH  90  91
ATOM     91  S   UNL A   1      54.048  25.351  25.028  1.00  0.00     0.124 S 
ATOM     92  O   UNL A   1      54.891  25.687  26.172  1.00  0.00    -0.237 OA
ATOM     93  O   UNL A   1      53.790  23.927  24.832  1.00  0.00    -0.237 OA
ATOM     94  O   UNL A   1      54.329  26.100  23.804  1.00  0.00    -0.744 OA
ENDBRANCH  90  91
ENDBRANCH  64  85
ENDBRANCH  38  39
ENDBRANCH  31  33
ENDBRANCH  30  31
ENDBRANCH  29  30
ENDBRANCH  28  29
ENDBRANCH  27  28
ENDBRANCH   1  27
TORSDOF 22
ENDMDL
MODEL 3
REMARK VINA RESULT:      -9.3      6.512     11.634
REMARK SMILES CCOc1ccc2nc(S[C@@H](C(=O)OCCOCCOC(=O)c3ccc(-c4c5nc(c(-c6ccc(S(=O)(=O)[O-])cc6)c6ccc([nH]6)c(-c6ccc(S(=O)(=O)[O-])cc6)c6nc(c(-c7ccc(S(=O)(=O)[O-])cc7)c7ccc4[nH]7)C=C6)C=C5)cc3)c3ccccc3)[nH]c2c1
REMARK SMILES IDX 16 1 15 2 14 3 12 4 13 5 11 6 10 7 9 8 4 9 5 10 91 11 6 12
REMARK SMILES IDX 90 13 7 14 89 15 8 16 3 18 2 19 1 20 83 21 84 22 88 23 85 24
REMARK SMILES IDX 87 25 86 26 17 27 18 28 19 29 20 30 21 31 22 32 23 33 24 34
REMARK SMILES IDX 82 35 25 36 81 37 26 38 27 39 28 40 75 41 29 42 80 43 74 44
REMARK SMILES IDX 76 45 30 46 79 47 73 48 72 49 31 51 61 52 42 53 60 54 43 55
REMARK SMILES IDX 46 56 59 57 77 58 44 59 45 60 58 62 78 63 47 64 32 65 33 66
REMARK SMILES IDX 41 67 34 68 40 69 35 70 36 71 37 72 38 73 39 74 62 75 63 76
REMARK SMILES IDX 71 77 64 78 70 79 65 80 66 81 67 82 68 83 69 84 48 85 49 86
REMARK SMILES IDX 57 87 50 88 56 89 51 90 52 91 53 92 54 93 55 94
REMARK H PARENT 89 17 76 50 46 61
REMARK Flexibility Score: inf
ROOT
ATOM      1  C   UNL A   1      35.834  24.739  25.771  1.00  0.00     0.202 C 
ENDROOT
BRANCH   1   2
ATOM      2  C   UNL A   1      34.459  24.996  25.145  1.00  0.00     0.261 C 
BRANCH   2   3
ATOM      3  O   UNL A   1      33.382  24.930  26.101  1.00  0.00    -0.462 OA
BRANCH   3   4
ATOM      4  C   UNL A   1      32.693  26.085  26.309  1.00  0.00     0.324 C 
ATOM      5  O   UNL A   1      33.208  27.097  26.786  1.00  0.00    -0.251 OA
BRANCH   4   6
ATOM      6  C   UNL A   1      31.218  26.060  25.869  1.00  0.00     0.194 C 
BRANCH   6   7
ATOM      7  S   UNL A   1      30.412  24.448  26.065  1.00  0.00    -0.068 SA
BRANCH   7   8
ATOM      8  C   UNL A   1      31.425  23.146  25.559  1.00  0.00     0.167 A 
ATOM      9  C   UNL A   1      33.238  19.076  24.866  1.00  0.00     0.121 A 
ATOM     10  C   UNL A   1      32.799  19.373  23.574  1.00  0.00     0.049 A 
ATOM     11  C   UNL A   1      33.173  20.020  25.903  1.00  0.00     0.074 A 
ATOM     12  C   UNL A   1      32.277  20.636  23.271  1.00  0.00     0.034 A 
ATOM     13  C   UNL A   1      32.579  21.250  25.587  1.00  0.00     0.070 A 
ATOM     14  C   UNL A   1      32.122  21.562  24.311  1.00  0.00     0.090 A 
ATOM     15  N   UNL A   1      32.198  22.338  26.349  1.00  0.00    -0.333 N 
ATOM     16  N   UNL A   1      31.475  22.765  24.303  1.00  0.00    -0.223 NA
ATOM     17  H   UNL A   1      32.439  22.502  27.289  1.00  0.00     0.169 HD
BRANCH   9  18
ATOM     18  O   UNL A   1      33.539  17.780  25.204  1.00  0.00    -0.494 OA
BRANCH  18  19
ATOM     19  C   UNL A   1      32.402  16.993  25.565  1.00  0.00     0.226 C 
ATOM     20  C   UNL A   1      32.608  15.511  25.291  1.00  0.00     0.049 C 
ENDBRANCH  18  19
ENDBRANCH   9  18
ENDBRANCH   7   8
ENDBRANCH   6   7
BRANCH   6  21
ATOM     21  C   UNL A   1      30.874  26.864  24.611  1.00  0.00    -0.023 A 
ATOM     22  C   UNL A   1      31.849  27.532  23.848  1.00  0.00     0.005 A 
ATOM     23  C   UNL A   1      29.526  27.033  24.231  1.00  0.00     0.005 A 
ATOM     24  C   UNL A   1      31.493  28.323  22.751  1.00  0.00     0.000 A 
ATOM     25  C   UNL A   1      29.176  27.797  23.116  1.00  0.00     0.000 A 
ATOM     26  C   UNL A   1      30.158  28.447  22.379  1.00  0.00     0.000 A 
ENDBRANCH   6  21
ENDBRANCH   4   6
ENDBRANCH   3   4
ENDBRANCH   2   3
ENDBRANCH   1   2
BRANCH   1  27
ATOM     27  O   UNL A   1      36.669  23.809  25.081  1.00  0.00    -0.374 OA
BRANCH  27  28
ATOM     28  C   UNL A   1      37.948  23.538  25.658  1.00  0.00     0.202 C 
BRANCH  28  29
ATOM     29  C   UNL A   1      38.498  24.592  26.621  1.00  0.00     0.261 C 
BRANCH  29  30
ATOM     30  O   UNL A   1      39.933  24.582  26.661  1.00  0.00    -0.460 OA
BRANCH  30  31
ATOM     31  C   UNL A   1      40.489  25.797  26.464  1.00  0.00     0.338 C 
ATOM     32  O   UNL A   1      41.098  26.182  25.473  1.00  0.00    -0.246 OA
BRANCH  31  33
ATOM     33  C   UNL A   1      40.109  26.712  27.547  1.00  0.00     0.060 A 
ATOM     34  C   UNL A   1      40.523  28.045  27.435  1.00  0.00     0.016 A 
ATOM     35  C   UNL A   1      39.486  26.245  28.704  1.00  0.00     0.016 A 
ATOM     36  C   UNL A   1      40.384  28.905  28.519  1.00  0.00     0.010 A 
ATOM     37  C   UNL A   1      39.353  27.109  29.794  1.00  0.00     0.010 A 
ATOM     38  C   UNL A   1      39.845  28.425  29.719  1.00  0.00    -0.014 A 
BRANCH  38  39
ATOM     39  C   UNL A   1      39.964  29.244  30.947  1.00  0.00     0.031 A 
ATOM     40  C   UNL A   1      41.093  28.953  31.899  1.00  0.00     0.074 A 
ATOM     41  C   UNL A   1      39.097  30.242  31.191  1.00  0.00     0.049 A 
ATOM     42  N   UNL A   1      41.363  29.501  33.055  1.00  0.00    -0.248 NA
ATOM     43  C   UNL A   1      42.041  27.899  31.497  1.00  0.00     0.031 C 
ATOM     44  C   UNL A   1      37.997  30.639  30.311  1.00  0.00     0.029 A 
ATOM     45  N   UNL A   1      39.001  31.097  32.257  1.00  0.00    -0.354 N 
ATOM     46  C   UNL A   1      42.500  28.852  33.523  1.00  0.00     0.074 A 
ATOM     47  C   UNL A   1      42.860  27.857  32.538  1.00  0.00     0.031 C 
ATOM     48  C   UNL A   1      37.325  31.652  30.884  1.00  0.00     0.029 A 
ATOM     49  C   UNL A   1      37.926  31.951  32.181  1.00  0.00     0.049 A 
ATOM     50  H   UNL A   1      39.640  31.100  33.006  1.00  0.00     0.167 HD
ATOM     51  C   UNL A   1      43.180  29.068  34.673  1.00  0.00     0.031 A 
ATOM     52  C   UNL A   1      37.467  32.852  33.072  1.00  0.00     0.031 A 
ATOM     53  C   UNL A   1      42.807  30.058  35.648  1.00  0.00     0.049 A 
ATOM     54  C   UNL A   1      38.210  33.037  34.370  1.00  0.00     0.074 A 
ATOM     55  C   UNL A   1      43.430  30.367  36.843  1.00  0.00     0.029 A 
ATOM     56  N   UNL A   1      41.707  30.895  35.537  1.00  0.00    -0.354 N 
ATOM     57  N   UNL A   1      39.295  32.429  34.791  1.00  0.00    -0.248 NA
ATOM     58  C   UNL A   1      37.674  34.033  35.309  1.00  0.00     0.031 C 
ATOM     59  C   UNL A   1      42.681  31.362  37.478  1.00  0.00     0.029 A 
ATOM     60  C   UNL A   1      41.622  31.710  36.651  1.00  0.00     0.049 A 
ATOM     61  H   UNL A   1      41.080  30.908  34.779  1.00  0.00     0.167 HD
ATOM     62  C   UNL A   1      39.589  32.992  36.028  1.00  0.00     0.074 A 
ATOM     63  C   UNL A   1      38.571  33.990  36.286  1.00  0.00     0.031 C 
ATOM     64  C   UNL A   1      40.609  32.710  36.874  1.00  0.00     0.031 A 
BRANCH  51  65
ATOM     65  C   UNL A   1      44.375  28.198  34.956  1.00  0.00    -0.014 A 
ATOM     66  C   UNL A   1      45.668  28.581  34.557  1.00  0.00     0.010 A 
ATOM     67  C   UNL A   1      44.208  26.998  35.672  1.00  0.00     0.010 A 
ATOM     68  C   UNL A   1      46.767  27.767  34.845  1.00  0.00     0.020 A 
ATOM     69  C   UNL A   1      45.308  26.193  35.982  1.00  0.00     0.020 A 
ATOM     70  C   UNL A   1      46.579  26.576  35.554  1.00  0.00     0.054 A 
BRANCH  70  71
ATOM     71  S   UNL A   1      48.028  25.555  35.943  1.00  0.00     0.124 S 
ATOM     72  O   UNL A   1      48.447  26.104  37.230  1.00  0.00    -0.237 OA
ATOM     73  O   UNL A   1      47.468  24.207  35.988  1.00  0.00    -0.237 OA
ATOM     74  O   UNL A   1      48.941  25.810  34.831  1.00  0.00    -0.744 OA
ENDBRANCH  70  71
ENDBRANCH  51  65
BRANCH  52  75
ATOM     75  C   UNL A   1      36.230  33.626  32.779  1.00  0.00    -0.014 A 
ATOM     76  C   UNL A   1      35.050  32.975  32.380  1.00  0.00     0.010 A 
ATOM     77  C   UNL A   1      36.229  35.028  32.902  1.00  0.00     0.010 A 
ATOM     78  C   UNL A   1      33.898  33.714  32.089  1.00  0.00     0.020 A 
ATOM     79  C   UNL A   1      35.074  35.767  32.638  1.00  0.00     0.020 A 
ATOM     80  C   UNL A   1      33.918  35.106  32.220  1.00  0.00     0.054 A 
BRANCH  80  81
ATOM     81  S   UNL A   1      32.401  36.043  31.880  1.00  0.00     0.124 S 
ATOM     82  O   UNL A   1      32.335  35.994  30.423  1.00  0.00    -0.237 OA
ATOM     83  O   UNL A   1      31.384  35.266  32.586  1.00  0.00    -0.237 OA
ATOM     84  O   UNL A   1      32.677  37.358  32.453  1.00  0.00    -0.744 OA
ENDBRANCH  80  81
ENDBRANCH  52  75
BRANCH  64  85
ATOM     85  C   UNL A   1      40.717  33.523  38.134  1.00  0.00    -0.014 A 
ATOM     86  C   UNL A   1      40.104  33.102  39.326  1.00  0.00     0.010 A 
ATOM     87  C   UNL A   1      41.529  34.672  38.143  1.00  0.00     0.010 A 
ATOM     88  C   UNL A   1      40.292  33.826  40.506  1.00  0.00     0.020 A 
ATOM     89  C   UNL A   1      41.738  35.384  39.326  1.00  0.00     0.020 A 
ATOM     90  C   UNL A   1      41.112  34.960  40.499  1.00  0.00     0.054 A 
BRANCH  90  91
ATOM     91  S   UNL A   1      41.405  35.837  42.061  1.00  0.00     0.124 S 
ATOM     92  O   UNL A   1      42.549  35.111  42.606  1.00  0.00    -0.237 OA
ATOM     93  O   UNL A   1      41.679  37.201  41.617  1.00  0.00    -0.237 OA
ATOM     94  O   UNL A   1      40.152  35.667  42.794  1.00  0.00    -0.744 OA
ENDBRANCH  90  91
ENDBRANCH  64  85
ENDBRANCH  38  39
ENDBRANCH  31  33
ENDBRANCH  30  31
ENDBRANCH  29  30
ENDBRANCH  28  29
ENDBRANCH  27  28
ENDBRANCH   1  27
TORSDOF 22
ENDMDL
