MODEL 1
REMARK VINA RESULT:      -9.1      0.000      0.000
REMARK SMILES CC[C@@](O)(C(=O)OCCOCCOC(=O)c1ccc(-c2c3nc(c(-c4ccc(S(=O)(=O)[O-])cc4)c4ccc([nH]4)c(-c4ccc(S(=O)(=O)[O-])cc4)c4nc(c(-c5ccc(S(=O)(=O)[O-])cc5)c5ccc2[nH]5)C=C4)C=C3)cc1)[C@@H](C)c1ccc(OC)c(OC)c1
REMARK SMILES IDX 10 1 9 2 8 3 7 4 5 5 6 6 3 7 2 8 1 9 4 10 76 12 77 13 78 14
REMARK SMILES IDX 79 15 87 16 80 17 84 18 81 19 85 20 86 21 82 22 83 23 11 24
REMARK SMILES IDX 12 25 13 26 14 27 15 28 16 29 17 30 75 31 18 32 74 33 19 34
REMARK SMILES IDX 20 35 21 36 68 37 22 38 73 39 67 40 69 41 23 42 72 43 66 44
REMARK SMILES IDX 65 45 24 47 54 48 35 49 53 50 36 51 39 52 52 53 70 54 37 55
REMARK SMILES IDX 38 56 51 58 71 59 40 60 25 61 26 62 34 63 27 64 33 65 28 66
REMARK SMILES IDX 29 67 30 68 31 69 32 70 55 71 56 72 64 73 57 74 63 75 58 76
REMARK SMILES IDX 59 77 60 78 61 79 62 80 41 81 42 82 50 83 43 84 49 85 44 86
REMARK SMILES IDX 45 87 46 88 47 89 48 90
REMARK H PARENT 4 11 69 46 39 57
REMARK Flexibility Score: inf
ROOT
ATOM      1  O   UNL A   1      31.490  29.716  24.761  1.00  0.00    -0.374 OA
ENDROOT
BRANCH   1   2
ATOM      2  C   UNL A   1      30.287  29.863  24.001  1.00  0.00     0.202 C 
BRANCH   2   3
ATOM      3  C   UNL A   1      30.040  28.807  22.919  1.00  0.00     0.261 C 
BRANCH   3   4
ATOM      4  O   UNL A   1      30.270  27.490  23.450  1.00  0.00    -0.461 OA
BRANCH   4   5
ATOM      5  C   UNL A   1      30.950  26.618  22.657  1.00  0.00     0.338 C 
ATOM      6  O   UNL A   1      31.063  26.745  21.442  1.00  0.00    -0.249 OA
BRANCH   5   7
ATOM      7  C   UNL A   1      31.602  25.456  23.470  1.00  0.00     0.168 C 
BRANCH   7   8
ATOM      8  C   UNL A   1      31.173  25.459  24.970  1.00  0.00     0.044 C 
ATOM      9  C   UNL A   1      30.805  24.125  25.615  1.00  0.00     0.007 C 
ENDBRANCH   7   8
BRANCH   7  10
ATOM     10  O   UNL A   1      31.050  24.280  22.841  1.00  0.00    -0.378 OA
ATOM     11  H   UNL A   1      30.434  24.547  22.142  1.00  0.00     0.212 HD
ENDBRANCH   7  10
BRANCH   7  12
ATOM     12  C   UNL A   1      33.159  25.549  23.201  1.00  0.00     0.059 C 
ATOM     13  C   UNL A   1      33.770  26.920  23.554  1.00  0.00     0.016 C 
BRANCH  12  14
ATOM     14  C   UNL A   1      33.961  24.394  23.790  1.00  0.00    -0.038 A 
ATOM     15  C   UNL A   1      33.705  23.098  23.333  1.00  0.00     0.008 A 
ATOM     16  C   UNL A   1      34.932  24.567  24.790  1.00  0.00     0.054 A 
ATOM     17  C   UNL A   1      34.347  22.008  23.912  1.00  0.00     0.051 A 
ATOM     18  C   UNL A   1      35.567  23.473  25.403  1.00  0.00     0.160 A 
ATOM     19  C   UNL A   1      35.266  22.176  24.955  1.00  0.00     0.160 A 
BRANCH  18  20
ATOM     20  O   UNL A   1      36.474  23.632  26.418  1.00  0.00    -0.493 OA
ATOM     21  C   UNL A   1      37.817  23.942  26.061  1.00  0.00     0.278 C 
ENDBRANCH  18  20
BRANCH  19  22
ATOM     22  O   UNL A   1      35.746  20.975  25.406  1.00  0.00    -0.493 OA
ATOM     23  C   UNL A   1      37.024  20.544  24.971  1.00  0.00     0.278 C 
ENDBRANCH  19  22
ENDBRANCH  12  14
ENDBRANCH   7  12
ENDBRANCH   5   7
ENDBRANCH   4   5
ENDBRANCH   3   4
ENDBRANCH   2   3
ENDBRANCH   1   2
BRANCH   1  24
ATOM     24  C   UNL A   1      31.588  30.467  25.967  1.00  0.00     0.202 C 
BRANCH  24  25
ATOM     25  C   UNL A   1      32.457  29.885  27.087  1.00  0.00     0.261 C 
BRANCH  25  26
ATOM     26  O   UNL A   1      33.857  30.001  26.800  1.00  0.00    -0.460 OA
BRANCH  26  27
ATOM     27  C   UNL A   1      34.523  30.823  27.645  1.00  0.00     0.338 C 
ATOM     28  O   UNL A   1      34.103  31.854  28.154  1.00  0.00    -0.246 OA
BRANCH  27  29
ATOM     29  C   UNL A   1      35.805  30.215  28.037  1.00  0.00     0.060 A 
ATOM     30  C   UNL A   1      35.860  29.603  29.296  1.00  0.00     0.016 A 
ATOM     31  C   UNL A   1      36.943  30.291  27.230  1.00  0.00     0.016 A 
ATOM     32  C   UNL A   1      37.069  29.118  29.780  1.00  0.00     0.010 A 
ATOM     33  C   UNL A   1      38.160  29.810  27.723  1.00  0.00     0.010 A 
ATOM     34  C   UNL A   1      38.234  29.261  29.017  1.00  0.00    -0.014 A 
BRANCH  34  35
ATOM     35  C   UNL A   1      39.546  28.987  29.648  1.00  0.00     0.031 A 
ATOM     36  C   UNL A   1      39.968  29.821  30.828  1.00  0.00     0.074 A 
ATOM     37  C   UNL A   1      40.320  27.979  29.214  1.00  0.00     0.049 A 
ATOM     38  N   UNL A   1      41.064  29.757  31.536  1.00  0.00    -0.248 NA
ATOM     39  C   UNL A   1      39.026  30.865  31.268  1.00  0.00     0.031 C 
ATOM     40  C   UNL A   1      39.990  27.073  28.113  1.00  0.00     0.029 A 
ATOM     41  N   UNL A   1      41.545  27.545  29.652  1.00  0.00    -0.354 N 
ATOM     42  C   UNL A   1      40.950  30.752  32.500  1.00  0.00     0.074 A 
ATOM     43  C   UNL A   1      39.692  31.426  32.267  1.00  0.00     0.031 C 
ATOM     44  C   UNL A   1      40.994  26.192  27.960  1.00  0.00     0.029 A 
ATOM     45  C   UNL A   1      42.047  26.491  28.928  1.00  0.00     0.049 A 
ATOM     46  H   UNL A   1      42.021  27.951  30.413  1.00  0.00     0.167 HD
ATOM     47  C   UNL A   1      41.813  31.072  33.494  1.00  0.00     0.031 A 
ATOM     48  C   UNL A   1      43.230  25.853  29.025  1.00  0.00     0.031 A 
ATOM     49  C   UNL A   1      43.069  30.405  33.712  1.00  0.00     0.049 A 
ATOM     50  C   UNL A   1      44.207  26.275  30.091  1.00  0.00     0.074 A 
ATOM     51  C   UNL A   1      44.012  30.647  34.695  1.00  0.00     0.029 A 
ATOM     52  N   UNL A   1      43.561  29.371  32.930  1.00  0.00    -0.354 N 
ATOM     53  N   UNL A   1      44.076  27.206  31.007  1.00  0.00    -0.248 NA
ATOM     54  C   UNL A   1      45.486  25.554  30.143  1.00  0.00     0.031 C 
ATOM     55  C   UNL A   1      45.100  29.797  34.474  1.00  0.00     0.029 A 
ATOM     56  C   UNL A   1      44.807  28.981  33.391  1.00  0.00     0.049 A 
ATOM     57  H   UNL A   1      43.093  28.972  32.161  1.00  0.00     0.167 HD
ATOM     58  C   UNL A   1      45.245  27.163  31.760  1.00  0.00     0.074 A 
ATOM     59  C   UNL A   1      46.064  26.107  31.201  1.00  0.00     0.031 C 
ATOM     60  C   UNL A   1      45.608  27.928  32.820  1.00  0.00     0.031 A 
BRANCH  47  61
ATOM     61  C   UNL A   1      41.439  32.218  34.397  1.00  0.00    -0.014 A 
ATOM     62  C   UNL A   1      41.773  33.545  34.072  1.00  0.00     0.010 A 
ATOM     63  C   UNL A   1      40.715  31.965  35.576  1.00  0.00     0.010 A 
ATOM     64  C   UNL A   1      41.424  34.593  34.929  1.00  0.00     0.020 A 
ATOM     65  C   UNL A   1      40.339  33.011  36.422  1.00  0.00     0.020 A 
ATOM     66  C   UNL A   1      40.711  34.319  36.101  1.00  0.00     0.054 A 
BRANCH  66  67
ATOM     67  S   UNL A   1      40.256  35.699  37.186  1.00  0.00     0.124 S 
ATOM     68  O   UNL A   1      41.530  36.008  37.831  1.00  0.00    -0.237 OA
ATOM     69  O   UNL A   1      39.771  36.702  36.242  1.00  0.00    -0.237 OA
ATOM     70  O   UNL A   1      39.236  35.129  38.064  1.00  0.00    -0.744 OA
ENDBRANCH  66  67
ENDBRANCH  47  61
BRANCH  48  71
ATOM     71  C   UNL A   1      43.563  24.761  28.069  1.00  0.00    -0.014 A 
ATOM     72  C   UNL A   1      43.186  23.433  28.332  1.00  0.00     0.010 A 
ATOM     73  C   UNL A   1      44.262  25.050  26.882  1.00  0.00     0.010 A 
ATOM     74  C   UNL A   1      43.513  22.413  27.431  1.00  0.00     0.020 A 
ATOM     75  C   UNL A   1      44.566  24.040  25.968  1.00  0.00     0.020 A 
ATOM     76  C   UNL A   1      44.199  22.724  26.253  1.00  0.00     0.054 A 
BRANCH  76  77
ATOM     77  S   UNL A   1      44.567  21.394  25.076  1.00  0.00     0.124 S 
ATOM     78  O   UNL A   1      43.493  20.442  25.348  1.00  0.00    -0.237 OA
ATOM     79  O   UNL A   1      44.493  22.081  23.790  1.00  0.00    -0.237 OA
ATOM     80  O   UNL A   1      45.905  20.955  25.464  1.00  0.00    -0.744 OA
ENDBRANCH  76  77
ENDBRANCH  48  71
BRANCH  60  81
ATOM     81  C   UNL A   1      46.934  27.630  33.471  1.00  0.00    -0.014 A 
ATOM     82  C   UNL A   1      47.048  26.666  34.487  1.00  0.00     0.010 A 
ATOM     83  C   UNL A   1      48.092  28.284  33.013  1.00  0.00     0.010 A 
ATOM     84  C   UNL A   1      48.293  26.385  35.057  1.00  0.00     0.020 A 
ATOM     85  C   UNL A   1      49.343  27.987  33.560  1.00  0.00     0.020 A 
ATOM     86  C   UNL A   1      49.433  27.048  34.589  1.00  0.00     0.054 A 
BRANCH  86  87
ATOM     87  S   UNL A   1      51.042  26.635  35.315  1.00  0.00     0.124 S 
ATOM     88  O   UNL A   1      51.417  25.439  34.567  1.00  0.00    -0.237 OA
ATOM     89  O   UNL A   1      51.838  27.827  35.033  1.00  0.00    -0.237 OA
ATOM     90  O   UNL A   1      50.740  26.416  36.728  1.00  0.00    -0.744 OA
ENDBRANCH  86  87
ENDBRANCH  60  81
ENDBRANCH  34  35
ENDBRANCH  27  29
ENDBRANCH  26  27
ENDBRANCH  25  26
ENDBRANCH  24  25
ENDBRANCH   1  24
TORSDOF 23
ENDMDL
MODEL 2
REMARK VINA RESULT:      -9.0      4.768      5.877
REMARK SMILES CC[C@@](O)(C(=O)OCCOCCOC(=O)c1ccc(-c2c3nc(c(-c4ccc(S(=O)(=O)[O-])cc4)c4ccc([nH]4)c(-c4ccc(S(=O)(=O)[O-])cc4)c4nc(c(-c5ccc(S(=O)(=O)[O-])cc5)c5ccc2[nH]5)C=C4)C=C3)cc1)[C@@H](C)c1ccc(OC)c(OC)c1
REMARK SMILES IDX 10 1 9 2 8 3 7 4 5 5 6 6 3 7 2 8 1 9 4 10 76 12 77 13 78 14
REMARK SMILES IDX 79 15 87 16 80 17 84 18 81 19 85 20 86 21 82 22 83 23 11 24
REMARK SMILES IDX 12 25 13 26 14 27 15 28 16 29 17 30 75 31 18 32 74 33 19 34
REMARK SMILES IDX 20 35 21 36 68 37 22 38 73 39 67 40 69 41 23 42 72 43 66 44
REMARK SMILES IDX 65 45 24 47 54 48 35 49 53 50 36 51 39 52 52 53 70 54 37 55
REMARK SMILES IDX 38 56 51 58 71 59 40 60 25 61 26 62 34 63 27 64 33 65 28 66
REMARK SMILES IDX 29 67 30 68 31 69 32 70 55 71 56 72 64 73 57 74 63 75 58 76
REMARK SMILES IDX 59 77 60 78 61 79 62 80 41 81 42 82 50 83 43 84 49 85 44 86
REMARK SMILES IDX 45 87 46 88 47 89 48 90
REMARK H PARENT 4 11 69 46 39 57
REMARK Flexibility Score: inf
ROOT
ATOM      1  O   UNL A   1      33.576  29.268  25.614  1.00  0.00    -0.374 OA
ENDROOT
BRANCH   1   2
ATOM      2  C   UNL A   1      32.358  29.670  24.980  1.00  0.00     0.202 C 
BRANCH   2   3
ATOM      3  C   UNL A   1      31.319  28.567  24.754  1.00  0.00     0.261 C 
BRANCH   3   4
ATOM      4  O   UNL A   1      31.971  27.349  24.350  1.00  0.00    -0.461 OA
BRANCH   4   5
ATOM      5  C   UNL A   1      31.309  26.567  23.453  1.00  0.00     0.338 C 
ATOM      6  O   UNL A   1      30.784  26.995  22.430  1.00  0.00    -0.249 OA
BRANCH   5   7
ATOM      7  C   UNL A   1      31.324  25.058  23.854  1.00  0.00     0.168 C 
BRANCH   7   8
ATOM      8  C   UNL A   1      31.552  24.845  25.382  1.00  0.00     0.044 C 
ATOM      9  C   UNL A   1      30.816  23.695  26.065  1.00  0.00     0.007 C 
ENDBRANCH   7   8
BRANCH   7  10
ATOM     10  O   UNL A   1      29.984  24.631  23.529  1.00  0.00    -0.378 OA
ATOM     11  H   UNL A   1      29.954  23.664  23.488  1.00  0.00     0.212 HD
ENDBRANCH   7  10
BRANCH   7  12
ATOM     12  C   UNL A   1      32.374  24.359  22.898  1.00  0.00     0.059 C 
ATOM     13  C   UNL A   1      33.644  25.198  22.651  1.00  0.00     0.016 C 
BRANCH  12  14
ATOM     14  C   UNL A   1      32.701  22.920  23.282  1.00  0.00    -0.038 A 
ATOM     15  C   UNL A   1      31.959  21.886  22.703  1.00  0.00     0.008 A 
ATOM     16  C   UNL A   1      33.700  22.583  24.210  1.00  0.00     0.054 A 
ATOM     17  C   UNL A   1      32.162  20.568  23.097  1.00  0.00     0.051 A 
ATOM     18  C   UNL A   1      33.896  21.259  24.639  1.00  0.00     0.160 A 
ATOM     19  C   UNL A   1      33.112  20.239  24.072  1.00  0.00     0.160 A 
BRANCH  18  20
ATOM     20  O   UNL A   1      34.831  20.931  25.585  1.00  0.00    -0.493 OA
ATOM     21  C   UNL A   1      34.811  21.652  26.812  1.00  0.00     0.278 C 
ENDBRANCH  18  20
BRANCH  19  22
ATOM     22  O   UNL A   1      33.120  18.897  24.342  1.00  0.00    -0.493 OA
ATOM     23  C   UNL A   1      34.364  18.224  24.425  1.00  0.00     0.278 C 
ENDBRANCH  19  22
ENDBRANCH  12  14
ENDBRANCH   7  12
ENDBRANCH   5   7
ENDBRANCH   4   5
ENDBRANCH   3   4
ENDBRANCH   2   3
ENDBRANCH   1   2
BRANCH   1  24
ATOM     24  C   UNL A   1      33.544  29.099  27.028  1.00  0.00     0.202 C 
BRANCH  24  25
ATOM     25  C   UNL A   1      34.524  29.937  27.856  1.00  0.00     0.261 C 
BRANCH  25  26
ATOM     26  O   UNL A   1      35.778  29.267  28.051  1.00  0.00    -0.460 OA
BRANCH  26  27
ATOM     27  C   UNL A   1      36.432  29.645  29.173  1.00  0.00     0.338 C 
ATOM     28  O   UNL A   1      35.941  29.863  30.274  1.00  0.00    -0.246 OA
BRANCH  27  29
ATOM     29  C   UNL A   1      37.886  29.590  28.954  1.00  0.00     0.060 A 
ATOM     30  C   UNL A   1      38.328  29.545  27.625  1.00  0.00     0.016 A 
ATOM     31  C   UNL A   1      38.797  29.524  30.011  1.00  0.00     0.016 A 
ATOM     32  C   UNL A   1      39.678  29.368  27.348  1.00  0.00     0.010 A 
ATOM     33  C   UNL A   1      40.154  29.339  29.730  1.00  0.00     0.010 A 
ATOM     34  C   UNL A   1      40.592  29.218  28.398  1.00  0.00    -0.014 A 
BRANCH  34  35
ATOM     35  C   UNL A   1      41.970  28.768  28.094  1.00  0.00     0.031 A 
ATOM     36  C   UNL A   1      43.083  29.780  28.117  1.00  0.00     0.074 A 
ATOM     37  C   UNL A   1      42.232  27.471  27.856  1.00  0.00     0.049 A 
ATOM     38  N   UNL A   1      44.359  29.612  27.888  1.00  0.00    -0.248 NA
ATOM     39  C   UNL A   1      42.707  31.166  28.445  1.00  0.00     0.031 C 
ATOM     40  C   UNL A   1      41.242  26.394  27.858  1.00  0.00     0.029 A 
ATOM     41  N   UNL A   1      43.416  26.840  27.570  1.00  0.00    -0.354 N 
ATOM     42  C   UNL A   1      44.938  30.868  28.037  1.00  0.00     0.074 A 
ATOM     43  C   UNL A   1      43.870  31.793  28.345  1.00  0.00     0.031 C 
ATOM     44  C   UNL A   1      41.861  25.234  27.582  1.00  0.00     0.029 A 
ATOM     45  C   UNL A   1      43.282  25.491  27.353  1.00  0.00     0.049 A 
ATOM     46  H   UNL A   1      44.280  27.310  27.524  1.00  0.00     0.167 HD
ATOM     47  C   UNL A   1      46.242  31.216  27.932  1.00  0.00     0.031 A 
ATOM     48  C   UNL A   1      44.198  24.572  26.992  1.00  0.00     0.031 A 
ATOM     49  C   UNL A   1      47.297  30.293  27.612  1.00  0.00     0.049 A 
ATOM     50  C   UNL A   1      45.631  24.997  26.807  1.00  0.00     0.074 A 
ATOM     51  C   UNL A   1      48.653  30.543  27.489  1.00  0.00     0.029 A 
ATOM     52  N   UNL A   1      47.114  28.942  27.356  1.00  0.00    -0.354 N 
ATOM     53  N   UNL A   1      46.166  26.185  26.970  1.00  0.00    -0.248 NA
ATOM     54  C   UNL A   1      46.586  23.956  26.401  1.00  0.00     0.031 C 
ATOM     55  C   UNL A   1      49.282  29.356  27.104  1.00  0.00     0.029 A 
ATOM     56  C   UNL A   1      48.328  28.350  27.049  1.00  0.00     0.049 A 
ATOM     57  H   UNL A   1      46.249  28.473  27.388  1.00  0.00     0.167 HD
ATOM     58  C   UNL A   1      47.524  26.027  26.711  1.00  0.00     0.074 A 
ATOM     59  C   UNL A   1      47.730  24.628  26.396  1.00  0.00     0.031 C 
ATOM     60  C   UNL A   1      48.513  26.956  26.735  1.00  0.00     0.031 A 
BRANCH  47  61
ATOM     61  C   UNL A   1      46.591  32.668  28.130  1.00  0.00    -0.014 A 
ATOM     62  C   UNL A   1      46.933  33.172  29.397  1.00  0.00     0.010 A 
ATOM     63  C   UNL A   1      46.608  33.536  27.023  1.00  0.00     0.010 A 
ATOM     64  C   UNL A   1      47.247  34.525  29.561  1.00  0.00     0.020 A 
ATOM     65  C   UNL A   1      46.947  34.883  27.175  1.00  0.00     0.020 A 
ATOM     66  C   UNL A   1      47.248  35.373  28.448  1.00  0.00     0.054 A 
BRANCH  66  67
ATOM     67  S   UNL A   1      47.676  37.119  28.685  1.00  0.00     0.124 S 
ATOM     68  O   UNL A   1      46.357  37.745  28.751  1.00  0.00    -0.237 OA
ATOM     69  O   UNL A   1      48.424  37.099  29.939  1.00  0.00    -0.237 OA
ATOM     70  O   UNL A   1      48.462  37.449  27.498  1.00  0.00    -0.744 OA
ENDBRANCH  66  67
ENDBRANCH  47  61
BRANCH  48  71
ATOM     71  C   UNL A   1      43.782  23.161  26.760  1.00  0.00    -0.014 A 
ATOM     72  C   UNL A   1      44.111  22.499  25.564  1.00  0.00     0.010 A 
ATOM     73  C   UNL A   1      43.053  22.469  27.745  1.00  0.00     0.010 A 
ATOM     74  C   UNL A   1      43.706  21.176  25.354  1.00  0.00     0.020 A 
ATOM     75  C   UNL A   1      42.672  21.140  27.551  1.00  0.00     0.020 A 
ATOM     76  C   UNL A   1      42.992  20.504  26.350  1.00  0.00     0.054 A 
BRANCH  76  77
ATOM     77  S   UNL A   1      42.523  18.773  26.076  1.00  0.00     0.124 S 
ATOM     78  O   UNL A   1      43.440  18.375  25.012  1.00  0.00    -0.237 OA
ATOM     79  O   UNL A   1      42.768  18.169  27.383  1.00  0.00    -0.237 OA
ATOM     80  O   UNL A   1      41.116  18.858  25.691  1.00  0.00    -0.744 OA
ENDBRANCH  76  77
ENDBRANCH  48  71
BRANCH  60  81
ATOM     81  C   UNL A   1      49.915  26.486  26.446  1.00  0.00    -0.014 A 
ATOM     82  C   UNL A   1      50.749  26.005  27.469  1.00  0.00     0.010 A 
ATOM     83  C   UNL A   1      50.380  26.472  25.118  1.00  0.00     0.010 A 
ATOM     84  C   UNL A   1      52.037  25.547  27.173  1.00  0.00     0.020 A 
ATOM     85  C   UNL A   1      51.655  25.991  24.813  1.00  0.00     0.020 A 
ATOM     86  C   UNL A   1      52.481  25.543  25.846  1.00  0.00     0.054 A 
BRANCH  86  87
ATOM     87  S   UNL A   1      54.139  24.905  25.483  1.00  0.00     0.124 S 
ATOM     88  O   UNL A   1      54.762  24.905  26.804  1.00  0.00    -0.237 OA
ATOM     89  O   UNL A   1      53.860  23.586  24.920  1.00  0.00    -0.237 OA
ATOM     90  O   UNL A   1      54.685  25.876  24.538  1.00  0.00    -0.744 OA
ENDBRANCH  86  87
ENDBRANCH  60  81
ENDBRANCH  34  35
ENDBRANCH  27  29
ENDBRANCH  26  27
ENDBRANCH  25  26
ENDBRANCH  24  25
ENDBRANCH   1  24
TORSDOF 23
ENDMDL
MODEL 3
REMARK VINA RESULT:      -8.6      4.729     10.250
REMARK SMILES CC[C@@](O)(C(=O)OCCOCCOC(=O)c1ccc(-c2c3nc(c(-c4ccc(S(=O)(=O)[O-])cc4)c4ccc([nH]4)c(-c4ccc(S(=O)(=O)[O-])cc4)c4nc(c(-c5ccc(S(=O)(=O)[O-])cc5)c5ccc2[nH]5)C=C4)C=C3)cc1)[C@@H](C)c1ccc(OC)c(OC)c1
REMARK SMILES IDX 10 1 9 2 8 3 7 4 5 5 6 6 3 7 2 8 1 9 4 10 76 12 77 13 78 14
REMARK SMILES IDX 79 15 87 16 80 17 84 18 81 19 85 20 86 21 82 22 83 23 11 24
REMARK SMILES IDX 12 25 13 26 14 27 15 28 16 29 17 30 75 31 18 32 74 33 19 34
REMARK SMILES IDX 20 35 21 36 68 37 22 38 73 39 67 40 69 41 23 42 72 43 66 44
REMARK SMILES IDX 65 45 24 47 54 48 35 49 53 50 36 51 39 52 52 53 70 54 37 55
REMARK SMILES IDX 38 56 51 58 71 59 40 60 25 61 26 62 34 63 27 64 33 65 28 66
REMARK SMILES IDX 29 67 30 68 31 69 32 70 55 71 56 72 64 73 57 74 63 75 58 76
REMARK SMILES IDX 59 77 60 78 61 79 62 80 41 81 42 82 50 83 43 84 49 85 44 86
REMARK SMILES IDX 45 87 46 88 47 89 48 90
REMARK H PARENT 4 11 69 46 39 57
REMARK Flexibility Score: inf
ROOT
ATOM      1  O   UNL A   1      37.168  20.585  25.003  1.00  0.00    -0.374 OA
ENDROOT
BRANCH   1   2
ATOM      2  C   UNL A   1      36.109  19.639  24.827  1.00  0.00     0.202 C 
BRANCH   2   3
ATOM      3  C   UNL A   1      34.685  20.192  24.938  1.00  0.00     0.261 C 
BRANCH   3   4
ATOM      4  O   UNL A   1      34.723  21.596  25.252  1.00  0.00    -0.461 OA
BRANCH   4   5
ATOM      5  C   UNL A   1      33.724  22.367  24.741  1.00  0.00     0.338 C 
ATOM      6  O   UNL A   1      33.491  22.477  23.541  1.00  0.00    -0.249 OA
BRANCH   5   7
ATOM      7  C   UNL A   1      32.882  23.066  25.854  1.00  0.00     0.168 C 
BRANCH   7   8
ATOM      8  C   UNL A   1      31.353  23.049  25.552  1.00  0.00     0.044 C 
ATOM      9  C   UNL A   1      30.386  23.199  26.724  1.00  0.00     0.007 C 
ENDBRANCH   7   8
BRANCH   7  10
ATOM     10  O   UNL A   1      33.129  22.234  27.007  1.00  0.00    -0.378 OA
ATOM     11  H   UNL A   1      32.288  22.034  27.447  1.00  0.00     0.212 HD
ENDBRANCH   7  10
BRANCH   7  12
ATOM     12  C   UNL A   1      33.526  24.499  26.059  1.00  0.00     0.059 C 
ATOM     13  C   UNL A   1      35.038  24.548  25.761  1.00  0.00     0.016 C 
BRANCH  12  14
ATOM     14  C   UNL A   1      32.766  25.625  25.367  1.00  0.00    -0.038 A 
ATOM     15  C   UNL A   1      32.028  26.516  26.151  1.00  0.00     0.008 A 
ATOM     16  C   UNL A   1      32.753  25.797  23.973  1.00  0.00     0.054 A 
ATOM     17  C   UNL A   1      31.246  27.499  25.553  1.00  0.00     0.051 A 
ATOM     18  C   UNL A   1      31.945  26.766  23.354  1.00  0.00     0.160 A 
ATOM     19  C   UNL A   1      31.180  27.627  24.160  1.00  0.00     0.160 A 
BRANCH  18  20
ATOM     20  O   UNL A   1      31.885  26.902  21.992  1.00  0.00    -0.493 OA
ATOM     21  C   UNL A   1      32.073  25.732  21.202  1.00  0.00     0.278 C 
ENDBRANCH  18  20
BRANCH  19  22
ATOM     22  O   UNL A   1      30.322  28.625  23.781  1.00  0.00    -0.493 OA
ATOM     23  C   UNL A   1      29.112  28.275  23.132  1.00  0.00     0.278 C 
ENDBRANCH  19  22
ENDBRANCH  12  14
ENDBRANCH   7  12
ENDBRANCH   5   7
ENDBRANCH   4   5
ENDBRANCH   3   4
ENDBRANCH   2   3
ENDBRANCH   1   2
BRANCH   1  24
ATOM     24  C   UNL A   1      38.476  20.060  25.207  1.00  0.00     0.202 C 
BRANCH  24  25
ATOM     25  C   UNL A   1      39.447  20.901  26.043  1.00  0.00     0.261 C 
BRANCH  25  26
ATOM     26  O   UNL A   1      40.255  20.093  26.909  1.00  0.00    -0.460 OA
BRANCH  26  27
ATOM     27  C   UNL A   1      41.512  19.888  26.452  1.00  0.00     0.338 C 
ATOM     28  O   UNL A   1      41.929  18.899  25.863  1.00  0.00    -0.246 OA
BRANCH  27  29
ATOM     29  C   UNL A   1      42.309  21.117  26.592  1.00  0.00     0.060 A 
ATOM     30  C   UNL A   1      42.706  21.472  27.888  1.00  0.00     0.016 A 
ATOM     31  C   UNL A   1      42.614  21.936  25.503  1.00  0.00     0.016 A 
ATOM     32  C   UNL A   1      43.353  22.682  28.109  1.00  0.00     0.010 A 
ATOM     33  C   UNL A   1      43.259  23.156  25.729  1.00  0.00     0.010 A 
ATOM     34  C   UNL A   1      43.592  23.551  27.037  1.00  0.00    -0.014 A 
BRANCH  34  35
ATOM     35  C   UNL A   1      44.036  24.936  27.320  1.00  0.00     0.031 A 
ATOM     36  C   UNL A   1      45.483  25.288  27.110  1.00  0.00     0.074 A 
ATOM     37  C   UNL A   1      43.153  25.875  27.701  1.00  0.00     0.049 A 
ATOM     38  N   UNL A   1      46.090  26.433  27.288  1.00  0.00    -0.248 NA
ATOM     39  C   UNL A   1      46.363  24.208  26.634  1.00  0.00     0.031 C 
ATOM     40  C   UNL A   1      41.718  25.661  27.887  1.00  0.00     0.029 A 
ATOM     41  N   UNL A   1      43.337  27.201  27.998  1.00  0.00    -0.354 N 
ATOM     42  C   UNL A   1      47.421  26.210  26.953  1.00  0.00     0.074 A 
ATOM     43  C   UNL A   1      47.540  24.815  26.592  1.00  0.00     0.031 C 
ATOM     44  C   UNL A   1      41.152  26.818  28.271  1.00  0.00     0.029 A 
ATOM     45  C   UNL A   1      42.187  27.843  28.388  1.00  0.00     0.049 A 
ATOM     46  H   UNL A   1      44.211  27.651  27.938  1.00  0.00     0.167 HD
ATOM     47  C   UNL A   1      48.450  27.090  26.943  1.00  0.00     0.031 A 
ATOM     48  C   UNL A   1      41.996  29.108  28.810  1.00  0.00     0.031 A 
ATOM     49  C   UNL A   1      48.328  28.474  27.316  1.00  0.00     0.049 A 
ATOM     50  C   UNL A   1      43.171  30.050  28.861  1.00  0.00     0.074 A 
ATOM     51  C   UNL A   1      49.307  29.451  27.333  1.00  0.00     0.029 A 
ATOM     52  N   UNL A   1      47.155  29.075  27.747  1.00  0.00    -0.354 N 
ATOM     53  N   UNL A   1      44.420  29.830  28.524  1.00  0.00    -0.248 NA
ATOM     54  C   UNL A   1      42.908  31.415  29.340  1.00  0.00     0.031 C 
ATOM     55  C   UNL A   1      48.739  30.629  27.827  1.00  0.00     0.029 A 
ATOM     56  C   UNL A   1      47.390  30.403  28.058  1.00  0.00     0.049 A 
ATOM     57  H   UNL A   1      46.283  28.624  27.821  1.00  0.00     0.167 HD
ATOM     58  C   UNL A   1      45.085  31.035  28.725  1.00  0.00     0.074 A 
ATOM     59  C   UNL A   1      44.098  31.983  29.200  1.00  0.00     0.031 C 
ATOM     60  C   UNL A   1      46.395  31.331  28.532  1.00  0.00     0.031 A 
BRANCH  47  61
ATOM     61  C   UNL A   1      49.807  26.569  26.547  1.00  0.00    -0.014 A 
ATOM     62  C   UNL A   1      50.229  26.571  25.206  1.00  0.00     0.010 A 
ATOM     63  C   UNL A   1      50.686  26.097  27.539  1.00  0.00     0.010 A 
ATOM     64  C   UNL A   1      51.490  26.075  24.859  1.00  0.00     0.020 A 
ATOM     65  C   UNL A   1      51.957  25.626  27.202  1.00  0.00     0.020 A 
ATOM     66  C   UNL A   1      52.345  25.602  25.860  1.00  0.00     0.054 A 
BRANCH  66  67
ATOM     67  S   UNL A   1      53.981  24.981  25.385  1.00  0.00     0.124 S 
ATOM     68  O   UNL A   1      54.643  24.854  26.682  1.00  0.00    -0.237 OA
ATOM     69  O   UNL A   1      53.665  23.721  24.717  1.00  0.00    -0.237 OA
ATOM     70  O   UNL A   1      54.512  26.029  24.516  1.00  0.00    -0.744 OA
ENDBRANCH  66  67
ENDBRANCH  47  61
BRANCH  48  71
ATOM     71  C   UNL A   1      40.640  29.551  29.237  1.00  0.00    -0.014 A 
ATOM     72  C   UNL A   1      40.346  29.766  30.594  1.00  0.00     0.010 A 
ATOM     73  C   UNL A   1      39.633  29.764  28.278  1.00  0.00     0.010 A 
ATOM     74  C   UNL A   1      39.065  30.173  30.985  1.00  0.00     0.020 A 
ATOM     75  C   UNL A   1      38.361  30.197  28.661  1.00  0.00     0.020 A 
ATOM     76  C   UNL A   1      38.082  30.388  30.015  1.00  0.00     0.054 A 
BRANCH  76  77
ATOM     77  S   UNL A   1      36.445  30.965  30.540  1.00  0.00     0.124 S 
ATOM     78  O   UNL A   1      35.694  30.933  29.288  1.00  0.00    -0.237 OA
ATOM     79  O   UNL A   1      36.062  29.967  31.534  1.00  0.00    -0.237 OA
ATOM     80  O   UNL A   1      36.709  32.298  31.077  1.00  0.00    -0.744 OA
ENDBRANCH  76  77
ENDBRANCH  48  71
BRANCH  60  81
ATOM     81  C   UNL A   1      46.833  32.748  28.800  1.00  0.00    -0.014 A 
ATOM     82  C   UNL A   1      46.764  33.735  27.803  1.00  0.00     0.010 A 
ATOM     83  C   UNL A   1      47.266  33.106  30.091  1.00  0.00     0.010 A 
ATOM     84  C   UNL A   1      47.149  35.049  28.083  1.00  0.00     0.020 A 
ATOM     85  C   UNL A   1      47.627  34.423  30.382  1.00  0.00     0.020 A 
ATOM     86  C   UNL A   1      47.578  35.384  29.371  1.00  0.00     0.054 A 
BRANCH  86  87
ATOM     87  S   UNL A   1      48.032  37.105  29.719  1.00  0.00     0.124 S 
ATOM     88  O   UNL A   1      49.487  37.026  29.803  1.00  0.00    -0.237 OA
ATOM     89  O   UNL A   1      47.507  37.818  28.557  1.00  0.00    -0.237 OA
ATOM     90  O   UNL A   1      47.351  37.396  30.979  1.00  0.00    -0.744 OA
ENDBRANCH  86  87
ENDBRANCH  60  81
ENDBRANCH  34  35
ENDBRANCH  27  29
ENDBRANCH  26  27
ENDBRANCH  25  26
ENDBRANCH  24  25
ENDBRANCH   1  24
TORSDOF 23
ENDMDL
