MODEL 1
REMARK VINA RESULT:     -11.4      0.000      0.000
REMARK SMILES Cc1cccc(N2C(=O)/C(=C/c3ccc(C(=O)OCCOCCOC(=O)c4ccc(-c5c6nc(c(-c7ccc(S(=O)(=O)[O-])cc7)c7ccc([nH]7)c(-c7ccc(S(=O)(=O)[O-])cc7)c7nc(c(-c8ccc(S(=O)(=O)[O-])cc8)c8ccc5[nH]8)C=C7)C=C6)cc4)cc3)c3ccccc3C2=O)c1
REMARK SMILES IDX 22 1 21 2 20 3 19 4 18 5 16 6 17 7 15 8 12 9 13 10 88 11
REMARK SMILES IDX 14 12 87 13 11 14 7 15 8 16 95 17 9 18 10 19 94 20 96 21
REMARK SMILES IDX 89 22 93 23 90 24 92 25 91 26 6 27 1 28 2 29 3 30 97 31 4 32
REMARK SMILES IDX 5 33 23 34 24 35 25 36 26 37 27 38 28 39 86 40 29 41 85 42
REMARK SMILES IDX 30 43 31 44 32 45 79 46 33 47 84 48 78 49 80 50 34 51 83 52
REMARK SMILES IDX 77 53 76 54 35 56 65 57 46 58 64 59 47 60 50 61 63 62 81 63
REMARK SMILES IDX 48 64 49 65 62 67 82 68 51 69 36 70 37 71 45 72 38 73 44 74
REMARK SMILES IDX 39 75 40 76 41 77 42 78 43 79 66 80 67 81 75 82 68 83 74 84
REMARK SMILES IDX 69 85 70 86 71 87 72 88 73 89 52 90 53 91 61 92 54 93 60 94
REMARK SMILES IDX 55 95 56 96 57 97 58 98 59 99
REMARK H PARENT 80 55 50 66
REMARK Flexibility Score: inf
ROOT
ATOM      1  C   UNL A   1      43.735  22.024  25.450  1.00  0.00     0.202 C 
ENDROOT
BRANCH   1   2
ATOM      2  O   UNL A   1      42.885  23.142  25.533  1.00  0.00    -0.374 OA
BRANCH   2   3
ATOM      3  C   UNL A   1      43.352  24.336  24.920  1.00  0.00     0.202 C 
BRANCH   3   4
ATOM      4  C   UNL A   1      43.033  25.447  25.880  1.00  0.00     0.261 C 
BRANCH   4   5
ATOM      5  O   UNL A   1      41.734  26.044  25.641  1.00  0.00    -0.460 OA
BRANCH   5   6
ATOM      6  C   UNL A   1      40.626  25.654  26.344  1.00  0.00     0.338 C 
ATOM      7  O   UNL A   1      40.024  24.625  26.354  1.00  0.00    -0.246 OA
BRANCH   6   8
ATOM      8  C   UNL A   1      40.390  26.732  27.318  1.00  0.00     0.060 A 
ATOM      9  C   UNL A   1      39.075  28.648  28.767  1.00  0.00    -0.025 A 
ATOM     10  C   UNL A   1      39.640  28.992  27.533  1.00  0.00     0.009 A 
ATOM     11  C   UNL A   1      39.394  27.429  29.377  1.00  0.00     0.009 A 
ATOM     12  C   UNL A   1      40.318  28.027  26.805  1.00  0.00     0.016 A 
ATOM     13  C   UNL A   1      40.019  26.445  28.631  1.00  0.00     0.016 A 
BRANCH   9  14
ATOM     14  C   UNL A   1      38.050  29.526  29.325  1.00  0.00     0.022 C 
ATOM     15  N   UNL A   1      37.067  32.760  30.013  1.00  0.00    -0.242 N 
ATOM     16  C   UNL A   1      37.043  31.401  30.377  1.00  0.00     0.265 C 
ATOM     17  C   UNL A   1      38.291  33.396  29.676  1.00  0.00     0.265 C 
ATOM     18  O   UNL A   1      36.142  30.754  30.909  1.00  0.00    -0.268 OA
ATOM     19  C   UNL A   1      38.281  30.665  30.014  1.00  0.00     0.049 C 
ATOM     20  C   UNL A   1      39.555  32.708  30.061  1.00  0.00     0.048 A 
ATOM     21  O   UNL A   1      38.440  34.486  29.128  1.00  0.00    -0.268 OA
ATOM     22  C   UNL A   1      39.545  31.337  30.297  1.00  0.00    -0.000 A 
ATOM     23  C   UNL A   1      40.747  33.439  30.187  1.00  0.00     0.014 A 
ATOM     24  C   UNL A   1      40.711  30.714  30.765  1.00  0.00     0.010 A 
ATOM     25  C   UNL A   1      41.918  32.803  30.598  1.00  0.00     0.001 A 
ATOM     26  C   UNL A   1      41.896  31.443  30.903  1.00  0.00     0.001 A 
BRANCH  15  27
ATOM     27  C   UNL A   1      35.808  33.508  29.967  1.00  0.00     0.053 A 
ATOM     28  C   UNL A   1      33.576  35.525  32.348  1.00  0.00     0.044 C 
ATOM     29  C   UNL A   1      34.070  34.865  31.094  1.00  0.00    -0.049 A 
ATOM     30  C   UNL A   1      33.348  34.957  29.911  1.00  0.00     0.003 A 
ATOM     31  C   UNL A   1      35.289  34.163  31.100  1.00  0.00     0.030 A 
ATOM     32  C   UNL A   1      33.829  34.333  28.768  1.00  0.00     0.002 A 
ATOM     33  C   UNL A   1      35.032  33.615  28.801  1.00  0.00     0.027 A 
ENDBRANCH  15  27
ENDBRANCH   9  14
ENDBRANCH   6   8
ENDBRANCH   5   6
ENDBRANCH   4   5
ENDBRANCH   3   4
ENDBRANCH   2   3
ENDBRANCH   1   2
BRANCH   1  34
ATOM     34  C   UNL A   1      45.176  22.342  25.854  1.00  0.00     0.261 C 
BRANCH  34  35
ATOM     35  O   UNL A   1      45.236  22.795  27.223  1.00  0.00    -0.460 OA
BRANCH  35  36
ATOM     36  C   UNL A   1      46.112  23.816  27.460  1.00  0.00     0.338 C 
ATOM     37  O   UNL A   1      47.053  24.083  26.735  1.00  0.00    -0.246 OA
BRANCH  36  38
ATOM     38  C   UNL A   1      45.726  24.554  28.695  1.00  0.00     0.060 A 
ATOM     39  C   UNL A   1      46.670  25.284  29.437  1.00  0.00     0.016 A 
ATOM     40  C   UNL A   1      44.446  24.368  29.205  1.00  0.00     0.016 A 
ATOM     41  C   UNL A   1      46.375  25.709  30.747  1.00  0.00     0.010 A 
ATOM     42  C   UNL A   1      44.189  24.719  30.512  1.00  0.00     0.010 A 
ATOM     43  C   UNL A   1      45.150  25.366  31.310  1.00  0.00    -0.014 A 
BRANCH  43  44
ATOM     44  C   UNL A   1      44.722  25.549  32.706  1.00  0.00     0.031 A 
ATOM     45  C   UNL A   1      44.221  26.889  33.104  1.00  0.00     0.074 A 
ATOM     46  C   UNL A   1      44.417  24.479  33.483  1.00  0.00     0.049 A 
ATOM     47  N   UNL A   1      43.780  27.174  34.278  1.00  0.00    -0.248 NA
ATOM     48  C   UNL A   1      44.196  28.050  32.209  1.00  0.00     0.031 C 
ATOM     49  C   UNL A   1      43.395  24.388  34.531  1.00  0.00     0.029 A 
ATOM     50  N   UNL A   1      44.994  23.211  33.512  1.00  0.00    -0.354 N 
ATOM     51  C   UNL A   1      43.067  28.343  34.174  1.00  0.00     0.074 A 
ATOM     52  C   UNL A   1      43.478  28.923  32.922  1.00  0.00     0.031 C 
ATOM     53  C   UNL A   1      43.584  23.270  35.252  1.00  0.00     0.029 A 
ATOM     54  C   UNL A   1      44.822  22.668  34.790  1.00  0.00     0.049 A 
ATOM     55  H   UNL A   1      45.447  22.770  32.757  1.00  0.00     0.167 HD
ATOM     56  C   UNL A   1      42.099  28.592  35.099  1.00  0.00     0.031 A 
ATOM     57  C   UNL A   1      45.908  22.330  35.539  1.00  0.00     0.031 A 
ATOM     58  C   UNL A   1      42.175  27.633  36.210  1.00  0.00     0.049 A 
ATOM     59  C   UNL A   1      45.952  23.229  36.743  1.00  0.00     0.074 A 
ATOM     60  C   UNL A   1      41.367  26.596  36.646  1.00  0.00     0.029 A 
ATOM     61  N   UNL A   1      43.392  27.485  36.876  1.00  0.00    -0.354 N 
ATOM     62  N   UNL A   1      45.314  24.368  36.780  1.00  0.00    -0.248 NA
ATOM     63  C   UNL A   1      46.589  22.912  38.015  1.00  0.00     0.031 C 
ATOM     64  C   UNL A   1      42.160  25.757  37.487  1.00  0.00     0.029 A 
ATOM     65  C   UNL A   1      43.428  26.308  37.600  1.00  0.00     0.049 A 
ATOM     66  H   UNL A   1      44.130  28.134  36.836  1.00  0.00     0.167 HD
ATOM     67  C   UNL A   1      45.329  24.869  38.041  1.00  0.00     0.074 A 
ATOM     68  C   UNL A   1      46.192  23.954  38.772  1.00  0.00     0.031 C 
ATOM     69  C   UNL A   1      44.610  25.973  38.392  1.00  0.00     0.031 A 
BRANCH  56  70
ATOM     70  C   UNL A   1      40.969  29.585  34.918  1.00  0.00    -0.014 A 
ATOM     71  C   UNL A   1      40.770  30.598  35.880  1.00  0.00     0.010 A 
ATOM     72  C   UNL A   1      40.017  29.535  33.877  1.00  0.00     0.010 A 
ATOM     73  C   UNL A   1      39.699  31.506  35.801  1.00  0.00     0.020 A 
ATOM     74  C   UNL A   1      38.960  30.452  33.768  1.00  0.00     0.020 A 
ATOM     75  C   UNL A   1      38.802  31.432  34.737  1.00  0.00     0.054 A 
BRANCH  75  76
ATOM     76  S   UNL A   1      37.432  32.614  34.637  1.00  0.00     0.124 S 
ATOM     77  O   UNL A   1      38.034  33.730  33.913  1.00  0.00    -0.237 OA
ATOM     78  O   UNL A   1      36.416  31.862  33.906  1.00  0.00    -0.237 OA
ATOM     79  O   UNL A   1      37.107  32.891  36.036  1.00  0.00    -0.744 OA
ENDBRANCH  75  76
ENDBRANCH  56  70
BRANCH  57  80
ATOM     80  C   UNL A   1      47.017  21.765  34.700  1.00  0.00    -0.014 A 
ATOM     81  C   UNL A   1      48.117  22.627  34.459  1.00  0.00     0.010 A 
ATOM     82  C   UNL A   1      47.249  20.376  34.653  1.00  0.00     0.010 A 
ATOM     83  C   UNL A   1      49.425  22.128  34.358  1.00  0.00     0.020 A 
ATOM     84  C   UNL A   1      48.564  19.875  34.561  1.00  0.00     0.020 A 
ATOM     85  C   UNL A   1      49.647  20.755  34.471  1.00  0.00     0.054 A 
BRANCH  85  86
ATOM     86  S   UNL A   1      51.350  20.169  34.784  1.00  0.00     0.124 S 
ATOM     87  O   UNL A   1      51.821  21.103  35.799  1.00  0.00    -0.237 OA
ATOM     88  O   UNL A   1      51.142  18.795  35.246  1.00  0.00    -0.237 OA
ATOM     89  O   UNL A   1      51.988  20.274  33.476  1.00  0.00    -0.744 OA
ENDBRANCH  85  86
ENDBRANCH  57  80
BRANCH  69  90
ATOM     90  C   UNL A   1      44.950  26.836  39.570  1.00  0.00    -0.014 A 
ATOM     91  C   UNL A   1      45.559  28.094  39.441  1.00  0.00     0.010 A 
ATOM     92  C   UNL A   1      44.466  26.474  40.848  1.00  0.00     0.010 A 
ATOM     93  C   UNL A   1      45.738  28.923  40.548  1.00  0.00     0.020 A 
ATOM     94  C   UNL A   1      44.584  27.321  41.947  1.00  0.00     0.020 A 
ATOM     95  C   UNL A   1      45.251  28.531  41.794  1.00  0.00     0.054 A 
BRANCH  95  96
ATOM     96  S   UNL A   1      45.448  29.646  43.198  1.00  0.00     0.124 S 
ATOM     97  O   UNL A   1      46.902  29.741  43.297  1.00  0.00    -0.237 OA
ATOM     98  O   UNL A   1      44.770  30.859  42.747  1.00  0.00    -0.237 OA
ATOM     99  O   UNL A   1      44.788  28.941  44.294  1.00  0.00    -0.744 OA
ENDBRANCH  95  96
ENDBRANCH  69  90
ENDBRANCH  43  44
ENDBRANCH  36  38
ENDBRANCH  35  36
ENDBRANCH  34  35
ENDBRANCH   1  34
TORSDOF 19
ENDMDL
MODEL 2
REMARK VINA RESULT:     -11.2      4.715      8.001
REMARK SMILES Cc1cccc(N2C(=O)/C(=C/c3ccc(C(=O)OCCOCCOC(=O)c4ccc(-c5c6nc(c(-c7ccc(S(=O)(=O)[O-])cc7)c7ccc([nH]7)c(-c7ccc(S(=O)(=O)[O-])cc7)c7nc(c(-c8ccc(S(=O)(=O)[O-])cc8)c8ccc5[nH]8)C=C7)C=C6)cc4)cc3)c3ccccc3C2=O)c1
REMARK SMILES IDX 22 1 21 2 20 3 19 4 18 5 16 6 17 7 15 8 12 9 13 10 88 11
REMARK SMILES IDX 14 12 87 13 11 14 7 15 8 16 95 17 9 18 10 19 94 20 96 21
REMARK SMILES IDX 89 22 93 23 90 24 92 25 91 26 6 27 1 28 2 29 3 30 97 31 4 32
REMARK SMILES IDX 5 33 23 34 24 35 25 36 26 37 27 38 28 39 86 40 29 41 85 42
REMARK SMILES IDX 30 43 31 44 32 45 79 46 33 47 84 48 78 49 80 50 34 51 83 52
REMARK SMILES IDX 77 53 76 54 35 56 65 57 46 58 64 59 47 60 50 61 63 62 81 63
REMARK SMILES IDX 48 64 49 65 62 67 82 68 51 69 36 70 37 71 45 72 38 73 44 74
REMARK SMILES IDX 39 75 40 76 41 77 42 78 43 79 66 80 67 81 75 82 68 83 74 84
REMARK SMILES IDX 69 85 70 86 71 87 72 88 73 89 52 90 53 91 61 92 54 93 60 94
REMARK SMILES IDX 55 95 56 96 57 97 58 98 59 99
REMARK H PARENT 80 55 50 66
REMARK Flexibility Score: inf
ROOT
ATOM      1  C   UNL A   1      42.609  24.926  25.590  1.00  0.00     0.202 C 
ENDROOT
BRANCH   1   2
ATOM      2  O   UNL A   1      43.077  23.755  26.213  1.00  0.00    -0.374 OA
BRANCH   2   3
ATOM      3  C   UNL A   1      43.597  22.749  25.355  1.00  0.00     0.202 C 
BRANCH   3   4
ATOM      4  C   UNL A   1      43.060  21.444  25.872  1.00  0.00     0.261 C 
BRANCH   4   5
ATOM      5  O   UNL A   1      41.634  21.481  26.126  1.00  0.00    -0.460 OA
BRANCH   5   6
ATOM      6  C   UNL A   1      40.833  20.400  25.874  1.00  0.00     0.338 C 
ATOM      7  O   UNL A   1      41.077  19.234  25.829  1.00  0.00    -0.246 OA
BRANCH   6   8
ATOM      8  C   UNL A   1      39.461  20.934  25.861  1.00  0.00     0.060 A 
ATOM      9  C   UNL A   1      37.261  22.355  25.061  1.00  0.00    -0.025 A 
ATOM     10  C   UNL A   1      38.191  22.958  25.917  1.00  0.00     0.009 A 
ATOM     11  C   UNL A   1      37.307  20.976  24.824  1.00  0.00     0.009 A 
ATOM     12  C   UNL A   1      39.297  22.235  26.335  1.00  0.00     0.016 A 
ATOM     13  C   UNL A   1      38.437  20.266  25.189  1.00  0.00     0.016 A 
BRANCH   9  14
ATOM     14  C   UNL A   1      36.341  23.218  24.324  1.00  0.00     0.022 C 
ATOM     15  N   UNL A   1      33.642  25.362  24.460  1.00  0.00    -0.242 N 
ATOM     16  C   UNL A   1      34.365  24.395  23.736  1.00  0.00     0.265 C 
ATOM     17  C   UNL A   1      33.307  25.144  25.822  1.00  0.00     0.265 C 
ATOM     18  O   UNL A   1      34.542  24.303  22.523  1.00  0.00    -0.268 OA
ATOM     19  C   UNL A   1      35.028  23.381  24.596  1.00  0.00     0.049 C 
ATOM     20  C   UNL A   1      33.415  23.753  26.345  1.00  0.00     0.048 A 
ATOM     21  O   UNL A   1      32.893  25.971  26.631  1.00  0.00    -0.268 OA
ATOM     22  C   UNL A   1      34.234  22.837  25.693  1.00  0.00    -0.000 A 
ATOM     23  C   UNL A   1      32.695  23.371  27.488  1.00  0.00     0.014 A 
ATOM     24  C   UNL A   1      34.248  21.502  26.124  1.00  0.00     0.010 A 
ATOM     25  C   UNL A   1      32.757  22.055  27.946  1.00  0.00     0.001 A 
ATOM     26  C   UNL A   1      33.521  21.117  27.254  1.00  0.00     0.001 A 
BRANCH  15  27
ATOM     27  C   UNL A   1      33.257  26.608  23.794  1.00  0.00     0.053 A 
ATOM     28  C   UNL A   1      30.074  28.285  22.459  1.00  0.00     0.044 C 
ATOM     29  C   UNL A   1      31.519  28.064  22.796  1.00  0.00    -0.049 A 
ATOM     30  C   UNL A   1      32.477  29.021  22.479  1.00  0.00     0.003 A 
ATOM     31  C   UNL A   1      31.918  26.890  23.459  1.00  0.00     0.030 A 
ATOM     32  C   UNL A   1      33.807  28.786  22.799  1.00  0.00     0.002 A 
ATOM     33  C   UNL A   1      34.188  27.597  23.437  1.00  0.00     0.027 A 
ENDBRANCH  15  27
ENDBRANCH   9  14
ENDBRANCH   6   8
ENDBRANCH   5   6
ENDBRANCH   4   5
ENDBRANCH   3   4
ENDBRANCH   2   3
ENDBRANCH   1   2
BRANCH   1  34
ATOM     34  C   UNL A   1      41.683  25.748  26.489  1.00  0.00     0.261 C 
BRANCH  34  35
ATOM     35  O   UNL A   1      41.039  26.799  25.738  1.00  0.00    -0.460 OA
BRANCH  35  36
ATOM     36  C   UNL A   1      41.763  27.950  25.608  1.00  0.00     0.338 C 
ATOM     37  O   UNL A   1      42.479  28.195  24.654  1.00  0.00    -0.246 OA
BRANCH  36  38
ATOM     38  C   UNL A   1      41.518  28.850  26.769  1.00  0.00     0.060 A 
ATOM     39  C   UNL A   1      42.569  29.551  27.386  1.00  0.00     0.016 A 
ATOM     40  C   UNL A   1      40.255  28.855  27.349  1.00  0.00     0.016 A 
ATOM     41  C   UNL A   1      42.388  30.139  28.652  1.00  0.00     0.010 A 
ATOM     42  C   UNL A   1      40.104  29.367  28.619  1.00  0.00     0.010 A 
ATOM     43  C   UNL A   1      41.166  29.988  29.301  1.00  0.00    -0.014 A 
BRANCH  43  44
ATOM     44  C   UNL A   1      40.833  30.361  30.684  1.00  0.00     0.031 A 
ATOM     45  C   UNL A   1      40.088  31.628  30.897  1.00  0.00     0.074 A 
ATOM     46  C   UNL A   1      40.838  29.432  31.673  1.00  0.00     0.049 A 
ATOM     47  N   UNL A   1      39.700  32.052  32.048  1.00  0.00    -0.248 NA
ATOM     48  C   UNL A   1      39.732  32.556  29.819  1.00  0.00     0.031 C 
ATOM     49  C   UNL A   1      39.957  29.354  32.842  1.00  0.00     0.029 A 
ATOM     50  N   UNL A   1      41.678  28.335  31.854  1.00  0.00    -0.354 N 
ATOM     51  C   UNL A   1      38.743  33.012  31.829  1.00  0.00     0.074 A 
ATOM     52  C   UNL A   1      38.906  33.396  30.451  1.00  0.00     0.031 C 
ATOM     53  C   UNL A   1      40.449  28.466  33.722  1.00  0.00     0.029 A 
ATOM     54  C   UNL A   1      41.743  28.039  33.220  1.00  0.00     0.049 A 
ATOM     55  H   UNL A   1      42.149  27.849  31.138  1.00  0.00     0.167 HD
ATOM     56  C   UNL A   1      37.829  33.247  32.811  1.00  0.00     0.031 A 
ATOM     57  C   UNL A   1      42.938  28.080  33.872  1.00  0.00     0.031 A 
ATOM     58  C   UNL A   1      38.210  32.565  34.056  1.00  0.00     0.049 A 
ATOM     59  C   UNL A   1      42.891  29.194  34.879  1.00  0.00     0.074 A 
ATOM     60  C   UNL A   1      37.690  31.500  34.771  1.00  0.00     0.029 A 
ATOM     61  N   UNL A   1      39.484  32.798  34.576  1.00  0.00    -0.354 N 
ATOM     62  N   UNL A   1      42.024  30.169  34.794  1.00  0.00    -0.248 NA
ATOM     63  C   UNL A   1      43.690  29.273  36.095  1.00  0.00     0.031 C 
ATOM     64  C   UNL A   1      38.718  31.021  35.640  1.00  0.00     0.029 A 
ATOM     65  C   UNL A   1      39.840  31.823  35.488  1.00  0.00     0.049 A 
ATOM     66  H   UNL A   1      40.056  33.559  34.326  1.00  0.00     0.167 HD
ATOM     67  C   UNL A   1      42.040  30.907  35.932  1.00  0.00     0.074 A 
ATOM     68  C   UNL A   1      43.144  30.347  36.698  1.00  0.00     0.031 C 
ATOM     69  C   UNL A   1      41.132  31.895  36.170  1.00  0.00     0.031 A 
BRANCH  56  70
ATOM     70  C   UNL A   1      36.498  33.940  32.602  1.00  0.00    -0.014 A 
ATOM     71  C   UNL A   1      35.847  33.836  31.355  1.00  0.00     0.010 A 
ATOM     72  C   UNL A   1      35.869  34.773  33.552  1.00  0.00     0.010 A 
ATOM     73  C   UNL A   1      34.644  34.511  31.080  1.00  0.00     0.020 A 
ATOM     74  C   UNL A   1      34.654  35.428  33.304  1.00  0.00     0.020 A 
ATOM     75  C   UNL A   1      34.048  35.299  32.063  1.00  0.00     0.054 A 
BRANCH  75  76
ATOM     76  S   UNL A   1      32.492  36.155  31.703  1.00  0.00     0.124 S 
ATOM     77  O   UNL A   1      32.395  36.031  30.252  1.00  0.00    -0.237 OA
ATOM     78  O   UNL A   1      31.519  35.382  32.470  1.00  0.00    -0.237 OA
ATOM     79  O   UNL A   1      32.721  37.515  32.191  1.00  0.00    -0.744 OA
ENDBRANCH  75  76
ENDBRANCH  56  70
BRANCH  57  80
ATOM     80  C   UNL A   1      44.065  27.588  33.011  1.00  0.00    -0.014 A 
ATOM     81  C   UNL A   1      44.153  26.182  32.841  1.00  0.00     0.010 A 
ATOM     82  C   UNL A   1      44.610  28.406  32.001  1.00  0.00     0.010 A 
ATOM     83  C   UNL A   1      44.599  25.621  31.634  1.00  0.00     0.020 A 
ATOM     84  C   UNL A   1      45.049  27.843  30.785  1.00  0.00     0.020 A 
ATOM     85  C   UNL A   1      44.987  26.460  30.590  1.00  0.00     0.054 A 
BRANCH  85  86
ATOM     86  S   UNL A   1      45.133  25.751  28.910  1.00  0.00     0.124 S 
ATOM     87  O   UNL A   1      44.534  26.788  28.079  1.00  0.00    -0.237 OA
ATOM     88  O   UNL A   1      46.580  25.581  28.753  1.00  0.00    -0.237 OA
ATOM     89  O   UNL A   1      44.387  24.502  29.006  1.00  0.00    -0.744 OA
ENDBRANCH  85  86
ENDBRANCH  57  80
BRANCH  69  90
ATOM     90  C   UNL A   1      41.377  33.028  37.120  1.00  0.00    -0.014 A 
ATOM     91  C   UNL A   1      41.429  32.856  38.512  1.00  0.00     0.010 A 
ATOM     92  C   UNL A   1      41.772  34.283  36.604  1.00  0.00     0.010 A 
ATOM     93  C   UNL A   1      41.790  33.906  39.354  1.00  0.00     0.020 A 
ATOM     94  C   UNL A   1      42.193  35.320  37.432  1.00  0.00     0.020 A 
ATOM     95  C   UNL A   1      42.169  35.132  38.809  1.00  0.00     0.054 A 
BRANCH  95  96
ATOM     96  S   UNL A   1      42.684  36.459  39.918  1.00  0.00     0.124 S 
ATOM     97  O   UNL A   1      41.859  36.197  41.093  1.00  0.00    -0.237 OA
ATOM     98  O   UNL A   1      44.113  36.205  40.086  1.00  0.00    -0.237 OA
ATOM     99  O   UNL A   1      42.356  37.675  39.178  1.00  0.00    -0.744 OA
ENDBRANCH  95  96
ENDBRANCH  69  90
ENDBRANCH  43  44
ENDBRANCH  36  38
ENDBRANCH  35  36
ENDBRANCH  34  35
ENDBRANCH   1  34
TORSDOF 19
ENDMDL
MODEL 3
REMARK VINA RESULT:     -10.9      5.767     12.716
REMARK SMILES Cc1cccc(N2C(=O)/C(=C/c3ccc(C(=O)OCCOCCOC(=O)c4ccc(-c5c6nc(c(-c7ccc(S(=O)(=O)[O-])cc7)c7ccc([nH]7)c(-c7ccc(S(=O)(=O)[O-])cc7)c7nc(c(-c8ccc(S(=O)(=O)[O-])cc8)c8ccc5[nH]8)C=C7)C=C6)cc4)cc3)c3ccccc3C2=O)c1
REMARK SMILES IDX 22 1 21 2 20 3 19 4 18 5 16 6 17 7 15 8 12 9 13 10 88 11
REMARK SMILES IDX 14 12 87 13 11 14 7 15 8 16 95 17 9 18 10 19 94 20 96 21
REMARK SMILES IDX 89 22 93 23 90 24 92 25 91 26 6 27 1 28 2 29 3 30 97 31 4 32
REMARK SMILES IDX 5 33 23 34 24 35 25 36 26 37 27 38 28 39 86 40 29 41 85 42
REMARK SMILES IDX 30 43 31 44 32 45 79 46 33 47 84 48 78 49 80 50 34 51 83 52
REMARK SMILES IDX 77 53 76 54 35 56 65 57 46 58 64 59 47 60 50 61 63 62 81 63
REMARK SMILES IDX 48 64 49 65 62 67 82 68 51 69 36 70 37 71 45 72 38 73 44 74
REMARK SMILES IDX 39 75 40 76 41 77 42 78 43 79 66 80 67 81 75 82 68 83 74 84
REMARK SMILES IDX 69 85 70 86 71 87 72 88 73 89 52 90 53 91 61 92 54 93 60 94
REMARK SMILES IDX 55 95 56 96 57 97 58 98 59 99
REMARK H PARENT 80 55 50 66
REMARK Flexibility Score: inf
ROOT
ATOM      1  C   UNL A   1      36.848  30.370  30.369  1.00  0.00     0.202 C 
ENDROOT
BRANCH   1   2
ATOM      2  O   UNL A   1      36.196  31.556  29.982  1.00  0.00    -0.374 OA
BRANCH   2   3
ATOM      3  C   UNL A   1      36.879  32.371  29.040  1.00  0.00     0.202 C 
BRANCH   3   4
ATOM      4  C   UNL A   1      35.936  32.547  27.883  1.00  0.00     0.261 C 
BRANCH   4   5
ATOM      5  O   UNL A   1      35.150  31.361  27.610  1.00  0.00    -0.460 OA
BRANCH   5   6
ATOM      6  C   UNL A   1      33.782  31.378  27.672  1.00  0.00     0.338 C 
ATOM      7  O   UNL A   1      33.024  32.207  28.070  1.00  0.00    -0.246 OA
BRANCH   6   8
ATOM      8  C   UNL A   1      33.350  30.186  26.923  1.00  0.00     0.060 A 
ATOM      9  C   UNL A   1      33.038  27.556  26.230  1.00  0.00    -0.025 A 
ATOM     10  C   UNL A   1      34.150  28.262  25.754  1.00  0.00     0.009 A 
ATOM     11  C   UNL A   1      31.971  28.235  26.828  1.00  0.00     0.009 A 
ATOM     12  C   UNL A   1      34.302  29.598  26.092  1.00  0.00     0.016 A 
ATOM     13  C   UNL A   1      32.143  29.552  27.218  1.00  0.00     0.016 A 
BRANCH   9  14
ATOM     14  C   UNL A   1      33.088  26.096  26.209  1.00  0.00     0.022 C 
ATOM     15  N   UNL A   1      33.596  23.240  24.343  1.00  0.00    -0.242 N 
ATOM     16  C   UNL A   1      32.933  23.864  25.416  1.00  0.00     0.265 C 
ATOM     17  C   UNL A   1      33.659  23.866  23.070  1.00  0.00     0.265 C 
ATOM     18  O   UNL A   1      32.582  23.391  26.495  1.00  0.00    -0.268 OA
ATOM     19  C   UNL A   1      32.671  25.309  25.194  1.00  0.00     0.049 C 
ATOM     20  C   UNL A   1      32.720  24.991  22.807  1.00  0.00     0.048 A 
ATOM     21  O   UNL A   1      34.383  23.562  22.124  1.00  0.00    -0.268 OA
ATOM     22  C   UNL A   1      32.166  25.686  23.877  1.00  0.00    -0.000 A 
ATOM     23  C   UNL A   1      32.397  25.348  21.488  1.00  0.00     0.014 A 
ATOM     24  C   UNL A   1      31.199  26.671  23.628  1.00  0.00     0.010 A 
ATOM     25  C   UNL A   1      31.478  26.368  21.245  1.00  0.00     0.001 A 
ATOM     26  C   UNL A   1      30.867  27.019  22.315  1.00  0.00     0.001 A 
BRANCH  15  27
ATOM     27  C   UNL A   1      34.240  21.943  24.562  1.00  0.00     0.053 A 
ATOM     28  C   UNL A   1      33.285  18.227  24.570  1.00  0.00     0.044 C 
ATOM     29  C   UNL A   1      34.113  19.472  24.688  1.00  0.00    -0.049 A 
ATOM     30  C   UNL A   1      35.465  19.400  25.002  1.00  0.00     0.003 A 
ATOM     31  C   UNL A   1      33.530  20.731  24.457  1.00  0.00     0.030 A 
ATOM     32  C   UNL A   1      36.204  20.570  25.108  1.00  0.00     0.002 A 
ATOM     33  C   UNL A   1      35.598  21.817  24.900  1.00  0.00     0.027 A 
ENDBRANCH  15  27
ENDBRANCH   9  14
ENDBRANCH   6   8
ENDBRANCH   5   6
ENDBRANCH   4   5
ENDBRANCH   3   4
ENDBRANCH   2   3
ENDBRANCH   1   2
BRANCH   1  34
ATOM     34  C   UNL A   1      36.609  30.013  31.837  1.00  0.00     0.261 C 
BRANCH  34  35
ATOM     35  O   UNL A   1      37.347  28.828  32.203  1.00  0.00    -0.460 OA
BRANCH  35  36
ATOM     36  C   UNL A   1      38.470  29.048  32.949  1.00  0.00     0.338 C 
ATOM     37  O   UNL A   1      38.461  29.577  34.046  1.00  0.00    -0.246 OA
BRANCH  36  38
ATOM     38  C   UNL A   1      39.672  28.522  32.244  1.00  0.00     0.060 A 
ATOM     39  C   UNL A   1      40.958  28.647  32.798  1.00  0.00     0.016 A 
ATOM     40  C   UNL A   1      39.526  28.057  30.943  1.00  0.00     0.016 A 
ATOM     41  C   UNL A   1      42.101  28.438  32.002  1.00  0.00     0.010 A 
ATOM     42  C   UNL A   1      40.644  27.926  30.149  1.00  0.00     0.010 A 
ATOM     43  C   UNL A   1      41.941  28.140  30.652  1.00  0.00    -0.014 A 
BRANCH  43  44
ATOM     44  C   UNL A   1      42.987  28.065  29.620  1.00  0.00     0.031 A 
ATOM     45  C   UNL A   1      43.621  26.745  29.375  1.00  0.00     0.074 A 
ATOM     46  C   UNL A   1      43.094  29.029  28.671  1.00  0.00     0.049 A 
ATOM     47  N   UNL A   1      44.518  26.532  28.478  1.00  0.00    -0.248 NA
ATOM     48  C   UNL A   1      43.315  25.537  30.146  1.00  0.00     0.031 C 
ATOM     49  C   UNL A   1      43.501  28.875  27.271  1.00  0.00     0.029 A 
ATOM     50  N   UNL A   1      42.871  30.401  28.771  1.00  0.00    -0.354 N 
ATOM     51  C   UNL A   1      44.584  25.175  28.280  1.00  0.00     0.074 A 
ATOM     52  C   UNL A   1      43.941  24.597  29.432  1.00  0.00     0.031 C 
ATOM     53  C   UNL A   1      43.749  30.082  26.735  1.00  0.00     0.029 A 
ATOM     54  C   UNL A   1      43.649  31.054  27.808  1.00  0.00     0.049 A 
ATOM     55  H   UNL A   1      42.266  30.838  29.415  1.00  0.00     0.167 HD
ATOM     56  C   UNL A   1      45.043  24.719  27.082  1.00  0.00     0.031 A 
ATOM     57  C   UNL A   1      44.587  31.964  28.192  1.00  0.00     0.031 A 
ATOM     58  C   UNL A   1      45.625  25.814  26.292  1.00  0.00     0.049 A 
ATOM     59  C   UNL A   1      45.944  31.422  27.837  1.00  0.00     0.074 A 
ATOM     60  C   UNL A   1      45.255  26.466  25.129  1.00  0.00     0.029 A 
ATOM     61  N   UNL A   1      46.622  26.595  26.876  1.00  0.00    -0.354 N 
ATOM     62  N   UNL A   1      46.146  30.151  27.617  1.00  0.00    -0.248 NA
ATOM     63  C   UNL A   1      47.137  32.222  27.588  1.00  0.00     0.031 C 
ATOM     64  C   UNL A   1      45.957  27.710  25.090  1.00  0.00     0.029 A 
ATOM     65  C   UNL A   1      46.786  27.789  26.200  1.00  0.00     0.049 A 
ATOM     66  H   UNL A   1      47.143  26.331  27.668  1.00  0.00     0.167 HD
ATOM     67  C   UNL A   1      47.386  29.959  27.099  1.00  0.00     0.074 A 
ATOM     68  C   UNL A   1      47.997  31.278  27.155  1.00  0.00     0.031 C 
ATOM     69  C   UNL A   1      47.801  28.746  26.639  1.00  0.00     0.031 A 
BRANCH  56  70
ATOM     70  C   UNL A   1      44.806  23.323  26.542  1.00  0.00    -0.014 A 
ATOM     71  C   UNL A   1      45.845  22.652  25.864  1.00  0.00     0.010 A 
ATOM     72  C   UNL A   1      43.569  22.645  26.590  1.00  0.00     0.010 A 
ATOM     73  C   UNL A   1      45.665  21.384  25.283  1.00  0.00     0.020 A 
ATOM     74  C   UNL A   1      43.381  21.366  26.042  1.00  0.00     0.020 A 
ATOM     75  C   UNL A   1      44.431  20.743  25.383  1.00  0.00     0.054 A 
BRANCH  75  76
ATOM     76  S   UNL A   1      44.210  19.104  24.643  1.00  0.00     0.124 S 
ATOM     77  O   UNL A   1      42.811  18.812  24.941  1.00  0.00    -0.237 OA
ATOM     78  O   UNL A   1      44.520  19.345  23.237  1.00  0.00    -0.237 OA
ATOM     79  O   UNL A   1      45.178  18.268  25.353  1.00  0.00    -0.744 OA
ENDBRANCH  75  76
ENDBRANCH  56  70
BRANCH  57  80
ATOM     80  C   UNL A   1      44.136  32.774  29.372  1.00  0.00    -0.014 A 
ATOM     81  C   UNL A   1      43.169  33.777  29.107  1.00  0.00     0.010 A 
ATOM     82  C   UNL A   1      44.187  32.239  30.675  1.00  0.00     0.010 A 
ATOM     83  C   UNL A   1      42.178  34.098  30.048  1.00  0.00     0.020 A 
ATOM     84  C   UNL A   1      43.186  32.555  31.616  1.00  0.00     0.020 A 
ATOM     85  C   UNL A   1      42.157  33.439  31.276  1.00  0.00     0.054 A 
BRANCH  85  86
ATOM     86  S   UNL A   1      40.639  33.532  32.291  1.00  0.00     0.124 S 
ATOM     87  O   UNL A   1      40.601  32.217  32.920  1.00  0.00    -0.237 OA
ATOM     88  O   UNL A   1      40.920  34.651  33.195  1.00  0.00    -0.237 OA
ATOM     89  O   UNL A   1      39.593  33.798  31.310  1.00  0.00    -0.744 OA
ENDBRANCH  85  86
ENDBRANCH  57  80
BRANCH  69  90
ATOM     90  C   UNL A   1      49.245  28.358  26.525  1.00  0.00    -0.014 A 
ATOM     91  C   UNL A   1      50.188  28.634  27.527  1.00  0.00     0.010 A 
ATOM     92  C   UNL A   1      49.646  27.507  25.470  1.00  0.00     0.010 A 
ATOM     93  C   UNL A   1      51.490  28.142  27.445  1.00  0.00     0.020 A 
ATOM     94  C   UNL A   1      50.925  26.961  25.410  1.00  0.00     0.020 A 
ATOM     95  C   UNL A   1      51.851  27.309  26.387  1.00  0.00     0.054 A 
BRANCH  95  96
ATOM     96  S   UNL A   1      53.526  26.642  26.333  1.00  0.00     0.124 S 
ATOM     97  O   UNL A   1      53.278  25.210  26.470  1.00  0.00    -0.237 OA
ATOM     98  O   UNL A   1      54.003  27.073  25.021  1.00  0.00    -0.237 OA
ATOM     99  O   UNL A   1      54.188  27.277  27.469  1.00  0.00    -0.744 OA
ENDBRANCH  95  96
ENDBRANCH  69  90
ENDBRANCH  43  44
ENDBRANCH  36  38
ENDBRANCH  35  36
ENDBRANCH  34  35
ENDBRANCH   1  34
TORSDOF 19
ENDMDL
