MODEL 1
REMARK VINA RESULT:     -10.0      0.000      0.000
REMARK SMILES C[C@](NC(=O)[C@](C)([NH3+])C(F)(F)F)(C(=O)OCCOCCOC(=O)c1ccc(-c2c3nc(c(-c4ccc(S(=O)(=O)[O-])cc4)c4ccc([nH]4)c(-c4ccc(S(=O)(=O)[O-])cc4)c4nc(c(-c5ccc(S(=O)(=O)[O-])cc5)c5ccc2[nH]5)C=C4)C=C3)cc1)c1ccccc1
REMARK SMILES IDX 18 1 17 2 16 3 15 4 13 5 14 6 2 7 1 8 84 9 85 10 89 11 86 12
REMARK SMILES IDX 88 13 87 14 3 15 4 16 5 18 6 19 7 20 8 21 9 25 10 26 11 27
REMARK SMILES IDX 12 28 19 29 20 30 21 31 22 32 23 33 24 34 25 35 83 36 26 37
REMARK SMILES IDX 82 38 27 39 28 40 29 41 76 42 30 43 81 44 75 45 77 46 31 47
REMARK SMILES IDX 80 48 74 49 73 50 32 52 62 53 43 54 61 55 44 56 47 57 60 58
REMARK SMILES IDX 78 59 45 60 46 61 59 63 79 64 48 65 33 66 34 67 42 68 35 69
REMARK SMILES IDX 41 70 36 71 37 72 38 73 39 74 40 75 63 76 64 77 72 78 65 79
REMARK SMILES IDX 71 80 66 81 67 82 68 83 69 84 70 85 49 86 50 87 58 88 51 89
REMARK SMILES IDX 57 90 52 91 53 92 54 93 55 94 56 95
REMARK H PARENT 3 17 8 22 8 23 8 24 77 51 47 62
REMARK Flexibility Score: inf
ROOT
ATOM      1  O   UNL A   1      31.501  29.279  24.710  1.00  0.00    -0.374 OA
ENDROOT
BRANCH   1   2
ATOM      2  C   UNL A   1      31.257  28.090  23.947  1.00  0.00     0.202 C 
BRANCH   2   3
ATOM      3  C   UNL A   1      32.492  27.207  23.702  1.00  0.00     0.261 C 
BRANCH   3   4
ATOM      4  O   UNL A   1      32.205  25.781  23.605  1.00  0.00    -0.461 OA
BRANCH   4   5
ATOM      5  C   UNL A   1      33.118  25.066  22.898  1.00  0.00     0.336 C 
ATOM      6  O   UNL A   1      33.798  25.571  22.002  1.00  0.00    -0.249 OA
BRANCH   5   7
ATOM      7  C   UNL A   1      33.265  23.525  23.274  1.00  0.00     0.161 C 
ATOM      8  C   UNL A   1      33.333  22.944  21.817  1.00  0.00     0.053 C 
BRANCH   7   9
ATOM      9  C   UNL A   1      34.630  23.286  23.985  1.00  0.00    -0.012 A 
ATOM     10  C   UNL A   1      35.295  22.050  23.881  1.00  0.00     0.007 A 
ATOM     11  C   UNL A   1      35.236  24.276  24.788  1.00  0.00     0.007 A 
ATOM     12  C   UNL A   1      36.511  21.823  24.533  1.00  0.00     0.000 A 
ATOM     13  C   UNL A   1      36.444  24.045  25.448  1.00  0.00     0.000 A 
ATOM     14  C   UNL A   1      37.083  22.818  25.318  1.00  0.00     0.000 A 
ENDBRANCH   7   9
BRANCH   7  15
ATOM     15  N   UNL A   1      32.252  22.612  23.932  1.00  0.00    -0.331 N 
ATOM     16  C   UNL A   1      31.864  22.180  25.160  1.00  0.00     0.291 C 
ATOM     17  H   UNL A   1      31.687  22.195  23.241  1.00  0.00     0.165 HD
ATOM     18  O   UNL A   1      31.407  21.030  25.173  1.00  0.00    -0.267 OA
BRANCH  16  19
ATOM     19  C   UNL A   1      31.885  23.040  26.420  1.00  0.00     0.267 C 
ATOM     20  C   UNL A   1      30.522  22.941  27.088  1.00  0.00     0.100 C 
BRANCH  19  21
ATOM     21  N   UNL A   1      32.011  24.508  26.082  1.00  0.00    -0.337 N 
ATOM     22  H   UNL A   1      32.967  24.817  26.257  1.00  0.00     0.345 HD
ATOM     23  H   UNL A   1      31.368  25.048  26.663  1.00  0.00     0.345 HD
ATOM     24  H   UNL A   1      31.783  24.652  25.099  1.00  0.00     0.345 HD
ENDBRANCH  19  21
BRANCH  19  25
ATOM     25  C   UNL A   1      33.109  22.516  27.220  1.00  0.00     0.453 C 
ATOM     26  F   UNL A   1      32.728  22.080  28.434  1.00  0.00    -0.164 F 
ATOM     27  F   UNL A   1      33.787  21.503  26.640  1.00  0.00    -0.164 F 
ATOM     28  F   UNL A   1      34.016  23.502  27.443  1.00  0.00    -0.164 F 
ENDBRANCH  19  25
ENDBRANCH  16  19
ENDBRANCH   7  15
ENDBRANCH   5   7
ENDBRANCH   4   5
ENDBRANCH   3   4
ENDBRANCH   2   3
ENDBRANCH   1   2
BRANCH   1  29
ATOM     29  C   UNL A   1      32.471  29.141  25.743  1.00  0.00     0.202 C 
BRANCH  29  30
ATOM     30  C   UNL A   1      32.828  30.436  26.492  1.00  0.00     0.261 C 
BRANCH  30  31
ATOM     31  O   UNL A   1      33.756  30.174  27.561  1.00  0.00    -0.460 OA
BRANCH  31  32
ATOM     32  C   UNL A   1      34.476  31.252  27.960  1.00  0.00     0.338 C 
ATOM     33  O   UNL A   1      34.025  32.333  28.269  1.00  0.00    -0.246 OA
BRANCH  32  34
ATOM     34  C   UNL A   1      35.905  30.895  28.170  1.00  0.00     0.060 A 
ATOM     35  C   UNL A   1      36.184  29.526  28.203  1.00  0.00     0.016 A 
ATOM     36  C   UNL A   1      36.935  31.817  28.373  1.00  0.00     0.016 A 
ATOM     37  C   UNL A   1      37.447  29.075  28.570  1.00  0.00     0.010 A 
ATOM     38  C   UNL A   1      38.224  31.358  28.707  1.00  0.00     0.010 A 
ATOM     39  C   UNL A   1      38.461  29.984  28.896  1.00  0.00    -0.014 A 
BRANCH  39  40
ATOM     40  C   UNL A   1      39.628  29.460  29.663  1.00  0.00     0.031 A 
ATOM     41  C   UNL A   1      39.755  29.821  31.126  1.00  0.00     0.074 A 
ATOM     42  C   UNL A   1      40.450  28.528  29.140  1.00  0.00     0.049 A 
ATOM     43  N   UNL A   1      40.521  29.292  32.048  1.00  0.00    -0.248 NA
ATOM     44  C   UNL A   1      38.902  30.914  31.617  1.00  0.00     0.031 C 
ATOM     45  C   UNL A   1      40.422  28.053  27.757  1.00  0.00     0.029 A 
ATOM     46  N   UNL A   1      41.440  27.776  29.731  1.00  0.00    -0.354 N 
ATOM     47  C   UNL A   1      40.235  29.983  33.222  1.00  0.00     0.074 A 
ATOM     48  C   UNL A   1      39.269  31.003  32.885  1.00  0.00     0.031 C 
ATOM     49  C   UNL A   1      41.315  27.058  27.617  1.00  0.00     0.029 A 
ATOM     50  C   UNL A   1      41.993  26.834  28.894  1.00  0.00     0.049 A 
ATOM     51  H   UNL A   1      41.725  27.900  30.664  1.00  0.00     0.167 HD
ATOM     52  C   UNL A   1      40.709  29.783  34.474  1.00  0.00     0.031 A 
ATOM     53  C   UNL A   1      42.922  25.884  29.130  1.00  0.00     0.031 A 
ATOM     54  C   UNL A   1      41.673  28.776  34.823  1.00  0.00     0.049 A 
ATOM     55  C   UNL A   1      43.479  25.712  30.521  1.00  0.00     0.074 A 
ATOM     56  C   UNL A   1      42.200  28.486  36.069  1.00  0.00     0.029 A 
ATOM     57  N   UNL A   1      42.263  27.902  33.924  1.00  0.00    -0.354 N 
ATOM     58  N   UNL A   1      43.159  26.347  31.625  1.00  0.00    -0.248 NA
ATOM     59  C   UNL A   1      44.510  24.679  30.700  1.00  0.00     0.031 C 
ATOM     60  C   UNL A   1      43.154  27.475  35.914  1.00  0.00     0.029 A 
ATOM     61  C   UNL A   1      43.170  27.090  34.583  1.00  0.00     0.049 A 
ATOM     62  H   UNL A   1      42.066  27.864  32.960  1.00  0.00     0.167 HD
ATOM     63  C   UNL A   1      43.921  25.761  32.634  1.00  0.00     0.074 A 
ATOM     64  C   UNL A   1      44.710  24.719  32.010  1.00  0.00     0.031 C 
ATOM     65  C   UNL A   1      43.953  26.054  33.957  1.00  0.00     0.031 A 
BRANCH  52  66
ATOM     66  C   UNL A   1      40.214  30.712  35.553  1.00  0.00    -0.014 A 
ATOM     67  C   UNL A   1      38.906  30.613  36.065  1.00  0.00     0.010 A 
ATOM     68  C   UNL A   1      41.074  31.702  36.060  1.00  0.00     0.010 A 
ATOM     69  C   UNL A   1      38.450  31.525  37.020  1.00  0.00     0.020 A 
ATOM     70  C   UNL A   1      40.631  32.597  37.038  1.00  0.00     0.020 A 
ATOM     71  C   UNL A   1      39.314  32.517  37.494  1.00  0.00     0.054 A 
BRANCH  71  72
ATOM     72  S   UNL A   1      38.695  33.698  38.725  1.00  0.00     0.124 S 
ATOM     73  O   UNL A   1      39.173  33.107  39.973  1.00  0.00    -0.237 OA
ATOM     74  O   UNL A   1      39.347  34.943  38.331  1.00  0.00    -0.237 OA
ATOM     75  O   UNL A   1      37.247  33.668  38.537  1.00  0.00    -0.744 OA
ENDBRANCH  71  72
ENDBRANCH  52  66
BRANCH  53  76
ATOM     76  C   UNL A   1      43.373  24.993  28.023  1.00  0.00    -0.014 A 
ATOM     77  C   UNL A   1      42.891  23.676  27.911  1.00  0.00     0.010 A 
ATOM     78  C   UNL A   1      44.300  25.461  27.074  1.00  0.00     0.010 A 
ATOM     79  C   UNL A   1      43.335  22.842  26.880  1.00  0.00     0.020 A 
ATOM     80  C   UNL A   1      44.726  24.639  26.026  1.00  0.00     0.020 A 
ATOM     81  C   UNL A   1      44.247  23.331  25.940  1.00  0.00     0.054 A 
BRANCH  81  82
ATOM     82  S   UNL A   1      44.764  22.252  24.575  1.00  0.00     0.124 S 
ATOM     83  O   UNL A   1      46.152  22.653  24.378  1.00  0.00    -0.237 OA
ATOM     84  O   UNL A   1      44.562  20.918  25.137  1.00  0.00    -0.237 OA
ATOM     85  O   UNL A   1      43.848  22.606  23.494  1.00  0.00    -0.744 OA
ENDBRANCH  81  82
ENDBRANCH  53  76
BRANCH  65  86
ATOM     86  C   UNL A   1      44.833  25.207  34.843  1.00  0.00    -0.014 A 
ATOM     87  C   UNL A   1      46.166  25.560  35.114  1.00  0.00     0.010 A 
ATOM     88  C   UNL A   1      44.292  24.060  35.455  1.00  0.00     0.010 A 
ATOM     89  C   UNL A   1      46.955  24.759  35.945  1.00  0.00     0.020 A 
ATOM     90  C   UNL A   1      45.067  23.273  36.311  1.00  0.00     0.020 A 
ATOM     91  C   UNL A   1      46.401  23.618  36.536  1.00  0.00     0.054 A 
BRANCH  91  92
ATOM     92  S   UNL A   1      47.436  22.607  37.630  1.00  0.00     0.124 S 
ATOM     93  O   UNL A   1      48.296  23.612  38.250  1.00  0.00    -0.237 OA
ATOM     94  O   UNL A   1      46.455  21.985  38.517  1.00  0.00    -0.237 OA
ATOM     95  O   UNL A   1      48.111  21.687  36.716  1.00  0.00    -0.744 OA
ENDBRANCH  91  92
ENDBRANCH  65  86
ENDBRANCH  39  40
ENDBRANCH  32  34
ENDBRANCH  31  32
ENDBRANCH  30  31
ENDBRANCH  29  30
ENDBRANCH   1  29
TORSDOF 22
ENDMDL
MODEL 2
REMARK VINA RESULT:      -9.9      5.751     10.169
REMARK SMILES C[C@](NC(=O)[C@](C)([NH3+])C(F)(F)F)(C(=O)OCCOCCOC(=O)c1ccc(-c2c3nc(c(-c4ccc(S(=O)(=O)[O-])cc4)c4ccc([nH]4)c(-c4ccc(S(=O)(=O)[O-])cc4)c4nc(c(-c5ccc(S(=O)(=O)[O-])cc5)c5ccc2[nH]5)C=C4)C=C3)cc1)c1ccccc1
REMARK SMILES IDX 18 1 17 2 16 3 15 4 13 5 14 6 2 7 1 8 84 9 85 10 89 11 86 12
REMARK SMILES IDX 88 13 87 14 3 15 4 16 5 18 6 19 7 20 8 21 9 25 10 26 11 27
REMARK SMILES IDX 12 28 19 29 20 30 21 31 22 32 23 33 24 34 25 35 83 36 26 37
REMARK SMILES IDX 82 38 27 39 28 40 29 41 76 42 30 43 81 44 75 45 77 46 31 47
REMARK SMILES IDX 80 48 74 49 73 50 32 52 62 53 43 54 61 55 44 56 47 57 60 58
REMARK SMILES IDX 78 59 45 60 46 61 59 63 79 64 48 65 33 66 34 67 42 68 35 69
REMARK SMILES IDX 41 70 36 71 37 72 38 73 39 74 40 75 63 76 64 77 72 78 65 79
REMARK SMILES IDX 71 80 66 81 67 82 68 83 69 84 70 85 49 86 50 87 58 88 51 89
REMARK SMILES IDX 57 90 52 91 53 92 54 93 55 94 56 95
REMARK H PARENT 3 17 8 22 8 23 8 24 77 51 47 62
REMARK Flexibility Score: inf
ROOT
ATOM      1  O   UNL A   1      33.520  29.190  26.685  1.00  0.00    -0.374 OA
ENDROOT
BRANCH   1   2
ATOM      2  C   UNL A   1      33.118  29.387  25.323  1.00  0.00     0.202 C 
BRANCH   2   3
ATOM      3  C   UNL A   1      33.876  28.538  24.290  1.00  0.00     0.261 C 
BRANCH   3   4
ATOM      4  O   UNL A   1      33.704  27.099  24.448  1.00  0.00    -0.461 OA
BRANCH   4   5
ATOM      5  C   UNL A   1      33.219  26.462  23.350  1.00  0.00     0.336 C 
ATOM      6  O   UNL A   1      32.889  27.071  22.330  1.00  0.00    -0.249 OA
BRANCH   5   7
ATOM      7  C   UNL A   1      33.084  24.878  23.444  1.00  0.00     0.161 C 
ATOM      8  C   UNL A   1      32.954  24.572  21.910  1.00  0.00     0.053 C 
BRANCH   7   9
ATOM      9  C   UNL A   1      34.414  24.268  23.977  1.00  0.00    -0.012 A 
ATOM     10  C   UNL A   1      35.264  23.531  23.131  1.00  0.00     0.007 A 
ATOM     11  C   UNL A   1      34.804  24.396  25.328  1.00  0.00     0.007 A 
ATOM     12  C   UNL A   1      36.450  22.966  23.609  1.00  0.00     0.000 A 
ATOM     13  C   UNL A   1      35.983  23.820  25.807  1.00  0.00     0.000 A 
ATOM     14  C   UNL A   1      36.807  23.107  24.946  1.00  0.00     0.000 A 
ENDBRANCH   7   9
BRANCH   7  15
ATOM     15  N   UNL A   1      31.952  24.060  24.027  1.00  0.00    -0.331 N 
ATOM     16  C   UNL A   1      31.061  24.074  25.053  1.00  0.00     0.291 C 
ATOM     17  H   UNL A   1      31.815  23.251  23.482  1.00  0.00     0.165 HD
ATOM     18  O   UNL A   1      30.741  22.951  25.463  1.00  0.00    -0.267 OA
BRANCH  16  19
ATOM     19  C   UNL A   1      30.418  25.338  25.617  1.00  0.00     0.267 C 
ATOM     20  C   UNL A   1      31.475  26.103  26.399  1.00  0.00     0.100 C 
BRANCH  19  21
ATOM     21  N   UNL A   1      29.374  25.005  26.658  1.00  0.00    -0.337 N 
ATOM     22  H   UNL A   1      28.854  25.849  26.899  1.00  0.00     0.345 HD
ATOM     23  H   UNL A   1      29.830  24.638  27.493  1.00  0.00     0.345 HD
ATOM     24  H   UNL A   1      28.732  24.306  26.286  1.00  0.00     0.345 HD
ENDBRANCH  19  21
BRANCH  19  25
ATOM     25  C   UNL A   1      29.805  26.041  24.374  1.00  0.00     0.453 C 
ATOM     26  F   UNL A   1      30.383  27.239  24.177  1.00  0.00    -0.164 F 
ATOM     27  F   UNL A   1      29.914  25.361  23.214  1.00  0.00    -0.164 F 
ATOM     28  F   UNL A   1      28.480  26.287  24.547  1.00  0.00    -0.164 F 
ENDBRANCH  19  25
ENDBRANCH  16  19
ENDBRANCH   7  15
ENDBRANCH   5   7
ENDBRANCH   4   5
ENDBRANCH   3   4
ENDBRANCH   2   3
ENDBRANCH   1   2
BRANCH   1  29
ATOM     29  C   UNL A   1      33.672  30.383  27.446  1.00  0.00     0.202 C 
BRANCH  29  30
ATOM     30  C   UNL A   1      35.122  30.846  27.666  1.00  0.00     0.261 C 
BRANCH  30  31
ATOM     31  O   UNL A   1      36.035  29.736  27.592  1.00  0.00    -0.460 OA
BRANCH  31  32
ATOM     32  C   UNL A   1      36.833  29.588  28.678  1.00  0.00     0.338 C 
ATOM     33  O   UNL A   1      36.486  29.687  29.835  1.00  0.00    -0.246 OA
BRANCH  32  34
ATOM     34  C   UNL A   1      38.178  29.085  28.291  1.00  0.00     0.060 A 
ATOM     35  C   UNL A   1      38.829  28.308  29.254  1.00  0.00     0.016 A 
ATOM     36  C   UNL A   1      38.821  29.372  27.084  1.00  0.00     0.016 A 
ATOM     37  C   UNL A   1      40.157  27.936  29.077  1.00  0.00     0.010 A 
ATOM     38  C   UNL A   1      40.153  28.962  26.889  1.00  0.00     0.010 A 
ATOM     39  C   UNL A   1      40.857  28.320  27.926  1.00  0.00    -0.014 A 
BRANCH  39  40
ATOM     40  C   UNL A   1      42.346  28.256  27.979  1.00  0.00     0.031 A 
ATOM     41  C   UNL A   1      43.041  27.052  27.383  1.00  0.00     0.074 A 
ATOM     42  C   UNL A   1      43.082  29.319  28.362  1.00  0.00     0.049 A 
ATOM     43  N   UNL A   1      44.306  26.888  27.082  1.00  0.00    -0.248 NA
ATOM     44  C   UNL A   1      42.201  25.884  27.076  1.00  0.00     0.031 C 
ATOM     45  C   UNL A   1      42.548  30.562  28.920  1.00  0.00     0.029 A 
ATOM     46  N   UNL A   1      44.438  29.540  28.292  1.00  0.00    -0.354 N 
ATOM     47  C   UNL A   1      44.406  25.607  26.549  1.00  0.00     0.074 A 
ATOM     48  C   UNL A   1      43.089  25.018  26.617  1.00  0.00     0.031 C 
ATOM     49  C   UNL A   1      43.558  31.432  29.095  1.00  0.00     0.029 A 
ATOM     50  C   UNL A   1      44.814  30.806  28.680  1.00  0.00     0.049 A 
ATOM     51  H   UNL A   1      45.079  28.857  27.992  1.00  0.00     0.167 HD
ATOM     52  C   UNL A   1      45.484  24.975  26.028  1.00  0.00     0.031 A 
ATOM     53  C   UNL A   1      46.023  31.404  28.680  1.00  0.00     0.031 A 
ATOM     54  C   UNL A   1      46.801  25.546  25.957  1.00  0.00     0.049 A 
ATOM     55  C   UNL A   1      47.223  30.664  28.146  1.00  0.00     0.074 A 
ATOM     56  C   UNL A   1      47.953  24.989  25.430  1.00  0.00     0.029 A 
ATOM     57  N   UNL A   1      47.145  26.799  26.438  1.00  0.00    -0.354 N 
ATOM     58  N   UNL A   1      47.285  29.470  27.603  1.00  0.00    -0.248 NA
ATOM     59  C   UNL A   1      48.515  31.364  28.205  1.00  0.00     0.031 C 
ATOM     60  C   UNL A   1      49.007  25.882  25.645  1.00  0.00     0.029 A 
ATOM     61  C   UNL A   1      48.498  27.023  26.244  1.00  0.00     0.049 A 
ATOM     62  H   UNL A   1      46.521  27.436  26.855  1.00  0.00     0.167 HD
ATOM     63  C   UNL A   1      48.614  29.295  27.222  1.00  0.00     0.074 A 
ATOM     64  C   UNL A   1      49.317  30.506  27.590  1.00  0.00     0.031 C 
ATOM     65  C   UNL A   1      49.193  28.231  26.612  1.00  0.00     0.031 A 
BRANCH  52  66
ATOM     66  C   UNL A   1      45.282  23.567  25.529  1.00  0.00    -0.014 A 
ATOM     67  C   UNL A   1      45.672  22.452  26.296  1.00  0.00     0.010 A 
ATOM     68  C   UNL A   1      44.693  23.358  24.270  1.00  0.00     0.010 A 
ATOM     69  C   UNL A   1      45.532  21.159  25.785  1.00  0.00     0.020 A 
ATOM     70  C   UNL A   1      44.522  22.064  23.769  1.00  0.00     0.020 A 
ATOM     71  C   UNL A   1      44.965  20.975  24.521  1.00  0.00     0.054 A 
BRANCH  71  72
ATOM     72  S   UNL A   1      44.804  19.287  23.874  1.00  0.00     0.124 S 
ATOM     73  O   UNL A   1      46.087  18.698  24.252  1.00  0.00    -0.237 OA
ATOM     74  O   UNL A   1      43.642  18.777  24.596  1.00  0.00    -0.237 OA
ATOM     75  O   UNL A   1      44.608  19.482  22.440  1.00  0.00    -0.744 OA
ENDBRANCH  71  72
ENDBRANCH  52  66
BRANCH  53  76
ATOM     76  C   UNL A   1      46.162  32.800  29.185  1.00  0.00    -0.014 A 
ATOM     77  C   UNL A   1      46.036  33.899  28.316  1.00  0.00     0.010 A 
ATOM     78  C   UNL A   1      46.432  33.035  30.545  1.00  0.00     0.010 A 
ATOM     79  C   UNL A   1      46.187  35.205  28.795  1.00  0.00     0.020 A 
ATOM     80  C   UNL A   1      46.558  34.340  31.034  1.00  0.00     0.020 A 
ATOM     81  C   UNL A   1      46.443  35.416  30.153  1.00  0.00     0.054 A 
BRANCH  81  82
ATOM     82  S   UNL A   1      46.576  37.120  30.765  1.00  0.00     0.124 S 
ATOM     83  O   UNL A   1      47.685  37.643  29.975  1.00  0.00    -0.237 OA
ATOM     84  O   UNL A   1      45.259  37.670  30.452  1.00  0.00    -0.237 OA
ATOM     85  O   UNL A   1      46.846  36.951  32.191  1.00  0.00    -0.744 OA
ENDBRANCH  81  82
ENDBRANCH  53  76
BRANCH  65  86
ATOM     86  C   UNL A   1      50.654  28.337  26.252  1.00  0.00    -0.014 A 
ATOM     87  C   UNL A   1      51.667  28.030  27.177  1.00  0.00     0.010 A 
ATOM     88  C   UNL A   1      51.014  28.705  24.942  1.00  0.00     0.010 A 
ATOM     89  C   UNL A   1      53.013  28.131  26.812  1.00  0.00     0.020 A 
ATOM     90  C   UNL A   1      52.357  28.778  24.563  1.00  0.00     0.020 A 
ATOM     91  C   UNL A   1      53.349  28.508  25.507  1.00  0.00     0.054 A 
BRANCH  91  92
ATOM     92  S   UNL A   1      55.102  28.609  25.048  1.00  0.00     0.124 S 
ATOM     93  O   UNL A   1      55.271  27.411  24.229  1.00  0.00    -0.237 OA
ATOM     94  O   UNL A   1      55.173  29.878  24.328  1.00  0.00    -0.237 OA
ATOM     95  O   UNL A   1      55.799  28.589  26.333  1.00  0.00    -0.744 OA
ENDBRANCH  91  92
ENDBRANCH  65  86
ENDBRANCH  39  40
ENDBRANCH  32  34
ENDBRANCH  31  32
ENDBRANCH  30  31
ENDBRANCH  29  30
ENDBRANCH   1  29
TORSDOF 22
ENDMDL
MODEL 3
REMARK VINA RESULT:      -9.7      1.591      2.613
REMARK SMILES C[C@](NC(=O)[C@](C)([NH3+])C(F)(F)F)(C(=O)OCCOCCOC(=O)c1ccc(-c2c3nc(c(-c4ccc(S(=O)(=O)[O-])cc4)c4ccc([nH]4)c(-c4ccc(S(=O)(=O)[O-])cc4)c4nc(c(-c5ccc(S(=O)(=O)[O-])cc5)c5ccc2[nH]5)C=C4)C=C3)cc1)c1ccccc1
REMARK SMILES IDX 18 1 17 2 16 3 15 4 13 5 14 6 2 7 1 8 84 9 85 10 89 11 86 12
REMARK SMILES IDX 88 13 87 14 3 15 4 16 5 18 6 19 7 20 8 21 9 25 10 26 11 27
REMARK SMILES IDX 12 28 19 29 20 30 21 31 22 32 23 33 24 34 25 35 83 36 26 37
REMARK SMILES IDX 82 38 27 39 28 40 29 41 76 42 30 43 81 44 75 45 77 46 31 47
REMARK SMILES IDX 80 48 74 49 73 50 32 52 62 53 43 54 61 55 44 56 47 57 60 58
REMARK SMILES IDX 78 59 45 60 46 61 59 63 79 64 48 65 33 66 34 67 42 68 35 69
REMARK SMILES IDX 41 70 36 71 37 72 38 73 39 74 40 75 63 76 64 77 72 78 65 79
REMARK SMILES IDX 71 80 66 81 67 82 68 83 69 84 70 85 49 86 50 87 58 88 51 89
REMARK SMILES IDX 57 90 52 91 53 92 54 93 55 94 56 95
REMARK H PARENT 3 17 8 22 8 23 8 24 77 51 47 62
REMARK Flexibility Score: inf
ROOT
ATOM      1  O   UNL A   1      31.971  27.638  25.551  1.00  0.00    -0.374 OA
ENDROOT
BRANCH   1   2
ATOM      2  C   UNL A   1      31.891  26.587  26.523  1.00  0.00     0.202 C 
BRANCH   2   3
ATOM      3  C   UNL A   1      31.393  25.236  25.983  1.00  0.00     0.261 C 
BRANCH   3   4
ATOM      4  O   UNL A   1      31.906  24.074  26.698  1.00  0.00    -0.461 OA
BRANCH   4   5
ATOM      5  C   UNL A   1      31.818  22.903  26.015  1.00  0.00     0.336 C 
ATOM      6  O   UNL A   1      30.750  22.301  25.878  1.00  0.00    -0.249 OA
BRANCH   5   7
ATOM      7  C   UNL A   1      33.171  22.330  25.401  1.00  0.00     0.161 C 
ATOM      8  C   UNL A   1      34.036  22.346  26.710  1.00  0.00     0.053 C 
BRANCH   7   9
ATOM      9  C   UNL A   1      32.958  20.857  24.945  1.00  0.00    -0.012 A 
ATOM     10  C   UNL A   1      32.553  20.556  23.631  1.00  0.00     0.007 A 
ATOM     11  C   UNL A   1      33.125  19.770  25.830  1.00  0.00     0.007 A 
ATOM     12  C   UNL A   1      32.342  19.236  23.221  1.00  0.00     0.000 A 
ATOM     13  C   UNL A   1      32.902  18.453  25.423  1.00  0.00     0.000 A 
ATOM     14  C   UNL A   1      32.513  18.186  24.117  1.00  0.00     0.000 A 
ENDBRANCH   7   9
BRANCH   7  15
ATOM     15  N   UNL A   1      34.102  22.979  24.398  1.00  0.00    -0.331 N 
ATOM     16  C   UNL A   1      34.123  23.425  23.115  1.00  0.00     0.291 C 
ATOM     17  H   UNL A   1      34.983  23.126  24.813  1.00  0.00     0.165 HD
ATOM     18  O   UNL A   1      35.226  23.333  22.563  1.00  0.00    -0.267 OA
BRANCH  16  19
ATOM     19  C   UNL A   1      32.936  24.078  22.412  1.00  0.00     0.267 C 
ATOM     20  C   UNL A   1      31.658  23.461  22.961  1.00  0.00     0.100 C 
BRANCH  19  21
ATOM     21  N   UNL A   1      32.903  23.721  20.944  1.00  0.00    -0.337 N 
ATOM     22  H   UNL A   1      31.957  23.442  20.683  1.00  0.00     0.345 HD
ATOM     23  H   UNL A   1      33.545  22.948  20.767  1.00  0.00     0.345 HD
ATOM     24  H   UNL A   1      33.183  24.530  20.390  1.00  0.00     0.345 HD
ENDBRANCH  19  21
BRANCH  19  25
ATOM     25  C   UNL A   1      33.146  25.600  22.641  1.00  0.00     0.453 C 
ATOM     26  F   UNL A   1      33.877  25.814  23.750  1.00  0.00    -0.164 F 
ATOM     27  F   UNL A   1      33.764  26.255  21.636  1.00  0.00    -0.164 F 
ATOM     28  F   UNL A   1      31.964  26.239  22.842  1.00  0.00    -0.164 F 
ENDBRANCH  19  25
ENDBRANCH  16  19
ENDBRANCH   7  15
ENDBRANCH   5   7
ENDBRANCH   4   5
ENDBRANCH   3   4
ENDBRANCH   2   3
ENDBRANCH   1   2
BRANCH   1  29
ATOM     29  C   UNL A   1      33.159  28.421  25.609  1.00  0.00     0.202 C 
BRANCH  29  30
ATOM     30  C   UNL A   1      33.010  29.800  26.271  1.00  0.00     0.261 C 
BRANCH  30  31
ATOM     31  O   UNL A   1      33.756  29.866  27.500  1.00  0.00    -0.460 OA
BRANCH  31  32
ATOM     32  C   UNL A   1      34.460  31.012  27.673  1.00  0.00     0.338 C 
ATOM     33  O   UNL A   1      33.994  32.127  27.761  1.00  0.00    -0.246 OA
BRANCH  32  34
ATOM     34  C   UNL A   1      35.895  30.725  27.943  1.00  0.00     0.060 A 
ATOM     35  C   UNL A   1      36.250  29.374  27.931  1.00  0.00     0.016 A 
ATOM     36  C   UNL A   1      36.859  31.692  28.242  1.00  0.00     0.016 A 
ATOM     37  C   UNL A   1      37.517  28.976  28.345  1.00  0.00     0.010 A 
ATOM     38  C   UNL A   1      38.153  31.290  28.624  1.00  0.00     0.010 A 
ATOM     39  C   UNL A   1      38.459  29.924  28.766  1.00  0.00    -0.014 A 
BRANCH  39  40
ATOM     40  C   UNL A   1      39.614  29.429  29.570  1.00  0.00     0.031 A 
ATOM     41  C   UNL A   1      39.677  29.784  31.039  1.00  0.00     0.074 A 
ATOM     42  C   UNL A   1      40.481  28.526  29.071  1.00  0.00     0.049 A 
ATOM     43  N   UNL A   1      40.425  29.271  31.985  1.00  0.00    -0.248 NA
ATOM     44  C   UNL A   1      38.775  30.847  31.506  1.00  0.00     0.031 C 
ATOM     45  C   UNL A   1      40.516  28.060  27.685  1.00  0.00     0.029 A 
ATOM     46  N   UNL A   1      41.471  27.800  29.692  1.00  0.00    -0.354 N 
ATOM     47  C   UNL A   1      40.078  29.945  33.151  1.00  0.00     0.074 A 
ATOM     48  C   UNL A   1      39.094  30.938  32.787  1.00  0.00     0.031 C 
ATOM     49  C   UNL A   1      41.443  27.093  27.571  1.00  0.00     0.029 A 
ATOM     50  C   UNL A   1      42.082  26.881  28.871  1.00  0.00     0.049 A 
ATOM     51  H   UNL A   1      41.719  27.926  30.636  1.00  0.00     0.167 HD
ATOM     52  C   UNL A   1      40.513  29.751  34.419  1.00  0.00     0.031 A 
ATOM     53  C   UNL A   1      43.030  25.957  29.134  1.00  0.00     0.031 A 
ATOM     54  C   UNL A   1      41.494  28.771  34.796  1.00  0.00     0.049 A 
ATOM     55  C   UNL A   1      43.543  25.792  30.542  1.00  0.00     0.074 A 
ATOM     56  C   UNL A   1      41.985  28.488  36.058  1.00  0.00     0.029 A 
ATOM     57  N   UNL A   1      42.141  27.921  33.913  1.00  0.00    -0.354 N 
ATOM     58  N   UNL A   1      43.165  26.409  31.638  1.00  0.00    -0.248 NA
ATOM     59  C   UNL A   1      44.597  24.789  30.751  1.00  0.00     0.031 C 
ATOM     60  C   UNL A   1      42.974  27.507  35.931  1.00  0.00     0.029 A 
ATOM     61  C   UNL A   1      43.048  27.131  34.599  1.00  0.00     0.049 A 
ATOM     62  H   UNL A   1      41.980  27.884  32.943  1.00  0.00     0.167 HD
ATOM     63  C   UNL A   1      43.908  25.839  32.670  1.00  0.00     0.074 A 
ATOM     64  C   UNL A   1      44.750  24.826  32.068  1.00  0.00     0.031 C 
ATOM     65  C   UNL A   1      43.884  26.124  33.995  1.00  0.00     0.031 A 
BRANCH  52  66
ATOM     66  C   UNL A   1      39.952  30.656  35.485  1.00  0.00    -0.014 A 
ATOM     67  C   UNL A   1      38.676  30.438  36.039  1.00  0.00     0.010 A 
ATOM     68  C   UNL A   1      40.716  31.747  35.936  1.00  0.00     0.010 A 
ATOM     69  C   UNL A   1      38.153  31.327  36.981  1.00  0.00     0.020 A 
ATOM     70  C   UNL A   1      40.208  32.622  36.901  1.00  0.00     0.020 A 
ATOM     71  C   UNL A   1      38.920  32.419  37.400  1.00  0.00     0.054 A 
BRANCH  71  72
ATOM     72  S   UNL A   1      38.214  33.567  38.614  1.00  0.00     0.124 S 
ATOM     73  O   UNL A   1      38.845  33.118  39.853  1.00  0.00    -0.237 OA
ATOM     74  O   UNL A   1      38.655  34.868  38.120  1.00  0.00    -0.237 OA
ATOM     75  O   UNL A   1      36.776  33.324  38.526  1.00  0.00    -0.744 OA
ENDBRANCH  71  72
ENDBRANCH  52  66
BRANCH  53  76
ATOM     76  C   UNL A   1      43.547  25.088  28.038  1.00  0.00    -0.014 A 
ATOM     77  C   UNL A   1      44.635  25.495  27.244  1.00  0.00     0.010 A 
ATOM     78  C   UNL A   1      42.943  23.845  27.779  1.00  0.00     0.010 A 
ATOM     79  C   UNL A   1      45.100  24.681  26.205  1.00  0.00     0.020 A 
ATOM     80  C   UNL A   1      43.422  23.016  26.759  1.00  0.00     0.020 A 
ATOM     81  C   UNL A   1      44.493  23.443  25.973  1.00  0.00     0.054 A 
BRANCH  81  82
ATOM     82  S   UNL A   1      45.151  22.376  24.660  1.00  0.00     0.124 S 
ATOM     83  O   UNL A   1      44.090  21.386  24.511  1.00  0.00    -0.237 OA
ATOM     84  O   UNL A   1      45.309  23.309  23.548  1.00  0.00    -0.237 OA
ATOM     85  O   UNL A   1      46.403  21.874  25.223  1.00  0.00    -0.744 OA
ENDBRANCH  81  82
ENDBRANCH  53  76
BRANCH  65  86
ATOM     86  C   UNL A   1      44.757  25.298  34.907  1.00  0.00    -0.014 A 
ATOM     87  C   UNL A   1      44.304  24.092  35.470  1.00  0.00     0.010 A 
ATOM     88  C   UNL A   1      46.077  25.717  35.162  1.00  0.00     0.010 A 
ATOM     89  C   UNL A   1      45.139  23.344  36.307  1.00  0.00     0.020 A 
ATOM     90  C   UNL A   1      46.925  24.958  35.972  1.00  0.00     0.020 A 
ATOM     91  C   UNL A   1      46.444  23.784  36.554  1.00  0.00     0.054 A 
BRANCH  91  92
ATOM     92  S   UNL A   1      47.517  22.785  37.623  1.00  0.00     0.124 S 
ATOM     93  O   UNL A   1      48.382  23.800  38.219  1.00  0.00    -0.237 OA
ATOM     94  O   UNL A   1      46.566  22.155  38.536  1.00  0.00    -0.237 OA
ATOM     95  O   UNL A   1      48.178  21.870  36.693  1.00  0.00    -0.744 OA
ENDBRANCH  91  92
ENDBRANCH  65  86
ENDBRANCH  39  40
ENDBRANCH  32  34
ENDBRANCH  31  32
ENDBRANCH  30  31
ENDBRANCH  29  30
ENDBRANCH   1  29
TORSDOF 22
ENDMDL
