MODEL 1
REMARK VINA RESULT:     -10.4      0.000      0.000
REMARK SMILES C/C(C(=O)OCCOCCOC(=O)c1ccc(-c2c3nc(c(-c4ccc(S(=O)(=O)[O-])cc4)c4ccc([nH]4)c(-c4ccc(S(=O)(=O)[O-])cc4)c4nc(c(-c5ccc(S(=O)(=O)[O-])cc5)c5ccc2[nH]5)C=C4)C=C3)cc1)=C(\C)c1ccc(C)c(F)c1
REMARK SMILES IDX 9 1 8 2 7 3 6 4 5 5 3 6 4 7 2 8 1 9 74 10 75 11 76 12 77 13
REMARK SMILES IDX 83 14 78 15 81 16 79 17 82 18 80 19 10 20 11 21 12 22 13 23
REMARK SMILES IDX 14 24 15 25 73 26 16 27 72 28 17 29 18 30 19 31 66 32 20 33
REMARK SMILES IDX 71 34 65 35 67 36 21 37 70 38 64 39 63 40 22 42 52 43 33 44
REMARK SMILES IDX 51 45 34 46 37 47 50 48 68 49 35 50 36 51 49 53 69 54 38 55
REMARK SMILES IDX 23 56 24 57 32 58 25 59 31 60 26 61 27 62 28 63 29 64 30 65
REMARK SMILES IDX 53 66 54 67 62 68 55 69 61 70 56 71 57 72 58 73 59 74 60 75
REMARK SMILES IDX 39 76 40 77 48 78 41 79 47 80 42 81 43 82 44 83 45 84 46 85
REMARK H PARENT 67 41 37 52
REMARK Flexibility Score: inf
ROOT
ATOM      1  C   UNL A   1      39.324  22.238  26.636  1.00  0.00     0.202 C 
ENDROOT
BRANCH   1   2
ATOM      2  O   UNL A   1      38.421  21.819  25.622  1.00  0.00    -0.374 OA
BRANCH   2   3
ATOM      3  C   UNL A   1      37.427  22.754  25.191  1.00  0.00     0.202 C 
BRANCH   3   4
ATOM      4  C   UNL A   1      36.011  22.570  25.741  1.00  0.00     0.261 C 
BRANCH   4   5
ATOM      5  O   UNL A   1      35.658  21.173  25.743  1.00  0.00    -0.460 OA
BRANCH   5   6
ATOM      6  C   UNL A   1      34.343  20.894  25.934  1.00  0.00     0.334 C 
ATOM      7  O   UNL A   1      33.679  21.187  26.914  1.00  0.00    -0.247 OA
BRANCH   6   8
ATOM      8  C   UNL A   1      33.803  20.167  24.744  1.00  0.00     0.038 C 
ATOM      9  C   UNL A   1      34.258  18.741  24.593  1.00  0.00     0.052 C 
ATOM     10  C   UNL A   1      32.939  20.772  23.891  1.00  0.00    -0.034 C 
ATOM     11  C   UNL A   1      32.197  20.064  22.788  1.00  0.00     0.045 C 
BRANCH  10  12
ATOM     12  C   UNL A   1      32.670  22.227  23.922  1.00  0.00    -0.019 A 
ATOM     13  C   UNL A   1      31.594  22.772  24.630  1.00  0.00     0.009 A 
ATOM     14  C   UNL A   1      33.520  23.088  23.221  1.00  0.00     0.048 A 
ATOM     15  C   UNL A   1      31.418  24.161  24.694  1.00  0.00     0.007 A 
ATOM     16  C   UNL A   1      33.357  24.466  23.313  1.00  0.00     0.126 A 
ATOM     17  C   UNL A   1      32.328  25.025  24.069  1.00  0.00    -0.015 A 
ATOM     18  F   UNL A   1      34.227  25.260  22.670  1.00  0.00    -0.207 F 
ATOM     19  C   UNL A   1      32.184  26.512  24.177  1.00  0.00     0.047 C 
ENDBRANCH  10  12
ENDBRANCH   6   8
ENDBRANCH   5   6
ENDBRANCH   4   5
ENDBRANCH   3   4
ENDBRANCH   2   3
ENDBRANCH   1   2
BRANCH   1  20
ATOM     20  C   UNL A   1      40.325  23.360  26.315  1.00  0.00     0.261 C 
BRANCH  20  21
ATOM     21  O   UNL A   1      39.755  24.668  26.288  1.00  0.00    -0.460 OA
BRANCH  21  22
ATOM     22  C   UNL A   1      40.686  25.648  26.196  1.00  0.00     0.338 C 
ATOM     23  O   UNL A   1      41.310  25.989  25.200  1.00  0.00    -0.246 OA
BRANCH  22  24
ATOM     24  C   UNL A   1      40.742  26.382  27.466  1.00  0.00     0.060 A 
ATOM     25  C   UNL A   1      39.745  26.110  28.408  1.00  0.00     0.016 A 
ATOM     26  C   UNL A   1      41.722  27.347  27.711  1.00  0.00     0.016 A 
ATOM     27  C   UNL A   1      39.690  26.850  29.583  1.00  0.00     0.010 A 
ATOM     28  C   UNL A   1      41.663  28.090  28.893  1.00  0.00     0.010 A 
ATOM     29  C   UNL A   1      40.622  27.871  29.811  1.00  0.00    -0.014 A 
BRANCH  29  30
ATOM     30  C   UNL A   1      40.401  28.790  30.951  1.00  0.00     0.031 A 
ATOM     31  C   UNL A   1      41.285  28.677  32.162  1.00  0.00     0.074 A 
ATOM     32  C   UNL A   1      39.476  29.762  30.862  1.00  0.00     0.049 A 
ATOM     33  N   UNL A   1      41.329  29.435  33.227  1.00  0.00    -0.248 NA
ATOM     34  C   UNL A   1      42.250  27.564  32.176  1.00  0.00     0.031 C 
ATOM     35  C   UNL A   1      38.585  29.979  29.722  1.00  0.00     0.029 A 
ATOM     36  N   UNL A   1      39.150  30.763  31.741  1.00  0.00    -0.354 N 
ATOM     37  C   UNL A   1      42.324  28.895  34.034  1.00  0.00     0.074 A 
ATOM     38  C   UNL A   1      42.829  27.721  33.357  1.00  0.00     0.031 C 
ATOM     39  C   UNL A   1      37.823  31.060  29.964  1.00  0.00     0.029 A 
ATOM     40  C   UNL A   1      38.155  31.593  31.283  1.00  0.00     0.049 A 
ATOM     41  H   UNL A   1      39.586  30.875  32.616  1.00  0.00     0.167 HD
ATOM     42  C   UNL A   1      42.784  29.346  35.226  1.00  0.00     0.031 A 
ATOM     43  C   UNL A   1      37.579  32.663  31.865  1.00  0.00     0.031 A 
ATOM     44  C   UNL A   1      42.263  30.507  35.898  1.00  0.00     0.049 A 
ATOM     45  C   UNL A   1      38.076  33.114  33.212  1.00  0.00     0.074 A 
ATOM     46  C   UNL A   1      42.663  31.056  37.104  1.00  0.00     0.029 A 
ATOM     47  N   UNL A   1      41.224  31.295  35.426  1.00  0.00    -0.354 N 
ATOM     48  N   UNL A   1      39.037  32.610  33.950  1.00  0.00    -0.248 NA
ATOM     49  C   UNL A   1      37.422  34.292  33.795  1.00  0.00     0.031 C 
ATOM     50  C   UNL A   1      41.825  32.141  37.389  1.00  0.00     0.029 A 
ATOM     51  C   UNL A   1      40.952  32.312  36.326  1.00  0.00     0.049 A 
ATOM     52  H   UNL A   1      40.750  31.154  34.575  1.00  0.00     0.167 HD
ATOM     53  C   UNL A   1      39.124  33.429  35.071  1.00  0.00     0.074 A 
ATOM     54  C   UNL A   1      38.133  34.472  34.899  1.00  0.00     0.031 C 
ATOM     55  C   UNL A   1      39.949  33.332  36.145  1.00  0.00     0.031 A 
BRANCH  42  56
ATOM     56  C   UNL A   1      43.884  28.559  35.891  1.00  0.00    -0.014 A 
ATOM     57  C   UNL A   1      43.598  27.488  36.758  1.00  0.00     0.010 A 
ATOM     58  C   UNL A   1      45.228  28.873  35.616  1.00  0.00     0.010 A 
ATOM     59  C   UNL A   1      44.634  26.770  37.364  1.00  0.00     0.020 A 
ATOM     60  C   UNL A   1      46.267  28.138  36.197  1.00  0.00     0.020 A 
ATOM     61  C   UNL A   1      45.963  27.101  37.079  1.00  0.00     0.054 A 
BRANCH  61  62
ATOM     62  S   UNL A   1      47.286  26.133  37.856  1.00  0.00     0.124 S 
ATOM     63  O   UNL A   1      46.641  25.670  39.082  1.00  0.00    -0.237 OA
ATOM     64  O   UNL A   1      47.554  25.100  36.858  1.00  0.00    -0.237 OA
ATOM     65  O   UNL A   1      48.361  27.104  38.047  1.00  0.00    -0.744 OA
ENDBRANCH  61  62
ENDBRANCH  42  56
BRANCH  43  66
ATOM     66  C   UNL A   1      36.473  33.380  31.174  1.00  0.00    -0.014 A 
ATOM     67  C   UNL A   1      35.219  33.545  31.790  1.00  0.00     0.010 A 
ATOM     68  C   UNL A   1      36.671  33.904  29.882  1.00  0.00     0.010 A 
ATOM     69  C   UNL A   1      34.180  34.198  31.120  1.00  0.00     0.020 A 
ATOM     70  C   UNL A   1      35.646  34.585  29.223  1.00  0.00     0.020 A 
ATOM     71  C   UNL A   1      34.402  34.717  29.841  1.00  0.00     0.054 A 
BRANCH  71  72
ATOM     72  S   UNL A   1      33.054  35.601  29.008  1.00  0.00     0.124 S 
ATOM     73  O   UNL A   1      32.444  34.543  28.210  1.00  0.00    -0.237 OA
ATOM     74  O   UNL A   1      32.258  36.090  30.131  1.00  0.00    -0.237 OA
ATOM     75  O   UNL A   1      33.747  36.640  28.247  1.00  0.00    -0.744 OA
ENDBRANCH  71  72
ENDBRANCH  43  66
BRANCH  55  76
ATOM     76  C   UNL A   1      39.834  34.407  37.196  1.00  0.00    -0.014 A 
ATOM     77  C   UNL A   1      39.111  34.200  38.385  1.00  0.00     0.010 A 
ATOM     78  C   UNL A   1      40.466  35.647  36.987  1.00  0.00     0.010 A 
ATOM     79  C   UNL A   1      38.966  35.235  39.312  1.00  0.00     0.020 A 
ATOM     80  C   UNL A   1      40.353  36.672  37.929  1.00  0.00     0.020 A 
ATOM     81  C   UNL A   1      39.580  36.467  39.073  1.00  0.00     0.054 A 
BRANCH  81  82
ATOM     82  S   UNL A   1      39.365  37.800  40.284  1.00  0.00     0.124 S 
ATOM     83  O   UNL A   1      38.994  37.059  41.486  1.00  0.00    -0.237 OA
ATOM     84  O   UNL A   1      40.685  38.425  40.312  1.00  0.00    -0.237 OA
ATOM     85  O   UNL A   1      38.304  38.625  39.708  1.00  0.00    -0.744 OA
ENDBRANCH  81  82
ENDBRANCH  55  76
ENDBRANCH  29  30
ENDBRANCH  22  24
ENDBRANCH  21  22
ENDBRANCH  20  21
ENDBRANCH   1  20
TORSDOF 18
ENDMDL
MODEL 2
REMARK VINA RESULT:     -10.4      6.333      8.632
REMARK SMILES C/C(C(=O)OCCOCCOC(=O)c1ccc(-c2c3nc(c(-c4ccc(S(=O)(=O)[O-])cc4)c4ccc([nH]4)c(-c4ccc(S(=O)(=O)[O-])cc4)c4nc(c(-c5ccc(S(=O)(=O)[O-])cc5)c5ccc2[nH]5)C=C4)C=C3)cc1)=C(\C)c1ccc(C)c(F)c1
REMARK SMILES IDX 9 1 8 2 7 3 6 4 5 5 3 6 4 7 2 8 1 9 74 10 75 11 76 12 77 13
REMARK SMILES IDX 83 14 78 15 81 16 79 17 82 18 80 19 10 20 11 21 12 22 13 23
REMARK SMILES IDX 14 24 15 25 73 26 16 27 72 28 17 29 18 30 19 31 66 32 20 33
REMARK SMILES IDX 71 34 65 35 67 36 21 37 70 38 64 39 63 40 22 42 52 43 33 44
REMARK SMILES IDX 51 45 34 46 37 47 50 48 68 49 35 50 36 51 49 53 69 54 38 55
REMARK SMILES IDX 23 56 24 57 32 58 25 59 31 60 26 61 27 62 28 63 29 64 30 65
REMARK SMILES IDX 53 66 54 67 62 68 55 69 61 70 56 71 57 72 58 73 59 74 60 75
REMARK SMILES IDX 39 76 40 77 48 78 41 79 47 80 42 81 43 82 44 83 45 84 46 85
REMARK H PARENT 67 41 37 52
REMARK Flexibility Score: inf
ROOT
ATOM      1  C   UNL A   1      37.811  20.122  24.867  1.00  0.00     0.202 C 
ENDROOT
BRANCH   1   2
ATOM      2  O   UNL A   1      37.283  21.291  25.481  1.00  0.00    -0.374 OA
BRANCH   2   3
ATOM      3  C   UNL A   1      37.384  22.522  24.759  1.00  0.00     0.202 C 
BRANCH   3   4
ATOM      4  C   UNL A   1      36.706  22.585  23.388  1.00  0.00     0.261 C 
BRANCH   4   5
ATOM      5  O   UNL A   1      35.869  23.754  23.303  1.00  0.00    -0.460 OA
BRANCH   5   6
ATOM      6  C   UNL A   1      34.536  23.522  23.184  1.00  0.00     0.334 C 
ATOM      7  O   UNL A   1      33.953  23.172  22.171  1.00  0.00    -0.247 OA
BRANCH   6   8
ATOM      8  C   UNL A   1      33.865  23.750  24.500  1.00  0.00     0.038 C 
ATOM      9  C   UNL A   1      34.067  25.112  25.105  1.00  0.00     0.052 C 
ATOM     10  C   UNL A   1      33.105  22.781  25.071  1.00  0.00    -0.034 C 
ATOM     11  C   UNL A   1      32.239  22.986  26.287  1.00  0.00     0.045 C 
BRANCH  10  12
ATOM     12  C   UNL A   1      33.089  21.384  24.584  1.00  0.00    -0.019 A 
ATOM     13  C   UNL A   1      32.126  20.919  23.683  1.00  0.00     0.009 A 
ATOM     14  C   UNL A   1      34.071  20.497  25.038  1.00  0.00     0.048 A 
ATOM     15  C   UNL A   1      32.191  19.609  23.189  1.00  0.00     0.007 A 
ATOM     16  C   UNL A   1      34.146  19.208  24.522  1.00  0.00     0.126 A 
ATOM     17  C   UNL A   1      33.232  18.753  23.574  1.00  0.00    -0.015 A 
ATOM     18  F   UNL A   1      35.135  18.404  24.942  1.00  0.00    -0.207 F 
ATOM     19  C   UNL A   1      33.345  17.369  23.010  1.00  0.00     0.047 C 
ENDBRANCH  10  12
ENDBRANCH   6   8
ENDBRANCH   5   6
ENDBRANCH   4   5
ENDBRANCH   3   4
ENDBRANCH   2   3
ENDBRANCH   1   2
BRANCH   1  20
ATOM     20  C   UNL A   1      39.084  19.491  25.455  1.00  0.00     0.261 C 
BRANCH  20  21
ATOM     21  O   UNL A   1      39.888  20.389  26.218  1.00  0.00    -0.460 OA
BRANCH  21  22
ATOM     22  C   UNL A   1      41.200  20.052  26.221  1.00  0.00     0.338 C 
ATOM     23  O   UNL A   1      41.689  18.966  25.942  1.00  0.00    -0.246 OA
BRANCH  22  24
ATOM     24  C   UNL A   1      42.006  21.254  26.467  1.00  0.00     0.060 A 
ATOM     25  C   UNL A   1      42.348  21.538  27.792  1.00  0.00     0.016 A 
ATOM     26  C   UNL A   1      42.381  22.109  25.427  1.00  0.00     0.016 A 
ATOM     27  C   UNL A   1      43.020  22.716  28.091  1.00  0.00     0.010 A 
ATOM     28  C   UNL A   1      43.055  23.294  25.730  1.00  0.00     0.010 A 
ATOM     29  C   UNL A   1      43.339  23.619  27.068  1.00  0.00    -0.014 A 
BRANCH  29  30
ATOM     30  C   UNL A   1      43.841  24.962  27.439  1.00  0.00     0.031 A 
ATOM     31  C   UNL A   1      45.288  25.293  27.197  1.00  0.00     0.074 A 
ATOM     32  C   UNL A   1      42.992  25.893  27.908  1.00  0.00     0.049 A 
ATOM     33  N   UNL A   1      45.914  26.430  27.358  1.00  0.00    -0.248 NA
ATOM     34  C   UNL A   1      46.144  24.200  26.705  1.00  0.00     0.031 C 
ATOM     35  C   UNL A   1      41.564  25.686  28.154  1.00  0.00     0.029 A 
ATOM     36  N   UNL A   1      43.205  27.205  28.241  1.00  0.00    -0.354 N 
ATOM     37  C   UNL A   1      47.232  26.191  26.986  1.00  0.00     0.074 A 
ATOM     38  C   UNL A   1      47.326  24.792  26.633  1.00  0.00     0.031 C 
ATOM     39  C   UNL A   1      41.024  26.840  28.582  1.00  0.00     0.029 A 
ATOM     40  C   UNL A   1      42.071  27.856  28.665  1.00  0.00     0.049 A 
ATOM     41  H   UNL A   1      44.086  27.640  28.181  1.00  0.00     0.167 HD
ATOM     42  C   UNL A   1      48.267  27.064  26.931  1.00  0.00     0.031 A 
ATOM     43  C   UNL A   1      41.899  29.129  29.072  1.00  0.00     0.031 A 
ATOM     44  C   UNL A   1      48.165  28.452  27.300  1.00  0.00     0.049 A 
ATOM     45  C   UNL A   1      43.077  30.065  29.048  1.00  0.00     0.074 A 
ATOM     46  C   UNL A   1      49.148  29.425  27.273  1.00  0.00     0.029 A 
ATOM     47  N   UNL A   1      47.011  29.063  27.770  1.00  0.00    -0.354 N 
ATOM     48  N   UNL A   1      44.311  29.832  28.667  1.00  0.00    -0.248 NA
ATOM     49  C   UNL A   1      42.832  31.443  29.491  1.00  0.00     0.031 C 
ATOM     50  C   UNL A   1      48.604  30.609  27.783  1.00  0.00     0.029 A 
ATOM     51  C   UNL A   1      47.264  30.393  28.059  1.00  0.00     0.049 A 
ATOM     52  H   UNL A   1      46.141  28.617  27.880  1.00  0.00     0.167 HD
ATOM     53  C   UNL A   1      44.983  31.044  28.795  1.00  0.00     0.074 A 
ATOM     54  C   UNL A   1      44.010  32.008  29.267  1.00  0.00     0.031 C 
ATOM     55  C   UNL A   1      46.285  31.335  28.544  1.00  0.00     0.031 A 
BRANCH  42  56
ATOM     56  C   UNL A   1      49.605  26.531  26.487  1.00  0.00    -0.014 A 
ATOM     57  C   UNL A   1      50.030  26.640  25.150  1.00  0.00     0.010 A 
ATOM     58  C   UNL A   1      50.467  25.941  27.430  1.00  0.00     0.010 A 
ATOM     59  C   UNL A   1      51.276  26.141  24.759  1.00  0.00     0.020 A 
ATOM     60  C   UNL A   1      51.726  25.466  27.049  1.00  0.00     0.020 A 
ATOM     61  C   UNL A   1      52.116  25.556  25.712  1.00  0.00     0.054 A 
BRANCH  61  62
ATOM     62  S   UNL A   1      53.739  24.943  25.183  1.00  0.00     0.124 S 
ATOM     63  O   UNL A   1      53.899  25.595  23.886  1.00  0.00    -0.237 OA
ATOM     64  O   UNL A   1      54.623  25.424  26.241  1.00  0.00    -0.237 OA
ATOM     65  O   UNL A   1      53.564  23.493  25.133  1.00  0.00    -0.744 OA
ENDBRANCH  61  62
ENDBRANCH  42  56
BRANCH  43  66
ATOM     66  C   UNL A   1      40.560  29.588  29.533  1.00  0.00    -0.014 A 
ATOM     67  C   UNL A   1      39.615  30.093  28.623  1.00  0.00     0.010 A 
ATOM     68  C   UNL A   1      40.224  29.521  30.898  1.00  0.00     0.010 A 
ATOM     69  C   UNL A   1      38.369  30.545  29.072  1.00  0.00     0.020 A 
ATOM     70  C   UNL A   1      38.970  29.941  31.346  1.00  0.00     0.020 A 
ATOM     71  C   UNL A   1      38.055  30.463  30.432  1.00  0.00     0.054 A 
BRANCH  71  72
ATOM     72  S   UNL A   1      36.416  31.011  30.986  1.00  0.00     0.124 S 
ATOM     73  O   UNL A   1      35.645  30.961  29.748  1.00  0.00    -0.237 OA
ATOM     74  O   UNL A   1      36.072  30.009  31.990  1.00  0.00    -0.237 OA
ATOM     75  O   UNL A   1      36.666  32.351  31.514  1.00  0.00    -0.744 OA
ENDBRANCH  71  72
ENDBRANCH  43  66
BRANCH  55  76
ATOM     76  C   UNL A   1      46.715  32.767  28.740  1.00  0.00    -0.014 A 
ATOM     77  C   UNL A   1      47.220  33.221  29.972  1.00  0.00     0.010 A 
ATOM     78  C   UNL A   1      46.616  33.671  27.667  1.00  0.00     0.010 A 
ATOM     79  C   UNL A   1      47.550  34.567  30.147  1.00  0.00     0.020 A 
ATOM     80  C   UNL A   1      46.979  35.011  27.827  1.00  0.00     0.020 A 
ATOM     81  C   UNL A   1      47.418  35.455  29.075  1.00  0.00     0.054 A 
BRANCH  81  82
ATOM     82  S   UNL A   1      47.840  37.200  29.330  1.00  0.00     0.124 S 
ATOM     83  O   UNL A   1      47.351  37.436  30.685  1.00  0.00    -0.237 OA
ATOM     84  O   UNL A   1      49.292  37.207  29.175  1.00  0.00    -0.237 OA
ATOM     85  O   UNL A   1      47.104  37.893  28.273  1.00  0.00    -0.744 OA
ENDBRANCH  81  82
ENDBRANCH  55  76
ENDBRANCH  29  30
ENDBRANCH  22  24
ENDBRANCH  21  22
ENDBRANCH  20  21
ENDBRANCH   1  20
TORSDOF 18
ENDMDL
MODEL 3
REMARK VINA RESULT:     -10.3      1.230      2.322
REMARK SMILES C/C(C(=O)OCCOCCOC(=O)c1ccc(-c2c3nc(c(-c4ccc(S(=O)(=O)[O-])cc4)c4ccc([nH]4)c(-c4ccc(S(=O)(=O)[O-])cc4)c4nc(c(-c5ccc(S(=O)(=O)[O-])cc5)c5ccc2[nH]5)C=C4)C=C3)cc1)=C(\C)c1ccc(C)c(F)c1
REMARK SMILES IDX 9 1 8 2 7 3 6 4 5 5 3 6 4 7 2 8 1 9 74 10 75 11 76 12 77 13
REMARK SMILES IDX 83 14 78 15 81 16 79 17 82 18 80 19 10 20 11 21 12 22 13 23
REMARK SMILES IDX 14 24 15 25 73 26 16 27 72 28 17 29 18 30 19 31 66 32 20 33
REMARK SMILES IDX 71 34 65 35 67 36 21 37 70 38 64 39 63 40 22 42 52 43 33 44
REMARK SMILES IDX 51 45 34 46 37 47 50 48 68 49 35 50 36 51 49 53 69 54 38 55
REMARK SMILES IDX 23 56 24 57 32 58 25 59 31 60 26 61 27 62 28 63 29 64 30 65
REMARK SMILES IDX 53 66 54 67 62 68 55 69 61 70 56 71 57 72 58 73 59 74 60 75
REMARK SMILES IDX 39 76 40 77 48 78 41 79 47 80 42 81 43 82 44 83 45 84 46 85
REMARK H PARENT 67 41 37 52
REMARK Flexibility Score: inf
ROOT
ATOM      1  C   UNL A   1      39.985  22.036  26.518  1.00  0.00     0.202 C 
ENDROOT
BRANCH   1   2
ATOM      2  O   UNL A   1      38.793  22.808  26.456  1.00  0.00    -0.374 OA
BRANCH   2   3
ATOM      3  C   UNL A   1      37.816  22.441  25.477  1.00  0.00     0.202 C 
BRANCH   3   4
ATOM      4  C   UNL A   1      36.750  23.482  25.130  1.00  0.00     0.261 C 
BRANCH   4   5
ATOM      5  O   UNL A   1      35.507  22.830  24.805  1.00  0.00    -0.460 OA
BRANCH   5   6
ATOM      6  C   UNL A   1      34.648  22.642  25.839  1.00  0.00     0.334 C 
ATOM      7  O   UNL A   1      34.873  22.008  26.858  1.00  0.00    -0.247 OA
BRANCH   6   8
ATOM      8  C   UNL A   1      33.358  23.343  25.558  1.00  0.00     0.038 C 
ATOM      9  C   UNL A   1      33.240  24.734  26.116  1.00  0.00     0.052 C 
ATOM     10  C   UNL A   1      32.388  22.746  24.819  1.00  0.00    -0.034 C 
ATOM     11  C   UNL A   1      31.148  23.443  24.323  1.00  0.00     0.045 C 
BRANCH  10  12
ATOM     12  C   UNL A   1      32.422  21.310  24.462  1.00  0.00    -0.019 A 
ATOM     13  C   UNL A   1      32.379  20.870  23.135  1.00  0.00     0.009 A 
ATOM     14  C   UNL A   1      32.501  20.360  25.485  1.00  0.00     0.048 A 
ATOM     15  C   UNL A   1      32.488  19.505  22.837  1.00  0.00     0.007 A 
ATOM     16  C   UNL A   1      32.638  19.010  25.180  1.00  0.00     0.126 A 
ATOM     17  C   UNL A   1      32.663  18.564  23.860  1.00  0.00    -0.015 A 
ATOM     18  F   UNL A   1      32.766  18.134  26.189  1.00  0.00    -0.207 F 
ATOM     19  C   UNL A   1      32.837  17.108  23.552  1.00  0.00     0.047 C 
ENDBRANCH  10  12
ENDBRANCH   6   8
ENDBRANCH   5   6
ENDBRANCH   4   5
ENDBRANCH   3   4
ENDBRANCH   2   3
ENDBRANCH   1   2
BRANCH   1  20
ATOM     20  C   UNL A   1      41.331  22.736  26.269  1.00  0.00     0.261 C 
BRANCH  20  21
ATOM     21  O   UNL A   1      41.644  23.761  27.211  1.00  0.00    -0.460 OA
BRANCH  21  22
ATOM     22  C   UNL A   1      41.722  24.991  26.647  1.00  0.00     0.338 C 
ATOM     23  O   UNL A   1      42.015  25.261  25.490  1.00  0.00    -0.246 OA
BRANCH  22  24
ATOM     24  C   UNL A   1      41.240  25.992  27.606  1.00  0.00     0.060 A 
ATOM     25  C   UNL A   1      41.972  27.178  27.718  1.00  0.00     0.016 A 
ATOM     26  C   UNL A   1      40.122  25.757  28.410  1.00  0.00     0.016 A 
ATOM     27  C   UNL A   1      41.621  28.114  28.683  1.00  0.00     0.010 A 
ATOM     28  C   UNL A   1      39.772  26.699  29.381  1.00  0.00     0.010 A 
ATOM     29  C   UNL A   1      40.547  27.860  29.546  1.00  0.00    -0.014 A 
BRANCH  29  30
ATOM     30  C   UNL A   1      40.343  28.757  30.706  1.00  0.00     0.031 A 
ATOM     31  C   UNL A   1      41.239  28.615  31.905  1.00  0.00     0.074 A 
ATOM     32  C   UNL A   1      39.423  29.737  30.647  1.00  0.00     0.049 A 
ATOM     33  N   UNL A   1      41.298  29.351  32.985  1.00  0.00    -0.248 NA
ATOM     34  C   UNL A   1      42.198  27.497  31.887  1.00  0.00     0.031 C 
ATOM     35  C   UNL A   1      38.521  29.982  29.521  1.00  0.00     0.029 A 
ATOM     36  N   UNL A   1      39.112  30.721  31.549  1.00  0.00    -0.354 N 
ATOM     37  C   UNL A   1      42.299  28.789  33.770  1.00  0.00     0.074 A 
ATOM     38  C   UNL A   1      42.789  27.627  33.065  1.00  0.00     0.031 C 
ATOM     39  C   UNL A   1      37.769  31.061  29.792  1.00  0.00     0.029 A 
ATOM     40  C   UNL A   1      38.118  31.567  31.118  1.00  0.00     0.049 A 
ATOM     41  H   UNL A   1      39.559  30.814  32.421  1.00  0.00     0.167 HD
ATOM     42  C   UNL A   1      42.774  29.213  34.966  1.00  0.00     0.031 A 
ATOM     43  C   UNL A   1      37.554  32.628  31.727  1.00  0.00     0.031 A 
ATOM     44  C   UNL A   1      42.267  30.364  35.667  1.00  0.00     0.049 A 
ATOM     45  C   UNL A   1      38.068  33.049  33.078  1.00  0.00     0.074 A 
ATOM     46  C   UNL A   1      42.683  30.887  36.879  1.00  0.00     0.029 A 
ATOM     47  N   UNL A   1      41.228  31.167  35.221  1.00  0.00    -0.354 N 
ATOM     48  N   UNL A   1      39.034  32.524  33.795  1.00  0.00    -0.248 NA
ATOM     49  C   UNL A   1      37.427  34.219  33.691  1.00  0.00     0.031 C 
ATOM     50  C   UNL A   1      41.855  31.970  37.194  1.00  0.00     0.029 A 
ATOM     51  C   UNL A   1      40.972  32.167  36.144  1.00  0.00     0.049 A 
ATOM     52  H   UNL A   1      40.744  31.046  34.373  1.00  0.00     0.167 HD
ATOM     53  C   UNL A   1      39.138  33.320  34.932  1.00  0.00     0.074 A 
ATOM     54  C   UNL A   1      38.151  34.372  34.791  1.00  0.00     0.031 C 
ATOM     55  C   UNL A   1      39.973  33.197  35.995  1.00  0.00     0.031 A 
BRANCH  42  56
ATOM     56  C   UNL A   1      43.876  28.407  35.603  1.00  0.00    -0.014 A 
ATOM     57  C   UNL A   1      45.230  28.748  35.428  1.00  0.00     0.010 A 
ATOM     58  C   UNL A   1      43.551  27.309  36.421  1.00  0.00     0.010 A 
ATOM     59  C   UNL A   1      46.237  27.987  36.029  1.00  0.00     0.020 A 
ATOM     60  C   UNL A   1      44.553  26.563  37.049  1.00  0.00     0.020 A 
ATOM     61  C   UNL A   1      45.891  26.898  36.836  1.00  0.00     0.054 A 
BRANCH  61  62
ATOM     62  S   UNL A   1      47.217  25.946  37.629  1.00  0.00     0.124 S 
ATOM     63  O   UNL A   1      46.735  24.575  37.478  1.00  0.00    -0.237 OA
ATOM     64  O   UNL A   1      48.385  26.294  36.824  1.00  0.00    -0.237 OA
ATOM     65  O   UNL A   1      47.236  26.452  39.000  1.00  0.00    -0.744 OA
ENDBRANCH  61  62
ENDBRANCH  42  56
BRANCH  43  66
ATOM     66  C   UNL A   1      36.445  33.364  31.062  1.00  0.00    -0.014 A 
ATOM     67  C   UNL A   1      35.211  33.556  31.709  1.00  0.00     0.010 A 
ATOM     68  C   UNL A   1      36.621  33.881  29.765  1.00  0.00     0.010 A 
ATOM     69  C   UNL A   1      34.168  34.228  31.064  1.00  0.00     0.020 A 
ATOM     70  C   UNL A   1      35.593  34.581  29.129  1.00  0.00     0.020 A 
ATOM     71  C   UNL A   1      34.368  34.739  29.778  1.00  0.00     0.054 A 
BRANCH  71  72
ATOM     72  S   UNL A   1      33.017  35.648  28.978  1.00  0.00     0.124 S 
ATOM     73  O   UNL A   1      32.195  36.038  30.119  1.00  0.00    -0.237 OA
ATOM     74  O   UNL A   1      33.724  36.734  28.304  1.00  0.00    -0.237 OA
ATOM     75  O   UNL A   1      32.420  34.655  28.086  1.00  0.00    -0.744 OA
ENDBRANCH  71  72
ENDBRANCH  43  66
BRANCH  55  76
ATOM     76  C   UNL A   1      39.875  34.251  37.067  1.00  0.00    -0.014 A 
ATOM     77  C   UNL A   1      39.069  34.071  38.206  1.00  0.00     0.010 A 
ATOM     78  C   UNL A   1      40.610  35.444  36.933  1.00  0.00     0.010 A 
ATOM     79  C   UNL A   1      38.945  35.091  39.153  1.00  0.00     0.020 A 
ATOM     80  C   UNL A   1      40.517  36.452  37.896  1.00  0.00     0.020 A 
ATOM     81  C   UNL A   1      39.663  36.278  38.986  1.00  0.00     0.054 A 
BRANCH  81  82
ATOM     82  S   UNL A   1      39.476  37.593  40.221  1.00  0.00     0.124 S 
ATOM     83  O   UNL A   1      38.947  36.859  41.367  1.00  0.00    -0.237 OA
ATOM     84  O   UNL A   1      40.840  38.093  40.368  1.00  0.00    -0.237 OA
ATOM     85  O   UNL A   1      38.541  38.527  39.595  1.00  0.00    -0.744 OA
ENDBRANCH  81  82
ENDBRANCH  55  76
ENDBRANCH  29  30
ENDBRANCH  22  24
ENDBRANCH  21  22
ENDBRANCH  20  21
ENDBRANCH   1  20
TORSDOF 18
ENDMDL
