MODEL 1
REMARK VINA RESULT:      -9.9      0.000      0.000
REMARK SMILES C[C@]([NH2+]Cc1nc(-c2ccsc2)no1)(C(=O)OCCOCCOC(=O)c1ccc(-c2c3nc(c(-c4ccc(S(=O)(=O)[O-])cc4)c4ccc([nH]4)c(-c4ccc(S(=O)(=O)[O-])cc4)c4nc(c(-c5ccc(S(=O)(=O)[O-])cc5)c5ccc2[nH]5)C=C4)C=C3)cc1)C(F)(F)F
REMARK SMILES IDX 19 1 18 2 17 3 15 4 16 5 2 6 1 7 86 8 87 9 88 10 89 11 3 12
REMARK SMILES IDX 4 15 5 16 6 17 14 18 7 19 13 20 8 21 9 22 12 23 10 24 11 25
REMARK SMILES IDX 20 26 21 27 22 28 23 29 24 30 25 31 26 32 27 33 85 34 28 35
REMARK SMILES IDX 84 36 29 37 30 38 31 39 78 40 32 41 83 42 77 43 79 44 33 45
REMARK SMILES IDX 82 46 76 47 75 48 34 50 64 51 45 52 63 53 46 54 49 55 62 56
REMARK SMILES IDX 80 57 47 58 48 59 61 61 81 62 50 63 35 64 36 65 44 66 37 67
REMARK SMILES IDX 43 68 38 69 39 70 40 71 41 72 42 73 65 74 66 75 74 76 67 77
REMARK SMILES IDX 73 78 68 79 69 80 70 81 71 82 72 83 51 84 52 85 60 86 53 87
REMARK SMILES IDX 59 88 54 89 55 90 56 91 57 92 58 93
REMARK H PARENT 3 13 3 14 79 49 49 60
REMARK Flexibility Score: inf
ROOT
ATOM      1  C   UNL A   1      37.380  22.470  25.964  1.00  0.00     0.202 C 
ENDROOT
BRANCH   1   2
ATOM      2  C   UNL A   1      36.368  21.401  25.541  1.00  0.00     0.261 C 
BRANCH   2   3
ATOM      3  O   UNL A   1      35.010  21.853  25.708  1.00  0.00    -0.458 OA
BRANCH   3   4
ATOM      4  C   UNL A   1      34.239  21.826  24.580  1.00  0.00     0.377 C 
ATOM      5  O   UNL A   1      34.596  22.285  23.501  1.00  0.00    -0.244 OA
BRANCH   4   6
ATOM      6  C   UNL A   1      32.843  21.237  24.837  1.00  0.00     0.287 C 
ATOM      7  C   UNL A   1      32.023  21.544  23.574  1.00  0.00     0.103 C 
BRANCH   6   8
ATOM      8  C   UNL A   1      33.106  19.712  24.952  1.00  0.00     0.455 C 
ATOM      9  F   UNL A   1      32.099  18.979  24.419  1.00  0.00    -0.164 F 
ATOM     10  F   UNL A   1      34.233  19.369  24.273  1.00  0.00    -0.164 F 
ATOM     11  F   UNL A   1      33.302  19.292  26.220  1.00  0.00    -0.164 F 
ENDBRANCH   6   8
BRANCH   6  12
ATOM     12  N   UNL A   1      32.207  21.843  26.084  1.00  0.00    -0.317 N 
ATOM     13  H   UNL A   1      32.834  22.558  26.452  1.00  0.00     0.347 HD
ATOM     14  H   UNL A   1      32.058  21.082  26.747  1.00  0.00     0.347 HD
BRANCH  12  15
ATOM     15  C   UNL A   1      30.893  22.460  25.826  1.00  0.00     0.363 C 
BRANCH  15  16
ATOM     16  C   UNL A   1      30.837  23.943  25.984  1.00  0.00     0.282 A 
ATOM     17  N   UNL A   1      31.569  24.850  25.376  1.00  0.00    -0.186 NA
ATOM     18  O   UNL A   1      29.831  24.474  26.738  1.00  0.00    -0.333 OA
ATOM     19  C   UNL A   1      30.993  26.020  25.802  1.00  0.00     0.203 A 
ATOM     20  N   UNL A   1      29.949  25.867  26.627  1.00  0.00    -0.057 NA
BRANCH  19  21
ATOM     21  C   UNL A   1      31.507  27.306  25.328  1.00  0.00     0.033 A 
ATOM     22  C   UNL A   1      30.952  27.987  24.199  1.00  0.00     0.024 A 
ATOM     23  C   UNL A   1      32.557  28.007  25.882  1.00  0.00     0.077 A 
ATOM     24  C   UNL A   1      31.600  29.174  23.937  1.00  0.00     0.065 A 
ATOM     25  S   UNL A   1      32.875  29.466  25.041  1.00  0.00    -0.152 S 
ENDBRANCH  19  21
ENDBRANCH  15  16
ENDBRANCH  12  15
ENDBRANCH   6  12
ENDBRANCH   4   6
ENDBRANCH   3   4
ENDBRANCH   2   3
ENDBRANCH   1   2
BRANCH   1  26
ATOM     26  O   UNL A   1      38.753  22.183  25.698  1.00  0.00    -0.374 OA
BRANCH  26  27
ATOM     27  C   UNL A   1      39.698  22.441  26.736  1.00  0.00     0.202 C 
BRANCH  27  28
ATOM     28  C   UNL A   1      40.585  23.682  26.586  1.00  0.00     0.261 C 
BRANCH  28  29
ATOM     29  O   UNL A   1      39.823  24.876  26.337  1.00  0.00    -0.460 OA
BRANCH  29  30
ATOM     30  C   UNL A   1      40.551  26.017  26.378  1.00  0.00     0.338 C 
ATOM     31  O   UNL A   1      41.349  26.412  25.536  1.00  0.00    -0.246 OA
BRANCH  30  32
ATOM     32  C   UNL A   1      40.133  26.862  27.512  1.00  0.00     0.060 A 
ATOM     33  C   UNL A   1      40.644  28.165  27.554  1.00  0.00     0.016 A 
ATOM     34  C   UNL A   1      39.349  26.373  28.560  1.00  0.00     0.016 A 
ATOM     35  C   UNL A   1      40.445  28.956  28.682  1.00  0.00     0.010 A 
ATOM     36  C   UNL A   1      39.153  27.169  29.696  1.00  0.00     0.010 A 
ATOM     37  C   UNL A   1      39.746  28.443  29.781  1.00  0.00    -0.014 A 
BRANCH  37  38
ATOM     38  C   UNL A   1      39.820  29.172  31.071  1.00  0.00     0.031 A 
ATOM     39  C   UNL A   1      40.981  28.898  31.992  1.00  0.00     0.074 A 
ATOM     40  C   UNL A   1      38.920  30.121  31.383  1.00  0.00     0.049 A 
ATOM     41  N   UNL A   1      41.294  29.473  33.125  1.00  0.00    -0.248 NA
ATOM     42  C   UNL A   1      41.916  27.839  31.577  1.00  0.00     0.031 C 
ATOM     43  C   UNL A   1      37.780  30.511  30.553  1.00  0.00     0.029 A 
ATOM     44  N   UNL A   1      38.838  30.945  32.477  1.00  0.00    -0.354 N 
ATOM     45  C   UNL A   1      42.455  28.845  33.560  1.00  0.00     0.074 A 
ATOM     46  C   UNL A   1      42.774  27.824  32.587  1.00  0.00     0.031 C 
ATOM     47  C   UNL A   1      37.119  31.509  31.166  1.00  0.00     0.029 A 
ATOM     48  C   UNL A   1      37.774  31.812  32.437  1.00  0.00     0.049 A 
ATOM     49  H   UNL A   1      39.482  30.915  33.222  1.00  0.00     0.167 HD
ATOM     50  C   UNL A   1      43.195  29.096  34.667  1.00  0.00     0.031 A 
ATOM     51  C   UNL A   1      37.375  32.745  33.324  1.00  0.00     0.031 A 
ATOM     52  C   UNL A   1      42.875  30.106  35.639  1.00  0.00     0.049 A 
ATOM     53  C   UNL A   1      38.182  32.968  34.575  1.00  0.00     0.074 A 
ATOM     54  C   UNL A   1      43.573  30.454  36.781  1.00  0.00     0.029 A 
ATOM     55  N   UNL A   1      41.759  30.927  35.587  1.00  0.00    -0.354 N 
ATOM     56  N   UNL A   1      39.294  32.386  34.956  1.00  0.00    -0.248 NA
ATOM     57  C   UNL A   1      37.682  33.986  35.511  1.00  0.00     0.031 C 
ATOM     58  C   UNL A   1      42.852  31.450  37.449  1.00  0.00     0.029 A 
ATOM     59  C   UNL A   1      41.734  31.762  36.692  1.00  0.00     0.049 A 
ATOM     60  H   UNL A   1      41.083  30.918  34.870  1.00  0.00     0.167 HD
ATOM     61  C   UNL A   1      39.646  32.990  36.159  1.00  0.00     0.074 A 
ATOM     62  C   UNL A   1      38.632  33.987  36.438  1.00  0.00     0.031 C 
ATOM     63  C   UNL A   1      40.715  32.746  36.957  1.00  0.00     0.031 A 
BRANCH  50  64
ATOM     64  C   UNL A   1      44.404  28.231  34.900  1.00  0.00    -0.014 A 
ATOM     65  C   UNL A   1      44.320  27.039  35.643  1.00  0.00     0.010 A 
ATOM     66  C   UNL A   1      45.643  28.611  34.354  1.00  0.00     0.010 A 
ATOM     67  C   UNL A   1      45.463  26.268  35.873  1.00  0.00     0.020 A 
ATOM     68  C   UNL A   1      46.783  27.829  34.559  1.00  0.00     0.020 A 
ATOM     69  C   UNL A   1      46.689  26.672  35.335  1.00  0.00     0.054 A 
BRANCH  69  70
ATOM     70  S   UNL A   1      48.157  25.652  35.643  1.00  0.00     0.124 S 
ATOM     71  O   UNL A   1      47.644  24.305  35.405  1.00  0.00    -0.237 OA
ATOM     72  O   UNL A   1      49.107  26.147  34.649  1.00  0.00    -0.237 OA
ATOM     73  O   UNL A   1      48.501  25.951  37.031  1.00  0.00    -0.744 OA
ENDBRANCH  69  70
ENDBRANCH  50  64
BRANCH  51  74
ATOM     74  C   UNL A   1      36.151  33.548  33.056  1.00  0.00    -0.014 A 
ATOM     75  C   UNL A   1      36.249  34.880  32.618  1.00  0.00     0.010 A 
ATOM     76  C   UNL A   1      34.878  32.979  33.236  1.00  0.00     0.010 A 
ATOM     77  C   UNL A   1      35.096  35.633  32.378  1.00  0.00     0.020 A 
ATOM     78  C   UNL A   1      33.723  33.720  32.974  1.00  0.00     0.020 A 
ATOM     79  C   UNL A   1      33.840  35.047  32.555  1.00  0.00     0.054 A 
BRANCH  79  80
ATOM     80  S   UNL A   1      32.356  36.022  32.181  1.00  0.00     0.124 S 
ATOM     81  O   UNL A   1      32.339  36.002  30.721  1.00  0.00    -0.237 OA
ATOM     82  O   UNL A   1      31.300  35.257  32.837  1.00  0.00    -0.237 OA
ATOM     83  O   UNL A   1      32.640  37.321  32.787  1.00  0.00    -0.744 OA
ENDBRANCH  79  80
ENDBRANCH  51  74
BRANCH  63  84
ATOM     84  C   UNL A   1      40.865  33.597  38.190  1.00  0.00    -0.014 A 
ATOM     85  C   UNL A   1      41.546  34.828  38.152  1.00  0.00     0.010 A 
ATOM     86  C   UNL A   1      40.280  33.175  39.398  1.00  0.00     0.010 A 
ATOM     87  C   UNL A   1      41.673  35.600  39.310  1.00  0.00     0.020 A 
ATOM     88  C   UNL A   1      40.383  33.957  40.551  1.00  0.00     0.020 A 
ATOM     89  C   UNL A   1      41.095  35.156  40.503  1.00  0.00     0.054 A 
BRANCH  89  90
ATOM     90  S   UNL A   1      41.251  36.186  41.989  1.00  0.00     0.124 S 
ATOM     91  O   UNL A   1      42.633  35.933  42.389  1.00  0.00    -0.237 OA
ATOM     92  O   UNL A   1      40.979  37.529  41.481  1.00  0.00    -0.237 OA
ATOM     93  O   UNL A   1      40.234  35.650  42.890  1.00  0.00    -0.744 OA
ENDBRANCH  89  90
ENDBRANCH  63  84
ENDBRANCH  37  38
ENDBRANCH  30  32
ENDBRANCH  29  30
ENDBRANCH  28  29
ENDBRANCH  27  28
ENDBRANCH  26  27
ENDBRANCH   1  26
TORSDOF 22
ENDMDL
MODEL 2
REMARK VINA RESULT:      -9.7      7.055     11.513
REMARK SMILES C[C@]([NH2+]Cc1nc(-c2ccsc2)no1)(C(=O)OCCOCCOC(=O)c1ccc(-c2c3nc(c(-c4ccc(S(=O)(=O)[O-])cc4)c4ccc([nH]4)c(-c4ccc(S(=O)(=O)[O-])cc4)c4nc(c(-c5ccc(S(=O)(=O)[O-])cc5)c5ccc2[nH]5)C=C4)C=C3)cc1)C(F)(F)F
REMARK SMILES IDX 19 1 18 2 17 3 15 4 16 5 2 6 1 7 86 8 87 9 88 10 89 11 3 12
REMARK SMILES IDX 4 15 5 16 6 17 14 18 7 19 13 20 8 21 9 22 12 23 10 24 11 25
REMARK SMILES IDX 20 26 21 27 22 28 23 29 24 30 25 31 26 32 27 33 85 34 28 35
REMARK SMILES IDX 84 36 29 37 30 38 31 39 78 40 32 41 83 42 77 43 79 44 33 45
REMARK SMILES IDX 82 46 76 47 75 48 34 50 64 51 45 52 63 53 46 54 49 55 62 56
REMARK SMILES IDX 80 57 47 58 48 59 61 61 81 62 50 63 35 64 36 65 44 66 37 67
REMARK SMILES IDX 43 68 38 69 39 70 40 71 41 72 42 73 65 74 66 75 74 76 67 77
REMARK SMILES IDX 73 78 68 79 69 80 70 81 71 82 72 83 51 84 52 85 60 86 53 87
REMARK SMILES IDX 59 88 54 89 55 90 56 91 57 92 58 93
REMARK H PARENT 3 13 3 14 79 49 49 60
REMARK Flexibility Score: inf
ROOT
ATOM      1  C   UNL A   1      32.982  29.618  25.221  1.00  0.00     0.202 C 
ENDROOT
BRANCH   1   2
ATOM      2  C   UNL A   1      33.713  28.273  25.256  1.00  0.00     0.261 C 
BRANCH   2   3
ATOM      3  O   UNL A   1      32.909  27.211  24.708  1.00  0.00    -0.458 OA
BRANCH   3   4
ATOM      4  C   UNL A   1      32.139  26.531  25.610  1.00  0.00     0.377 C 
ATOM      5  O   UNL A   1      32.091  26.802  26.804  1.00  0.00    -0.244 OA
BRANCH   4   6
ATOM      6  C   UNL A   1      31.414  25.333  24.976  1.00  0.00     0.287 C 
ATOM      7  C   UNL A   1      31.378  24.246  26.063  1.00  0.00     0.103 C 
BRANCH   6   8
ATOM      8  C   UNL A   1      29.983  25.873  24.709  1.00  0.00     0.455 C 
ATOM      9  F   UNL A   1      29.984  27.195  24.413  1.00  0.00    -0.164 F 
ATOM     10  F   UNL A   1      29.426  25.240  23.643  1.00  0.00    -0.164 F 
ATOM     11  F   UNL A   1      29.131  25.676  25.737  1.00  0.00    -0.164 F 
ENDBRANCH   6   8
BRANCH   6  12
ATOM     12  N   UNL A   1      32.130  24.852  23.720  1.00  0.00    -0.317 N 
ATOM     13  H   UNL A   1      32.889  25.500  23.511  1.00  0.00     0.347 HD
ATOM     14  H   UNL A   1      31.437  24.816  22.972  1.00  0.00     0.347 HD
BRANCH  12  15
ATOM     15  C   UNL A   1      32.696  23.497  23.855  1.00  0.00     0.363 C 
BRANCH  15  16
ATOM     16  C   UNL A   1      34.187  23.424  23.892  1.00  0.00     0.282 A 
ATOM     17  N   UNL A   1      34.966  23.314  24.946  1.00  0.00    -0.186 NA
ATOM     18  O   UNL A   1      34.858  23.319  22.708  1.00  0.00    -0.333 OA
ATOM     19  C   UNL A   1      36.203  23.156  24.375  1.00  0.00     0.203 A 
ATOM     20  N   UNL A   1      36.211  23.157  23.036  1.00  0.00    -0.057 NA
BRANCH  19  21
ATOM     21  C   UNL A   1      37.383  22.972  25.222  1.00  0.00     0.033 A 
ATOM     22  C   UNL A   1      38.082  21.728  25.308  1.00  0.00     0.024 A 
ATOM     23  C   UNL A   1      37.958  23.937  26.022  1.00  0.00     0.077 A 
ATOM     24  C   UNL A   1      39.155  21.791  26.169  1.00  0.00     0.065 A 
ATOM     25  S   UNL A   1      39.319  23.341  26.876  1.00  0.00    -0.152 S 
ENDBRANCH  19  21
ENDBRANCH  15  16
ENDBRANCH  12  15
ENDBRANCH   6  12
ENDBRANCH   4   6
ENDBRANCH   3   4
ENDBRANCH   2   3
ENDBRANCH   1   2
BRANCH   1  26
ATOM     26  O   UNL A   1      33.111  30.440  26.381  1.00  0.00    -0.374 OA
BRANCH  26  27
ATOM     27  C   UNL A   1      33.734  29.870  27.532  1.00  0.00     0.202 C 
BRANCH  27  28
ATOM     28  C   UNL A   1      35.093  30.443  27.951  1.00  0.00     0.261 C 
BRANCH  28  29
ATOM     29  O   UNL A   1      36.151  29.473  27.861  1.00  0.00    -0.460 OA
BRANCH  29  30
ATOM     30  C   UNL A   1      37.025  29.508  28.893  1.00  0.00     0.338 C 
ATOM     31  O   UNL A   1      36.766  29.735  30.069  1.00  0.00    -0.246 OA
BRANCH  30  32
ATOM     32  C   UNL A   1      38.360  29.050  28.464  1.00  0.00     0.060 A 
ATOM     33  C   UNL A   1      39.177  28.471  29.442  1.00  0.00     0.016 A 
ATOM     34  C   UNL A   1      38.844  29.267  27.171  1.00  0.00     0.016 A 
ATOM     35  C   UNL A   1      40.509  28.184  29.158  1.00  0.00     0.010 A 
ATOM     36  C   UNL A   1      40.187  28.982  26.888  1.00  0.00     0.010 A 
ATOM     37  C   UNL A   1      41.036  28.489  27.897  1.00  0.00    -0.014 A 
BRANCH  37  38
ATOM     38  C   UNL A   1      42.508  28.472  27.721  1.00  0.00     0.031 A 
ATOM     39  C   UNL A   1      43.157  27.229  27.169  1.00  0.00     0.074 A 
ATOM     40  C   UNL A   1      43.249  29.567  27.967  1.00  0.00     0.049 A 
ATOM     41  N   UNL A   1      44.410  27.017  26.855  1.00  0.00    -0.248 NA
ATOM     42  C   UNL A   1      42.275  26.074  26.933  1.00  0.00     0.031 C 
ATOM     43  C   UNL A   1      42.731  30.845  28.459  1.00  0.00     0.029 A 
ATOM     44  N   UNL A   1      44.595  29.784  27.816  1.00  0.00    -0.354 N 
ATOM     45  C   UNL A   1      44.467  25.708  26.391  1.00  0.00     0.074 A 
ATOM     46  C   UNL A   1      43.131  25.163  26.494  1.00  0.00     0.031 C 
ATOM     47  C   UNL A   1      43.751  31.716  28.558  1.00  0.00     0.029 A 
ATOM     48  C   UNL A   1      44.991  31.053  28.158  1.00  0.00     0.049 A 
ATOM     49  H   UNL A   1      45.219  29.093  27.495  1.00  0.00     0.167 HD
ATOM     50  C   UNL A   1      45.533  25.019  25.917  1.00  0.00     0.031 A 
ATOM     51  C   UNL A   1      46.216  31.617  28.148  1.00  0.00     0.031 A 
ATOM     52  C   UNL A   1      46.863  25.557  25.821  1.00  0.00     0.049 A 
ATOM     53  C   UNL A   1      47.396  30.814  27.671  1.00  0.00     0.074 A 
ATOM     54  C   UNL A   1      48.005  24.947  25.333  1.00  0.00     0.029 A 
ATOM     55  N   UNL A   1      47.231  26.830  26.228  1.00  0.00    -0.354 N 
ATOM     56  N   UNL A   1      47.427  29.587  27.207  1.00  0.00    -0.248 NA
ATOM     57  C   UNL A   1      48.706  31.480  27.704  1.00  0.00     0.031 C 
ATOM     58  C   UNL A   1      49.076  25.834  25.493  1.00  0.00     0.029 A 
ATOM     59  C   UNL A   1      48.589  27.016  26.028  1.00  0.00     0.049 A 
ATOM     60  H   UNL A   1      46.618  27.502  26.603  1.00  0.00     0.167 HD
ATOM     61  C   UNL A   1      48.753  29.345  26.862  1.00  0.00     0.074 A 
ATOM     62  C   UNL A   1      49.491  30.556  27.164  1.00  0.00     0.031 C 
ATOM     63  C   UNL A   1      49.309  28.225  26.337  1.00  0.00     0.031 A 
BRANCH  50  64
ATOM     64  C   UNL A   1      45.303  23.590  25.504  1.00  0.00    -0.014 A 
ATOM     65  C   UNL A   1      45.634  22.519  26.354  1.00  0.00     0.010 A 
ATOM     66  C   UNL A   1      44.733  23.316  24.247  1.00  0.00     0.010 A 
ATOM     67  C   UNL A   1      45.440  21.200  25.936  1.00  0.00     0.020 A 
ATOM     68  C   UNL A   1      44.514  21.998  23.836  1.00  0.00     0.020 A 
ATOM     69  C   UNL A   1      44.887  20.948  24.676  1.00  0.00     0.054 A 
BRANCH  69  70
ATOM     70  S   UNL A   1      44.641  19.226  24.157  1.00  0.00     0.124 S 
ATOM     71  O   UNL A   1      43.407  18.875  24.855  1.00  0.00    -0.237 OA
ATOM     72  O   UNL A   1      44.532  19.340  22.705  1.00  0.00    -0.237 OA
ATOM     73  O   UNL A   1      45.843  18.546  24.636  1.00  0.00    -0.744 OA
ENDBRANCH  69  70
ENDBRANCH  50  64
BRANCH  51  74
ATOM     74  C   UNL A   1      46.388  33.025  28.601  1.00  0.00    -0.014 A 
ATOM     75  C   UNL A   1      46.140  34.095  27.724  1.00  0.00     0.010 A 
ATOM     76  C   UNL A   1      46.799  33.300  29.917  1.00  0.00     0.010 A 
ATOM     77  C   UNL A   1      46.313  35.415  28.152  1.00  0.00     0.020 A 
ATOM     78  C   UNL A   1      46.951  34.618  30.355  1.00  0.00     0.020 A 
ATOM     79  C   UNL A   1      46.715  35.668  29.466  1.00  0.00     0.054 A 
BRANCH  79  80
ATOM     80  S   UNL A   1      46.877  37.389  30.018  1.00  0.00     0.124 S 
ATOM     81  O   UNL A   1      47.993  37.865  29.207  1.00  0.00    -0.237 OA
ATOM     82  O   UNL A   1      45.570  37.951  29.691  1.00  0.00    -0.237 OA
ATOM     83  O   UNL A   1      47.150  37.263  31.449  1.00  0.00    -0.744 OA
ENDBRANCH  79  80
ENDBRANCH  51  74
BRANCH  63  84
ATOM     84  C   UNL A   1      50.780  28.268  26.018  1.00  0.00    -0.014 A 
ATOM     85  C   UNL A   1      51.245  28.692  24.760  1.00  0.00     0.010 A 
ATOM     86  C   UNL A   1      51.713  27.915  27.011  1.00  0.00     0.010 A 
ATOM     87  C   UNL A   1      52.615  28.722  24.488  1.00  0.00     0.020 A 
ATOM     88  C   UNL A   1      53.085  27.970  26.751  1.00  0.00     0.020 A 
ATOM     89  C   UNL A   1      53.526  28.355  25.484  1.00  0.00     0.054 A 
BRANCH  89  90
ATOM     90  S   UNL A   1      55.302  28.425  25.117  1.00  0.00     0.124 S 
ATOM     91  O   UNL A   1      55.846  27.460  26.068  1.00  0.00    -0.237 OA
ATOM     92  O   UNL A   1      55.357  28.024  23.713  1.00  0.00    -0.237 OA
ATOM     93  O   UNL A   1      55.653  29.820  25.373  1.00  0.00    -0.744 OA
ENDBRANCH  89  90
ENDBRANCH  63  84
ENDBRANCH  37  38
ENDBRANCH  30  32
ENDBRANCH  29  30
ENDBRANCH  28  29
ENDBRANCH  27  28
ENDBRANCH  26  27
ENDBRANCH   1  26
TORSDOF 22
ENDMDL
MODEL 3
REMARK VINA RESULT:      -9.7      3.720     10.001
REMARK SMILES C[C@]([NH2+]Cc1nc(-c2ccsc2)no1)(C(=O)OCCOCCOC(=O)c1ccc(-c2c3nc(c(-c4ccc(S(=O)(=O)[O-])cc4)c4ccc([nH]4)c(-c4ccc(S(=O)(=O)[O-])cc4)c4nc(c(-c5ccc(S(=O)(=O)[O-])cc5)c5ccc2[nH]5)C=C4)C=C3)cc1)C(F)(F)F
REMARK SMILES IDX 19 1 18 2 17 3 15 4 16 5 2 6 1 7 86 8 87 9 88 10 89 11 3 12
REMARK SMILES IDX 4 15 5 16 6 17 14 18 7 19 13 20 8 21 9 22 12 23 10 24 11 25
REMARK SMILES IDX 20 26 21 27 22 28 23 29 24 30 25 31 26 32 27 33 85 34 28 35
REMARK SMILES IDX 84 36 29 37 30 38 31 39 78 40 32 41 83 42 77 43 79 44 33 45
REMARK SMILES IDX 82 46 76 47 75 48 34 50 64 51 45 52 63 53 46 54 49 55 62 56
REMARK SMILES IDX 80 57 47 58 48 59 61 61 81 62 50 63 35 64 36 65 44 66 37 67
REMARK SMILES IDX 43 68 38 69 39 70 40 71 41 72 42 73 65 74 66 75 74 76 67 77
REMARK SMILES IDX 73 78 68 79 69 80 70 81 71 82 72 83 51 84 52 85 60 86 53 87
REMARK SMILES IDX 59 88 54 89 55 90 56 91 57 92 58 93
REMARK H PARENT 3 13 3 14 79 49 49 60
REMARK Flexibility Score: inf
ROOT
ATOM      1  C   UNL A   1      30.628  28.597  24.056  1.00  0.00     0.202 C 
ENDROOT
BRANCH   1   2
ATOM      2  C   UNL A   1      30.788  27.303  24.859  1.00  0.00     0.261 C 
BRANCH   2   3
ATOM      3  O   UNL A   1      30.991  26.162  24.003  1.00  0.00    -0.458 OA
BRANCH   3   4
ATOM      4  C   UNL A   1      32.249  26.035  23.482  1.00  0.00     0.377 C 
ATOM      5  O   UNL A   1      32.649  26.669  22.513  1.00  0.00    -0.244 OA
BRANCH   4   6
ATOM      6  C   UNL A   1      33.070  24.946  24.189  1.00  0.00     0.287 C 
ATOM      7  C   UNL A   1      34.035  24.396  23.125  1.00  0.00     0.103 C 
BRANCH   6   8
ATOM      8  C   UNL A   1      33.855  25.727  25.276  1.00  0.00     0.455 C 
ATOM      9  F   UNL A   1      35.057  25.163  25.542  1.00  0.00    -0.164 F 
ATOM     10  F   UNL A   1      34.107  26.997  24.861  1.00  0.00    -0.164 F 
ATOM     11  F   UNL A   1      33.183  25.851  26.441  1.00  0.00    -0.164 F 
ENDBRANCH   6   8
BRANCH   6  12
ATOM     12  N   UNL A   1      32.170  23.851  24.752  1.00  0.00    -0.317 N 
ATOM     13  H   UNL A   1      31.671  23.412  23.979  1.00  0.00     0.347 HD
ATOM     14  H   UNL A   1      31.536  24.295  25.417  1.00  0.00     0.347 HD
BRANCH  12  15
ATOM     15  C   UNL A   1      32.910  22.808  25.485  1.00  0.00     0.363 C 
BRANCH  15  16
ATOM     16  C   UNL A   1      32.892  21.450  24.865  1.00  0.00     0.282 A 
ATOM     17  N   UNL A   1      33.354  20.325  25.365  1.00  0.00    -0.186 NA
ATOM     18  O   UNL A   1      32.204  21.283  23.698  1.00  0.00    -0.333 OA
ATOM     19  C   UNL A   1      32.945  19.405  24.434  1.00  0.00     0.203 A 
ATOM     20  N   UNL A   1      32.256  19.913  23.404  1.00  0.00    -0.057 NA
BRANCH  19  21
ATOM     21  C   UNL A   1      33.244  17.985  24.626  1.00  0.00     0.033 A 
ATOM     22  C   UNL A   1      34.351  17.340  23.990  1.00  0.00     0.024 A 
ATOM     23  C   UNL A   1      32.527  17.110  25.415  1.00  0.00     0.077 A 
ATOM     24  C   UNL A   1      34.431  16.003  24.314  1.00  0.00     0.065 A 
ATOM     25  S   UNL A   1      33.178  15.525  25.376  1.00  0.00    -0.152 S 
ENDBRANCH  19  21
ENDBRANCH  15  16
ENDBRANCH  12  15
ENDBRANCH   6  12
ENDBRANCH   4   6
ENDBRANCH   3   4
ENDBRANCH   2   3
ENDBRANCH   1   2
BRANCH   1  26
ATOM     26  O   UNL A   1      31.528  29.657  24.376  1.00  0.00    -0.374 OA
BRANCH  26  27
ATOM     27  C   UNL A   1      31.789  29.912  25.756  1.00  0.00     0.202 C 
BRANCH  27  28
ATOM     28  C   UNL A   1      33.252  29.875  26.213  1.00  0.00     0.261 C 
BRANCH  28  29
ATOM     29  O   UNL A   1      33.416  30.303  27.576  1.00  0.00    -0.460 OA
BRANCH  29  30
ATOM     30  C   UNL A   1      34.450  31.155  27.770  1.00  0.00     0.338 C 
ATOM     31  O   UNL A   1      34.393  32.377  27.837  1.00  0.00    -0.246 OA
BRANCH  30  32
ATOM     32  C   UNL A   1      35.686  30.413  28.081  1.00  0.00     0.060 A 
ATOM     33  C   UNL A   1      35.730  29.743  29.310  1.00  0.00     0.016 A 
ATOM     34  C   UNL A   1      36.809  30.450  27.251  1.00  0.00     0.016 A 
ATOM     35  C   UNL A   1      36.923  29.179  29.753  1.00  0.00     0.010 A 
ATOM     36  C   UNL A   1      38.009  29.885  27.701  1.00  0.00     0.010 A 
ATOM     37  C   UNL A   1      38.082  29.295  28.977  1.00  0.00    -0.014 A 
BRANCH  37  38
ATOM     38  C   UNL A   1      39.388  28.973  29.601  1.00  0.00     0.031 A 
ATOM     39  C   UNL A   1      39.815  29.742  30.825  1.00  0.00     0.074 A 
ATOM     40  C   UNL A   1      40.145  27.959  29.144  1.00  0.00     0.049 A 
ATOM     41  N   UNL A   1      40.870  29.577  31.582  1.00  0.00    -0.248 NA
ATOM     42  C   UNL A   1      38.932  30.839  31.256  1.00  0.00     0.031 C 
ATOM     43  C   UNL A   1      39.817  27.111  27.997  1.00  0.00     0.029 A 
ATOM     44  N   UNL A   1      41.338  27.461  29.602  1.00  0.00    -0.354 N 
ATOM     45  C   UNL A   1      40.780  30.549  32.572  1.00  0.00     0.074 A 
ATOM     46  C   UNL A   1      39.587  31.320  32.303  1.00  0.00     0.031 C 
ATOM     47  C   UNL A   1      40.785  26.188  27.851  1.00  0.00     0.029 A 
ATOM     48  C   UNL A   1      41.806  26.394  28.877  1.00  0.00     0.049 A 
ATOM     49  H   UNL A   1      41.814  27.836  30.379  1.00  0.00     0.167 HD
ATOM     50  C   UNL A   1      41.613  30.779  33.616  1.00  0.00     0.031 A 
ATOM     51  C   UNL A   1      42.930  25.664  29.024  1.00  0.00     0.031 A 
ATOM     52  C   UNL A   1      42.804  30.018  33.881  1.00  0.00     0.049 A 
ATOM     53  C   UNL A   1      43.869  25.975  30.158  1.00  0.00     0.074 A 
ATOM     54  C   UNL A   1      43.700  30.158  34.925  1.00  0.00     0.029 A 
ATOM     55  N   UNL A   1      43.269  28.979  33.090  1.00  0.00    -0.354 N 
ATOM     56  N   UNL A   1      43.753  26.877  31.103  1.00  0.00    -0.248 NA
ATOM     57  C   UNL A   1      45.087  25.156  30.252  1.00  0.00     0.031 C 
ATOM     58  C   UNL A   1      44.737  29.237  34.738  1.00  0.00     0.029 A 
ATOM     59  C   UNL A   1      44.456  28.486  33.608  1.00  0.00     0.049 A 
ATOM     60  H   UNL A   1      42.823  28.642  32.280  1.00  0.00     0.167 HD
ATOM     61  C   UNL A   1      44.866  26.713  31.923  1.00  0.00     0.074 A 
ATOM     62  C   UNL A   1      45.638  25.621  31.366  1.00  0.00     0.031 C 
ATOM     63  C   UNL A   1      45.214  27.400  33.039  1.00  0.00     0.031 A 
BRANCH  50  64
ATOM     64  C   UNL A   1      41.277  31.930  34.526  1.00  0.00    -0.014 A 
ATOM     65  C   UNL A   1      40.418  31.766  35.628  1.00  0.00     0.010 A 
ATOM     66  C   UNL A   1      41.844  33.194  34.281  1.00  0.00     0.010 A 
ATOM     67  C   UNL A   1      40.097  32.857  36.441  1.00  0.00     0.020 A 
ATOM     68  C   UNL A   1      41.545  34.281  35.108  1.00  0.00     0.020 A 
ATOM     69  C   UNL A   1      40.657  34.109  36.171  1.00  0.00     0.054 A 
BRANCH  69  70
ATOM     70  S   UNL A   1      40.229  35.509  37.244  1.00  0.00     0.124 S 
ATOM     71  O   UNL A   1      39.653  36.453  36.290  1.00  0.00    -0.237 OA
ATOM     72  O   UNL A   1      39.285  34.914  38.187  1.00  0.00    -0.237 OA
ATOM     73  O   UNL A   1      41.510  35.908  37.820  1.00  0.00    -0.744 OA
ENDBRANCH  69  70
ENDBRANCH  50  64
BRANCH  51  74
ATOM     74  C   UNL A   1      43.226  24.559  28.072  1.00  0.00    -0.014 A 
ATOM     75  C   UNL A   1      44.004  24.790  26.924  1.00  0.00     0.010 A 
ATOM     76  C   UNL A   1      42.731  23.265  28.314  1.00  0.00     0.010 A 
ATOM     77  C   UNL A   1      44.271  23.750  26.029  1.00  0.00     0.020 A 
ATOM     78  C   UNL A   1      43.015  22.218  27.433  1.00  0.00     0.020 A 
ATOM     79  C   UNL A   1      43.776  22.470  26.290  1.00  0.00     0.054 A 
BRANCH  79  80
ATOM     80  S   UNL A   1      44.183  21.121  25.147  1.00  0.00     0.124 S 
ATOM     81  O   UNL A   1      44.153  21.799  23.854  1.00  0.00    -0.237 OA
ATOM     82  O   UNL A   1      45.502  20.700  25.611  1.00  0.00    -0.237 OA
ATOM     83  O   UNL A   1      43.114  20.150  25.372  1.00  0.00    -0.744 OA
ENDBRANCH  79  80
ENDBRANCH  51  74
BRANCH  63  84
ATOM     84  C   UNL A   1      46.465  26.966  33.756  1.00  0.00    -0.014 A 
ATOM     85  C   UNL A   1      46.430  25.978  34.756  1.00  0.00     0.010 A 
ATOM     86  C   UNL A   1      47.701  27.532  33.393  1.00  0.00     0.010 A 
ATOM     87  C   UNL A   1      47.605  25.592  35.407  1.00  0.00     0.020 A 
ATOM     88  C   UNL A   1      48.882  27.129  34.024  1.00  0.00     0.020 A 
ATOM     89  C   UNL A   1      48.822  26.175  35.040  1.00  0.00     0.054 A 
BRANCH  89  90
ATOM     90  S   UNL A   1      50.339  25.642  35.883  1.00  0.00     0.124 S 
ATOM     91  O   UNL A   1      50.285  24.193  35.715  1.00  0.00    -0.237 OA
ATOM     92  O   UNL A   1      51.386  26.324  35.126  1.00  0.00    -0.237 OA
ATOM     93  O   UNL A   1      50.159  26.119  37.252  1.00  0.00    -0.744 OA
ENDBRANCH  89  90
ENDBRANCH  63  84
ENDBRANCH  37  38
ENDBRANCH  30  32
ENDBRANCH  29  30
ENDBRANCH  28  29
ENDBRANCH  27  28
ENDBRANCH  26  27
ENDBRANCH   1  26
TORSDOF 22
ENDMDL
