MODEL 1
REMARK VINA RESULT:     -10.3      0.000      0.000
REMARK SMILES O=C(OCCOCCOC(=O)c1ccn(Cc2c(Cl)cccc2Cl)c1)c1ccc(-c2c3nc(c(-c4ccc(S(=O)(=O)[O-])cc4)c4ccc([nH]4)c(-c4ccc(S(=O)(=O)[O-])cc4)c4nc(c(-c5ccc(S(=O)(=O)[O-])cc5)c5ccc2[nH]5)C=C4)C=C3)cc1
REMARK SMILES IDX 5 1 4 2 3 3 2 4 1 5 26 6 27 7 85 8 28 9 84 10 29 11 30 12
REMARK SMILES IDX 31 13 78 14 32 15 83 16 77 17 79 18 33 19 82 20 76 21 75 22
REMARK SMILES IDX 34 24 64 25 45 26 63 27 46 28 49 29 62 30 80 31 47 32 48 33
REMARK SMILES IDX 61 35 81 36 50 37 35 38 36 39 44 40 37 41 43 42 38 43 39 44
REMARK SMILES IDX 40 45 41 46 42 47 65 48 66 49 74 50 67 51 73 52 68 53 69 54
REMARK SMILES IDX 70 55 71 56 72 57 51 58 52 59 60 60 53 61 59 62 54 63 55 64
REMARK SMILES IDX 56 65 57 66 58 67 6 68 7 69 8 70 9 71 10 72 11 73 12 74
REMARK SMILES IDX 13 75 25 76 14 77 15 78 16 79 17 80 18 81 23 82 19 83 20 84
REMARK SMILES IDX 22 85 24 86 21 87
REMARK H PARENT 79 23 49 34
REMARK Flexibility Score: inf
ROOT
ATOM      1  C   UNL A   1      34.026  32.872  28.218  1.00  0.00     0.202 C 
ENDROOT
BRANCH   1   2
ATOM      2  C   UNL A   1      34.942  31.792  28.785  1.00  0.00     0.261 C 
BRANCH   2   3
ATOM      3  O   UNL A   1      35.735  31.205  27.732  1.00  0.00    -0.460 OA
BRANCH   3   4
ATOM      4  C   UNL A   1      36.098  29.898  27.686  1.00  0.00     0.338 C 
ATOM      5  O   UNL A   1      35.504  29.090  26.981  1.00  0.00    -0.246 OA
BRANCH   4   6
ATOM      6  C   UNL A   1      37.412  29.561  28.259  1.00  0.00     0.060 A 
ATOM      7  C   UNL A   1      38.614  29.744  27.577  1.00  0.00     0.016 A 
ATOM      8  C   UNL A   1      37.392  28.929  29.509  1.00  0.00     0.016 A 
ATOM      9  C   UNL A   1      39.728  29.043  27.977  1.00  0.00     0.010 A 
ATOM     10  C   UNL A   1      38.537  28.309  29.974  1.00  0.00     0.010 A 
ATOM     11  C   UNL A   1      39.673  28.303  29.160  1.00  0.00    -0.014 A 
BRANCH  11  12
ATOM     12  C   UNL A   1      40.921  27.674  29.601  1.00  0.00     0.031 A 
ATOM     13  C   UNL A   1      41.208  26.413  28.786  1.00  0.00     0.074 A 
ATOM     14  C   UNL A   1      41.540  28.246  30.675  1.00  0.00     0.049 A 
ATOM     15  N   UNL A   1      41.861  25.349  29.125  1.00  0.00    -0.248 NA
ATOM     16  C   UNL A   1      40.582  26.257  27.439  1.00  0.00     0.031 C 
ATOM     17  C   UNL A   1      41.053  29.448  31.394  1.00  0.00     0.029 A 
ATOM     18  N   UNL A   1      42.678  27.947  31.387  1.00  0.00    -0.354 N 
ATOM     19  C   UNL A   1      41.889  24.500  27.999  1.00  0.00     0.074 A 
ATOM     20  C   UNL A   1      40.969  25.042  27.049  1.00  0.00     0.031 C 
ATOM     21  C   UNL A   1      41.844  29.730  32.453  1.00  0.00     0.029 A 
ATOM     22  C   UNL A   1      42.931  28.774  32.509  1.00  0.00     0.049 A 
ATOM     23  H   UNL A   1      43.277  27.206  31.134  1.00  0.00     0.167 HD
ATOM     24  C   UNL A   1      42.788  23.486  27.854  1.00  0.00     0.031 A 
ATOM     25  C   UNL A   1      43.932  28.677  33.435  1.00  0.00     0.031 A 
ATOM     26  C   UNL A   1      43.635  23.409  28.997  1.00  0.00     0.049 A 
ATOM     27  C   UNL A   1      44.842  27.625  32.945  1.00  0.00     0.074 A 
ATOM     28  C   UNL A   1      43.424  22.991  30.284  1.00  0.00     0.029 A 
ATOM     29  N   UNL A   1      44.781  24.172  28.954  1.00  0.00    -0.354 N 
ATOM     30  N   UNL A   1      45.609  27.726  31.903  1.00  0.00    -0.248 NA
ATOM     31  C   UNL A   1      44.854  26.325  33.627  1.00  0.00     0.031 C 
ATOM     32  C   UNL A   1      44.176  23.903  31.055  1.00  0.00     0.029 A 
ATOM     33  C   UNL A   1      44.949  24.706  30.207  1.00  0.00     0.049 A 
ATOM     34  H   UNL A   1      45.366  24.308  28.174  1.00  0.00     0.167 HD
ATOM     35  C   UNL A   1      45.864  26.414  31.593  1.00  0.00     0.074 A 
ATOM     36  C   UNL A   1      45.671  25.660  32.815  1.00  0.00     0.031 C 
ATOM     37  C   UNL A   1      45.644  25.971  30.327  1.00  0.00     0.031 A 
BRANCH  24  38
ATOM     38  C   UNL A   1      43.186  22.696  26.642  1.00  0.00    -0.014 A 
ATOM     39  C   UNL A   1      42.559  21.438  26.467  1.00  0.00     0.010 A 
ATOM     40  C   UNL A   1      44.341  22.961  25.892  1.00  0.00     0.010 A 
ATOM     41  C   UNL A   1      43.139  20.433  25.693  1.00  0.00     0.020 A 
ATOM     42  C   UNL A   1      44.908  21.967  25.079  1.00  0.00     0.020 A 
ATOM     43  C   UNL A   1      44.335  20.695  25.034  1.00  0.00     0.054 A 
BRANCH  43  44
ATOM     44  S   UNL A   1      45.172  19.320  24.202  1.00  0.00     0.124 S 
ATOM     45  O   UNL A   1      46.575  19.707  24.310  1.00  0.00    -0.237 OA
ATOM     46  O   UNL A   1      44.775  18.170  25.014  1.00  0.00    -0.237 OA
ATOM     47  O   UNL A   1      44.612  19.342  22.853  1.00  0.00    -0.744 OA
ENDBRANCH  43  44
ENDBRANCH  24  38
BRANCH  25  48
ATOM     48  C   UNL A   1      44.257  29.253  34.794  1.00  0.00    -0.014 A 
ATOM     49  C   UNL A   1      45.392  30.003  35.124  1.00  0.00     0.010 A 
ATOM     50  C   UNL A   1      43.254  29.176  35.802  1.00  0.00     0.010 A 
ATOM     51  C   UNL A   1      45.444  30.757  36.321  1.00  0.00     0.020 A 
ATOM     52  C   UNL A   1      43.267  29.959  36.958  1.00  0.00     0.020 A 
ATOM     53  C   UNL A   1      44.357  30.775  37.200  1.00  0.00     0.054 A 
BRANCH  53  54
ATOM     54  S   UNL A   1      44.277  31.963  38.570  1.00  0.00     0.124 S 
ATOM     55  O   UNL A   1      43.012  31.621  39.209  1.00  0.00    -0.237 OA
ATOM     56  O   UNL A   1      45.479  31.653  39.341  1.00  0.00    -0.237 OA
ATOM     57  O   UNL A   1      44.307  33.260  37.894  1.00  0.00    -0.744 OA
ENDBRANCH  53  54
ENDBRANCH  25  48
BRANCH  37  58
ATOM     58  C   UNL A   1      45.745  27.031  29.233  1.00  0.00    -0.014 A 
ATOM     59  C   UNL A   1      47.003  27.517  28.834  1.00  0.00     0.010 A 
ATOM     60  C   UNL A   1      44.617  27.622  28.633  1.00  0.00     0.010 A 
ATOM     61  C   UNL A   1      47.129  28.548  27.887  1.00  0.00     0.020 A 
ATOM     62  C   UNL A   1      44.726  28.656  27.685  1.00  0.00     0.020 A 
ATOM     63  C   UNL A   1      45.989  29.112  27.315  1.00  0.00     0.054 A 
BRANCH  63  64
ATOM     64  S   UNL A   1      46.185  30.447  26.095  1.00  0.00     0.124 S 
ATOM     65  O   UNL A   1      44.904  31.147  26.172  1.00  0.00    -0.237 OA
ATOM     66  O   UNL A   1      47.331  31.185  26.617  1.00  0.00    -0.237 OA
ATOM     67  O   UNL A   1      46.424  29.741  24.837  1.00  0.00    -0.744 OA
ENDBRANCH  63  64
ENDBRANCH  37  58
ENDBRANCH  11  12
ENDBRANCH   4   6
ENDBRANCH   3   4
ENDBRANCH   2   3
ENDBRANCH   1   2
BRANCH   1  68
ATOM     68  O   UNL A   1      34.650  33.992  27.592  1.00  0.00    -0.374 OA
BRANCH  68  69
ATOM     69  C   UNL A   1      34.298  35.278  28.126  1.00  0.00     0.202 C 
BRANCH  69  70
ATOM     70  C   UNL A   1      33.321  35.294  29.315  1.00  0.00     0.261 C 
BRANCH  70  71
ATOM     71  O   UNL A   1      33.871  35.975  30.458  1.00  0.00    -0.460 OA
BRANCH  71  72
ATOM     72  C   UNL A   1      33.470  35.514  31.684  1.00  0.00     0.339 C 
ATOM     73  O   UNL A   1      32.434  35.848  32.247  1.00  0.00    -0.246 OA
BRANCH  72  74
ATOM     74  C   UNL A   1      34.309  34.413  32.145  1.00  0.00     0.077 A 
ATOM     75  C   UNL A   1      34.091  33.512  33.219  1.00  0.00     0.035 A 
ATOM     76  C   UNL A   1      35.560  34.102  31.629  1.00  0.00     0.101 A 
ATOM     77  C   UNL A   1      35.183  32.673  33.292  1.00  0.00     0.087 A 
ATOM     78  N   UNL A   1      36.099  33.057  32.347  1.00  0.00    -0.349 N 
BRANCH  78  79
ATOM     79  C   UNL A   1      37.358  32.382  32.003  1.00  0.00     0.160 C 
BRANCH  79  80
ATOM     80  C   UNL A   1      38.262  32.079  33.179  1.00  0.00     0.009 A 
ATOM     81  C   UNL A   1      38.996  33.095  33.827  1.00  0.00     0.047 A 
ATOM     82  C   UNL A   1      38.383  30.776  33.705  1.00  0.00     0.047 A 
ATOM     83  Cl  UNL A   1      38.813  34.773  33.430  1.00  0.00    -0.084 Cl
ATOM     84  C   UNL A   1      39.868  32.809  34.886  1.00  0.00     0.021 A 
ATOM     85  C   UNL A   1      39.219  30.501  34.798  1.00  0.00     0.021 A 
ATOM     86  Cl  UNL A   1      37.471  29.443  33.083  1.00  0.00    -0.084 Cl
ATOM     87  C   UNL A   1      39.980  31.513  35.373  1.00  0.00     0.003 A 
ENDBRANCH  79  80
ENDBRANCH  78  79
ENDBRANCH  72  74
ENDBRANCH  71  72
ENDBRANCH  70  71
ENDBRANCH  69  70
ENDBRANCH  68  69
ENDBRANCH   1  68
TORSDOF 19
ENDMDL
MODEL 2
REMARK VINA RESULT:     -10.0      3.912      6.092
REMARK SMILES O=C(OCCOCCOC(=O)c1ccn(Cc2c(Cl)cccc2Cl)c1)c1ccc(-c2c3nc(c(-c4ccc(S(=O)(=O)[O-])cc4)c4ccc([nH]4)c(-c4ccc(S(=O)(=O)[O-])cc4)c4nc(c(-c5ccc(S(=O)(=O)[O-])cc5)c5ccc2[nH]5)C=C4)C=C3)cc1
REMARK SMILES IDX 5 1 4 2 3 3 2 4 1 5 26 6 27 7 85 8 28 9 84 10 29 11 30 12
REMARK SMILES IDX 31 13 78 14 32 15 83 16 77 17 79 18 33 19 82 20 76 21 75 22
REMARK SMILES IDX 34 24 64 25 45 26 63 27 46 28 49 29 62 30 80 31 47 32 48 33
REMARK SMILES IDX 61 35 81 36 50 37 35 38 36 39 44 40 37 41 43 42 38 43 39 44
REMARK SMILES IDX 40 45 41 46 42 47 65 48 66 49 74 50 67 51 73 52 68 53 69 54
REMARK SMILES IDX 70 55 71 56 72 57 51 58 52 59 60 60 53 61 59 62 54 63 55 64
REMARK SMILES IDX 56 65 57 66 58 67 6 68 7 69 8 70 9 71 10 72 11 73 12 74
REMARK SMILES IDX 13 75 25 76 14 77 15 78 16 79 17 80 18 81 23 82 19 83 20 84
REMARK SMILES IDX 22 85 24 86 21 87
REMARK H PARENT 79 23 49 34
REMARK Flexibility Score: inf
ROOT
ATOM      1  C   UNL A   1      33.188  30.442  27.308  1.00  0.00     0.202 C 
ENDROOT
BRANCH   1   2
ATOM      2  C   UNL A   1      34.375  29.485  27.322  1.00  0.00     0.261 C 
BRANCH   2   3
ATOM      3  O   UNL A   1      35.610  30.215  27.163  1.00  0.00    -0.460 OA
BRANCH   3   4
ATOM      4  C   UNL A   1      36.443  30.539  28.184  1.00  0.00     0.338 C 
ATOM      5  O   UNL A   1      36.154  31.408  28.999  1.00  0.00    -0.246 OA
BRANCH   4   6
ATOM      6  C   UNL A   1      37.541  29.597  28.458  1.00  0.00     0.060 A 
ATOM      7  C   UNL A   1      37.562  28.746  29.562  1.00  0.00     0.016 A 
ATOM      8  C   UNL A   1      38.644  29.675  27.599  1.00  0.00     0.016 A 
ATOM      9  C   UNL A   1      38.762  28.219  29.982  1.00  0.00     0.010 A 
ATOM     10  C   UNL A   1      39.829  29.059  27.958  1.00  0.00     0.010 A 
ATOM     11  C   UNL A   1      39.897  28.405  29.191  1.00  0.00    -0.014 A 
BRANCH  11  12
ATOM     12  C   UNL A   1      41.120  27.722  29.622  1.00  0.00     0.031 A 
ATOM     13  C   UNL A   1      41.348  26.453  28.801  1.00  0.00     0.074 A 
ATOM     14  C   UNL A   1      41.769  28.265  30.694  1.00  0.00     0.049 A 
ATOM     15  N   UNL A   1      41.958  25.361  29.134  1.00  0.00    -0.248 NA
ATOM     16  C   UNL A   1      40.708  26.328  27.459  1.00  0.00     0.031 C 
ATOM     17  C   UNL A   1      41.338  29.484  31.419  1.00  0.00     0.029 A 
ATOM     18  N   UNL A   1      42.899  27.916  31.397  1.00  0.00    -0.354 N 
ATOM     19  C   UNL A   1      41.942  24.515  28.006  1.00  0.00     0.074 A 
ATOM     20  C   UNL A   1      41.040  25.099  27.063  1.00  0.00     0.031 C 
ATOM     21  C   UNL A   1      42.148  29.729  32.473  1.00  0.00     0.029 A 
ATOM     22  C   UNL A   1      43.194  28.728  32.520  1.00  0.00     0.049 A 
ATOM     23  H   UNL A   1      43.464  27.151  31.139  1.00  0.00     0.167 HD
ATOM     24  C   UNL A   1      42.797  23.465  27.852  1.00  0.00     0.031 A 
ATOM     25  C   UNL A   1      44.195  28.586  33.439  1.00  0.00     0.031 A 
ATOM     26  C   UNL A   1      43.647  23.348  28.990  1.00  0.00     0.049 A 
ATOM     27  C   UNL A   1      45.057  27.498  32.941  1.00  0.00     0.074 A 
ATOM     28  C   UNL A   1      43.426  22.936  30.277  1.00  0.00     0.029 A 
ATOM     29  N   UNL A   1      44.824  24.062  28.940  1.00  0.00    -0.354 N 
ATOM     30  N   UNL A   1      45.821  27.569  31.893  1.00  0.00    -0.248 NA
ATOM     31  C   UNL A   1      45.018  26.197  33.619  1.00  0.00     0.031 C 
ATOM     32  C   UNL A   1      44.222  23.813  31.045  1.00  0.00     0.029 A 
ATOM     33  C   UNL A   1      45.022  24.585  30.194  1.00  0.00     0.049 A 
ATOM     34  H   UNL A   1      45.409  24.175  28.157  1.00  0.00     0.167 HD
ATOM     35  C   UNL A   1      46.018  26.248  31.579  1.00  0.00     0.074 A 
ATOM     36  C   UNL A   1      45.801  25.499  32.800  1.00  0.00     0.031 C 
ATOM     37  C   UNL A   1      45.771  25.819  30.313  1.00  0.00     0.031 A 
BRANCH  24  38
ATOM     38  C   UNL A   1      43.154  22.662  26.635  1.00  0.00    -0.014 A 
ATOM     39  C   UNL A   1      42.582  21.369  26.534  1.00  0.00     0.010 A 
ATOM     40  C   UNL A   1      44.240  22.963  25.801  1.00  0.00     0.010 A 
ATOM     41  C   UNL A   1      43.161  20.374  25.748  1.00  0.00     0.020 A 
ATOM     42  C   UNL A   1      44.802  21.977  24.976  1.00  0.00     0.020 A 
ATOM     43  C   UNL A   1      44.295  20.677  25.002  1.00  0.00     0.054 A 
BRANCH  43  44
ATOM     44  S   UNL A   1      45.144  19.323  24.149  1.00  0.00     0.124 S 
ATOM     45  O   UNL A   1      44.729  18.162  24.930  1.00  0.00    -0.237 OA
ATOM     46  O   UNL A   1      44.587  19.401  22.799  1.00  0.00    -0.237 OA
ATOM     47  O   UNL A   1      46.556  19.683  24.253  1.00  0.00    -0.744 OA
ENDBRANCH  43  44
ENDBRANCH  24  38
BRANCH  25  48
ATOM     48  C   UNL A   1      44.553  29.144  34.797  1.00  0.00    -0.014 A 
ATOM     49  C   UNL A   1      45.665  29.939  35.098  1.00  0.00     0.010 A 
ATOM     50  C   UNL A   1      43.601  28.994  35.846  1.00  0.00     0.010 A 
ATOM     51  C   UNL A   1      45.735  30.666  36.311  1.00  0.00     0.020 A 
ATOM     52  C   UNL A   1      43.628  29.748  37.020  1.00  0.00     0.020 A 
ATOM     53  C   UNL A   1      44.688  30.610  37.236  1.00  0.00     0.054 A 
BRANCH  53  54
ATOM     54  S   UNL A   1      44.614  31.759  38.639  1.00  0.00     0.124 S 
ATOM     55  O   UNL A   1      43.285  31.503  39.184  1.00  0.00    -0.237 OA
ATOM     56  O   UNL A   1      45.733  31.328  39.474  1.00  0.00    -0.237 OA
ATOM     57  O   UNL A   1      44.792  33.069  38.012  1.00  0.00    -0.744 OA
ENDBRANCH  53  54
ENDBRANCH  25  48
BRANCH  37  58
ATOM     58  C   UNL A   1      45.910  26.877  29.221  1.00  0.00    -0.014 A 
ATOM     59  C   UNL A   1      47.174  27.414  28.914  1.00  0.00     0.010 A 
ATOM     60  C   UNL A   1      44.807  27.417  28.533  1.00  0.00     0.010 A 
ATOM     61  C   UNL A   1      47.327  28.445  27.971  1.00  0.00     0.020 A 
ATOM     62  C   UNL A   1      44.944  28.449  27.587  1.00  0.00     0.020 A 
ATOM     63  C   UNL A   1      46.211  28.957  27.310  1.00  0.00     0.054 A 
BRANCH  63  64
ATOM     64  S   UNL A   1      46.442  30.293  26.098  1.00  0.00     0.124 S 
ATOM     65  O   UNL A   1      45.273  31.140  26.322  1.00  0.00    -0.237 OA
ATOM     66  O   UNL A   1      47.719  30.871  26.507  1.00  0.00    -0.237 OA
ATOM     67  O   UNL A   1      46.460  29.600  24.810  1.00  0.00    -0.744 OA
ENDBRANCH  63  64
ENDBRANCH  37  58
ENDBRANCH  11  12
ENDBRANCH   4   6
ENDBRANCH   3   4
ENDBRANCH   2   3
ENDBRANCH   1   2
BRANCH   1  68
ATOM     68  O   UNL A   1      31.930  29.913  26.890  1.00  0.00    -0.374 OA
BRANCH  68  69
ATOM     69  C   UNL A   1      31.641  30.035  25.488  1.00  0.00     0.202 C 
BRANCH  69  70
ATOM     70  C   UNL A   1      31.831  28.774  24.627  1.00  0.00     0.261 C 
BRANCH  70  71
ATOM     71  O   UNL A   1      30.580  28.259  24.135  1.00  0.00    -0.460 OA
BRANCH  71  72
ATOM     72  C   UNL A   1      30.610  27.690  22.890  1.00  0.00     0.339 C 
ATOM     73  O   UNL A   1      30.144  28.203  21.880  1.00  0.00    -0.246 OA
BRANCH  72  74
ATOM     74  C   UNL A   1      31.455  26.500  22.862  1.00  0.00     0.077 A 
ATOM     75  C   UNL A   1      32.720  26.316  22.250  1.00  0.00     0.035 A 
ATOM     76  C   UNL A   1      31.101  25.267  23.393  1.00  0.00     0.101 A 
ATOM     77  C   UNL A   1      33.103  25.008  22.461  1.00  0.00     0.087 A 
ATOM     78  N   UNL A   1      32.098  24.355  23.125  1.00  0.00    -0.349 N 
BRANCH  78  79
ATOM     79  C   UNL A   1      32.121  22.980  23.642  1.00  0.00     0.160 C 
BRANCH  79  80
ATOM     80  C   UNL A   1      32.832  22.808  24.968  1.00  0.00     0.009 A 
ATOM     81  C   UNL A   1      34.228  22.616  25.037  1.00  0.00     0.047 A 
ATOM     82  C   UNL A   1      32.138  22.871  26.195  1.00  0.00     0.047 A 
ATOM     83  Cl  UNL A   1      35.250  22.706  23.641  1.00  0.00    -0.084 Cl
ATOM     84  C   UNL A   1      34.880  22.412  26.261  1.00  0.00     0.021 A 
ATOM     85  C   UNL A   1      32.803  22.716  27.421  1.00  0.00     0.021 A 
ATOM     86  Cl  UNL A   1      30.441  23.200  26.278  1.00  0.00    -0.084 Cl
ATOM     87  C   UNL A   1      34.170  22.462  27.453  1.00  0.00     0.003 A 
ENDBRANCH  79  80
ENDBRANCH  78  79
ENDBRANCH  72  74
ENDBRANCH  71  72
ENDBRANCH  70  71
ENDBRANCH  69  70
ENDBRANCH  68  69
ENDBRANCH   1  68
TORSDOF 19
ENDMDL
MODEL 3
REMARK VINA RESULT:     -10.0      5.308     11.119
REMARK SMILES O=C(OCCOCCOC(=O)c1ccn(Cc2c(Cl)cccc2Cl)c1)c1ccc(-c2c3nc(c(-c4ccc(S(=O)(=O)[O-])cc4)c4ccc([nH]4)c(-c4ccc(S(=O)(=O)[O-])cc4)c4nc(c(-c5ccc(S(=O)(=O)[O-])cc5)c5ccc2[nH]5)C=C4)C=C3)cc1
REMARK SMILES IDX 5 1 4 2 3 3 2 4 1 5 26 6 27 7 85 8 28 9 84 10 29 11 30 12
REMARK SMILES IDX 31 13 78 14 32 15 83 16 77 17 79 18 33 19 82 20 76 21 75 22
REMARK SMILES IDX 34 24 64 25 45 26 63 27 46 28 49 29 62 30 80 31 47 32 48 33
REMARK SMILES IDX 61 35 81 36 50 37 35 38 36 39 44 40 37 41 43 42 38 43 39 44
REMARK SMILES IDX 40 45 41 46 42 47 65 48 66 49 74 50 67 51 73 52 68 53 69 54
REMARK SMILES IDX 70 55 71 56 72 57 51 58 52 59 60 60 53 61 59 62 54 63 55 64
REMARK SMILES IDX 56 65 57 66 58 67 6 68 7 69 8 70 9 71 10 72 11 73 12 74
REMARK SMILES IDX 13 75 25 76 14 77 15 78 16 79 17 80 18 81 23 82 19 83 20 84
REMARK SMILES IDX 22 85 24 86 21 87
REMARK H PARENT 79 23 49 34
REMARK Flexibility Score: inf
ROOT
ATOM      1  C   UNL A   1      38.232  19.938  25.146  1.00  0.00     0.202 C 
ENDROOT
BRANCH   1   2
ATOM      2  C   UNL A   1      39.612  20.180  25.749  1.00  0.00     0.261 C 
BRANCH   2   3
ATOM      3  O   UNL A   1      40.388  18.964  25.728  1.00  0.00    -0.460 OA
BRANCH   3   4
ATOM      4  C   UNL A   1      41.708  18.895  26.039  1.00  0.00     0.338 C 
ATOM      5  O   UNL A   1      42.383  17.910  25.758  1.00  0.00    -0.246 OA
BRANCH   4   6
ATOM      6  C   UNL A   1      42.358  20.157  26.428  1.00  0.00     0.060 A 
ATOM      7  C   UNL A   1      42.275  20.697  27.710  1.00  0.00     0.016 A 
ATOM      8  C   UNL A   1      42.986  20.866  25.397  1.00  0.00     0.016 A 
ATOM      9  C   UNL A   1      42.531  22.036  27.894  1.00  0.00     0.010 A 
ATOM     10  C   UNL A   1      43.347  22.185  25.602  1.00  0.00     0.010 A 
ATOM     11  C   UNL A   1      43.038  22.781  26.827  1.00  0.00    -0.014 A 
BRANCH  11  12
ATOM     12  C   UNL A   1      43.405  24.171  27.110  1.00  0.00     0.031 A 
ATOM     13  C   UNL A   1      42.156  25.034  27.286  1.00  0.00     0.074 A 
ATOM     14  C   UNL A   1      44.739  24.462  27.083  1.00  0.00     0.049 A 
ATOM     15  N   UNL A   1      41.995  26.299  27.061  1.00  0.00    -0.248 NA
ATOM     16  C   UNL A   1      40.864  24.382  27.653  1.00  0.00     0.031 C 
ATOM     17  C   UNL A   1      45.816  23.480  26.811  1.00  0.00     0.029 A 
ATOM     18  N   UNL A   1      45.463  25.618  27.261  1.00  0.00    -0.354 N 
ATOM     19  C   UNL A   1      40.674  26.624  27.432  1.00  0.00     0.074 A 
ATOM     20  C   UNL A   1      39.988  25.388  27.647  1.00  0.00     0.031 C 
ATOM     21  C   UNL A   1      47.024  24.085  26.786  1.00  0.00     0.029 A 
ATOM     22  C   UNL A   1      46.862  25.496  27.068  1.00  0.00     0.049 A 
ATOM     23  H   UNL A   1      45.039  26.472  27.506  1.00  0.00     0.167 HD
ATOM     24  C   UNL A   1      40.267  27.898  27.693  1.00  0.00     0.031 A 
ATOM     25  C   UNL A   1      47.818  26.472  27.107  1.00  0.00     0.031 A 
ATOM     26  C   UNL A   1      41.344  28.810  27.502  1.00  0.00     0.049 A 
ATOM     27  C   UNL A   1      47.138  27.693  27.575  1.00  0.00     0.074 A 
ATOM     28  C   UNL A   1      41.978  29.279  26.382  1.00  0.00     0.029 A 
ATOM     29  N   UNL A   1      42.140  29.046  28.601  1.00  0.00    -0.354 N 
ATOM     30  N   UNL A   1      46.682  27.881  28.776  1.00  0.00    -0.248 NA
ATOM     31  C   UNL A   1      46.880  28.773  26.615  1.00  0.00     0.031 C 
ATOM     32  C   UNL A   1      43.332  29.349  26.774  1.00  0.00     0.029 A 
ATOM     33  C   UNL A   1      43.434  29.103  28.148  1.00  0.00     0.049 A 
ATOM     34  H   UNL A   1      41.838  29.152  29.532  1.00  0.00     0.167 HD
ATOM     35  C   UNL A   1      45.765  28.885  28.592  1.00  0.00     0.074 A 
ATOM     36  C   UNL A   1      46.158  29.584  27.385  1.00  0.00     0.031 C 
ATOM     37  C   UNL A   1      44.498  28.727  29.057  1.00  0.00     0.031 A 
BRANCH  24  38
ATOM     38  C   UNL A   1      39.039  28.411  28.387  1.00  0.00    -0.014 A 
ATOM     39  C   UNL A   1      38.415  29.550  27.819  1.00  0.00     0.010 A 
ATOM     40  C   UNL A   1      38.687  28.058  29.697  1.00  0.00     0.010 A 
ATOM     41  C   UNL A   1      37.593  30.385  28.574  1.00  0.00     0.020 A 
ATOM     42  C   UNL A   1      37.827  28.873  30.450  1.00  0.00     0.020 A 
ATOM     43  C   UNL A   1      37.336  30.059  29.901  1.00  0.00     0.054 A 
BRANCH  43  44
ATOM     44  S   UNL A   1      36.433  31.257  30.917  1.00  0.00     0.124 S 
ATOM     45  O   UNL A   1      35.399  31.720  29.997  1.00  0.00    -0.237 OA
ATOM     46  O   UNL A   1      35.958  30.435  32.029  1.00  0.00    -0.237 OA
ATOM     47  O   UNL A   1      37.451  32.242  31.273  1.00  0.00    -0.744 OA
ENDBRANCH  43  44
ENDBRANCH  24  38
BRANCH  25  48
ATOM     48  C   UNL A   1      49.267  26.633  26.708  1.00  0.00    -0.014 A 
ATOM     49  C   UNL A   1      50.352  26.790  27.579  1.00  0.00     0.010 A 
ATOM     50  C   UNL A   1      49.600  26.448  25.335  1.00  0.00     0.010 A 
ATOM     51  C   UNL A   1      51.681  26.611  27.127  1.00  0.00     0.020 A 
ATOM     52  C   UNL A   1      50.901  26.212  24.887  1.00  0.00     0.020 A 
ATOM     53  C   UNL A   1      51.941  26.266  25.797  1.00  0.00     0.054 A 
BRANCH  53  54
ATOM     54  S   UNL A   1      53.595  25.734  25.273  1.00  0.00     0.124 S 
ATOM     55  O   UNL A   1      53.825  26.550  24.085  1.00  0.00    -0.237 OA
ATOM     56  O   UNL A   1      54.425  26.057  26.431  1.00  0.00    -0.237 OA
ATOM     57  O   UNL A   1      53.427  24.302  25.026  1.00  0.00    -0.744 OA
ENDBRANCH  53  54
ENDBRANCH  25  48
BRANCH  37  58
ATOM     58  C   UNL A   1      44.348  27.787  30.251  1.00  0.00    -0.014 A 
ATOM     59  C   UNL A   1      44.598  28.254  31.554  1.00  0.00     0.010 A 
ATOM     60  C   UNL A   1      44.039  26.420  30.115  1.00  0.00     0.010 A 
ATOM     61  C   UNL A   1      44.546  27.397  32.667  1.00  0.00     0.020 A 
ATOM     62  C   UNL A   1      43.985  25.549  31.219  1.00  0.00     0.020 A 
ATOM     63  C   UNL A   1      44.238  26.048  32.495  1.00  0.00     0.054 A 
BRANCH  63  64
ATOM     64  S   UNL A   1      44.183  24.964  33.954  1.00  0.00     0.124 S 
ATOM     65  O   UNL A   1      42.918  25.334  34.585  1.00  0.00    -0.237 OA
ATOM     66  O   UNL A   1      44.216  23.631  33.357  1.00  0.00    -0.237 OA
ATOM     67  O   UNL A   1      45.379  25.333  34.711  1.00  0.00    -0.744 OA
ENDBRANCH  63  64
ENDBRANCH  37  58
ENDBRANCH  11  12
ENDBRANCH   4   6
ENDBRANCH   3   4
ENDBRANCH   2   3
ENDBRANCH   1   2
BRANCH   1  68
ATOM     68  O   UNL A   1      37.546  21.070  24.613  1.00  0.00    -0.374 OA
BRANCH  68  69
ATOM     69  C   UNL A   1      36.410  21.519  25.369  1.00  0.00     0.202 C 
BRANCH  69  70
ATOM     70  C   UNL A   1      35.097  20.737  25.183  1.00  0.00     0.261 C 
BRANCH  70  71
ATOM     71  O   UNL A   1      34.223  21.365  24.226  1.00  0.00    -0.460 OA
BRANCH  71  72
ATOM     72  C   UNL A   1      32.883  21.141  24.398  1.00  0.00     0.339 C 
ATOM     73  O   UNL A   1      32.357  20.034  24.386  1.00  0.00    -0.246 OA
BRANCH  72  74
ATOM     74  C   UNL A   1      32.183  22.351  24.814  1.00  0.00     0.077 A 
ATOM     75  C   UNL A   1      31.618  22.669  26.074  1.00  0.00     0.035 A 
ATOM     76  C   UNL A   1      31.874  23.413  23.975  1.00  0.00     0.101 A 
ATOM     77  C   UNL A   1      31.027  23.911  25.970  1.00  0.00     0.087 A 
ATOM     78  N   UNL A   1      31.148  24.351  24.678  1.00  0.00    -0.349 N 
BRANCH  78  79
ATOM     79  C   UNL A   1      30.756  25.661  24.144  1.00  0.00     0.160 C 
BRANCH  79  80
ATOM     80  C   UNL A   1      31.901  26.622  23.903  1.00  0.00     0.009 A 
ATOM     81  C   UNL A   1      32.447  27.397  24.949  1.00  0.00     0.047 A 
ATOM     82  C   UNL A   1      32.500  26.759  22.633  1.00  0.00     0.047 A 
ATOM     83  Cl  UNL A   1      31.957  27.208  26.601  1.00  0.00    -0.084 Cl
ATOM     84  C   UNL A   1      33.476  28.319  24.718  1.00  0.00     0.021 A 
ATOM     85  C   UNL A   1      33.564  27.648  22.417  1.00  0.00     0.021 A 
ATOM     86  Cl  UNL A   1      32.008  25.805  21.276  1.00  0.00    -0.084 Cl
ATOM     87  C   UNL A   1      34.036  28.446  23.453  1.00  0.00     0.003 A 
ENDBRANCH  79  80
ENDBRANCH  78  79
ENDBRANCH  72  74
ENDBRANCH  71  72
ENDBRANCH  70  71
ENDBRANCH  69  70
ENDBRANCH  68  69
ENDBRANCH   1  68
TORSDOF 19
ENDMDL
