MODEL 1
REMARK VINA RESULT:     -10.2      0.000      0.000
REMARK SMILES O=C(CN(Cc1ccccc1Cl)S(=O)(=O)c1ccc(Cl)cc1)OCCOCCOC(=O)c1ccc(-c2c3nc(c(-c4ccc(S(=O)(=O)[O-])cc4)c4ccc([nH]4)c(-c4ccc(S(=O)(=O)[O-])cc4)c4nc(c(-c5ccc(S(=O)(=O)[O-])cc5)c5ccc2[nH]5)C=C4)C=C3)cc1
REMARK SMILES IDX 26 1 25 2 24 3 23 4 2 5 1 6 3 7 4 8 5 9 6 10 7 11 11 12 8 13
REMARK SMILES IDX 10 14 12 15 9 16 13 17 14 18 15 19 16 20 17 21 22 22 18 23
REMARK SMILES IDX 21 24 19 25 20 26 27 27 28 28 29 29 30 30 31 31 32 32 33 33
REMARK SMILES IDX 91 34 34 35 90 36 35 37 36 38 37 39 84 40 38 41 89 42 83 43
REMARK SMILES IDX 85 44 39 45 88 46 82 47 81 48 40 50 70 51 51 52 69 53 52 54
REMARK SMILES IDX 55 55 68 56 86 57 53 58 54 59 67 61 87 62 56 63 41 64 42 65
REMARK SMILES IDX 50 66 43 67 49 68 44 69 45 70 46 71 47 72 48 73 71 74 72 75
REMARK SMILES IDX 80 76 73 77 79 78 74 79 75 80 76 81 77 82 78 83 57 84 58 85
REMARK SMILES IDX 66 86 59 87 65 88 60 89 61 90 62 91 63 92 64 93
REMARK H PARENT 85 49 55 60
REMARK Flexibility Score: inf
ROOT
ATOM      1  O   UNL A   1      31.636  29.419  25.918  1.00  0.00    -0.374 OA
ENDROOT
BRANCH   1   2
ATOM      2  C   UNL A   1      31.685  28.169  26.605  1.00  0.00     0.202 C 
BRANCH   2   3
ATOM      3  C   UNL A   1      32.200  26.987  25.790  1.00  0.00     0.261 C 
BRANCH   3   4
ATOM      4  O   UNL A   1      31.130  26.257  25.164  1.00  0.00    -0.462 OA
BRANCH   4   5
ATOM      5  C   UNL A   1      30.744  26.403  23.874  1.00  0.00     0.321 C 
ATOM      6  O   UNL A   1      29.998  27.332  23.557  1.00  0.00    -0.251 OA
BRANCH   5   7
ATOM      7  C   UNL A   1      31.112  25.340  22.868  1.00  0.00     0.225 C 
BRANCH   7   8
ATOM      8  N   UNL A   1      32.050  24.261  23.292  1.00  0.00    -0.182 NA
BRANCH   8   9
ATOM      9  C   UNL A   1      31.327  23.042  23.733  1.00  0.00     0.140 C 
BRANCH   9  10
ATOM     10  C   UNL A   1      32.127  21.934  24.394  1.00  0.00    -0.014 A 
ATOM     11  C   UNL A   1      32.496  20.793  23.666  1.00  0.00     0.006 A 
ATOM     12  C   UNL A   1      32.565  22.007  25.730  1.00  0.00     0.045 A 
ATOM     13  C   UNL A   1      33.182  19.728  24.252  1.00  0.00     0.000 A 
ATOM     14  C   UNL A   1      33.267  20.945  26.318  1.00  0.00     0.021 A 
ATOM     15  Cl  UNL A   1      32.293  23.396  26.722  1.00  0.00    -0.084 Cl
ATOM     16  C   UNL A   1      33.559  19.799  25.584  1.00  0.00     0.002 A 
ENDBRANCH   9  10
ENDBRANCH   8   9
BRANCH   8  17
ATOM     17  S   UNL A   1      33.517  24.298  22.452  1.00  0.00     0.243 S 
ATOM     18  O   UNL A   1      33.454  23.337  21.361  1.00  0.00    -0.207 OA
ATOM     19  O   UNL A   1      33.781  25.680  22.168  1.00  0.00    -0.207 OA
BRANCH  17  20
ATOM     20  C   UNL A   1      34.810  23.740  23.536  1.00  0.00     0.082 A 
ATOM     21  C   UNL A   1      35.708  22.749  23.130  1.00  0.00     0.023 A 
ATOM     22  C   UNL A   1      35.027  24.435  24.733  1.00  0.00     0.023 A 
ATOM     23  C   UNL A   1      36.777  22.400  23.956  1.00  0.00     0.022 A 
ATOM     24  C   UNL A   1      36.130  24.119  25.531  1.00  0.00     0.022 A 
ATOM     25  C   UNL A   1      36.992  23.094  25.146  1.00  0.00     0.041 A 
ATOM     26  Cl  UNL A   1      38.356  22.709  26.119  1.00  0.00    -0.084 Cl
ENDBRANCH  17  20
ENDBRANCH   8  17
ENDBRANCH   7   8
ENDBRANCH   5   7
ENDBRANCH   4   5
ENDBRANCH   3   4
ENDBRANCH   2   3
ENDBRANCH   1   2
BRANCH   1  27
ATOM     27  C   UNL A   1      32.259  30.532  26.572  1.00  0.00     0.202 C 
BRANCH  27  28
ATOM     28  C   UNL A   1      33.618  30.282  27.234  1.00  0.00     0.261 C 
BRANCH  28  29
ATOM     29  O   UNL A   1      34.310  31.514  27.478  1.00  0.00    -0.460 OA
BRANCH  29  30
ATOM     30  C   UNL A   1      34.966  31.562  28.662  1.00  0.00     0.338 C 
ATOM     31  O   UNL A   1      34.591  32.114  29.683  1.00  0.00    -0.246 OA
BRANCH  30  32
ATOM     32  C   UNL A   1      36.127  30.650  28.626  1.00  0.00     0.060 A 
ATOM     33  C   UNL A   1      36.337  29.849  29.756  1.00  0.00     0.016 A 
ATOM     34  C   UNL A   1      37.014  30.606  27.546  1.00  0.00     0.016 A 
ATOM     35  C   UNL A   1      37.498  29.095  29.866  1.00  0.00     0.010 A 
ATOM     36  C   UNL A   1      38.182  29.848  27.657  1.00  0.00     0.010 A 
ATOM     37  C   UNL A   1      38.458  29.156  28.849  1.00  0.00    -0.014 A 
BRANCH  37  38
ATOM     38  C   UNL A   1      39.840  28.736  29.166  1.00  0.00     0.031 A 
ATOM     39  C   UNL A   1      40.697  29.686  29.965  1.00  0.00     0.074 A 
ATOM     40  C   UNL A   1      40.291  27.517  28.829  1.00  0.00     0.049 A 
ATOM     41  N   UNL A   1      41.917  29.533  30.405  1.00  0.00    -0.248 NA
ATOM     42  C   UNL A   1      40.093  30.986  30.311  1.00  0.00     0.031 C 
ATOM     43  C   UNL A   1      39.526  26.501  28.106  1.00  0.00     0.029 A 
ATOM     44  N   UNL A   1      41.504  26.924  29.064  1.00  0.00    -0.354 N 
ATOM     45  C   UNL A   1      42.231  30.719  31.062  1.00  0.00     0.074 A 
ATOM     46  C   UNL A   1      41.089  31.593  30.937  1.00  0.00     0.031 C 
ATOM     47  C   UNL A   1      40.289  25.402  27.964  1.00  0.00     0.029 A 
ATOM     48  C   UNL A   1      41.600  25.650  28.562  1.00  0.00     0.049 A 
ATOM     49  H   UNL A   1      42.237  27.370  29.546  1.00  0.00     0.167 HD
ATOM     50  C   UNL A   1      43.369  31.047  31.719  1.00  0.00     0.031 A 
ATOM     51  C   UNL A   1      42.634  24.787  28.582  1.00  0.00     0.031 A 
ATOM     52  C   UNL A   1      44.500  30.169  31.835  1.00  0.00     0.049 A 
ATOM     53  C   UNL A   1      43.907  25.193  29.276  1.00  0.00     0.074 A 
ATOM     54  C   UNL A   1      45.698  30.389  32.490  1.00  0.00     0.029 A 
ATOM     55  N   UNL A   1      44.572  28.901  31.279  1.00  0.00    -0.354 N 
ATOM     56  N   UNL A   1      44.184  26.310  29.908  1.00  0.00    -0.248 NA
ATOM     57  C   UNL A   1      45.002  24.214  29.275  1.00  0.00     0.031 C 
ATOM     58  C   UNL A   1      46.517  29.275  32.281  1.00  0.00     0.029 A 
ATOM     59  C   UNL A   1      45.803  28.333  31.556  1.00  0.00     0.049 A 
ATOM     60  H   UNL A   1      43.854  28.468  30.762  1.00  0.00     0.167 HD
ATOM     61  C   UNL A   1      45.470  26.150  30.417  1.00  0.00     0.074 A 
ATOM     62  C   UNL A   1      45.910  24.827  30.022  1.00  0.00     0.031 C 
ATOM     63  C   UNL A   1      46.216  27.012  31.153  1.00  0.00     0.031 A 
BRANCH  50  64
ATOM     64  C   UNL A   1      43.453  32.430  32.312  1.00  0.00    -0.014 A 
ATOM     65  C   UNL A   1      43.805  33.548  31.532  1.00  0.00     0.010 A 
ATOM     66  C   UNL A   1      43.163  32.614  33.677  1.00  0.00     0.010 A 
ATOM     67  C   UNL A   1      43.910  34.813  32.116  1.00  0.00     0.020 A 
ATOM     68  C   UNL A   1      43.237  33.883  34.257  1.00  0.00     0.020 A 
ATOM     69  C   UNL A   1      43.629  34.972  33.477  1.00  0.00     0.054 A 
BRANCH  69  70
ATOM     70  S   UNL A   1      43.759  36.627  34.208  1.00  0.00     0.124 S 
ATOM     71  O   UNL A   1      45.205  36.780  34.351  1.00  0.00    -0.237 OA
ATOM     72  O   UNL A   1      43.135  37.475  33.195  1.00  0.00    -0.237 OA
ATOM     73  O   UNL A   1      43.019  36.512  35.462  1.00  0.00    -0.744 OA
ENDBRANCH  69  70
ENDBRANCH  50  64
BRANCH  51  74
ATOM     74  C   UNL A   1      42.500  23.451  27.940  1.00  0.00    -0.014 A 
ATOM     75  C   UNL A   1      42.892  23.253  26.605  1.00  0.00     0.010 A 
ATOM     76  C   UNL A   1      41.985  22.361  28.668  1.00  0.00     0.010 A 
ATOM     77  C   UNL A   1      42.757  21.998  26.004  1.00  0.00     0.020 A 
ATOM     78  C   UNL A   1      41.875  21.099  28.079  1.00  0.00     0.020 A 
ATOM     79  C   UNL A   1      42.252  20.927  26.747  1.00  0.00     0.054 A 
BRANCH  79  80
ATOM     80  S   UNL A   1      42.134  19.296  25.961  1.00  0.00     0.124 S 
ATOM     81  O   UNL A   1      40.702  19.186  25.699  1.00  0.00    -0.237 OA
ATOM     82  O   UNL A   1      42.983  19.453  24.782  1.00  0.00    -0.237 OA
ATOM     83  O   UNL A   1      42.657  18.388  26.979  1.00  0.00    -0.744 OA
ENDBRANCH  79  80
ENDBRANCH  51  74
BRANCH  63  84
ATOM     84  C   UNL A   1      47.559  26.528  31.630  1.00  0.00    -0.014 A 
ATOM     85  C   UNL A   1      48.721  26.690  30.856  1.00  0.00     0.010 A 
ATOM     86  C   UNL A   1      47.659  25.929  32.901  1.00  0.00     0.010 A 
ATOM     87  C   UNL A   1      49.950  26.216  31.322  1.00  0.00     0.020 A 
ATOM     88  C   UNL A   1      48.890  25.484  33.384  1.00  0.00     0.020 A 
ATOM     89  C   UNL A   1      50.025  25.611  32.582  1.00  0.00     0.054 A 
BRANCH  89  90
ATOM     90  S   UNL A   1      51.634  25.017  33.173  1.00  0.00     0.124 S 
ATOM     91  O   UNL A   1      51.293  24.481  34.488  1.00  0.00    -0.237 OA
ATOM     92  O   UNL A   1      52.000  24.026  32.164  1.00  0.00    -0.237 OA
ATOM     93  O   UNL A   1      52.462  26.220  33.187  1.00  0.00    -0.744 OA
ENDBRANCH  89  90
ENDBRANCH  63  84
ENDBRANCH  37  38
ENDBRANCH  30  32
ENDBRANCH  29  30
ENDBRANCH  28  29
ENDBRANCH  27  28
ENDBRANCH   1  27
TORSDOF 22
ENDMDL
MODEL 2
REMARK VINA RESULT:      -9.7      3.692      9.007
REMARK SMILES O=C(CN(Cc1ccccc1Cl)S(=O)(=O)c1ccc(Cl)cc1)OCCOCCOC(=O)c1ccc(-c2c3nc(c(-c4ccc(S(=O)(=O)[O-])cc4)c4ccc([nH]4)c(-c4ccc(S(=O)(=O)[O-])cc4)c4nc(c(-c5ccc(S(=O)(=O)[O-])cc5)c5ccc2[nH]5)C=C4)C=C3)cc1
REMARK SMILES IDX 26 1 25 2 24 3 23 4 2 5 1 6 3 7 4 8 5 9 6 10 7 11 11 12 8 13
REMARK SMILES IDX 10 14 12 15 9 16 13 17 14 18 15 19 16 20 17 21 22 22 18 23
REMARK SMILES IDX 21 24 19 25 20 26 27 27 28 28 29 29 30 30 31 31 32 32 33 33
REMARK SMILES IDX 91 34 34 35 90 36 35 37 36 38 37 39 84 40 38 41 89 42 83 43
REMARK SMILES IDX 85 44 39 45 88 46 82 47 81 48 40 50 70 51 51 52 69 53 52 54
REMARK SMILES IDX 55 55 68 56 86 57 53 58 54 59 67 61 87 62 56 63 41 64 42 65
REMARK SMILES IDX 50 66 43 67 49 68 44 69 45 70 46 71 47 72 48 73 71 74 72 75
REMARK SMILES IDX 80 76 73 77 79 78 74 79 75 80 76 81 77 82 78 83 57 84 58 85
REMARK SMILES IDX 66 86 59 87 65 88 60 89 61 90 62 91 63 92 64 93
REMARK H PARENT 85 49 55 60
REMARK Flexibility Score: inf
ROOT
ATOM      1  O   UNL A   1      34.413  28.559  25.950  1.00  0.00    -0.374 OA
ENDROOT
BRANCH   1   2
ATOM      2  C   UNL A   1      33.661  27.490  25.378  1.00  0.00     0.202 C 
BRANCH   2   3
ATOM      3  C   UNL A   1      32.150  27.565  25.577  1.00  0.00     0.261 C 
BRANCH   3   4
ATOM      4  O   UNL A   1      31.445  27.636  24.325  1.00  0.00    -0.462 OA
BRANCH   4   5
ATOM      5  C   UNL A   1      30.659  26.654  23.823  1.00  0.00     0.321 C 
ATOM      6  O   UNL A   1      29.498  26.533  24.217  1.00  0.00    -0.251 OA
BRANCH   5   7
ATOM      7  C   UNL A   1      31.263  25.626  22.896  1.00  0.00     0.225 C 
BRANCH   7   8
ATOM      8  N   UNL A   1      32.208  24.626  23.471  1.00  0.00    -0.182 NA
BRANCH   8   9
ATOM      9  C   UNL A   1      31.495  23.541  24.190  1.00  0.00     0.140 C 
BRANCH   9  10
ATOM     10  C   UNL A   1      32.253  22.765  25.252  1.00  0.00    -0.014 A 
ATOM     11  C   UNL A   1      32.424  23.301  26.537  1.00  0.00     0.006 A 
ATOM     12  C   UNL A   1      32.778  21.479  25.021  1.00  0.00     0.045 A 
ATOM     13  C   UNL A   1      33.162  22.643  27.522  1.00  0.00     0.000 A 
ATOM     14  C   UNL A   1      33.508  20.810  26.015  1.00  0.00     0.021 A 
ATOM     15  Cl  UNL A   1      32.550  20.635  23.530  1.00  0.00    -0.084 Cl
ATOM     16  C   UNL A   1      33.715  21.400  27.258  1.00  0.00     0.002 A 
ENDBRANCH   9  10
ENDBRANCH   8   9
BRANCH   8  17
ATOM     17  S   UNL A   1      33.619  24.451  22.555  1.00  0.00     0.243 S 
ATOM     18  O   UNL A   1      33.384  23.452  21.523  1.00  0.00    -0.207 OA
ATOM     19  O   UNL A   1      34.020  25.778  22.181  1.00  0.00    -0.207 OA
BRANCH  17  20
ATOM     20  C   UNL A   1      34.901  23.801  23.598  1.00  0.00     0.082 A 
ATOM     21  C   UNL A   1      35.722  22.759  23.160  1.00  0.00     0.023 A 
ATOM     22  C   UNL A   1      35.195  24.470  24.794  1.00  0.00     0.023 A 
ATOM     23  C   UNL A   1      36.789  22.334  23.954  1.00  0.00     0.022 A 
ATOM     24  C   UNL A   1      36.296  24.075  25.559  1.00  0.00     0.022 A 
ATOM     25  C   UNL A   1      37.080  23.001  25.143  1.00  0.00     0.041 A 
ATOM     26  Cl  UNL A   1      38.442  22.520  26.075  1.00  0.00    -0.084 Cl
ENDBRANCH  17  20
ENDBRANCH   8  17
ENDBRANCH   7   8
ENDBRANCH   5   7
ENDBRANCH   4   5
ENDBRANCH   3   4
ENDBRANCH   2   3
ENDBRANCH   1   2
BRANCH   1  27
ATOM     27  C   UNL A   1      34.001  29.007  27.248  1.00  0.00     0.202 C 
BRANCH  27  28
ATOM     28  C   UNL A   1      34.938  29.971  27.984  1.00  0.00     0.261 C 
BRANCH  28  29
ATOM     29  O   UNL A   1      36.308  29.726  27.640  1.00  0.00    -0.460 OA
BRANCH  29  30
ATOM     30  C   UNL A   1      37.155  29.707  28.696  1.00  0.00     0.338 C 
ATOM     31  O   UNL A   1      36.871  29.917  29.864  1.00  0.00    -0.246 OA
BRANCH  30  32
ATOM     32  C   UNL A   1      38.466  29.173  28.275  1.00  0.00     0.060 A 
ATOM     33  C   UNL A   1      39.214  28.495  29.248  1.00  0.00     0.016 A 
ATOM     34  C   UNL A   1      38.977  29.364  26.988  1.00  0.00     0.016 A 
ATOM     35  C   UNL A   1      40.522  28.115  28.977  1.00  0.00     0.010 A 
ATOM     36  C   UNL A   1      40.292  28.982  26.715  1.00  0.00     0.010 A 
ATOM     37  C   UNL A   1      41.087  28.430  27.736  1.00  0.00    -0.014 A 
BRANCH  37  38
ATOM     38  C   UNL A   1      42.562  28.438  27.621  1.00  0.00     0.031 A 
ATOM     39  C   UNL A   1      43.227  27.214  27.043  1.00  0.00     0.074 A 
ATOM     40  C   UNL A   1      43.278  29.527  27.941  1.00  0.00     0.049 A 
ATOM     41  N   UNL A   1      44.492  26.994  26.799  1.00  0.00    -0.248 NA
ATOM     42  C   UNL A   1      42.344  26.086  26.695  1.00  0.00     0.031 C 
ATOM     43  C   UNL A   1      42.729  30.782  28.455  1.00  0.00     0.029 A 
ATOM     44  N   UNL A   1      44.627  29.753  27.867  1.00  0.00    -0.354 N 
ATOM     45  C   UNL A   1      44.556  25.701  26.288  1.00  0.00     0.074 A 
ATOM     46  C   UNL A   1      43.211  25.174  26.285  1.00  0.00     0.031 C 
ATOM     47  C   UNL A   1      43.737  31.652  28.642  1.00  0.00     0.029 A 
ATOM     48  C   UNL A   1      44.999  31.007  28.286  1.00  0.00     0.049 A 
ATOM     49  H   UNL A   1      45.270  29.081  27.544  1.00  0.00     0.167 HD
ATOM     50  C   UNL A   1      45.639  25.016  25.852  1.00  0.00     0.031 A 
ATOM     51  C   UNL A   1      46.222  31.563  28.376  1.00  0.00     0.031 A 
ATOM     52  C   UNL A   1      46.973  25.551  25.861  1.00  0.00     0.049 A 
ATOM     53  C   UNL A   1      47.419  30.764  27.930  1.00  0.00     0.074 A 
ATOM     54  C   UNL A   1      48.143  24.955  25.429  1.00  0.00     0.029 A 
ATOM     55  N   UNL A   1      47.313  26.811  26.330  1.00  0.00    -0.354 N 
ATOM     56  N   UNL A   1      47.464  29.550  27.432  1.00  0.00    -0.248 NA
ATOM     57  C   UNL A   1      48.729  31.419  28.042  1.00  0.00     0.031 C 
ATOM     58  C   UNL A   1      49.199  25.833  25.690  1.00  0.00     0.029 A 
ATOM     59  C   UNL A   1      48.678  27.004  26.220  1.00  0.00     0.049 A 
ATOM     60  H   UNL A   1      46.676  27.471  26.691  1.00  0.00     0.167 HD
ATOM     61  C   UNL A   1      48.802  29.312  27.131  1.00  0.00     0.074 A 
ATOM     62  C   UNL A   1      49.529  30.511  27.499  1.00  0.00     0.031 C 
ATOM     63  C   UNL A   1      49.378  28.209  26.591  1.00  0.00     0.031 A 
BRANCH  50  64
ATOM     64  C   UNL A   1      45.423  23.602  25.380  1.00  0.00    -0.014 A 
ATOM     65  C   UNL A   1      44.889  23.321  24.108  1.00  0.00     0.010 A 
ATOM     66  C   UNL A   1      45.772  22.532  26.224  1.00  0.00     0.010 A 
ATOM     67  C   UNL A   1      44.666  22.000  23.709  1.00  0.00     0.020 A 
ATOM     68  C   UNL A   1      45.579  21.209  25.817  1.00  0.00     0.020 A 
ATOM     69  C   UNL A   1      45.010  20.951  24.569  1.00  0.00     0.054 A 
BRANCH  69  70
ATOM     70  S   UNL A   1      44.723  19.246  24.022  1.00  0.00     0.124 S 
ATOM     71  O   UNL A   1      44.641  19.404  22.572  1.00  0.00    -0.237 OA
ATOM     72  O   UNL A   1      45.909  18.548  24.512  1.00  0.00    -0.237 OA
ATOM     73  O   UNL A   1      43.472  18.876  24.679  1.00  0.00    -0.744 OA
ENDBRANCH  69  70
ENDBRANCH  50  64
BRANCH  51  74
ATOM     74  C   UNL A   1      46.373  32.951  28.891  1.00  0.00    -0.014 A 
ATOM     75  C   UNL A   1      46.296  34.052  28.020  1.00  0.00     0.010 A 
ATOM     76  C   UNL A   1      46.586  33.181  30.263  1.00  0.00     0.010 A 
ATOM     77  C   UNL A   1      46.447  35.354  28.507  1.00  0.00     0.020 A 
ATOM     78  C   UNL A   1      46.708  34.482  30.758  1.00  0.00     0.020 A 
ATOM     79  C   UNL A   1      46.649  35.561  29.875  1.00  0.00     0.054 A 
BRANCH  79  80
ATOM     80  S   UNL A   1      46.789  37.262  30.491  1.00  0.00     0.124 S 
ATOM     81  O   UNL A   1      47.971  37.745  29.783  1.00  0.00    -0.237 OA
ATOM     82  O   UNL A   1      45.518  37.851  30.078  1.00  0.00    -0.237 OA
ATOM     83  O   UNL A   1      46.949  37.091  31.933  1.00  0.00    -0.744 OA
ENDBRANCH  79  80
ENDBRANCH  51  74
BRANCH  63  84
ATOM     84  C   UNL A   1      50.855  28.270  26.307  1.00  0.00    -0.014 A 
ATOM     85  C   UNL A   1      51.353  28.733  25.078  1.00  0.00     0.010 A 
ATOM     86  C   UNL A   1      51.762  27.886  27.314  1.00  0.00     0.010 A 
ATOM     87  C   UNL A   1      52.730  28.763  24.841  1.00  0.00     0.020 A 
ATOM     88  C   UNL A   1      53.139  27.946  27.094  1.00  0.00     0.020 A 
ATOM     89  C   UNL A   1      53.613  28.365  25.850  1.00  0.00     0.054 A 
BRANCH  89  90
ATOM     90  S   UNL A   1      55.397  28.426  25.526  1.00  0.00     0.124 S 
ATOM     91  O   UNL A   1      55.931  28.768  26.841  1.00  0.00    -0.237 OA
ATOM     92  O   UNL A   1      55.686  27.072  25.061  1.00  0.00    -0.237 OA
ATOM     93  O   UNL A   1      55.527  29.469  24.511  1.00  0.00    -0.744 OA
ENDBRANCH  89  90
ENDBRANCH  63  84
ENDBRANCH  37  38
ENDBRANCH  30  32
ENDBRANCH  29  30
ENDBRANCH  28  29
ENDBRANCH  27  28
ENDBRANCH   1  27
TORSDOF 22
ENDMDL
MODEL 3
REMARK VINA RESULT:      -9.5      3.629      9.279
REMARK SMILES O=C(CN(Cc1ccccc1Cl)S(=O)(=O)c1ccc(Cl)cc1)OCCOCCOC(=O)c1ccc(-c2c3nc(c(-c4ccc(S(=O)(=O)[O-])cc4)c4ccc([nH]4)c(-c4ccc(S(=O)(=O)[O-])cc4)c4nc(c(-c5ccc(S(=O)(=O)[O-])cc5)c5ccc2[nH]5)C=C4)C=C3)cc1
REMARK SMILES IDX 26 1 25 2 24 3 23 4 2 5 1 6 3 7 4 8 5 9 6 10 7 11 11 12 8 13
REMARK SMILES IDX 10 14 12 15 9 16 13 17 14 18 15 19 16 20 17 21 22 22 18 23
REMARK SMILES IDX 21 24 19 25 20 26 27 27 28 28 29 29 30 30 31 31 32 32 33 33
REMARK SMILES IDX 91 34 34 35 90 36 35 37 36 38 37 39 84 40 38 41 89 42 83 43
REMARK SMILES IDX 85 44 39 45 88 46 82 47 81 48 40 50 70 51 51 52 69 53 52 54
REMARK SMILES IDX 55 55 68 56 86 57 53 58 54 59 67 61 87 62 56 63 41 64 42 65
REMARK SMILES IDX 50 66 43 67 49 68 44 69 45 70 46 71 47 72 48 73 71 74 72 75
REMARK SMILES IDX 80 76 73 77 79 78 74 79 75 80 76 81 77 82 78 83 57 84 58 85
REMARK SMILES IDX 66 86 59 87 65 88 60 89 61 90 62 91 63 92 64 93
REMARK H PARENT 85 49 55 60
REMARK Flexibility Score: inf
ROOT
ATOM      1  O   UNL A   1      33.616  29.893  26.817  1.00  0.00    -0.374 OA
ENDROOT
BRANCH   1   2
ATOM      2  C   UNL A   1      32.906  28.837  27.464  1.00  0.00     0.202 C 
BRANCH   2   3
ATOM      3  C   UNL A   1      32.998  27.471  26.792  1.00  0.00     0.261 C 
BRANCH   3   4
ATOM      4  O   UNL A   1      31.699  26.916  26.519  1.00  0.00    -0.462 OA
BRANCH   4   5
ATOM      5  C   UNL A   1      31.471  25.650  26.094  1.00  0.00     0.321 C 
ATOM      6  O   UNL A   1      31.356  24.738  26.915  1.00  0.00    -0.251 OA
BRANCH   5   7
ATOM      7  C   UNL A   1      31.511  25.348  24.616  1.00  0.00     0.225 C 
BRANCH   7   8
ATOM      8  N   UNL A   1      32.732  25.727  23.850  1.00  0.00    -0.182 NA
BRANCH   8   9
ATOM      9  C   UNL A   1      33.773  24.669  23.911  1.00  0.00     0.140 C 
BRANCH   9  10
ATOM     10  C   UNL A   1      33.323  23.220  23.928  1.00  0.00    -0.014 A 
ATOM     11  C   UNL A   1      32.747  22.642  22.787  1.00  0.00     0.006 A 
ATOM     12  C   UNL A   1      33.491  22.387  25.050  1.00  0.00     0.045 A 
ATOM     13  C   UNL A   1      32.269  21.330  22.782  1.00  0.00     0.000 A 
ATOM     14  C   UNL A   1      33.026  21.064  25.042  1.00  0.00     0.021 A 
ATOM     15  Cl  UNL A   1      34.289  22.916  26.490  1.00  0.00    -0.084 Cl
ATOM     16  C   UNL A   1      32.399  20.542  23.914  1.00  0.00     0.002 A 
ENDBRANCH   9  10
ENDBRANCH   8   9
BRANCH   8  17
ATOM     17  S   UNL A   1      32.396  26.715  22.520  1.00  0.00     0.243 S 
ATOM     18  O   UNL A   1      33.616  27.408  22.134  1.00  0.00    -0.207 OA
ATOM     19  O   UNL A   1      31.719  25.883  21.565  1.00  0.00    -0.207 OA
BRANCH  17  20
ATOM     20  C   UNL A   1      31.242  27.970  23.017  1.00  0.00     0.082 A 
ATOM     21  C   UNL A   1      31.630  28.998  23.881  1.00  0.00     0.023 A 
ATOM     22  C   UNL A   1      29.991  28.018  22.388  1.00  0.00     0.023 A 
ATOM     23  C   UNL A   1      30.738  30.031  24.176  1.00  0.00     0.022 A 
ATOM     24  C   UNL A   1      29.122  29.082  22.646  1.00  0.00     0.022 A 
ATOM     25  C   UNL A   1      29.494  30.076  23.548  1.00  0.00     0.041 A 
ATOM     26  Cl  UNL A   1      28.433  31.393  23.860  1.00  0.00    -0.084 Cl
ENDBRANCH  17  20
ENDBRANCH   8  17
ENDBRANCH   7   8
ENDBRANCH   5   7
ENDBRANCH   4   5
ENDBRANCH   3   4
ENDBRANCH   2   3
ENDBRANCH   1   2
BRANCH   1  27
ATOM     27  C   UNL A   1      34.071  30.963  27.655  1.00  0.00     0.202 C 
BRANCH  27  28
ATOM     28  C   UNL A   1      35.564  30.997  27.995  1.00  0.00     0.261 C 
BRANCH  28  29
ATOM     29  O   UNL A   1      36.128  29.678  27.987  1.00  0.00    -0.460 OA
BRANCH  29  30
ATOM     30  C   UNL A   1      36.903  29.394  29.059  1.00  0.00     0.338 C 
ATOM     31  O   UNL A   1      36.548  29.347  30.226  1.00  0.00    -0.246 OA
BRANCH  30  32
ATOM     32  C   UNL A   1      38.227  28.922  28.607  1.00  0.00     0.060 A 
ATOM     33  C   UNL A   1      38.969  28.157  29.517  1.00  0.00     0.016 A 
ATOM     34  C   UNL A   1      38.754  29.249  27.355  1.00  0.00     0.016 A 
ATOM     35  C   UNL A   1      40.286  27.822  29.229  1.00  0.00     0.010 A 
ATOM     36  C   UNL A   1      40.079  28.914  27.065  1.00  0.00     0.010 A 
ATOM     37  C   UNL A   1      40.866  28.269  28.036  1.00  0.00    -0.014 A 
BRANCH  37  38
ATOM     38  C   UNL A   1      42.341  28.306  27.946  1.00  0.00     0.031 A 
ATOM     39  C   UNL A   1      43.037  27.119  27.328  1.00  0.00     0.074 A 
ATOM     40  C   UNL A   1      43.034  29.392  28.325  1.00  0.00     0.049 A 
ATOM     41  N   UNL A   1      44.309  26.930  27.095  1.00  0.00    -0.248 NA
ATOM     42  C   UNL A   1      42.179  25.993  26.917  1.00  0.00     0.031 C 
ATOM     43  C   UNL A   1      42.455  30.614  28.883  1.00  0.00     0.029 A 
ATOM     44  N   UNL A   1      44.380  29.643  28.283  1.00  0.00    -0.354 N 
ATOM     45  C   UNL A   1      44.403  25.662  26.531  1.00  0.00     0.074 A 
ATOM     46  C   UNL A   1      43.068  25.114  26.483  1.00  0.00     0.031 C 
ATOM     47  C   UNL A   1      43.445  31.492  29.124  1.00  0.00     0.029 A 
ATOM     48  C   UNL A   1      44.723  30.883  28.762  1.00  0.00     0.049 A 
ATOM     49  H   UNL A   1      45.039  28.996  27.942  1.00  0.00     0.167 HD
ATOM     50  C   UNL A   1      45.505  25.014  26.083  1.00  0.00     0.031 A 
ATOM     51  C   UNL A   1      45.935  31.455  28.895  1.00  0.00     0.031 A 
ATOM     52  C   UNL A   1      46.829  25.570  26.138  1.00  0.00     0.049 A 
ATOM     53  C   UNL A   1      47.153  30.696  28.436  1.00  0.00     0.074 A 
ATOM     54  C   UNL A   1      48.016  25.012  25.700  1.00  0.00     0.029 A 
ATOM     55  N   UNL A   1      47.139  26.814  26.667  1.00  0.00    -0.354 N 
ATOM     56  N   UNL A   1      47.226  29.505  27.888  1.00  0.00    -0.248 NA
ATOM     57  C   UNL A   1      48.450  31.366  28.598  1.00  0.00     0.031 C 
ATOM     58  C   UNL A   1      49.052  25.896  26.017  1.00  0.00     0.029 A 
ATOM     59  C   UNL A   1      48.502  27.034  26.587  1.00  0.00     0.049 A 
ATOM     60  H   UNL A   1      46.486  27.447  27.044  1.00  0.00     0.167 HD
ATOM     61  C   UNL A   1      48.573  29.302  27.599  1.00  0.00     0.074 A 
ATOM     62  C   UNL A   1      49.273  30.496  28.030  1.00  0.00     0.031 C 
ATOM     63  C   UNL A   1      49.176  28.233  27.021  1.00  0.00     0.031 A 
BRANCH  50  64
ATOM     64  C   UNL A   1      45.320  23.619  25.548  1.00  0.00    -0.014 A 
ATOM     65  C   UNL A   1      45.007  23.382  24.196  1.00  0.00     0.010 A 
ATOM     66  C   UNL A   1      45.474  22.521  26.414  1.00  0.00     0.010 A 
ATOM     67  C   UNL A   1      44.806  22.078  23.733  1.00  0.00     0.020 A 
ATOM     68  C   UNL A   1      45.305  21.215  25.948  1.00  0.00     0.020 A 
ATOM     69  C   UNL A   1      44.953  21.002  24.615  1.00  0.00     0.054 A 
BRANCH  69  70
ATOM     70  S   UNL A   1      44.702  19.319  23.986  1.00  0.00     0.124 S 
ATOM     71  O   UNL A   1      43.507  18.901  24.716  1.00  0.00    -0.237 OA
ATOM     72  O   UNL A   1      44.519  19.535  22.554  1.00  0.00    -0.237 OA
ATOM     73  O   UNL A   1      45.932  18.623  24.357  1.00  0.00    -0.744 OA
ENDBRANCH  69  70
ENDBRANCH  50  64
BRANCH  51  74
ATOM     74  C   UNL A   1      46.054  32.822  29.472  1.00  0.00    -0.014 A 
ATOM     75  C   UNL A   1      46.019  33.020  30.863  1.00  0.00     0.010 A 
ATOM     76  C   UNL A   1      46.213  33.938  28.629  1.00  0.00     0.010 A 
ATOM     77  C   UNL A   1      46.122  34.307  31.400  1.00  0.00     0.020 A 
ATOM     78  C   UNL A   1      46.344  35.222  29.163  1.00  0.00     0.020 A 
ATOM     79  C   UNL A   1      46.288  35.400  30.545  1.00  0.00     0.054 A 
BRANCH  79  80
ATOM     80  S   UNL A   1      46.471  37.055  31.268  1.00  0.00     0.124 S 
ATOM     81  O   UNL A   1      47.209  36.771  32.495  1.00  0.00    -0.237 OA
ATOM     82  O   UNL A   1      47.215  37.769  30.233  1.00  0.00    -0.237 OA
ATOM     83  O   UNL A   1      45.093  37.501  31.454  1.00  0.00    -0.744 OA
ENDBRANCH  79  80
ENDBRANCH  51  74
BRANCH  63  84
ATOM     84  C   UNL A   1      50.656  28.331  26.765  1.00  0.00    -0.014 A 
ATOM     85  C   UNL A   1      51.165  28.845  25.561  1.00  0.00     0.010 A 
ATOM     86  C   UNL A   1      51.553  27.929  27.774  1.00  0.00     0.010 A 
ATOM     87  C   UNL A   1      52.545  28.908  25.349  1.00  0.00     0.020 A 
ATOM     88  C   UNL A   1      52.932  28.021  27.579  1.00  0.00     0.020 A 
ATOM     89  C   UNL A   1      53.419  28.491  26.359  1.00  0.00     0.054 A 
BRANCH  89  90
ATOM     90  S   UNL A   1      55.206  28.596  26.067  1.00  0.00     0.124 S 
ATOM     91  O   UNL A   1      55.277  29.557  24.970  1.00  0.00    -0.237 OA
ATOM     92  O   UNL A   1      55.714  29.070  27.353  1.00  0.00    -0.237 OA
ATOM     93  O   UNL A   1      55.581  27.227  25.722  1.00  0.00    -0.744 OA
ENDBRANCH  89  90
ENDBRANCH  63  84
ENDBRANCH  37  38
ENDBRANCH  30  32
ENDBRANCH  29  30
ENDBRANCH  28  29
ENDBRANCH  27  28
ENDBRANCH   1  27
TORSDOF 22
ENDMDL
