MODEL 1
REMARK VINA RESULT:     -10.5      0.000      0.000
REMARK SMILES O=C(OCCOCCOC(=O)[C@H]1CC[C@@H]2CCCC[C@@H]2N1C(=O)NC1CC1)c1ccc(-c2c3nc(c(-c4ccc(S(=O)(=O)[O-])cc4)c4ccc([nH]4)c(-c4ccc(S(=O)(=O)[O-])cc4)c4nc(c(-c5ccc(S(=O)(=O)[O-])cc5)c5ccc2[nH]5)C=C4)C=C3)cc1
REMARK SMILES IDX 5 1 4 2 3 3 2 4 1 5 28 6 29 7 87 8 30 9 86 10 31 11 32 12
REMARK SMILES IDX 33 13 80 14 34 15 85 16 79 17 81 18 35 19 84 20 78 21 77 22
REMARK SMILES IDX 36 24 66 25 47 26 65 27 48 28 51 29 64 30 82 31 49 32 50 33
REMARK SMILES IDX 63 35 83 36 52 37 37 38 38 39 46 40 39 41 45 42 40 43 41 44
REMARK SMILES IDX 42 45 43 46 44 47 67 48 68 49 76 50 69 51 75 52 70 53 71 54
REMARK SMILES IDX 72 55 73 56 74 57 53 58 54 59 62 60 55 61 61 62 56 63 57 64
REMARK SMILES IDX 58 65 59 66 60 67 6 68 7 69 8 70 9 71 10 72 11 73 12 74
REMARK SMILES IDX 13 75 21 76 14 77 20 78 15 79 19 80 16 81 18 82 17 83 22 84
REMARK SMILES IDX 23 85 24 86 25 88 26 89 27 90
REMARK H PARENT 81 23 51 34 24 87
REMARK Flexibility Score: inf
ROOT
ATOM      1  C   UNL A   1      34.371  33.753  28.347  1.00  0.00     0.202 C 
ENDROOT
BRANCH   1   2
ATOM      2  C   UNL A   1      34.662  33.561  29.874  1.00  0.00     0.261 C 
BRANCH   2   3
ATOM      3  O   UNL A   1      35.852  32.801  30.261  1.00  0.00    -0.460 OA
BRANCH   3   4
ATOM      4  C   UNL A   1      35.957  31.523  30.738  1.00  0.00     0.338 C 
ATOM      5  O   UNL A   1      35.517  31.200  31.836  1.00  0.00    -0.246 OA
BRANCH   4   6
ATOM      6  C   UNL A   1      36.643  30.538  29.881  1.00  0.00     0.060 A 
ATOM      7  C   UNL A   1      37.133  29.435  30.511  1.00  0.00     0.016 A 
ATOM      8  C   UNL A   1      37.024  30.779  28.562  1.00  0.00     0.016 A 
ATOM      9  C   UNL A   1      38.427  29.134  30.182  1.00  0.00     0.010 A 
ATOM     10  C   UNL A   1      38.147  30.104  28.047  1.00  0.00     0.010 A 
ATOM     11  C   UNL A   1      38.977  29.412  28.937  1.00  0.00    -0.014 A 
BRANCH  11  12
ATOM     12  C   UNL A   1      40.444  29.139  28.778  1.00  0.00     0.031 A 
ATOM     13  C   UNL A   1      41.441  30.124  29.346  1.00  0.00     0.074 A 
ATOM     14  C   UNL A   1      40.890  27.910  28.403  1.00  0.00     0.049 A 
ATOM     15  N   UNL A   1      42.737  30.163  29.182  1.00  0.00    -0.248 NA
ATOM     16  C   UNL A   1      40.928  31.194  30.222  1.00  0.00     0.031 C 
ATOM     17  C   UNL A   1      40.046  26.756  28.039  1.00  0.00     0.029 A 
ATOM     18  N   UNL A   1      42.152  27.368  28.383  1.00  0.00    -0.354 N 
ATOM     19  C   UNL A   1      43.169  31.307  29.845  1.00  0.00     0.074 A 
ATOM     20  C   UNL A   1      42.014  31.917  30.453  1.00  0.00     0.031 C 
ATOM     21  C   UNL A   1      40.776  25.635  28.057  1.00  0.00     0.029 A 
ATOM     22  C   UNL A   1      42.172  26.014  28.113  1.00  0.00     0.049 A 
ATOM     23  H   UNL A   1      42.968  27.895  28.547  1.00  0.00     0.167 HD
ATOM     24  C   UNL A   1      44.424  31.813  29.904  1.00  0.00     0.031 A 
ATOM     25  C   UNL A   1      43.187  25.180  27.814  1.00  0.00     0.031 A 
ATOM     26  C   UNL A   1      45.548  31.153  29.302  1.00  0.00     0.049 A 
ATOM     27  C   UNL A   1      44.544  25.807  27.711  1.00  0.00     0.074 A 
ATOM     28  C   UNL A   1      46.825  31.625  29.077  1.00  0.00     0.029 A 
ATOM     29  N   UNL A   1      45.514  29.841  28.849  1.00  0.00    -0.354 N 
ATOM     30  N   UNL A   1      44.914  27.015  28.070  1.00  0.00    -0.248 NA
ATOM     31  C   UNL A   1      45.603  25.001  27.097  1.00  0.00     0.031 C 
ATOM     32  C   UNL A   1      47.553  30.607  28.446  1.00  0.00     0.029 A 
ATOM     33  C   UNL A   1      46.744  29.486  28.334  1.00  0.00     0.049 A 
ATOM     34  H   UNL A   1      44.728  29.250  28.890  1.00  0.00     0.167 HD
ATOM     35  C   UNL A   1      46.246  27.122  27.706  1.00  0.00     0.074 A 
ATOM     36  C   UNL A   1      46.628  25.838  27.146  1.00  0.00     0.031 C 
ATOM     37  C   UNL A   1      47.075  28.191  27.796  1.00  0.00     0.031 A 
BRANCH  24  38
ATOM     38  C   UNL A   1      44.577  33.186  30.496  1.00  0.00    -0.014 A 
ATOM     39  C   UNL A   1      44.493  34.353  29.719  1.00  0.00     0.010 A 
ATOM     40  C   UNL A   1      44.889  33.296  31.865  1.00  0.00     0.010 A 
ATOM     41  C   UNL A   1      44.763  35.604  30.291  1.00  0.00     0.020 A 
ATOM     42  C   UNL A   1      45.140  34.542  32.443  1.00  0.00     0.020 A 
ATOM     43  C   UNL A   1      45.098  35.686  31.649  1.00  0.00     0.054 A 
BRANCH  43  44
ATOM     44  S   UNL A   1      45.458  37.319  32.356  1.00  0.00     0.124 S 
ATOM     45  O   UNL A   1      46.561  37.777  31.493  1.00  0.00    -0.237 OA
ATOM     46  O   UNL A   1      44.218  38.023  32.219  1.00  0.00    -0.237 OA
ATOM     47  O   UNL A   1      45.865  37.008  33.739  1.00  0.00    -0.744 OA
ENDBRANCH  43  44
ENDBRANCH  24  38
BRANCH  25  48
ATOM     48  C   UNL A   1      42.933  23.769  27.376  1.00  0.00    -0.014 A 
ATOM     49  C   UNL A   1      42.754  23.434  26.023  1.00  0.00     0.010 A 
ATOM     50  C   UNL A   1      42.826  22.740  28.337  1.00  0.00     0.010 A 
ATOM     51  C   UNL A   1      42.450  22.116  25.648  1.00  0.00     0.020 A 
ATOM     52  C   UNL A   1      42.572  21.419  27.966  1.00  0.00     0.020 A 
ATOM     53  C   UNL A   1      42.358  21.119  26.624  1.00  0.00     0.054 A 
BRANCH  53  54
ATOM     54  S   UNL A   1      41.962  19.418  26.130  1.00  0.00     0.124 S 
ATOM     55  O   UNL A   1      42.789  19.250  24.940  1.00  0.00    -0.237 OA
ATOM     56  O   UNL A   1      42.368  18.642  27.300  1.00  0.00    -0.237 OA
ATOM     57  O   UNL A   1      40.520  19.460  25.890  1.00  0.00    -0.744 OA
ENDBRANCH  53  54
ENDBRANCH  25  48
BRANCH  37  58
ATOM     58  C   UNL A   1      48.475  27.987  27.312  1.00  0.00    -0.014 A 
ATOM     59  C   UNL A   1      49.473  27.502  28.173  1.00  0.00     0.010 A 
ATOM     60  C   UNL A   1      48.778  28.247  25.965  1.00  0.00     0.010 A 
ATOM     61  C   UNL A   1      50.768  27.304  27.698  1.00  0.00     0.020 A 
ATOM     62  C   UNL A   1      50.064  28.025  25.480  1.00  0.00     0.020 A 
ATOM     63  C   UNL A   1      51.054  27.568  26.353  1.00  0.00     0.054 A 
BRANCH  63  64
ATOM     64  S   UNL A   1      52.730  27.256  25.742  1.00  0.00     0.124 S 
ATOM     65  O   UNL A   1      53.540  28.038  26.671  1.00  0.00    -0.237 OA
ATOM     66  O   UNL A   1      52.853  25.805  25.865  1.00  0.00    -0.237 OA
ATOM     67  O   UNL A   1      52.693  27.758  24.370  1.00  0.00    -0.744 OA
ENDBRANCH  63  64
ENDBRANCH  37  58
ENDBRANCH  11  12
ENDBRANCH   4   6
ENDBRANCH   3   4
ENDBRANCH   2   3
ENDBRANCH   1   2
BRANCH   1  68
ATOM     68  O   UNL A   1      33.769  32.750  27.516  1.00  0.00    -0.374 OA
BRANCH  68  69
ATOM     69  C   UNL A   1      33.540  31.402  27.916  1.00  0.00     0.202 C 
BRANCH  69  70
ATOM     70  C   UNL A   1      33.206  30.428  26.738  1.00  0.00     0.261 C 
BRANCH  70  71
ATOM     71  O   UNL A   1      32.014  29.652  27.030  1.00  0.00    -0.462 OA
BRANCH  71  72
ATOM     72  C   UNL A   1      31.681  28.354  26.957  1.00  0.00     0.329 C 
ATOM     73  O   UNL A   1      31.117  27.871  27.955  1.00  0.00    -0.250 OA
BRANCH  72  74
ATOM     74  C   UNL A   1      31.689  27.470  25.698  1.00  0.00     0.197 C 
ATOM     75  C   UNL A   1      30.912  26.300  26.336  1.00  0.00     0.038 C 
ATOM     76  N   UNL A   1      31.181  27.779  24.365  1.00  0.00    -0.308 N 
ATOM     77  C   UNL A   1      30.980  25.052  25.534  1.00  0.00     0.008 C 
ATOM     78  C   UNL A   1      30.579  26.639  23.509  1.00  0.00     0.091 C 
ATOM     79  C   UNL A   1      30.266  25.261  24.217  1.00  0.00     0.012 C 
ATOM     80  C   UNL A   1      31.349  26.328  22.185  1.00  0.00     0.025 C 
ATOM     81  C   UNL A   1      30.571  23.999  23.378  1.00  0.00     0.006 C 
ATOM     82  C   UNL A   1      32.492  25.339  22.380  1.00  0.00     0.002 C 
ATOM     83  C   UNL A   1      32.013  23.974  22.869  1.00  0.00     0.000 C 
BRANCH  76  84
ATOM     84  C   UNL A   1      31.553  28.920  23.685  1.00  0.00     0.318 C 
ATOM     85  O   UNL A   1      32.749  29.153  23.465  1.00  0.00    -0.249 OA
ATOM     86  N   UNL A   1      30.706  29.924  23.312  1.00  0.00    -0.335 N 
ATOM     87  H   UNL A   1      31.071  30.791  23.606  1.00  0.00     0.165 HD
BRANCH  86  88
ATOM     88  C   UNL A   1      29.455  30.134  22.629  1.00  0.00     0.084 C 
ATOM     89  C   UNL A   1      28.197  29.335  22.463  1.00  0.00     0.027 C 
ATOM     90  C   UNL A   1      28.174  30.538  23.314  1.00  0.00     0.027 C 
ENDBRANCH  86  88
ENDBRANCH  76  84
ENDBRANCH  72  74
ENDBRANCH  71  72
ENDBRANCH  70  71
ENDBRANCH  69  70
ENDBRANCH  68  69
ENDBRANCH   1  68
TORSDOF 19
ENDMDL
MODEL 2
REMARK VINA RESULT:     -10.5      6.233      9.521
REMARK SMILES O=C(OCCOCCOC(=O)[C@H]1CC[C@@H]2CCCC[C@@H]2N1C(=O)NC1CC1)c1ccc(-c2c3nc(c(-c4ccc(S(=O)(=O)[O-])cc4)c4ccc([nH]4)c(-c4ccc(S(=O)(=O)[O-])cc4)c4nc(c(-c5ccc(S(=O)(=O)[O-])cc5)c5ccc2[nH]5)C=C4)C=C3)cc1
REMARK SMILES IDX 5 1 4 2 3 3 2 4 1 5 28 6 29 7 87 8 30 9 86 10 31 11 32 12
REMARK SMILES IDX 33 13 80 14 34 15 85 16 79 17 81 18 35 19 84 20 78 21 77 22
REMARK SMILES IDX 36 24 66 25 47 26 65 27 48 28 51 29 64 30 82 31 49 32 50 33
REMARK SMILES IDX 63 35 83 36 52 37 37 38 38 39 46 40 39 41 45 42 40 43 41 44
REMARK SMILES IDX 42 45 43 46 44 47 67 48 68 49 76 50 69 51 75 52 70 53 71 54
REMARK SMILES IDX 72 55 73 56 74 57 53 58 54 59 62 60 55 61 61 62 56 63 57 64
REMARK SMILES IDX 58 65 59 66 60 67 6 68 7 69 8 70 9 71 10 72 11 73 12 74
REMARK SMILES IDX 13 75 21 76 14 77 20 78 15 79 19 80 16 81 18 82 17 83 22 84
REMARK SMILES IDX 23 85 24 86 25 88 26 89 27 90
REMARK H PARENT 81 23 51 34 24 87
REMARK Flexibility Score: inf
ROOT
ATOM      1  C   UNL A   1      35.470  32.850  28.031  1.00  0.00     0.202 C 
ENDROOT
BRANCH   1   2
ATOM      2  C   UNL A   1      34.280  33.868  28.000  1.00  0.00     0.261 C 
BRANCH   2   3
ATOM      3  O   UNL A   1      33.427  33.969  29.186  1.00  0.00    -0.460 OA
BRANCH   3   4
ATOM      4  C   UNL A   1      33.496  34.839  30.240  1.00  0.00     0.338 C 
ATOM      5  O   UNL A   1      33.029  35.972  30.182  1.00  0.00    -0.246 OA
BRANCH   4   6
ATOM      6  C   UNL A   1      34.177  34.368  31.460  1.00  0.00     0.060 A 
ATOM      7  C   UNL A   1      34.408  35.307  32.419  1.00  0.00     0.016 A 
ATOM      8  C   UNL A   1      34.796  33.125  31.579  1.00  0.00     0.016 A 
ATOM      9  C   UNL A   1      35.688  35.304  32.905  1.00  0.00     0.010 A 
ATOM     10  C   UNL A   1      35.890  32.993  32.457  1.00  0.00     0.010 A 
ATOM     11  C   UNL A   1      36.464  34.155  32.986  1.00  0.00    -0.014 A 
BRANCH  11  12
ATOM     12  C   UNL A   1      37.889  34.341  33.420  1.00  0.00     0.031 A 
ATOM     13  C   UNL A   1      38.232  34.231  34.889  1.00  0.00     0.074 A 
ATOM     14  C   UNL A   1      38.904  34.313  32.514  1.00  0.00     0.049 A 
ATOM     15  N   UNL A   1      39.357  34.513  35.489  1.00  0.00    -0.248 NA
ATOM     16  C   UNL A   1      37.188  33.730  35.802  1.00  0.00     0.031 C 
ATOM     17  C   UNL A   1      38.757  34.186  31.052  1.00  0.00     0.029 A 
ATOM     18  N   UNL A   1      40.268  34.258  32.679  1.00  0.00    -0.354 N 
ATOM     19  C   UNL A   1      39.123  34.319  36.847  1.00  0.00     0.074 A 
ATOM     20  C   UNL A   1      37.765  33.856  36.988  1.00  0.00     0.031 C 
ATOM     21  C   UNL A   1      39.932  33.852  30.505  1.00  0.00     0.029 A 
ATOM     22  C   UNL A   1      40.961  34.052  31.502  1.00  0.00     0.049 A 
ATOM     23  H   UNL A   1      40.709  34.355  33.553  1.00  0.00     0.167 HD
ATOM     24  C   UNL A   1      39.967  34.546  37.880  1.00  0.00     0.031 A 
ATOM     25  C   UNL A   1      42.275  34.138  31.217  1.00  0.00     0.031 A 
ATOM     26  C   UNL A   1      41.321  34.985  37.685  1.00  0.00     0.049 A 
ATOM     27  C   UNL A   1      43.166  34.566  32.343  1.00  0.00     0.074 A 
ATOM     28  C   UNL A   1      42.228  35.468  38.606  1.00  0.00     0.029 A 
ATOM     29  N   UNL A   1      41.965  34.959  36.455  1.00  0.00    -0.354 N 
ATOM     30  N   UNL A   1      42.873  34.674  33.619  1.00  0.00    -0.248 NA
ATOM     31  C   UNL A   1      44.534  34.960  31.994  1.00  0.00     0.031 C 
ATOM     32  C   UNL A   1      43.411  35.776  37.921  1.00  0.00     0.029 A 
ATOM     33  C   UNL A   1      43.255  35.428  36.586  1.00  0.00     0.049 A 
ATOM     34  H   UNL A   1      41.560  34.651  35.612  1.00  0.00     0.167 HD
ATOM     35  C   UNL A   1      44.017  35.169  34.224  1.00  0.00     0.074 A 
ATOM     36  C   UNL A   1      45.020  35.289  33.182  1.00  0.00     0.031 C 
ATOM     37  C   UNL A   1      44.217  35.520  35.518  1.00  0.00     0.031 A 
BRANCH  24  38
ATOM     38  C   UNL A   1      39.385  34.472  39.264  1.00  0.00    -0.014 A 
ATOM     39  C   UNL A   1      39.266  33.261  39.966  1.00  0.00     0.010 A 
ATOM     40  C   UNL A   1      38.874  35.651  39.841  1.00  0.00     0.010 A 
ATOM     41  C   UNL A   1      38.607  33.223  41.202  1.00  0.00     0.020 A 
ATOM     42  C   UNL A   1      38.232  35.620  41.081  1.00  0.00     0.020 A 
ATOM     43  C   UNL A   1      38.083  34.404  41.745  1.00  0.00     0.054 A 
BRANCH  43  44
ATOM     44  S   UNL A   1      37.220  34.317  43.339  1.00  0.00     0.124 S 
ATOM     45  O   UNL A   1      35.817  34.191  42.909  1.00  0.00    -0.237 OA
ATOM     46  O   UNL A   1      37.793  33.164  43.966  1.00  0.00    -0.237 OA
ATOM     47  O   UNL A   1      37.542  35.611  43.970  1.00  0.00    -0.744 OA
ENDBRANCH  43  44
ENDBRANCH  24  38
BRANCH  25  48
ATOM     48  C   UNL A   1      42.774  34.045  29.806  1.00  0.00    -0.014 A 
ATOM     49  C   UNL A   1      43.437  32.903  29.328  1.00  0.00     0.010 A 
ATOM     50  C   UNL A   1      42.620  35.142  28.930  1.00  0.00     0.010 A 
ATOM     51  C   UNL A   1      43.954  32.871  28.024  1.00  0.00     0.020 A 
ATOM     52  C   UNL A   1      43.088  35.097  27.616  1.00  0.00     0.020 A 
ATOM     53  C   UNL A   1      43.778  33.970  27.178  1.00  0.00     0.054 A 
BRANCH  53  54
ATOM     54  S   UNL A   1      44.452  33.921  25.494  1.00  0.00     0.124 S 
ATOM     55  O   UNL A   1      45.568  34.856  25.589  1.00  0.00    -0.237 OA
ATOM     56  O   UNL A   1      44.814  32.514  25.335  1.00  0.00    -0.237 OA
ATOM     57  O   UNL A   1      43.332  34.365  24.666  1.00  0.00    -0.744 OA
ENDBRANCH  53  54
ENDBRANCH  25  48
BRANCH  37  58
ATOM     58  C   UNL A   1      45.580  36.028  35.864  1.00  0.00    -0.014 A 
ATOM     59  C   UNL A   1      45.871  37.402  35.819  1.00  0.00     0.010 A 
ATOM     60  C   UNL A   1      46.564  35.117  36.281  1.00  0.00     0.010 A 
ATOM     61  C   UNL A   1      47.144  37.856  36.162  1.00  0.00     0.020 A 
ATOM     62  C   UNL A   1      47.829  35.570  36.649  1.00  0.00     0.020 A 
ATOM     63  C   UNL A   1      48.114  36.935  36.574  1.00  0.00     0.054 A 
BRANCH  63  64
ATOM     64  S   UNL A   1      49.745  37.549  37.064  1.00  0.00     0.124 S 
ATOM     65  O   UNL A   1      49.671  38.951  36.666  1.00  0.00    -0.237 OA
ATOM     66  O   UNL A   1      49.764  37.302  38.504  1.00  0.00    -0.237 OA
ATOM     67  O   UNL A   1      50.669  36.727  36.286  1.00  0.00    -0.744 OA
ENDBRANCH  63  64
ENDBRANCH  37  58
ENDBRANCH  11  12
ENDBRANCH   4   6
ENDBRANCH   3   4
ENDBRANCH   2   3
ENDBRANCH   1   2
BRANCH   1  68
ATOM     68  O   UNL A   1      35.317  31.435  27.846  1.00  0.00    -0.374 OA
BRANCH  68  69
ATOM     69  C   UNL A   1      34.094  30.726  28.024  1.00  0.00     0.202 C 
BRANCH  69  70
ATOM     70  C   UNL A   1      33.131  30.785  26.792  1.00  0.00     0.261 C 
BRANCH  70  71
ATOM     71  O   UNL A   1      31.995  29.899  26.981  1.00  0.00    -0.462 OA
BRANCH  71  72
ATOM     72  C   UNL A   1      31.805  28.572  26.938  1.00  0.00     0.329 C 
ATOM     73  O   UNL A   1      31.446  28.030  27.998  1.00  0.00    -0.250 OA
BRANCH  72  74
ATOM     74  C   UNL A   1      31.735  27.691  25.678  1.00  0.00     0.197 C 
ATOM     75  C   UNL A   1      31.137  26.462  26.392  1.00  0.00     0.038 C 
ATOM     76  N   UNL A   1      31.050  27.957  24.417  1.00  0.00    -0.308 N 
ATOM     77  C   UNL A   1      31.210  25.224  25.576  1.00  0.00     0.008 C 
ATOM     78  C   UNL A   1      30.446  26.772  23.628  1.00  0.00     0.091 C 
ATOM     79  C   UNL A   1      30.331  25.374  24.354  1.00  0.00     0.012 C 
ATOM     80  C   UNL A   1      31.076  26.525  22.219  1.00  0.00     0.025 C 
ATOM     81  C   UNL A   1      30.636  24.140  23.472  1.00  0.00     0.006 C 
ATOM     82  C   UNL A   1      32.310  25.632  22.268  1.00  0.00     0.002 C 
ATOM     83  C   UNL A   1      32.005  24.233  22.797  1.00  0.00     0.000 C 
BRANCH  76  84
ATOM     84  C   UNL A   1      31.245  29.125  23.709  1.00  0.00     0.318 C 
ATOM     85  O   UNL A   1      32.369  29.411  23.275  1.00  0.00    -0.249 OA
ATOM     86  N   UNL A   1      30.307  30.101  23.528  1.00  0.00    -0.335 N 
ATOM     87  H   UNL A   1      30.688  30.976  23.770  1.00  0.00     0.165 HD
BRANCH  86  88
ATOM     88  C   UNL A   1      28.942  30.272  23.098  1.00  0.00     0.084 C 
ATOM     89  C   UNL A   1      27.769  31.060  23.599  1.00  0.00     0.027 C 
ATOM     90  C   UNL A   1      28.434  31.479  22.352  1.00  0.00     0.027 C 
ENDBRANCH  86  88
ENDBRANCH  76  84
ENDBRANCH  72  74
ENDBRANCH  71  72
ENDBRANCH  70  71
ENDBRANCH  69  70
ENDBRANCH  68  69
ENDBRANCH   1  68
TORSDOF 19
ENDMDL
MODEL 3
REMARK VINA RESULT:     -10.2      1.459      2.170
REMARK SMILES O=C(OCCOCCOC(=O)[C@H]1CC[C@@H]2CCCC[C@@H]2N1C(=O)NC1CC1)c1ccc(-c2c3nc(c(-c4ccc(S(=O)(=O)[O-])cc4)c4ccc([nH]4)c(-c4ccc(S(=O)(=O)[O-])cc4)c4nc(c(-c5ccc(S(=O)(=O)[O-])cc5)c5ccc2[nH]5)C=C4)C=C3)cc1
REMARK SMILES IDX 5 1 4 2 3 3 2 4 1 5 28 6 29 7 87 8 30 9 86 10 31 11 32 12
REMARK SMILES IDX 33 13 80 14 34 15 85 16 79 17 81 18 35 19 84 20 78 21 77 22
REMARK SMILES IDX 36 24 66 25 47 26 65 27 48 28 51 29 64 30 82 31 49 32 50 33
REMARK SMILES IDX 63 35 83 36 52 37 37 38 38 39 46 40 39 41 45 42 40 43 41 44
REMARK SMILES IDX 42 45 43 46 44 47 67 48 68 49 76 50 69 51 75 52 70 53 71 54
REMARK SMILES IDX 72 55 73 56 74 57 53 58 54 59 62 60 55 61 61 62 56 63 57 64
REMARK SMILES IDX 58 65 59 66 60 67 6 68 7 69 8 70 9 71 10 72 11 73 12 74
REMARK SMILES IDX 13 75 21 76 14 77 20 78 15 79 19 80 16 81 18 82 17 83 22 84
REMARK SMILES IDX 23 85 24 86 25 88 26 89 27 90
REMARK H PARENT 81 23 51 34 24 87
REMARK Flexibility Score: inf
ROOT
ATOM      1  C   UNL A   1      34.588  32.736  28.409  1.00  0.00     0.202 C 
ENDROOT
BRANCH   1   2
ATOM      2  C   UNL A   1      34.822  32.300  29.895  1.00  0.00     0.261 C 
BRANCH   2   3
ATOM      3  O   UNL A   1      36.179  31.924  30.300  1.00  0.00    -0.460 OA
BRANCH   3   4
ATOM      4  C   UNL A   1      36.653  30.727  30.761  1.00  0.00     0.338 C 
ATOM      5  O   UNL A   1      36.612  30.424  31.949  1.00  0.00    -0.246 OA
BRANCH   4   6
ATOM      6  C   UNL A   1      37.241  29.807  29.769  1.00  0.00     0.060 A 
ATOM      7  C   UNL A   1      37.765  28.651  30.262  1.00  0.00     0.016 A 
ATOM      8  C   UNL A   1      37.506  30.151  28.445  1.00  0.00     0.016 A 
ATOM      9  C   UNL A   1      39.019  28.364  29.793  1.00  0.00     0.010 A 
ATOM     10  C   UNL A   1      38.565  29.508  27.776  1.00  0.00     0.010 A 
ATOM     11  C   UNL A   1      39.459  28.736  28.528  1.00  0.00    -0.014 A 
BRANCH  11  12
ATOM     12  C   UNL A   1      40.901  28.462  28.214  1.00  0.00     0.031 A 
ATOM     13  C   UNL A   1      41.943  29.497  28.577  1.00  0.00     0.074 A 
ATOM     14  C   UNL A   1      41.318  27.209  27.888  1.00  0.00     0.049 A 
ATOM     15  N   UNL A   1      43.208  29.530  28.253  1.00  0.00    -0.248 NA
ATOM     16  C   UNL A   1      41.521  30.631  29.420  1.00  0.00     0.031 C 
ATOM     17  C   UNL A   1      40.456  26.024  27.723  1.00  0.00     0.029 A 
ATOM     18  N   UNL A   1      42.578  26.675  27.758  1.00  0.00    -0.354 N 
ATOM     19  C   UNL A   1      43.698  30.727  28.766  1.00  0.00     0.074 A 
ATOM     20  C   UNL A   1      42.615  31.377  29.458  1.00  0.00     0.031 C 
ATOM     21  C   UNL A   1      41.201  24.913  27.742  1.00  0.00     0.029 A 
ATOM     22  C   UNL A   1      42.587  25.304  27.597  1.00  0.00     0.049 A 
ATOM     23  H   UNL A   1      43.398  27.220  27.779  1.00  0.00     0.167 HD
ATOM     24  C   UNL A   1      44.942  31.245  28.631  1.00  0.00     0.031 A 
ATOM     25  C   UNL A   1      43.573  24.455  27.244  1.00  0.00     0.031 A 
ATOM     26  C   UNL A   1      45.997  30.546  27.951  1.00  0.00     0.049 A 
ATOM     27  C   UNL A   1      44.897  25.081  26.928  1.00  0.00     0.074 A 
ATOM     28  C   UNL A   1      47.229  31.007  27.535  1.00  0.00     0.029 A 
ATOM     29  N   UNL A   1      45.930  29.201  27.612  1.00  0.00    -0.354 N 
ATOM     30  N   UNL A   1      45.287  26.317  27.140  1.00  0.00    -0.248 NA
ATOM     31  C   UNL A   1      45.887  24.235  26.256  1.00  0.00     0.031 C 
ATOM     32  C   UNL A   1      47.893  29.945  26.904  1.00  0.00     0.029 A 
ATOM     33  C   UNL A   1      47.094  28.813  26.982  1.00  0.00     0.049 A 
ATOM     34  H   UNL A   1      45.164  28.610  27.795  1.00  0.00     0.167 HD
ATOM     35  C   UNL A   1      46.564  26.402  26.610  1.00  0.00     0.074 A 
ATOM     36  C   UNL A   1      46.897  25.080  26.113  1.00  0.00     0.031 C 
ATOM     37  C   UNL A   1      47.379  27.481  26.513  1.00  0.00     0.031 A 
BRANCH  24  38
ATOM     38  C   UNL A   1      45.143  32.662  29.088  1.00  0.00    -0.014 A 
ATOM     39  C   UNL A   1      45.598  32.979  30.379  1.00  0.00     0.010 A 
ATOM     40  C   UNL A   1      44.790  33.707  28.212  1.00  0.00     0.010 A 
ATOM     41  C   UNL A   1      45.653  34.314  30.801  1.00  0.00     0.020 A 
ATOM     42  C   UNL A   1      44.862  35.040  28.622  1.00  0.00     0.020 A 
ATOM     43  C   UNL A   1      45.272  35.335  29.921  1.00  0.00     0.054 A 
BRANCH  43  44
ATOM     44  S   UNL A   1      45.340  37.053  30.504  1.00  0.00     0.124 S 
ATOM     45  O   UNL A   1      45.420  37.793  29.233  1.00  0.00    -0.237 OA
ATOM     46  O   UNL A   1      44.123  37.202  31.245  1.00  0.00    -0.237 OA
ATOM     47  O   UNL A   1      46.581  37.091  31.301  1.00  0.00    -0.744 OA
ENDBRANCH  43  44
ENDBRANCH  24  38
BRANCH  25  48
ATOM     48  C   UNL A   1      43.291  23.012  26.955  1.00  0.00    -0.014 A 
ATOM     49  C   UNL A   1      42.594  22.196  27.862  1.00  0.00     0.010 A 
ATOM     50  C   UNL A   1      43.769  22.425  25.762  1.00  0.00     0.010 A 
ATOM     51  C   UNL A   1      42.405  20.832  27.595  1.00  0.00     0.020 A 
ATOM     52  C   UNL A   1      43.541  21.079  25.469  1.00  0.00     0.020 A 
ATOM     53  C   UNL A   1      42.883  20.283  26.402  1.00  0.00     0.054 A 
BRANCH  53  54
ATOM     54  S   UNL A   1      42.636  18.516  26.067  1.00  0.00     0.124 S 
ATOM     55  O   UNL A   1      43.540  18.294  24.943  1.00  0.00    -0.237 OA
ATOM     56  O   UNL A   1      43.028  17.894  27.329  1.00  0.00    -0.237 OA
ATOM     57  O   UNL A   1      41.211  18.425  25.752  1.00  0.00    -0.744 OA
ENDBRANCH  53  54
ENDBRANCH  25  48
BRANCH  37  58
ATOM     58  C   UNL A   1      48.714  27.248  25.880  1.00  0.00    -0.014 A 
ATOM     59  C   UNL A   1      48.912  27.480  24.508  1.00  0.00     0.010 A 
ATOM     60  C   UNL A   1      49.790  26.834  26.683  1.00  0.00     0.010 A 
ATOM     61  C   UNL A   1      50.168  27.272  23.941  1.00  0.00     0.020 A 
ATOM     62  C   UNL A   1      51.052  26.651  26.124  1.00  0.00     0.020 A 
ATOM     63  C   UNL A   1      51.229  26.858  24.754  1.00  0.00     0.054 A 
BRANCH  63  64
ATOM     64  S   UNL A   1      52.865  26.644  24.008  1.00  0.00     0.124 S 
ATOM     65  O   UNL A   1      53.525  27.896  24.363  1.00  0.00    -0.237 OA
ATOM     66  O   UNL A   1      53.372  25.450  24.681  1.00  0.00    -0.237 OA
ATOM     67  O   UNL A   1      52.574  26.473  22.586  1.00  0.00    -0.744 OA
ENDBRANCH  63  64
ENDBRANCH  37  58
ENDBRANCH  11  12
ENDBRANCH   4   6
ENDBRANCH   3   4
ENDBRANCH   2   3
ENDBRANCH   1   2
BRANCH   1  68
ATOM     68  O   UNL A   1      34.293  31.821  27.344  1.00  0.00    -0.374 OA
BRANCH  68  69
ATOM     69  C   UNL A   1      33.598  30.588  27.510  1.00  0.00     0.202 C 
BRANCH  69  70
ATOM     70  C   UNL A   1      34.432  29.322  27.122  1.00  0.00     0.261 C 
BRANCH  70  71
ATOM     71  O   UNL A   1      33.586  28.313  26.510  1.00  0.00    -0.462 OA
BRANCH  71  72
ATOM     72  C   UNL A   1      33.431  27.824  25.270  1.00  0.00     0.329 C 
ATOM     73  O   UNL A   1      33.862  28.529  24.340  1.00  0.00    -0.250 OA
BRANCH  72  74
ATOM     74  C   UNL A   1      33.013  26.392  24.889  1.00  0.00     0.197 C 
ATOM     75  C   UNL A   1      34.379  25.752  25.212  1.00  0.00     0.038 C 
ATOM     76  N   UNL A   1      31.914  25.593  25.420  1.00  0.00    -0.308 N 
ATOM     77  C   UNL A   1      34.521  24.380  24.663  1.00  0.00     0.008 C 
ATOM     78  C   UNL A   1      32.087  24.060  25.531  1.00  0.00     0.091 C 
ATOM     79  C   UNL A   1      33.538  23.459  25.350  1.00  0.00     0.012 C 
ATOM     80  C   UNL A   1      31.110  23.218  24.647  1.00  0.00     0.025 C 
ATOM     81  C   UNL A   1      33.611  22.123  24.573  1.00  0.00     0.006 C 
ATOM     82  C   UNL A   1      31.630  22.996  23.232  1.00  0.00     0.002 C 
ATOM     83  C   UNL A   1      32.940  22.213  23.201  1.00  0.00     0.000 C 
BRANCH  76  84
ATOM     84  C   UNL A   1      30.618  26.064  25.462  1.00  0.00     0.318 C 
ATOM     85  O   UNL A   1      29.941  25.937  26.491  1.00  0.00    -0.249 OA
ATOM     86  N   UNL A   1      29.933  26.578  24.398  1.00  0.00    -0.335 N 
ATOM     87  H   UNL A   1      29.056  26.135  24.324  1.00  0.00     0.165 HD
BRANCH  86  88
ATOM     88  C   UNL A   1      30.070  27.554  23.347  1.00  0.00     0.084 C 
ATOM     89  C   UNL A   1      29.171  28.595  22.750  1.00  0.00     0.027 C 
ATOM     90  C   UNL A   1      30.308  29.024  23.583  1.00  0.00     0.027 C 
ENDBRANCH  86  88
ENDBRANCH  76  84
ENDBRANCH  72  74
ENDBRANCH  71  72
ENDBRANCH  70  71
ENDBRANCH  69  70
ENDBRANCH  68  69
ENDBRANCH   1  68
TORSDOF 19
ENDMDL
