MODEL 1
REMARK VINA RESULT:      -9.7      0.000      0.000
REMARK SMILES CN(C)C(=O)CCNC(=O)NC[C@H]1CC[C@@H](C(=O)OCCOCCOC(=O)c2ccc(-c3c4nc(c(-c5ccc(S(=O)(=O)[O-])cc5)c5ccc([nH]5)c(-c5ccc(S(=O)(=O)[O-])cc5)c5nc(c(-c6ccc(S(=O)(=O)[O-])cc6)c6ccc3[nH]6)C=C5)C=C4)cc2)CC1
REMARK SMILES IDX 21 1 20 2 19 3 17 4 18 5 16 6 13 7 14 8 89 9 15 10 88 11
REMARK SMILES IDX 12 12 11 13 8 14 9 15 10 17 7 19 6 20 4 21 1 22 2 23 3 24
REMARK SMILES IDX 5 25 22 26 23 27 24 28 25 29 26 30 27 31 28 32 29 33 87 34
REMARK SMILES IDX 30 35 86 36 31 37 32 38 33 39 80 40 34 41 85 42 79 43 81 44
REMARK SMILES IDX 35 45 84 46 78 47 77 48 36 50 66 51 47 52 65 53 48 54 51 55
REMARK SMILES IDX 64 56 82 57 49 58 50 59 63 61 83 62 52 63 37 64 38 65 46 66
REMARK SMILES IDX 39 67 45 68 40 69 41 70 42 71 43 72 44 73 67 74 68 75 76 76
REMARK SMILES IDX 69 77 75 78 70 79 71 80 72 81 73 82 74 83 53 84 54 85 62 86
REMARK SMILES IDX 55 87 61 88 56 89 57 90 58 91 59 92 60 93
REMARK H PARENT 8 16 11 18 81 49 51 60
REMARK Flexibility Score: inf
ROOT
ATOM      1  C   UNL A   1      40.812  22.219  26.684  1.00  0.00     0.202 C 
ENDROOT
BRANCH   1   2
ATOM      2  C   UNL A   1      39.859  21.167  26.116  1.00  0.00     0.261 C 
BRANCH   2   3
ATOM      3  O   UNL A   1      38.497  21.634  26.158  1.00  0.00    -0.463 OA
BRANCH   3   4
ATOM      4  C   UNL A   1      37.754  21.486  25.033  1.00  0.00     0.309 C 
ATOM      5  O   UNL A   1      37.394  20.412  24.567  1.00  0.00    -0.252 OA
BRANCH   4   6
ATOM      6  C   UNL A   1      37.440  22.821  24.362  1.00  0.00     0.099 C 
ATOM      7  C   UNL A   1      34.694  23.707  25.181  1.00  0.00     0.008 C 
ATOM      8  C   UNL A   1      35.908  23.769  26.130  1.00  0.00     0.006 C 
ATOM      9  C   UNL A   1      34.895  22.758  23.989  1.00  0.00     0.006 C 
ATOM     10  C   UNL A   1      37.244  23.906  25.411  1.00  0.00     0.015 C 
ATOM     11  C   UNL A   1      36.284  22.833  23.358  1.00  0.00     0.015 C 
BRANCH   7  12
ATOM     12  C   UNL A   1      33.415  23.295  25.946  1.00  0.00     0.121 C 
BRANCH  12  13
ATOM     13  N   UNL A   1      32.202  23.595  25.216  1.00  0.00    -0.338 N 
ATOM     14  N   UNL A   1      31.771  21.683  23.914  1.00  0.00    -0.338 N 
ATOM     15  C   UNL A   1      31.609  22.984  24.183  1.00  0.00     0.314 C 
ATOM     16  H   UNL A   1      31.531  21.430  22.993  1.00  0.00     0.165 HD
ATOM     17  O   UNL A   1      30.880  23.649  23.450  1.00  0.00    -0.249 OA
ATOM     18  H   UNL A   1      31.725  24.394  25.539  1.00  0.00     0.165 HD
BRANCH  14  19
ATOM     19  C   UNL A   1      32.234  20.576  24.729  1.00  0.00     0.127 C 
BRANCH  19  20
ATOM     20  C   UNL A   1      32.474  19.304  23.924  1.00  0.00     0.121 C 
BRANCH  20  21
ATOM     21  C   UNL A   1      32.833  18.172  24.866  1.00  0.00     0.223 C 
ATOM     22  C   UNL A   1      34.081  16.144  25.379  1.00  0.00     0.146 C 
ATOM     23  N   UNL A   1      33.630  17.135  24.416  1.00  0.00    -0.349 N 
ATOM     24  C   UNL A   1      34.028  16.893  23.035  1.00  0.00     0.146 C 
ATOM     25  O   UNL A   1      32.465  18.250  26.043  1.00  0.00    -0.275 OA
ENDBRANCH  20  21
ENDBRANCH  19  20
ENDBRANCH  14  19
ENDBRANCH  12  13
ENDBRANCH   7  12
ENDBRANCH   4   6
ENDBRANCH   3   4
ENDBRANCH   2   3
ENDBRANCH   1   2
BRANCH   1  26
ATOM     26  O   UNL A   1      41.598  21.801  27.801  1.00  0.00    -0.374 OA
BRANCH  26  27
ATOM     27  C   UNL A   1      42.952  22.245  27.838  1.00  0.00     0.202 C 
BRANCH  27  28
ATOM     28  C   UNL A   1      43.401  23.142  26.679  1.00  0.00     0.261 C 
BRANCH  28  29
ATOM     29  O   UNL A   1      43.893  24.416  27.133  1.00  0.00    -0.460 OA
BRANCH  29  30
ATOM     30  C   UNL A   1      43.340  25.488  26.520  1.00  0.00     0.338 C 
ATOM     31  O   UNL A   1      43.263  25.689  25.312  1.00  0.00    -0.246 OA
BRANCH  30  32
ATOM     32  C   UNL A   1      42.661  26.345  27.508  1.00  0.00     0.060 A 
ATOM     33  C   UNL A   1      43.161  27.641  27.696  1.00  0.00     0.016 A 
ATOM     34  C   UNL A   1      41.610  25.868  28.295  1.00  0.00     0.016 A 
ATOM     35  C   UNL A   1      42.651  28.448  28.712  1.00  0.00     0.010 A 
ATOM     36  C   UNL A   1      41.106  26.675  29.318  1.00  0.00     0.010 A 
ATOM     37  C   UNL A   1      41.651  27.951  29.557  1.00  0.00    -0.014 A 
BRANCH  37  38
ATOM     38  C   UNL A   1      41.296  28.682  30.796  1.00  0.00     0.031 A 
ATOM     39  C   UNL A   1      40.136  29.640  30.760  1.00  0.00     0.074 A 
ATOM     40  C   UNL A   1      41.991  28.505  31.933  1.00  0.00     0.049 A 
ATOM     41  N   UNL A   1      39.721  30.473  31.678  1.00  0.00    -0.248 NA
ATOM     42  C   UNL A   1      39.349  29.666  29.517  1.00  0.00     0.031 C 
ATOM     43  C   UNL A   1      43.095  27.565  32.111  1.00  0.00     0.029 A 
ATOM     44  N   UNL A   1      41.878  29.132  33.148  1.00  0.00    -0.354 N 
ATOM     45  C   UNL A   1      38.636  31.137  31.118  1.00  0.00     0.074 A 
ATOM     46  C   UNL A   1      38.473  30.626  29.774  1.00  0.00     0.031 C 
ATOM     47  C   UNL A   1      43.576  27.693  33.359  1.00  0.00     0.029 A 
ATOM     48  C   UNL A   1      42.843  28.753  34.050  1.00  0.00     0.049 A 
ATOM     49  H   UNL A   1      41.175  29.788  33.354  1.00  0.00     0.167 HD
ATOM     50  C   UNL A   1      37.847  32.091  31.671  1.00  0.00     0.031 A 
ATOM     51  C   UNL A   1      43.128  29.235  35.277  1.00  0.00     0.031 A 
ATOM     52  C   UNL A   1      38.028  32.610  33.000  1.00  0.00     0.049 A 
ATOM     53  C   UNL A   1      42.299  30.354  35.847  1.00  0.00     0.074 A 
ATOM     54  C   UNL A   1      37.283  33.574  33.655  1.00  0.00     0.029 A 
ATOM     55  N   UNL A   1      39.032  32.216  33.871  1.00  0.00    -0.354 N 
ATOM     56  N   UNL A   1      41.274  30.973  35.309  1.00  0.00    -0.248 NA
ATOM     57  C   UNL A   1      42.661  30.840  37.186  1.00  0.00     0.031 C 
ATOM     58  C   UNL A   1      37.872  33.802  34.904  1.00  0.00     0.029 A 
ATOM     59  C   UNL A   1      38.943  32.934  35.050  1.00  0.00     0.049 A 
ATOM     60  H   UNL A   1      39.709  31.526  33.679  1.00  0.00     0.167 HD
ATOM     61  C   UNL A   1      40.852  31.902  36.255  1.00  0.00     0.074 A 
ATOM     62  C   UNL A   1      41.732  31.765  37.397  1.00  0.00     0.031 C 
ATOM     63  C   UNL A   1      39.821  32.780  36.184  1.00  0.00     0.031 A 
BRANCH  50  64
ATOM     64  C   UNL A   1      36.757  32.666  30.807  1.00  0.00    -0.014 A 
ATOM     65  C   UNL A   1      37.012  33.717  29.907  1.00  0.00     0.010 A 
ATOM     66  C   UNL A   1      35.451  32.154  30.908  1.00  0.00     0.010 A 
ATOM     67  C   UNL A   1      35.969  34.288  29.173  1.00  0.00     0.020 A 
ATOM     68  C   UNL A   1      34.410  32.703  30.153  1.00  0.00     0.020 A 
ATOM     69  C   UNL A   1      34.672  33.785  29.312  1.00  0.00     0.054 A 
BRANCH  69  70
ATOM     70  S   UNL A   1      33.329  34.564  28.373  1.00  0.00     0.124 S 
ATOM     71  O   UNL A   1      32.481  35.085  29.442  1.00  0.00    -0.237 OA
ATOM     72  O   UNL A   1      34.031  35.572  27.582  1.00  0.00    -0.237 OA
ATOM     73  O   UNL A   1      32.757  33.461  27.605  1.00  0.00    -0.744 OA
ENDBRANCH  69  70
ENDBRANCH  50  64
BRANCH  51  74
ATOM     74  C   UNL A   1      44.294  28.685  36.019  1.00  0.00    -0.014 A 
ATOM     75  C   UNL A   1      44.166  27.556  36.845  1.00  0.00     0.010 A 
ATOM     76  C   UNL A   1      45.562  29.270  35.853  1.00  0.00     0.010 A 
ATOM     77  C   UNL A   1      45.287  27.020  37.487  1.00  0.00     0.020 A 
ATOM     78  C   UNL A   1      46.690  28.721  36.468  1.00  0.00     0.020 A 
ATOM     79  C   UNL A   1      46.544  27.601  37.285  1.00  0.00     0.054 A 
BRANCH  79  80
ATOM     80  S   UNL A   1      47.997  26.838  38.059  1.00  0.00     0.124 S 
ATOM     81  O   UNL A   1      47.949  25.481  37.526  1.00  0.00    -0.237 OA
ATOM     82  O   UNL A   1      49.088  27.676  37.565  1.00  0.00    -0.237 OA
ATOM     83  O   UNL A   1      47.724  26.959  39.489  1.00  0.00    -0.744 OA
ENDBRANCH  79  80
ENDBRANCH  51  74
BRANCH  63  84
ATOM     84  C   UNL A   1      39.539  33.638  37.389  1.00  0.00    -0.014 A 
ATOM     85  C   UNL A   1      38.717  33.185  38.434  1.00  0.00     0.010 A 
ATOM     86  C   UNL A   1      40.211  34.868  37.526  1.00  0.00     0.010 A 
ATOM     87  C   UNL A   1      38.570  33.950  39.596  1.00  0.00     0.020 A 
ATOM     88  C   UNL A   1      40.084  35.624  38.695  1.00  0.00     0.020 A 
ATOM     89  C   UNL A   1      39.262  35.159  39.722  1.00  0.00     0.054 A 
BRANCH  89  90
ATOM     90  S   UNL A   1      39.132  36.085  41.278  1.00  0.00     0.124 S 
ATOM     91  O   UNL A   1      40.307  35.619  42.009  1.00  0.00    -0.237 OA
ATOM     92  O   UNL A   1      39.180  37.474  40.829  1.00  0.00    -0.237 OA
ATOM     93  O   UNL A   1      37.846  35.659  41.828  1.00  0.00    -0.744 OA
ENDBRANCH  89  90
ENDBRANCH  63  84
ENDBRANCH  37  38
ENDBRANCH  30  32
ENDBRANCH  29  30
ENDBRANCH  28  29
ENDBRANCH  27  28
ENDBRANCH  26  27
ENDBRANCH   1  26
TORSDOF 22
ENDMDL
MODEL 2
REMARK VINA RESULT:      -9.5      5.865      9.038
REMARK SMILES CN(C)C(=O)CCNC(=O)NC[C@H]1CC[C@@H](C(=O)OCCOCCOC(=O)c2ccc(-c3c4nc(c(-c5ccc(S(=O)(=O)[O-])cc5)c5ccc([nH]5)c(-c5ccc(S(=O)(=O)[O-])cc5)c5nc(c(-c6ccc(S(=O)(=O)[O-])cc6)c6ccc3[nH]6)C=C5)C=C4)cc2)CC1
REMARK SMILES IDX 21 1 20 2 19 3 17 4 18 5 16 6 13 7 14 8 89 9 15 10 88 11
REMARK SMILES IDX 12 12 11 13 8 14 9 15 10 17 7 19 6 20 4 21 1 22 2 23 3 24
REMARK SMILES IDX 5 25 22 26 23 27 24 28 25 29 26 30 27 31 28 32 29 33 87 34
REMARK SMILES IDX 30 35 86 36 31 37 32 38 33 39 80 40 34 41 85 42 79 43 81 44
REMARK SMILES IDX 35 45 84 46 78 47 77 48 36 50 66 51 47 52 65 53 48 54 51 55
REMARK SMILES IDX 64 56 82 57 49 58 50 59 63 61 83 62 52 63 37 64 38 65 46 66
REMARK SMILES IDX 39 67 45 68 40 69 41 70 42 71 43 72 44 73 67 74 68 75 76 76
REMARK SMILES IDX 69 77 75 78 70 79 71 80 72 81 73 82 74 83 53 84 54 85 62 86
REMARK SMILES IDX 55 87 61 88 56 89 57 90 58 91 59 92 60 93
REMARK H PARENT 8 16 11 18 81 49 51 60
REMARK Flexibility Score: inf
ROOT
ATOM      1  C   UNL A   1      37.740  22.103  25.491  1.00  0.00     0.202 C 
ENDROOT
BRANCH   1   2
ATOM      2  C   UNL A   1      37.175  23.473  25.867  1.00  0.00     0.261 C 
BRANCH   2   3
ATOM      3  O   UNL A   1      35.906  23.698  25.223  1.00  0.00    -0.463 OA
BRANCH   3   4
ATOM      4  C   UNL A   1      34.922  22.794  25.456  1.00  0.00     0.309 C 
ATOM      5  O   UNL A   1      34.423  22.568  26.551  1.00  0.00    -0.252 OA
BRANCH   4   6
ATOM      6  C   UNL A   1      34.519  22.034  24.195  1.00  0.00     0.099 C 
ATOM      7  C   UNL A   1      31.867  23.061  23.239  1.00  0.00     0.008 C 
ATOM      8  C   UNL A   1      33.176  23.859  23.080  1.00  0.00     0.006 C 
ATOM      9  C   UNL A   1      31.949  21.952  24.300  1.00  0.00     0.006 C 
ATOM     10  C   UNL A   1      34.424  22.987  23.012  1.00  0.00     0.015 C 
ATOM     11  C   UNL A   1      33.259  21.167  24.285  1.00  0.00     0.015 C 
BRANCH   7  12
ATOM     12  C   UNL A   1      30.685  23.998  23.577  1.00  0.00     0.121 C 
BRANCH  12  13
ATOM     13  N   UNL A   1      30.642  24.367  24.976  1.00  0.00    -0.338 N 
ATOM     14  N   UNL A   1      30.237  26.686  24.995  1.00  0.00    -0.338 N 
ATOM     15  C   UNL A   1      30.659  25.560  25.584  1.00  0.00     0.314 C 
ATOM     16  H   UNL A   1      30.564  27.510  25.421  1.00  0.00     0.165 HD
ATOM     17  O   UNL A   1      31.079  25.623  26.738  1.00  0.00    -0.249 OA
ATOM     18  H   UNL A   1      30.591  23.602  25.593  1.00  0.00     0.165 HD
BRANCH  14  19
ATOM     19  C   UNL A   1      29.385  26.915  23.843  1.00  0.00     0.127 C 
BRANCH  19  20
ATOM     20  C   UNL A   1      29.998  27.878  22.833  1.00  0.00     0.121 C 
BRANCH  20  21
ATOM     21  C   UNL A   1      29.955  29.287  23.391  1.00  0.00     0.223 C 
ATOM     22  C   UNL A   1      28.860  31.450  23.629  1.00  0.00     0.146 C 
ATOM     23  N   UNL A   1      28.969  30.160  22.968  1.00  0.00    -0.349 N 
ATOM     24  C   UNL A   1      28.041  29.941  21.866  1.00  0.00     0.146 C 
ATOM     25  O   UNL A   1      30.762  29.591  24.276  1.00  0.00    -0.275 OA
ENDBRANCH  20  21
ENDBRANCH  19  20
ENDBRANCH  14  19
ENDBRANCH  12  13
ENDBRANCH   7  12
ENDBRANCH   4   6
ENDBRANCH   3   4
ENDBRANCH   2   3
ENDBRANCH   1   2
BRANCH   1  26
ATOM     26  O   UNL A   1      39.110  21.885  25.833  1.00  0.00    -0.374 OA
BRANCH  26  27
ATOM     27  C   UNL A   1      39.525  20.532  25.999  1.00  0.00     0.202 C 
BRANCH  27  28
ATOM     28  C   UNL A   1      40.549  20.269  27.108  1.00  0.00     0.261 C 
BRANCH  28  29
ATOM     29  O   UNL A   1      41.610  19.397  26.677  1.00  0.00    -0.460 OA
BRANCH  29  30
ATOM     30  C   UNL A   1      42.562  19.993  25.923  1.00  0.00     0.338 C 
ATOM     31  O   UNL A   1      43.105  19.534  24.923  1.00  0.00    -0.246 OA
BRANCH  30  32
ATOM     32  C   UNL A   1      42.760  21.386  26.359  1.00  0.00     0.060 A 
ATOM     33  C   UNL A   1      42.731  22.385  25.376  1.00  0.00     0.016 A 
ATOM     34  C   UNL A   1      43.050  21.706  27.687  1.00  0.00     0.016 A 
ATOM     35  C   UNL A   1      43.049  23.702  25.705  1.00  0.00     0.010 A 
ATOM     36  C   UNL A   1      43.377  23.025  28.014  1.00  0.00     0.010 A 
ATOM     37  C   UNL A   1      43.417  24.019  27.018  1.00  0.00    -0.014 A 
BRANCH  37  38
ATOM     38  C   UNL A   1      44.016  25.340  27.322  1.00  0.00     0.031 A 
ATOM     39  C   UNL A   1      43.131  26.422  27.880  1.00  0.00     0.074 A 
ATOM     40  C   UNL A   1      45.320  25.581  27.101  1.00  0.00     0.049 A 
ATOM     41  N   UNL A   1      43.403  27.680  28.107  1.00  0.00    -0.248 NA
ATOM     42  C   UNL A   1      41.754  26.028  28.218  1.00  0.00     0.031 C 
ATOM     43  C   UNL A   1      46.291  24.601  26.620  1.00  0.00     0.029 A 
ATOM     44  N   UNL A   1      46.043  26.739  27.238  1.00  0.00    -0.354 N 
ATOM     45  C   UNL A   1      42.226  28.235  28.594  1.00  0.00     0.074 A 
ATOM     46  C   UNL A   1      41.234  27.182  28.610  1.00  0.00     0.031 C 
ATOM     47  C   UNL A   1      47.482  25.206  26.477  1.00  0.00     0.029 A 
ATOM     48  C   UNL A   1      47.346  26.623  26.815  1.00  0.00     0.049 A 
ATOM     49  H   UNL A   1      45.667  27.571  27.603  1.00  0.00     0.167 HD
ATOM     50  C   UNL A   1      41.989  29.509  28.991  1.00  0.00     0.031 A 
ATOM     51  C   UNL A   1      48.306  27.559  26.678  1.00  0.00     0.031 A 
ATOM     52  C   UNL A   1      42.974  30.557  28.953  1.00  0.00     0.049 A 
ATOM     53  C   UNL A   1      48.006  28.989  27.040  1.00  0.00     0.074 A 
ATOM     54  C   UNL A   1      42.838  31.880  29.334  1.00  0.00     0.029 A 
ATOM     55  N   UNL A   1      44.274  30.402  28.496  1.00  0.00    -0.354 N 
ATOM     56  N   UNL A   1      46.890  29.502  27.503  1.00  0.00    -0.248 NA
ATOM     57  C   UNL A   1      49.090  29.966  26.864  1.00  0.00     0.031 C 
ATOM     58  C   UNL A   1      44.041  32.538  29.055  1.00  0.00     0.029 A 
ATOM     59  C   UNL A   1      44.945  31.610  28.562  1.00  0.00     0.049 A 
ATOM     60  H   UNL A   1      44.662  29.557  28.172  1.00  0.00     0.167 HD
ATOM     61  C   UNL A   1      47.147  30.856  27.699  1.00  0.00     0.074 A 
ATOM     62  C   UNL A   1      48.522  31.082  27.305  1.00  0.00     0.031 C 
ATOM     63  C   UNL A   1      46.318  31.819  28.174  1.00  0.00     0.031 A 
BRANCH  50  64
ATOM     64  C   UNL A   1      40.593  29.840  29.443  1.00  0.00    -0.014 A 
ATOM     65  C   UNL A   1      39.558  30.074  28.519  1.00  0.00     0.010 A 
ATOM     66  C   UNL A   1      40.314  29.931  30.819  1.00  0.00     0.010 A 
ATOM     67  C   UNL A   1      38.288  30.457  28.961  1.00  0.00     0.020 A 
ATOM     68  C   UNL A   1      39.037  30.285  31.266  1.00  0.00     0.020 A 
ATOM     69  C   UNL A   1      38.041  30.573  30.332  1.00  0.00     0.054 A 
BRANCH  69  70
ATOM     70  S   UNL A   1      36.394  31.103  30.879  1.00  0.00     0.124 S 
ATOM     71  O   UNL A   1      35.905  29.904  31.556  1.00  0.00    -0.237 OA
ATOM     72  O   UNL A   1      36.693  32.238  31.749  1.00  0.00    -0.237 OA
ATOM     73  O   UNL A   1      35.707  31.440  29.635  1.00  0.00    -0.744 OA
ENDBRANCH  69  70
ENDBRANCH  50  64
BRANCH  51  74
ATOM     74  C   UNL A   1      49.627  27.167  26.117  1.00  0.00    -0.014 A 
ATOM     75  C   UNL A   1      50.567  26.466  26.890  1.00  0.00     0.010 A 
ATOM     76  C   UNL A   1      49.925  27.456  24.773  1.00  0.00     0.010 A 
ATOM     77  C   UNL A   1      51.779  26.056  26.324  1.00  0.00     0.020 A 
ATOM     78  C   UNL A   1      51.121  27.023  24.196  1.00  0.00     0.020 A 
ATOM     79  C   UNL A   1      52.042  26.328  24.977  1.00  0.00     0.054 A 
BRANCH  79  80
ATOM     80  S   UNL A   1      53.583  25.713  24.243  1.00  0.00     0.124 S 
ATOM     81  O   UNL A   1      53.580  24.313  24.657  1.00  0.00    -0.237 OA
ATOM     82  O   UNL A   1      53.366  25.953  22.818  1.00  0.00    -0.237 OA
ATOM     83  O   UNL A   1      54.612  26.545  24.861  1.00  0.00    -0.744 OA
ENDBRANCH  79  80
ENDBRANCH  51  74
BRANCH  63  84
ATOM     84  C   UNL A   1      46.876  33.207  28.349  1.00  0.00    -0.014 A 
ATOM     85  C   UNL A   1      46.759  34.175  27.338  1.00  0.00     0.010 A 
ATOM     86  C   UNL A   1      47.416  33.575  29.596  1.00  0.00     0.010 A 
ATOM     87  C   UNL A   1      47.176  35.490  27.572  1.00  0.00     0.020 A 
ATOM     88  C   UNL A   1      47.811  34.893  29.841  1.00  0.00     0.020 A 
ATOM     89  C   UNL A   1      47.690  35.842  28.824  1.00  0.00     0.054 A 
BRANCH  89  90
ATOM     90  S   UNL A   1      48.132  37.575  29.134  1.00  0.00     0.124 S 
ATOM     91  O   UNL A   1      49.354  37.442  29.922  1.00  0.00    -0.237 OA
ATOM     92  O   UNL A   1      48.308  38.106  27.784  1.00  0.00    -0.237 OA
ATOM     93  O   UNL A   1      46.977  38.103  29.859  1.00  0.00    -0.744 OA
ENDBRANCH  89  90
ENDBRANCH  63  84
ENDBRANCH  37  38
ENDBRANCH  30  32
ENDBRANCH  29  30
ENDBRANCH  28  29
ENDBRANCH  27  28
ENDBRANCH  26  27
ENDBRANCH   1  26
TORSDOF 22
ENDMDL
MODEL 3
REMARK VINA RESULT:      -9.3      3.649      9.544
REMARK SMILES CN(C)C(=O)CCNC(=O)NC[C@H]1CC[C@@H](C(=O)OCCOCCOC(=O)c2ccc(-c3c4nc(c(-c5ccc(S(=O)(=O)[O-])cc5)c5ccc([nH]5)c(-c5ccc(S(=O)(=O)[O-])cc5)c5nc(c(-c6ccc(S(=O)(=O)[O-])cc6)c6ccc3[nH]6)C=C5)C=C4)cc2)CC1
REMARK SMILES IDX 21 1 20 2 19 3 17 4 18 5 16 6 13 7 14 8 89 9 15 10 88 11
REMARK SMILES IDX 12 12 11 13 8 14 9 15 10 17 7 19 6 20 4 21 1 22 2 23 3 24
REMARK SMILES IDX 5 25 22 26 23 27 24 28 25 29 26 30 27 31 28 32 29 33 87 34
REMARK SMILES IDX 30 35 86 36 31 37 32 38 33 39 80 40 34 41 85 42 79 43 81 44
REMARK SMILES IDX 35 45 84 46 78 47 77 48 36 50 66 51 47 52 65 53 48 54 51 55
REMARK SMILES IDX 64 56 82 57 49 58 50 59 63 61 83 62 52 63 37 64 38 65 46 66
REMARK SMILES IDX 39 67 45 68 40 69 41 70 42 71 43 72 44 73 67 74 68 75 76 76
REMARK SMILES IDX 69 77 75 78 70 79 71 80 72 81 73 82 74 83 53 84 54 85 62 86
REMARK SMILES IDX 55 87 61 88 56 89 57 90 58 91 59 92 60 93
REMARK H PARENT 8 16 11 18 81 49 51 60
REMARK Flexibility Score: inf
ROOT
ATOM      1  C   UNL A   1      31.247  25.611  25.825  1.00  0.00     0.202 C 
ENDROOT
BRANCH   1   2
ATOM      2  C   UNL A   1      32.601  24.973  26.139  1.00  0.00     0.261 C 
BRANCH   2   3
ATOM      3  O   UNL A   1      32.538  23.541  25.999  1.00  0.00    -0.463 OA
BRANCH   3   4
ATOM      4  C   UNL A   1      33.714  22.870  25.925  1.00  0.00     0.309 C 
ATOM      5  O   UNL A   1      34.587  22.889  26.784  1.00  0.00    -0.252 OA
BRANCH   4   6
ATOM      6  C   UNL A   1      33.868  22.106  24.612  1.00  0.00     0.099 C 
ATOM      7  C   UNL A   1      33.088  23.901  22.339  1.00  0.00     0.008 C 
ATOM      8  C   UNL A   1      34.412  24.063  23.112  1.00  0.00     0.006 C 
ATOM      9  C   UNL A   1      32.032  23.079  23.095  1.00  0.00     0.006 C 
ATOM     10  C   UNL A   1      34.922  22.770  23.737  1.00  0.00     0.015 C 
ATOM     11  C   UNL A   1      32.590  21.850  23.809  1.00  0.00     0.015 C 
BRANCH   7  12
ATOM     12  C   UNL A   1      32.490  25.278  21.972  1.00  0.00     0.121 C 
BRANCH  12  13
ATOM     13  N   UNL A   1      33.328  26.384  22.382  1.00  0.00    -0.338 N 
ATOM     14  N   UNL A   1      31.905  28.258  22.435  1.00  0.00    -0.338 N 
ATOM     15  C   UNL A   1      33.124  27.707  22.378  1.00  0.00     0.314 C 
ATOM     16  H   UNL A   1      31.873  29.195  22.136  1.00  0.00     0.165 HD
ATOM     17  O   UNL A   1      34.102  28.450  22.322  1.00  0.00    -0.249 OA
ATOM     18  H   UNL A   1      34.210  26.114  22.728  1.00  0.00     0.165 HD
BRANCH  14  19
ATOM     19  C   UNL A   1      30.622  27.727  22.857  1.00  0.00     0.127 C 
BRANCH  19  20
ATOM     20  C   UNL A   1      29.449  28.602  22.431  1.00  0.00     0.121 C 
BRANCH  20  21
ATOM     21  C   UNL A   1      29.558  29.955  23.107  1.00  0.00     0.223 C 
ATOM     22  C   UNL A   1      28.856  32.274  23.354  1.00  0.00     0.146 C 
ATOM     23  N   UNL A   1      28.853  31.031  22.600  1.00  0.00    -0.349 N 
ATOM     24  C   UNL A   1      28.134  31.069  21.334  1.00  0.00     0.146 C 
ATOM     25  O   UNL A   1      30.219  30.038  24.148  1.00  0.00    -0.275 OA
ENDBRANCH  20  21
ENDBRANCH  19  20
ENDBRANCH  14  19
ENDBRANCH  12  13
ENDBRANCH   7  12
ENDBRANCH   4   6
ENDBRANCH   3   4
ENDBRANCH   2   3
ENDBRANCH   1   2
BRANCH   1  26
ATOM     26  O   UNL A   1      31.079  26.955  26.276  1.00  0.00    -0.374 OA
BRANCH  26  27
ATOM     27  C   UNL A   1      32.171  27.847  26.065  1.00  0.00     0.202 C 
BRANCH  27  28
ATOM     28  C   UNL A   1      32.855  28.389  27.326  1.00  0.00     0.261 C 
BRANCH  28  29
ATOM     29  O   UNL A   1      34.215  28.789  27.080  1.00  0.00    -0.460 OA
BRANCH  29  30
ATOM     30  C   UNL A   1      34.484  30.085  27.361  1.00  0.00     0.338 C 
ATOM     31  O   UNL A   1      33.807  31.061  27.055  1.00  0.00    -0.246 OA
BRANCH  30  32
ATOM     32  C   UNL A   1      35.646  30.180  28.261  1.00  0.00     0.060 A 
ATOM     33  C   UNL A   1      36.650  31.101  27.931  1.00  0.00     0.016 A 
ATOM     34  C   UNL A   1      35.794  29.333  29.362  1.00  0.00     0.016 A 
ATOM     35  C   UNL A   1      37.835  31.138  28.664  1.00  0.00     0.010 A 
ATOM     36  C   UNL A   1      36.986  29.366  30.091  1.00  0.00     0.010 A 
ATOM     37  C   UNL A   1      38.026  30.240  29.721  1.00  0.00    -0.014 A 
BRANCH  37  38
ATOM     38  C   UNL A   1      39.369  30.082  30.326  1.00  0.00     0.031 A 
ATOM     39  C   UNL A   1      40.262  28.980  29.823  1.00  0.00     0.074 A 
ATOM     40  C   UNL A   1      39.790  30.896  31.310  1.00  0.00     0.049 A 
ATOM     41  N   UNL A   1      41.418  28.577  30.279  1.00  0.00    -0.248 NA
ATOM     42  C   UNL A   1      39.776  28.229  28.655  1.00  0.00     0.031 C 
ATOM     43  C   UNL A   1      39.044  32.034  31.843  1.00  0.00     0.029 A 
ATOM     44  N   UNL A   1      40.947  30.871  32.048  1.00  0.00    -0.354 N 
ATOM     45  C   UNL A   1      41.790  27.512  29.467  1.00  0.00     0.074 A 
ATOM     46  C   UNL A   1      40.726  27.319  28.506  1.00  0.00     0.031 C 
ATOM     47  C   UNL A   1      39.753  32.586  32.842  1.00  0.00     0.029 A 
ATOM     48  C   UNL A   1      40.979  31.814  33.046  1.00  0.00     0.049 A 
ATOM     49  H   UNL A   1      41.681  30.239  31.879  1.00  0.00     0.167 HD
ATOM     50  C   UNL A   1      42.916  26.759  29.519  1.00  0.00     0.031 A 
ATOM     51  C   UNL A   1      41.873  32.008  34.036  1.00  0.00     0.031 A 
ATOM     52  C   UNL A   1      43.960  26.942  30.491  1.00  0.00     0.049 A 
ATOM     53  C   UNL A   1      43.077  31.110  34.136  1.00  0.00     0.074 A 
ATOM     54  C   UNL A   1      45.142  26.235  30.628  1.00  0.00     0.029 A 
ATOM     55  N   UNL A   1      43.941  27.894  31.499  1.00  0.00    -0.354 N 
ATOM     56  N   UNL A   1      43.420  30.107  33.361  1.00  0.00    -0.248 NA
ATOM     57  C   UNL A   1      44.014  31.366  35.239  1.00  0.00     0.031 C 
ATOM     58  C   UNL A   1      45.812  26.725  31.755  1.00  0.00     0.029 A 
ATOM     59  C   UNL A   1      45.079  27.779  32.278  1.00  0.00     0.049 A 
ATOM     60  H   UNL A   1      43.225  28.554  31.639  1.00  0.00     0.167 HD
ATOM     61  C   UNL A   1      44.626  29.632  33.866  1.00  0.00     0.074 A 
ATOM     62  C   UNL A   1      44.953  30.455  35.013  1.00  0.00     0.031 C 
ATOM     63  C   UNL A   1      45.396  28.612  33.412  1.00  0.00     0.031 A 
BRANCH  50  64
ATOM     64  C   UNL A   1      43.036  25.634  28.526  1.00  0.00    -0.014 A 
ATOM     65  C   UNL A   1      43.498  25.857  27.216  1.00  0.00     0.010 A 
ATOM     66  C   UNL A   1      42.667  24.331  28.908  1.00  0.00     0.010 A 
ATOM     67  C   UNL A   1      43.526  24.812  26.288  1.00  0.00     0.020 A 
ATOM     68  C   UNL A   1      42.722  23.277  27.991  1.00  0.00     0.020 A 
ATOM     69  C   UNL A   1      43.125  23.532  26.680  1.00  0.00     0.054 A 
BRANCH  69  70
ATOM     70  S   UNL A   1      43.140  22.199  25.449  1.00  0.00     0.124 S 
ATOM     71  O   UNL A   1      41.827  21.591  25.651  1.00  0.00    -0.237 OA
ATOM     72  O   UNL A   1      43.309  22.923  24.191  1.00  0.00    -0.237 OA
ATOM     73  O   UNL A   1      44.277  21.372  25.846  1.00  0.00    -0.744 OA
ENDBRANCH  69  70
ENDBRANCH  50  64
BRANCH  51  74
ATOM     74  C   UNL A   1      41.621  33.073  35.044  1.00  0.00    -0.014 A 
ATOM     75  C   UNL A   1      40.781  32.849  36.147  1.00  0.00     0.010 A 
ATOM     76  C   UNL A   1      42.276  34.312  34.923  1.00  0.00     0.010 A 
ATOM     77  C   UNL A   1      40.606  33.844  37.113  1.00  0.00     0.020 A 
ATOM     78  C   UNL A   1      42.126  35.298  35.901  1.00  0.00     0.020 A 
ATOM     79  C   UNL A   1      41.288  35.059  36.989  1.00  0.00     0.054 A 
BRANCH  79  80
ATOM     80  S   UNL A   1      41.112  36.303  38.298  1.00  0.00     0.124 S 
ATOM     81  O   UNL A   1      42.219  37.208  38.008  1.00  0.00    -0.237 OA
ATOM     82  O   UNL A   1      39.774  36.834  38.044  1.00  0.00    -0.237 OA
ATOM     83  O   UNL A   1      41.246  35.526  39.528  1.00  0.00    -0.744 OA
ENDBRANCH  79  80
ENDBRANCH  51  74
BRANCH  63  84
ATOM     84  C   UNL A   1      46.701  28.344  34.114  1.00  0.00    -0.014 A 
ATOM     85  C   UNL A   1      46.815  27.338  35.087  1.00  0.00     0.010 A 
ATOM     86  C   UNL A   1      47.856  29.035  33.700  1.00  0.00     0.010 A 
ATOM     87  C   UNL A   1      48.065  27.028  35.636  1.00  0.00     0.020 A 
ATOM     88  C   UNL A   1      49.108  28.712  34.229  1.00  0.00     0.020 A 
ATOM     89  C   UNL A   1      49.203  27.711  35.196  1.00  0.00     0.054 A 
BRANCH  89  90
ATOM     90  S   UNL A   1      50.825  27.223  35.851  1.00  0.00     0.124 S 
ATOM     91  O   UNL A   1      50.454  26.362  36.971  1.00  0.00    -0.237 OA
ATOM     92  O   UNL A   1      51.438  26.545  34.712  1.00  0.00    -0.237 OA
ATOM     93  O   UNL A   1      51.445  28.494  36.221  1.00  0.00    -0.744 OA
ENDBRANCH  89  90
ENDBRANCH  63  84
ENDBRANCH  37  38
ENDBRANCH  30  32
ENDBRANCH  29  30
ENDBRANCH  28  29
ENDBRANCH  27  28
ENDBRANCH  26  27
ENDBRANCH   1  26
TORSDOF 22
ENDMDL
