MODEL 1
REMARK VINA RESULT:     -10.2      0.000      0.000
REMARK SMILES Cc1cc(C)c(NC(=O)C2(C)CCCC2)c(C(=O)OCCOCCOC(=O)c2ccc(-c3c4nc(c(-c5ccc(S(=O)(=O)[O-])cc5)c5ccc([nH]5)c(-c5ccc(S(=O)(=O)[O-])cc5)c5nc(c(-c6ccc(S(=O)(=O)[O-])cc6)c6ccc3[nH]6)C=C5)C=C4)cc2)c1
REMARK SMILES IDX 23 1 22 2 21 3 20 4 19 5 17 6 18 7 16 8 1 9 2 10 3 11 88 12
REMARK SMILES IDX 4 13 5 14 6 15 7 16 8 17 9 19 10 20 11 21 12 22 15 23 13 24
REMARK SMILES IDX 14 25 24 26 25 27 26 28 27 29 28 30 29 31 87 32 30 33 86 34
REMARK SMILES IDX 31 35 32 36 33 37 80 38 34 39 85 40 79 41 81 42 35 43 84 44
REMARK SMILES IDX 78 45 77 46 36 48 66 49 47 50 65 51 48 52 51 53 64 54 82 55
REMARK SMILES IDX 49 56 50 57 63 59 83 60 52 61 37 62 38 63 46 64 39 65 45 66
REMARK SMILES IDX 40 67 41 68 42 69 43 70 44 71 67 72 68 73 76 74 69 75 75 76
REMARK SMILES IDX 70 77 71 78 72 79 73 80 74 81 53 82 54 83 62 84 55 85 61 86
REMARK SMILES IDX 56 87 57 88 58 89 59 90 60 91
REMARK H PARENT 7 18 81 47 51 58
REMARK Flexibility Score: inf
ROOT
ATOM      1  C   UNL A   1      31.876  27.242  26.657  1.00  0.00     0.202 C 
ENDROOT
BRANCH   1   2
ATOM      2  O   UNL A   1      31.679  26.619  25.388  1.00  0.00    -0.374 OA
BRANCH   2   3
ATOM      3  C   UNL A   1      30.749  25.538  25.327  1.00  0.00     0.202 C 
BRANCH   3   4
ATOM      4  C   UNL A   1      30.578  24.848  23.968  1.00  0.00     0.261 C 
BRANCH   4   5
ATOM      5  O   UNL A   1      31.030  23.482  23.994  1.00  0.00    -0.460 OA
BRANCH   5   6
ATOM      6  C   UNL A   1      31.999  23.146  23.106  1.00  0.00     0.340 C 
ATOM      7  O   UNL A   1      32.653  23.902  22.402  1.00  0.00    -0.246 OA
BRANCH   6   8
ATOM      8  C   UNL A   1      32.342  21.710  23.295  1.00  0.00     0.084 A 
ATOM      9  C   UNL A   1      32.034  18.469  21.318  1.00  0.00     0.044 C 
ATOM     10  C   UNL A   1      32.247  19.444  22.438  1.00  0.00    -0.050 A 
ATOM     11  C   UNL A   1      32.622  18.990  23.703  1.00  0.00     0.009 A 
ATOM     12  C   UNL A   1      32.067  20.812  22.250  1.00  0.00     0.021 A 
ATOM     13  C   UNL A   1      32.821  19.872  24.786  1.00  0.00    -0.026 A 
ATOM     14  C   UNL A   1      32.916  19.231  26.139  1.00  0.00     0.046 C 
ATOM     15  C   UNL A   1      32.819  21.258  24.554  1.00  0.00     0.058 A 
BRANCH  15  16
ATOM     16  N   UNL A   1      33.247  22.234  25.497  1.00  0.00    -0.325 N 
ATOM     17  C   UNL A   1      34.507  22.495  25.971  1.00  0.00     0.230 C 
ATOM     18  H   UNL A   1      32.534  22.805  25.862  1.00  0.00     0.169 HD
ATOM     19  O   UNL A   1      34.879  21.992  27.033  1.00  0.00    -0.274 OA
BRANCH  17  20
ATOM     20  C   UNL A   1      35.366  23.557  25.211  1.00  0.00     0.047 C 
ATOM     21  C   UNL A   1      34.666  24.919  25.152  1.00  0.00     0.022 C 
ATOM     22  C   UNL A   1      36.756  23.699  25.868  1.00  0.00     0.016 C 
ATOM     23  C   UNL A   1      35.783  23.108  23.803  1.00  0.00     0.016 C 
ATOM     24  C   UNL A   1      37.572  22.514  25.353  1.00  0.00     0.001 C 
ATOM     25  C   UNL A   1      36.962  22.150  24.004  1.00  0.00     0.001 C 
ENDBRANCH  17  20
ENDBRANCH  15  16
ENDBRANCH   6   8
ENDBRANCH   5   6
ENDBRANCH   4   5
ENDBRANCH   3   4
ENDBRANCH   2   3
ENDBRANCH   1   2
BRANCH   1  26
ATOM     26  C   UNL A   1      32.502  28.643  26.668  1.00  0.00     0.261 C 
BRANCH  26  27
ATOM     27  O   UNL A   1      33.768  28.682  27.349  1.00  0.00    -0.460 OA
BRANCH  27  28
ATOM     28  C   UNL A   1      34.230  29.928  27.610  1.00  0.00     0.338 C 
ATOM     29  O   UNL A   1      33.591  30.972  27.594  1.00  0.00    -0.246 OA
BRANCH  28  30
ATOM     30  C   UNL A   1      35.618  29.861  28.098  1.00  0.00     0.060 A 
ATOM     31  C   UNL A   1      36.644  30.058  27.165  1.00  0.00     0.016 A 
ATOM     32  C   UNL A   1      35.915  29.530  29.422  1.00  0.00     0.016 A 
ATOM     33  C   UNL A   1      37.974  29.879  27.542  1.00  0.00     0.010 A 
ATOM     34  C   UNL A   1      37.250  29.347  29.797  1.00  0.00     0.010 A 
ATOM     35  C   UNL A   1      38.283  29.488  28.851  1.00  0.00    -0.014 A 
BRANCH  35  36
ATOM     36  C   UNL A   1      39.673  29.100  29.195  1.00  0.00     0.031 A 
ATOM     37  C   UNL A   1      40.562  30.096  29.888  1.00  0.00     0.074 A 
ATOM     38  C   UNL A   1      40.132  27.869  28.910  1.00  0.00     0.049 A 
ATOM     39  N   UNL A   1      41.816  29.980  30.245  1.00  0.00    -0.248 NA
ATOM     40  C   UNL A   1      39.960  31.397  30.220  1.00  0.00     0.031 C 
ATOM     41  C   UNL A   1      39.353  26.803  28.278  1.00  0.00     0.029 A 
ATOM     42  N   UNL A   1      41.368  27.308  29.112  1.00  0.00    -0.354 N 
ATOM     43  C   UNL A   1      42.155  31.193  30.834  1.00  0.00     0.074 A 
ATOM     44  C   UNL A   1      40.987  32.042  30.755  1.00  0.00     0.031 C 
ATOM     45  C   UNL A   1      40.135  25.719  28.136  1.00  0.00     0.029 A 
ATOM     46  C   UNL A   1      41.475  26.026  28.633  1.00  0.00     0.049 A 
ATOM     47  H   UNL A   1      42.108  27.781  29.557  1.00  0.00     0.167 HD
ATOM     48  C   UNL A   1      43.333  31.564  31.395  1.00  0.00     0.031 A 
ATOM     49  C   UNL A   1      42.539  25.199  28.577  1.00  0.00     0.031 A 
ATOM     50  C   UNL A   1      44.498  30.721  31.453  1.00  0.00     0.049 A 
ATOM     51  C   UNL A   1      43.859  25.657  29.138  1.00  0.00     0.074 A 
ATOM     52  C   UNL A   1      45.734  30.998  32.010  1.00  0.00     0.029 A 
ATOM     53  N   UNL A   1      44.577  29.440  30.926  1.00  0.00    -0.354 N 
ATOM     54  N   UNL A   1      44.158  26.799  29.713  1.00  0.00    -0.248 NA
ATOM     55  C   UNL A   1      44.981  24.713  29.054  1.00  0.00     0.031 C 
ATOM     56  C   UNL A   1      46.578  29.910  31.764  1.00  0.00     0.029 A 
ATOM     57  C   UNL A   1      45.848  28.925  31.118  1.00  0.00     0.049 A 
ATOM     58  H   UNL A   1      43.837  28.966  30.482  1.00  0.00     0.167 HD
ATOM     59  C   UNL A   1      45.496  26.698  30.083  1.00  0.00     0.074 A 
ATOM     60  C   UNL A   1      45.943  25.380  29.678  1.00  0.00     0.031 C 
ATOM     61  C   UNL A   1      46.282  27.613  30.704  1.00  0.00     0.031 A 
BRANCH  48  62
ATOM     62  C   UNL A   1      43.425  32.961  31.953  1.00  0.00    -0.014 A 
ATOM     63  C   UNL A   1      43.232  33.218  33.322  1.00  0.00     0.010 A 
ATOM     64  C   UNL A   1      43.730  34.033  31.094  1.00  0.00     0.010 A 
ATOM     65  C   UNL A   1      43.293  34.525  33.813  1.00  0.00     0.020 A 
ATOM     66  C   UNL A   1      43.822  35.339  31.586  1.00  0.00     0.020 A 
ATOM     67  C   UNL A   1      43.582  35.579  32.941  1.00  0.00     0.054 A 
BRANCH  67  68
ATOM     68  S   UNL A   1      43.657  37.265  33.605  1.00  0.00     0.124 S 
ATOM     69  O   UNL A   1      42.330  37.413  34.198  1.00  0.00    -0.237 OA
ATOM     70  O   UNL A   1      44.764  37.186  34.553  1.00  0.00    -0.237 OA
ATOM     71  O   UNL A   1      43.907  38.092  32.427  1.00  0.00    -0.744 OA
ENDBRANCH  67  68
ENDBRANCH  48  62
BRANCH  49  72
ATOM     72  C   UNL A   1      42.397  23.857  27.947  1.00  0.00    -0.014 A 
ATOM     73  C   UNL A   1      42.611  23.681  26.569  1.00  0.00     0.010 A 
ATOM     74  C   UNL A   1      42.068  22.739  28.736  1.00  0.00     0.010 A 
ATOM     75  C   UNL A   1      42.494  22.413  25.992  1.00  0.00     0.020 A 
ATOM     76  C   UNL A   1      41.978  21.467  28.169  1.00  0.00     0.020 A 
ATOM     77  C   UNL A   1      42.185  21.312  26.797  1.00  0.00     0.054 A 
BRANCH  77  78
ATOM     78  S   UNL A   1      42.111  19.665  26.038  1.00  0.00     0.124 S 
ATOM     79  O   UNL A   1      40.700  19.555  25.687  1.00  0.00    -0.237 OA
ATOM     80  O   UNL A   1      43.036  19.796  24.915  1.00  0.00    -0.237 OA
ATOM     81  O   UNL A   1      42.564  18.776  27.106  1.00  0.00    -0.744 OA
ENDBRANCH  77  78
ENDBRANCH  49  72
BRANCH  61  82
ATOM     82  C   UNL A   1      47.701  27.212  31.022  1.00  0.00    -0.014 A 
ATOM     83  C   UNL A   1      48.757  27.494  30.138  1.00  0.00     0.010 A 
ATOM     84  C   UNL A   1      47.985  26.595  32.254  1.00  0.00     0.010 A 
ATOM     85  C   UNL A   1      50.068  27.136  30.467  1.00  0.00     0.020 A 
ATOM     86  C   UNL A   1      49.299  26.263  32.599  1.00  0.00     0.020 A 
ATOM     87  C   UNL A   1      50.331  26.523  31.697  1.00  0.00     0.054 A 
BRANCH  87  88
ATOM     88  S   UNL A   1      52.046  26.109  32.118  1.00  0.00     0.124 S 
ATOM     89  O   UNL A   1      51.871  24.991  33.040  1.00  0.00    -0.237 OA
ATOM     90  O   UNL A   1      52.621  25.769  30.819  1.00  0.00    -0.237 OA
ATOM     91  O   UNL A   1      52.562  27.338  32.720  1.00  0.00    -0.744 OA
ENDBRANCH  87  88
ENDBRANCH  61  82
ENDBRANCH  35  36
ENDBRANCH  28  30
ENDBRANCH  27  28
ENDBRANCH  26  27
ENDBRANCH   1  26
TORSDOF 19
ENDMDL
MODEL 2
REMARK VINA RESULT:     -10.2      3.626      5.420
REMARK SMILES Cc1cc(C)c(NC(=O)C2(C)CCCC2)c(C(=O)OCCOCCOC(=O)c2ccc(-c3c4nc(c(-c5ccc(S(=O)(=O)[O-])cc5)c5ccc([nH]5)c(-c5ccc(S(=O)(=O)[O-])cc5)c5nc(c(-c6ccc(S(=O)(=O)[O-])cc6)c6ccc3[nH]6)C=C5)C=C4)cc2)c1
REMARK SMILES IDX 23 1 22 2 21 3 20 4 19 5 17 6 18 7 16 8 1 9 2 10 3 11 88 12
REMARK SMILES IDX 4 13 5 14 6 15 7 16 8 17 9 19 10 20 11 21 12 22 15 23 13 24
REMARK SMILES IDX 14 25 24 26 25 27 26 28 27 29 28 30 29 31 87 32 30 33 86 34
REMARK SMILES IDX 31 35 32 36 33 37 80 38 34 39 85 40 79 41 81 42 35 43 84 44
REMARK SMILES IDX 78 45 77 46 36 48 66 49 47 50 65 51 48 52 51 53 64 54 82 55
REMARK SMILES IDX 49 56 50 57 63 59 83 60 52 61 37 62 38 63 46 64 39 65 45 66
REMARK SMILES IDX 40 67 41 68 42 69 43 70 44 71 67 72 68 73 76 74 69 75 75 76
REMARK SMILES IDX 70 77 71 78 72 79 73 80 74 81 53 82 54 83 62 84 55 85 61 86
REMARK SMILES IDX 56 87 57 88 58 89 59 90 60 91
REMARK H PARENT 7 18 81 47 51 58
REMARK Flexibility Score: inf
ROOT
ATOM      1  C   UNL A   1      35.118  31.700  27.751  1.00  0.00     0.202 C 
ENDROOT
BRANCH   1   2
ATOM      2  O   UNL A   1      33.774  31.246  27.590  1.00  0.00    -0.374 OA
BRANCH   2   3
ATOM      3  C   UNL A   1      33.585  29.942  27.041  1.00  0.00     0.202 C 
BRANCH   3   4
ATOM      4  C   UNL A   1      32.151  29.554  26.659  1.00  0.00     0.261 C 
BRANCH   4   5
ATOM      5  O   UNL A   1      32.119  28.506  25.673  1.00  0.00    -0.460 OA
BRANCH   5   6
ATOM      6  C   UNL A   1      32.157  28.892  24.373  1.00  0.00     0.340 C 
ATOM      7  O   UNL A   1      33.149  29.141  23.704  1.00  0.00    -0.246 OA
BRANCH   6   8
ATOM      8  C   UNL A   1      30.800  28.724  23.785  1.00  0.00     0.084 A 
ATOM      9  C   UNL A   1      28.132  30.939  22.210  1.00  0.00     0.044 C 
ATOM     10  C   UNL A   1      28.828  29.767  22.835  1.00  0.00    -0.050 A 
ATOM     11  C   UNL A   1      28.153  28.557  23.004  1.00  0.00     0.009 A 
ATOM     12  C   UNL A   1      30.149  29.857  23.269  1.00  0.00     0.021 A 
ATOM     13  C   UNL A   1      28.768  27.434  23.599  1.00  0.00    -0.026 A 
ATOM     14  C   UNL A   1      27.844  26.319  23.992  1.00  0.00     0.046 C 
ATOM     15  C   UNL A   1      30.147  27.466  23.867  1.00  0.00     0.058 A 
BRANCH  15  16
ATOM     16  N   UNL A   1      30.924  26.330  24.229  1.00  0.00    -0.325 N 
ATOM     17  C   UNL A   1      31.250  25.224  23.486  1.00  0.00     0.230 C 
ATOM     18  H   UNL A   1      31.279  26.340  25.146  1.00  0.00     0.169 HD
ATOM     19  O   UNL A   1      30.571  24.200  23.580  1.00  0.00    -0.274 OA
BRANCH  17  20
ATOM     20  C   UNL A   1      32.577  25.266  22.663  1.00  0.00     0.047 C 
ATOM     21  C   UNL A   1      32.464  26.188  21.444  1.00  0.00     0.022 C 
ATOM     22  C   UNL A   1      33.756  25.707  23.558  1.00  0.00     0.016 C 
ATOM     23  C   UNL A   1      33.074  23.875  22.237  1.00  0.00     0.016 C 
ATOM     24  C   UNL A   1      34.158  24.460  24.345  1.00  0.00     0.001 C 
ATOM     25  C   UNL A   1      33.744  23.275  23.478  1.00  0.00     0.001 C 
ENDBRANCH  17  20
ENDBRANCH  15  16
ENDBRANCH   6   8
ENDBRANCH   5   6
ENDBRANCH   4   5
ENDBRANCH   3   4
ENDBRANCH   2   3
ENDBRANCH   1   2
BRANCH   1  26
ATOM     26  C   UNL A   1      35.905  31.169  28.955  1.00  0.00     0.261 C 
BRANCH  26  27
ATOM     27  O   UNL A   1      36.215  29.769  28.846  1.00  0.00    -0.460 OA
BRANCH  27  28
ATOM     28  C   UNL A   1      36.984  29.281  29.848  1.00  0.00     0.338 C 
ATOM     29  O   UNL A   1      36.637  29.044  30.998  1.00  0.00    -0.246 OA
BRANCH  28  30
ATOM     30  C   UNL A   1      38.307  28.896  29.328  1.00  0.00     0.060 A 
ATOM     31  C   UNL A   1      39.212  28.313  30.224  1.00  0.00     0.016 A 
ATOM     32  C   UNL A   1      38.688  29.173  28.013  1.00  0.00     0.016 A 
ATOM     33  C   UNL A   1      40.519  28.046  29.821  1.00  0.00     0.010 A 
ATOM     34  C   UNL A   1      40.002  28.908  27.613  1.00  0.00     0.010 A 
ATOM     35  C   UNL A   1      40.932  28.375  28.524  1.00  0.00    -0.014 A 
BRANCH  35  36
ATOM     36  C   UNL A   1      42.368  28.282  28.163  1.00  0.00     0.031 A 
ATOM     37  C   UNL A   1      43.260  29.473  28.387  1.00  0.00     0.074 A 
ATOM     38  C   UNL A   1      42.876  27.144  27.659  1.00  0.00     0.049 A 
ATOM     39  N   UNL A   1      44.530  29.620  28.110  1.00  0.00    -0.248 NA
ATOM     40  C   UNL A   1      42.636  30.655  29.003  1.00  0.00     0.031 C 
ATOM     41  C   UNL A   1      42.122  25.910  27.434  1.00  0.00     0.029 A 
ATOM     42  N   UNL A   1      44.147  26.843  27.239  1.00  0.00    -0.354 N 
ATOM     43  C   UNL A   1      44.856  30.913  28.507  1.00  0.00     0.074 A 
ATOM     44  C   UNL A   1      43.643  31.518  29.012  1.00  0.00     0.031 C 
ATOM     45  C   UNL A   1      42.946  24.987  26.909  1.00  0.00     0.029 A 
ATOM     46  C   UNL A   1      44.272  25.574  26.726  1.00  0.00     0.049 A 
ATOM     47  H   UNL A   1      44.899  27.476  27.299  1.00  0.00     0.167 HD
ATOM     48  C   UNL A   1      46.059  31.537  28.460  1.00  0.00     0.031 A 
ATOM     49  C   UNL A   1      45.327  24.963  26.152  1.00  0.00     0.031 A 
ATOM     50  C   UNL A   1      47.258  30.937  27.938  1.00  0.00     0.049 A 
ATOM     51  C   UNL A   1      46.636  25.700  26.042  1.00  0.00     0.074 A 
ATOM     52  C   UNL A   1      48.528  31.479  27.858  1.00  0.00     0.029 A 
ATOM     53  N   UNL A   1      47.335  29.661  27.398  1.00  0.00    -0.354 N 
ATOM     54  N   UNL A   1      46.934  26.914  26.443  1.00  0.00    -0.248 NA
ATOM     55  C   UNL A   1      47.751  24.982  25.412  1.00  0.00     0.031 C 
ATOM     56  C   UNL A   1      49.358  30.557  27.212  1.00  0.00     0.029 A 
ATOM     57  C   UNL A   1      48.623  29.411  26.955  1.00  0.00     0.049 A 
ATOM     58  H   UNL A   1      46.584  29.027  27.339  1.00  0.00     0.167 HD
ATOM     59  C   UNL A   1      48.280  27.093  26.138  1.00  0.00     0.074 A 
ATOM     60  C   UNL A   1      48.739  25.860  25.532  1.00  0.00     0.031 C 
ATOM     61  C   UNL A   1      49.066  28.180  26.346  1.00  0.00     0.031 A 
BRANCH  48  62
ATOM     62  C   UNL A   1      46.120  32.961  28.952  1.00  0.00    -0.014 A 
ATOM     63  C   UNL A   1      45.876  34.046  28.090  1.00  0.00     0.010 A 
ATOM     64  C   UNL A   1      46.405  33.217  30.306  1.00  0.00     0.010 A 
ATOM     65  C   UNL A   1      45.967  35.359  28.560  1.00  0.00     0.020 A 
ATOM     66  C   UNL A   1      46.466  34.527  30.788  1.00  0.00     0.020 A 
ATOM     67  C   UNL A   1      46.267  35.591  29.906  1.00  0.00     0.054 A 
BRANCH  67  68
ATOM     68  S   UNL A   1      46.376  37.305  30.490  1.00  0.00     0.124 S 
ATOM     69  O   UNL A   1      47.332  37.188  31.588  1.00  0.00    -0.237 OA
ATOM     70  O   UNL A   1      46.859  38.016  29.310  1.00  0.00    -0.237 OA
ATOM     71  O   UNL A   1      45.007  37.625  30.889  1.00  0.00    -0.744 OA
ENDBRANCH  67  68
ENDBRANCH  48  62
BRANCH  49  72
ATOM     72  C   UNL A   1      45.178  23.579  25.623  1.00  0.00    -0.014 A 
ATOM     73  C   UNL A   1      44.756  23.355  24.301  1.00  0.00     0.010 A 
ATOM     74  C   UNL A   1      45.484  22.475  26.439  1.00  0.00     0.010 A 
ATOM     75  C   UNL A   1      44.638  22.051  23.808  1.00  0.00     0.020 A 
ATOM     76  C   UNL A   1      45.395  21.173  25.942  1.00  0.00     0.020 A 
ATOM     77  C   UNL A   1      44.966  20.969  24.630  1.00  0.00     0.054 A 
BRANCH  77  78
ATOM     78  S   UNL A   1      44.876  19.291  23.944  1.00  0.00     0.124 S 
ATOM     79  O   UNL A   1      43.997  18.620  24.896  1.00  0.00    -0.237 OA
ATOM     80  O   UNL A   1      44.314  19.524  22.617  1.00  0.00    -0.237 OA
ATOM     81  O   UNL A   1      46.268  18.844  23.953  1.00  0.00    -0.744 OA
ENDBRANCH  77  78
ENDBRANCH  49  72
BRANCH  61  82
ATOM     82  C   UNL A   1      50.516  28.078  25.947  1.00  0.00    -0.014 A 
ATOM     83  C   UNL A   1      51.448  27.389  26.744  1.00  0.00     0.010 A 
ATOM     84  C   UNL A   1      50.938  28.631  24.725  1.00  0.00     0.010 A 
ATOM     85  C   UNL A   1      52.783  27.286  26.340  1.00  0.00     0.020 A 
ATOM     86  C   UNL A   1      52.265  28.503  24.303  1.00  0.00     0.020 A 
ATOM     87  C   UNL A   1      53.183  27.843  25.121  1.00  0.00     0.054 A 
BRANCH  87  88
ATOM     88  S   UNL A   1      54.910  27.656  24.600  1.00  0.00     0.124 S 
ATOM     89  O   UNL A   1      55.628  27.821  25.860  1.00  0.00    -0.237 OA
ATOM     90  O   UNL A   1      54.931  26.309  24.036  1.00  0.00    -0.237 OA
ATOM     91  O   UNL A   1      55.098  28.734  23.630  1.00  0.00    -0.744 OA
ENDBRANCH  87  88
ENDBRANCH  61  82
ENDBRANCH  35  36
ENDBRANCH  28  30
ENDBRANCH  27  28
ENDBRANCH  26  27
ENDBRANCH   1  26
TORSDOF 19
ENDMDL
MODEL 3
REMARK VINA RESULT:     -10.0      3.065      4.502
REMARK SMILES Cc1cc(C)c(NC(=O)C2(C)CCCC2)c(C(=O)OCCOCCOC(=O)c2ccc(-c3c4nc(c(-c5ccc(S(=O)(=O)[O-])cc5)c5ccc([nH]5)c(-c5ccc(S(=O)(=O)[O-])cc5)c5nc(c(-c6ccc(S(=O)(=O)[O-])cc6)c6ccc3[nH]6)C=C5)C=C4)cc2)c1
REMARK SMILES IDX 23 1 22 2 21 3 20 4 19 5 17 6 18 7 16 8 1 9 2 10 3 11 88 12
REMARK SMILES IDX 4 13 5 14 6 15 7 16 8 17 9 19 10 20 11 21 12 22 15 23 13 24
REMARK SMILES IDX 14 25 24 26 25 27 26 28 27 29 28 30 29 31 87 32 30 33 86 34
REMARK SMILES IDX 31 35 32 36 33 37 80 38 34 39 85 40 79 41 81 42 35 43 84 44
REMARK SMILES IDX 78 45 77 46 36 48 66 49 47 50 65 51 48 52 51 53 64 54 82 55
REMARK SMILES IDX 49 56 50 57 63 59 83 60 52 61 37 62 38 63 46 64 39 65 45 66
REMARK SMILES IDX 40 67 41 68 42 69 43 70 44 71 67 72 68 73 76 74 69 75 75 76
REMARK SMILES IDX 70 77 71 78 72 79 73 80 74 81 53 82 54 83 62 84 55 85 61 86
REMARK SMILES IDX 56 87 57 88 58 89 59 90 60 91
REMARK H PARENT 7 18 81 47 51 58
REMARK Flexibility Score: inf
ROOT
ATOM      1  C   UNL A   1      34.636  31.824  28.034  1.00  0.00     0.202 C 
ENDROOT
BRANCH   1   2
ATOM      2  O   UNL A   1      33.330  31.289  27.824  1.00  0.00    -0.374 OA
BRANCH   2   3
ATOM      3  C   UNL A   1      33.194  30.258  26.846  1.00  0.00     0.202 C 
BRANCH   3   4
ATOM      4  C   UNL A   1      34.290  29.186  26.815  1.00  0.00     0.261 C 
BRANCH   4   5
ATOM      5  O   UNL A   1      33.769  27.889  26.471  1.00  0.00    -0.460 OA
BRANCH   5   6
ATOM      6  C   UNL A   1      33.507  27.669  25.158  1.00  0.00     0.340 C 
ATOM      7  O   UNL A   1      34.176  28.027  24.199  1.00  0.00    -0.246 OA
BRANCH   6   8
ATOM      8  C   UNL A   1      32.394  26.688  25.051  1.00  0.00     0.084 A 
ATOM      9  C   UNL A   1      28.778  26.666  23.853  1.00  0.00     0.044 C 
ATOM     10  C   UNL A   1      30.070  26.268  24.504  1.00  0.00    -0.050 A 
ATOM     11  C   UNL A   1      30.181  25.032  25.144  1.00  0.00     0.009 A 
ATOM     12  C   UNL A   1      31.175  27.115  24.497  1.00  0.00     0.021 A 
ATOM     13  C   UNL A   1      31.374  24.624  25.779  1.00  0.00    -0.026 A 
ATOM     14  C   UNL A   1      31.256  23.428  26.678  1.00  0.00     0.046 C 
ATOM     15  C   UNL A   1      32.539  25.392  25.615  1.00  0.00     0.058 A 
BRANCH  15  16
ATOM     16  N   UNL A   1      33.844  24.967  25.990  1.00  0.00    -0.325 N 
ATOM     17  C   UNL A   1      34.364  23.699  26.052  1.00  0.00     0.230 C 
ATOM     18  H   UNL A   1      34.464  25.689  26.241  1.00  0.00     0.169 HD
ATOM     19  O   UNL A   1      34.371  23.091  27.123  1.00  0.00    -0.274 OA
BRANCH  17  20
ATOM     20  C   UNL A   1      35.074  23.141  24.777  1.00  0.00     0.047 C 
ATOM     21  C   UNL A   1      36.544  23.571  24.708  1.00  0.00     0.022 C 
ATOM     22  C   UNL A   1      34.966  21.601  24.729  1.00  0.00     0.016 C 
ATOM     23  C   UNL A   1      34.350  23.498  23.470  1.00  0.00     0.016 C 
ATOM     24  C   UNL A   1      33.561  21.308  24.204  1.00  0.00     0.001 C 
ATOM     25  C   UNL A   1      33.173  22.522  23.367  1.00  0.00     0.001 C 
ENDBRANCH  17  20
ENDBRANCH  15  16
ENDBRANCH   6   8
ENDBRANCH   5   6
ENDBRANCH   4   5
ENDBRANCH   3   4
ENDBRANCH   2   3
ENDBRANCH   1   2
BRANCH   1  26
ATOM     26  C   UNL A   1      34.904  32.534  29.368  1.00  0.00     0.261 C 
BRANCH  26  27
ATOM     27  O   UNL A   1      36.286  32.480  29.760  1.00  0.00    -0.460 OA
BRANCH  27  28
ATOM     28  C   UNL A   1      36.590  31.484  30.627  1.00  0.00     0.338 C 
ATOM     29  O   UNL A   1      35.925  31.109  31.584  1.00  0.00    -0.246 OA
BRANCH  28  30
ATOM     30  C   UNL A   1      37.787  30.762  30.167  1.00  0.00     0.060 A 
ATOM     31  C   UNL A   1      38.745  30.415  31.128  1.00  0.00     0.016 A 
ATOM     32  C   UNL A   1      38.012  30.499  28.814  1.00  0.00     0.016 A 
ATOM     33  C   UNL A   1      39.955  29.845  30.735  1.00  0.00     0.010 A 
ATOM     34  C   UNL A   1      39.229  29.932  28.421  1.00  0.00     0.010 A 
ATOM     35  C   UNL A   1      40.219  29.633  29.376  1.00  0.00    -0.014 A 
BRANCH  35  36
ATOM     36  C   UNL A   1      41.577  29.222  28.945  1.00  0.00     0.031 A 
ATOM     37  C   UNL A   1      42.674  30.250  28.895  1.00  0.00     0.074 A 
ATOM     38  C   UNL A   1      41.835  27.943  28.620  1.00  0.00     0.049 A 
ATOM     39  N   UNL A   1      43.919  30.115  28.515  1.00  0.00    -0.248 NA
ATOM     40  C   UNL A   1      42.321  31.611  29.330  1.00  0.00     0.031 C 
ATOM     41  C   UNL A   1      40.866  26.847  28.668  1.00  0.00     0.029 A 
ATOM     42  N   UNL A   1      42.991  27.350  28.180  1.00  0.00    -0.354 N 
ATOM     43  C   UNL A   1      44.495  31.373  28.653  1.00  0.00     0.074 A 
ATOM     44  C   UNL A   1      43.455  32.264  29.120  1.00  0.00     0.031 C 
ATOM     45  C   UNL A   1      41.468  25.716  28.263  1.00  0.00     0.029 A 
ATOM     46  C   UNL A   1      42.851  26.013  27.894  1.00  0.00     0.049 A 
ATOM     47  H   UNL A   1      43.841  27.836  28.077  1.00  0.00     0.167 HD
ATOM     48  C   UNL A   1      45.776  31.751  28.419  1.00  0.00     0.031 A 
ATOM     49  C   UNL A   1      43.728  25.134  27.372  1.00  0.00     0.031 A 
ATOM     50  C   UNL A   1      46.802  30.864  27.936  1.00  0.00     0.049 A 
ATOM     51  C   UNL A   1      45.126  25.590  27.047  1.00  0.00     0.074 A 
ATOM     52  C   UNL A   1      48.132  31.145  27.678  1.00  0.00     0.029 A 
ATOM     53  N   UNL A   1      46.610  29.525  27.628  1.00  0.00    -0.354 N 
ATOM     54  N   UNL A   1      45.662  26.778  27.206  1.00  0.00    -0.248 NA
ATOM     55  C   UNL A   1      46.039  24.588  26.485  1.00  0.00     0.031 C 
ATOM     56  C   UNL A   1      48.728  29.993  27.155  1.00  0.00     0.029 A 
ATOM     57  C   UNL A   1      47.789  28.975  27.154  1.00  0.00     0.049 A 
ATOM     58  H   UNL A   1      45.761  29.038  27.731  1.00  0.00     0.167 HD
ATOM     59  C   UNL A   1      46.984  26.656  26.788  1.00  0.00     0.074 A 
ATOM     60  C   UNL A   1      47.168  25.278  26.382  1.00  0.00     0.031 C 
ATOM     61  C   UNL A   1      47.958  27.600  26.747  1.00  0.00     0.031 A 
BRANCH  48  62
ATOM     62  C   UNL A   1      46.123  33.201  28.644  1.00  0.00    -0.014 A 
ATOM     63  C   UNL A   1      45.978  34.157  27.622  1.00  0.00     0.010 A 
ATOM     64  C   UNL A   1      46.582  33.617  29.907  1.00  0.00     0.010 A 
ATOM     65  C   UNL A   1      46.333  35.490  27.844  1.00  0.00     0.020 A 
ATOM     66  C   UNL A   1      46.910  34.955  30.143  1.00  0.00     0.020 A 
ATOM     67  C   UNL A   1      46.802  35.880  29.102  1.00  0.00     0.054 A 
BRANCH  67  68
ATOM     68  S   UNL A   1      47.254  37.618  29.363  1.00  0.00     0.124 S 
ATOM     69  O   UNL A   1      47.199  37.726  30.819  1.00  0.00    -0.237 OA
ATOM     70  O   UNL A   1      48.590  37.692  28.777  1.00  0.00    -0.237 OA
ATOM     71  O   UNL A   1      46.220  38.358  28.645  1.00  0.00    -0.744 OA
ENDBRANCH  67  68
ENDBRANCH  48  62
BRANCH  49  72
ATOM     72  C   UNL A   1      43.298  23.733  27.108  1.00  0.00    -0.014 A 
ATOM     73  C   UNL A   1      43.134  22.818  28.163  1.00  0.00     0.010 A 
ATOM     74  C   UNL A   1      43.027  23.314  25.792  1.00  0.00     0.010 A 
ATOM     75  C   UNL A   1      42.712  21.510  27.906  1.00  0.00     0.020 A 
ATOM     76  C   UNL A   1      42.577  22.017  25.534  1.00  0.00     0.020 A 
ATOM     77  C   UNL A   1      42.429  21.121  26.593  1.00  0.00     0.054 A 
BRANCH  77  78
ATOM     78  S   UNL A   1      41.811  19.440  26.293  1.00  0.00     0.124 S 
ATOM     79  O   UNL A   1      40.390  19.676  26.059  1.00  0.00    -0.237 OA
ATOM     80  O   UNL A   1      42.586  19.025  25.127  1.00  0.00    -0.237 OA
ATOM     81  O   UNL A   1      42.134  18.732  27.530  1.00  0.00    -0.744 OA
ENDBRANCH  77  78
ENDBRANCH  49  72
BRANCH  61  82
ATOM     82  C   UNL A   1      49.326  27.171  26.281  1.00  0.00    -0.014 A 
ATOM     83  C   UNL A   1      50.258  26.603  27.167  1.00  0.00     0.010 A 
ATOM     84  C   UNL A   1      49.659  27.285  24.919  1.00  0.00     0.010 A 
ATOM     85  C   UNL A   1      51.510  26.188  26.705  1.00  0.00     0.020 A 
ATOM     86  C   UNL A   1      50.899  26.843  24.448  1.00  0.00     0.020 A 
ATOM     87  C   UNL A   1      51.823  26.310  25.347  1.00  0.00     0.054 A 
BRANCH  87  88
ATOM     88  S   UNL A   1      53.438  25.724  24.767  1.00  0.00     0.124 S 
ATOM     89  O   UNL A   1      53.275  25.767  23.317  1.00  0.00    -0.237 OA
ATOM     90  O   UNL A   1      54.358  26.711  25.326  1.00  0.00    -0.237 OA
ATOM     91  O   UNL A   1      53.547  24.384  25.341  1.00  0.00    -0.744 OA
ENDBRANCH  87  88
ENDBRANCH  61  82
ENDBRANCH  35  36
ENDBRANCH  28  30
ENDBRANCH  27  28
ENDBRANCH  26  27
ENDBRANCH   1  26
TORSDOF 19
ENDMDL
