MODEL 1
REMARK VINA RESULT:     -11.4      0.000      0.000
REMARK SMILES CCc1cc(S(F)(F)(F)(F)F)cc2c1O[C@@H](C(F)(F)F)C(C(=O)OCCOCCOC(=O)c1ccc(-c3c4nc(c(-c5ccc(S(=O)(=O)[O-])cc5)c5ccc([nH]5)c(-c5ccc(S(=O)(=O)[O-])cc5)c5nc(c(-c6ccc(S(=O)(=O)[O-])cc6)c6ccc3[nH]6)C=C5)C=C4)cc1)=C2
REMARK SMILES IDX 28 1 27 2 26 3 25 4 24 5 22 6 23 7 21 8 3 9 4 10 14 11 5 12
REMARK SMILES IDX 13 13 15 14 12 15 93 16 16 17 2 18 1 19 6 20 7 21 8 22 9 23
REMARK SMILES IDX 10 24 11 25 17 26 18 27 19 28 20 29 29 30 30 31 31 32 32 33
REMARK SMILES IDX 33 34 34 35 92 36 35 37 91 38 36 39 37 40 38 41 85 42 39 43
REMARK SMILES IDX 90 44 84 45 86 46 40 47 89 48 83 49 82 50 41 52 71 53 52 54
REMARK SMILES IDX 70 55 53 56 56 57 69 58 87 59 54 60 55 61 68 63 88 64 57 65
REMARK SMILES IDX 42 66 43 67 51 68 44 69 50 70 45 71 46 72 47 73 48 74 49 75
REMARK SMILES IDX 72 76 73 77 81 78 74 79 80 80 75 81 76 82 77 83 78 84 79 85
REMARK SMILES IDX 58 86 59 87 67 88 60 89 66 90 61 91 62 92 63 93 64 94 65 95
REMARK H PARENT 86 51 56 62
REMARK Flexibility Score: inf
ROOT
ATOM      1  C   UNL A   1      32.467  28.256  27.462  1.00  0.00     0.202 C 
ENDROOT
BRANCH   1   2
ATOM      2  O   UNL A   1      31.256  27.534  27.299  1.00  0.00    -0.374 OA
BRANCH   2   3
ATOM      3  C   UNL A   1      31.090  27.192  25.930  1.00  0.00     0.202 C 
BRANCH   3   4
ATOM      4  C   UNL A   1      30.190  25.972  25.818  1.00  0.00     0.261 C 
BRANCH   4   5
ATOM      5  O   UNL A   1      30.967  24.795  25.986  1.00  0.00    -0.460 OA
BRANCH   5   6
ATOM      6  C   UNL A   1      31.240  23.958  24.872  1.00  0.00     0.338 C 
ATOM      7  O   UNL A   1      30.584  24.102  23.793  1.00  0.00    -0.246 OA
BRANCH   6   8
ATOM      8  C   UNL A   1      32.318  22.890  24.970  1.00  0.00     0.087 C 
ATOM      9  C   UNL A   1      35.424  20.105  24.770  1.00  0.00    -0.004 A 
ATOM     10  C   UNL A   1      35.136  18.753  24.715  1.00  0.00     0.032 A 
ATOM     11  C   UNL A   1      34.383  21.001  24.782  1.00  0.00     0.131 A 
ATOM     12  C   UNL A   1      33.840  18.310  24.667  1.00  0.00     0.108 A 
ATOM     13  C   UNL A   1      33.063  20.590  24.753  1.00  0.00     0.019 A 
ATOM     14  O   UNL A   1      34.685  22.340  24.723  1.00  0.00    -0.475 OA
ATOM     15  C   UNL A   1      32.808  19.224  24.693  1.00  0.00     0.036 A 
ATOM     16  C   UNL A   1      32.034  21.616  24.729  1.00  0.00     0.027 C 
ATOM     17  C   UNL A   1      33.746  23.260  25.348  1.00  0.00     0.316 C 
BRANCH   9  18
ATOM     18  C   UNL A   1      36.849  20.607  24.940  1.00  0.00     0.036 C 
ATOM     19  C   UNL A   1      37.793  19.422  25.051  1.00  0.00     0.009 C 
ENDBRANCH   9  18
BRANCH  12  20
ATOM     20  S   UNL A   1      33.486  16.538  24.571  1.00  0.00     0.310 S 
ATOM     21  F   UNL A   1      34.947  15.960  24.787  1.00  0.00    -0.094 F 
ATOM     22  F   UNL A   1      33.780  16.511  23.023  1.00  0.00    -0.094 F 
ATOM     23  F   UNL A   1      32.978  15.069  24.528  1.00  0.00    -0.094 F 
ATOM     24  F   UNL A   1      33.331  16.537  26.143  1.00  0.00    -0.094 F 
ATOM     25  F   UNL A   1      34.106  17.990  24.647  1.00  0.00    -0.094 F 
ENDBRANCH  12  20
BRANCH  17  26
ATOM     26  C   UNL A   1      34.038  24.670  24.864  1.00  0.00     0.430 C 
ATOM     27  F   UNL A   1      35.314  24.759  24.498  1.00  0.00    -0.167 F 
ATOM     28  F   UNL A   1      33.258  24.951  23.823  1.00  0.00    -0.167 F 
ATOM     29  F   UNL A   1      33.796  25.535  25.844  1.00  0.00    -0.167 F 
ENDBRANCH  17  26
ENDBRANCH   6   8
ENDBRANCH   5   6
ENDBRANCH   4   5
ENDBRANCH   3   4
ENDBRANCH   2   3
ENDBRANCH   1   2
BRANCH   1  30
ATOM     30  C   UNL A   1      32.372  29.579  26.720  1.00  0.00     0.261 C 
BRANCH  30  31
ATOM     31  O   UNL A   1      33.677  30.090  26.493  1.00  0.00    -0.460 OA
BRANCH  31  32
ATOM     32  C   UNL A   1      34.252  31.002  27.417  1.00  0.00     0.338 C 
ATOM     33  O   UNL A   1      33.702  32.128  27.625  1.00  0.00    -0.246 OA
BRANCH  32  34
ATOM     34  C   UNL A   1      35.528  30.632  28.156  1.00  0.00     0.060 A 
ATOM     35  C   UNL A   1      35.550  29.516  28.975  1.00  0.00     0.016 A 
ATOM     36  C   UNL A   1      36.617  31.368  27.964  1.00  0.00     0.016 A 
ATOM     37  C   UNL A   1      36.707  29.422  29.785  1.00  0.00     0.010 A 
ATOM     38  C   UNL A   1      37.756  31.133  28.696  1.00  0.00     0.010 A 
ATOM     39  C   UNL A   1      37.829  30.083  29.568  1.00  0.00    -0.014 A 
BRANCH  39  40
ATOM     40  C   UNL A   1      39.130  29.698  30.251  1.00  0.00     0.031 A 
ATOM     41  C   UNL A   1      39.863  28.642  29.705  1.00  0.00     0.074 A 
ATOM     42  C   UNL A   1      39.502  30.390  31.392  1.00  0.00     0.049 A 
ATOM     43  N   UNL A   1      41.023  28.147  30.138  1.00  0.00    -0.248 NA
ATOM     44  C   UNL A   1      39.451  27.883  28.515  1.00  0.00     0.031 C 
ATOM     45  C   UNL A   1      38.774  31.461  31.944  1.00  0.00     0.029 A 
ATOM     46  N   UNL A   1      40.611  30.181  32.182  1.00  0.00    -0.354 N 
ATOM     47  C   UNL A   1      41.424  27.152  29.345  1.00  0.00     0.074 A 
ATOM     48  C   UNL A   1      40.417  26.964  28.292  1.00  0.00     0.031 C 
ATOM     49  C   UNL A   1      39.427  31.884  33.058  1.00  0.00     0.029 A 
ATOM     50  C   UNL A   1      40.574  31.086  33.220  1.00  0.00     0.049 A 
ATOM     51  H   UNL A   1      41.308  29.502  32.032  1.00  0.00     0.167 HD
ATOM     52  C   UNL A   1      42.592  26.396  29.455  1.00  0.00     0.031 A 
ATOM     53  C   UNL A   1      41.480  31.221  34.260  1.00  0.00     0.031 A 
ATOM     54  C   UNL A   1      43.520  26.560  30.472  1.00  0.00     0.049 A 
ATOM     55  C   UNL A   1      42.620  30.426  34.405  1.00  0.00     0.074 A 
ATOM     56  C   UNL A   1      44.707  25.811  30.594  1.00  0.00     0.029 A 
ATOM     57  N   UNL A   1      43.472  27.448  31.523  1.00  0.00    -0.354 N 
ATOM     58  N   UNL A   1      43.040  29.457  33.589  1.00  0.00    -0.248 NA
ATOM     59  C   UNL A   1      43.569  30.538  35.519  1.00  0.00     0.031 C 
ATOM     60  C   UNL A   1      45.360  26.235  31.708  1.00  0.00     0.029 A 
ATOM     61  C   UNL A   1      44.591  27.255  32.301  1.00  0.00     0.049 A 
ATOM     62  H   UNL A   1      42.760  28.107  31.689  1.00  0.00     0.167 HD
ATOM     63  C   UNL A   1      44.181  28.935  34.046  1.00  0.00     0.074 A 
ATOM     64  C   UNL A   1      44.533  29.618  35.298  1.00  0.00     0.031 C 
ATOM     65  C   UNL A   1      44.943  27.918  33.467  1.00  0.00     0.031 A 
BRANCH  52  66
ATOM     66  C   UNL A   1      42.861  25.332  28.403  1.00  0.00    -0.014 A 
ATOM     67  C   UNL A   1      42.327  24.065  28.572  1.00  0.00     0.010 A 
ATOM     68  C   UNL A   1      43.590  25.636  27.335  1.00  0.00     0.010 A 
ATOM     69  C   UNL A   1      42.864  23.095  27.694  1.00  0.00     0.020 A 
ATOM     70  C   UNL A   1      43.965  24.659  26.445  1.00  0.00     0.020 A 
ATOM     71  C   UNL A   1      43.522  23.372  26.585  1.00  0.00     0.054 A 
BRANCH  71  72
ATOM     72  S   UNL A   1      43.824  22.118  25.315  1.00  0.00     0.124 S 
ATOM     73  O   UNL A   1      45.267  21.617  25.427  1.00  0.00    -0.237 OA
ATOM     74  O   UNL A   1      42.860  20.946  25.516  1.00  0.00    -0.237 OA
ATOM     75  O   UNL A   1      43.577  22.801  23.767  1.00  0.00    -0.744 OA
ENDBRANCH  71  72
ENDBRANCH  52  66
BRANCH  53  76
ATOM     76  C   UNL A   1      41.220  32.296  35.303  1.00  0.00    -0.014 A 
ATOM     77  C   UNL A   1      40.477  31.981  36.429  1.00  0.00     0.010 A 
ATOM     78  C   UNL A   1      41.697  33.521  35.113  1.00  0.00     0.010 A 
ATOM     79  C   UNL A   1      40.044  33.109  37.164  1.00  0.00     0.020 A 
ATOM     80  C   UNL A   1      41.338  34.548  35.951  1.00  0.00     0.020 A 
ATOM     81  C   UNL A   1      40.559  34.320  37.051  1.00  0.00     0.054 A 
BRANCH  81  82
ATOM     82  S   UNL A   1      40.250  35.608  38.286  1.00  0.00     0.124 S 
ATOM     83  O   UNL A   1      41.548  35.916  39.035  1.00  0.00    -0.237 OA
ATOM     84  O   UNL A   1      39.749  36.874  37.587  1.00  0.00    -0.237 OA
ATOM     85  O   UNL A   1      39.067  35.062  39.394  1.00  0.00    -0.744 OA
ENDBRANCH  81  82
ENDBRANCH  53  76
BRANCH  65  86
ATOM     86  C   UNL A   1      46.236  27.515  34.156  1.00  0.00    -0.014 A 
ATOM     87  C   UNL A   1      46.224  26.492  35.089  1.00  0.00     0.010 A 
ATOM     88  C   UNL A   1      47.363  28.136  33.830  1.00  0.00     0.010 A 
ATOM     89  C   UNL A   1      47.416  26.388  35.842  1.00  0.00     0.020 A 
ATOM     90  C   UNL A   1      48.524  27.887  34.521  1.00  0.00     0.020 A 
ATOM     91  C   UNL A   1      48.570  26.929  35.497  1.00  0.00     0.054 A 
BRANCH  91  92
ATOM     92  S   UNL A   1      50.128  26.431  36.271  1.00  0.00     0.124 S 
ATOM     93  O   UNL A   1      51.037  25.787  35.220  1.00  0.00    -0.237 OA
ATOM     94  O   UNL A   1      50.822  27.662  36.860  1.00  0.00    -0.237 OA
ATOM     95  O   UNL A   1      49.811  25.305  37.517  1.00  0.00    -0.744 OA
ENDBRANCH  91  92
ENDBRANCH  65  86
ENDBRANCH  39  40
ENDBRANCH  32  34
ENDBRANCH  31  32
ENDBRANCH  30  31
ENDBRANCH   1  30
TORSDOF 20
ENDMDL
MODEL 2
REMARK VINA RESULT:     -11.3      3.590      9.902
REMARK SMILES CCc1cc(S(F)(F)(F)(F)F)cc2c1O[C@@H](C(F)(F)F)C(C(=O)OCCOCCOC(=O)c1ccc(-c3c4nc(c(-c5ccc(S(=O)(=O)[O-])cc5)c5ccc([nH]5)c(-c5ccc(S(=O)(=O)[O-])cc5)c5nc(c(-c6ccc(S(=O)(=O)[O-])cc6)c6ccc3[nH]6)C=C5)C=C4)cc1)=C2
REMARK SMILES IDX 28 1 27 2 26 3 25 4 24 5 22 6 23 7 21 8 3 9 4 10 14 11 5 12
REMARK SMILES IDX 13 13 15 14 12 15 93 16 16 17 2 18 1 19 6 20 7 21 8 22 9 23
REMARK SMILES IDX 10 24 11 25 17 26 18 27 19 28 20 29 29 30 30 31 31 32 32 33
REMARK SMILES IDX 33 34 34 35 92 36 35 37 91 38 36 39 37 40 38 41 85 42 39 43
REMARK SMILES IDX 90 44 84 45 86 46 40 47 89 48 83 49 82 50 41 52 71 53 52 54
REMARK SMILES IDX 70 55 53 56 56 57 69 58 87 59 54 60 55 61 68 63 88 64 57 65
REMARK SMILES IDX 42 66 43 67 51 68 44 69 50 70 45 71 46 72 47 73 48 74 49 75
REMARK SMILES IDX 72 76 73 77 81 78 74 79 80 80 75 81 76 82 77 83 78 84 79 85
REMARK SMILES IDX 58 86 59 87 67 88 60 89 66 90 61 91 62 92 63 93 64 94 65 95
REMARK H PARENT 86 51 56 62
REMARK Flexibility Score: inf
ROOT
ATOM      1  C   UNL A   1      39.623  22.598  26.342  1.00  0.00     0.202 C 
ENDROOT
BRANCH   1   2
ATOM      2  O   UNL A   1      38.876  21.488  25.865  1.00  0.00    -0.374 OA
BRANCH   2   3
ATOM      3  C   UNL A   1      37.522  21.875  25.678  1.00  0.00     0.202 C 
BRANCH   3   4
ATOM      4  C   UNL A   1      36.880  20.982  24.629  1.00  0.00     0.261 C 
BRANCH   4   5
ATOM      5  O   UNL A   1      35.568  21.451  24.349  1.00  0.00    -0.460 OA
BRANCH   5   6
ATOM      6  C   UNL A   1      35.381  22.721  23.744  1.00  0.00     0.338 C 
ATOM      7  O   UNL A   1      36.107  23.070  22.760  1.00  0.00    -0.246 OA
BRANCH   6   8
ATOM      8  C   UNL A   1      34.312  23.664  24.271  1.00  0.00     0.087 C 
ATOM      9  C   UNL A   1      31.260  26.350  25.229  1.00  0.00    -0.004 A 
ATOM     10  C   UNL A   1      31.567  27.557  25.832  1.00  0.00     0.032 A 
ATOM     11  C   UNL A   1      32.287  25.509  24.877  1.00  0.00     0.131 A 
ATOM     12  C   UNL A   1      32.868  27.915  26.068  1.00  0.00     0.108 A 
ATOM     13  C   UNL A   1      33.611  25.828  25.118  1.00  0.00     0.019 A 
ATOM     14  O   UNL A   1      31.974  24.367  24.179  1.00  0.00    -0.475 OA
ATOM     15  C   UNL A   1      33.885  27.051  25.721  1.00  0.00     0.036 A 
ATOM     16  C   UNL A   1      34.626  24.890  24.672  1.00  0.00     0.027 C 
ATOM     17  C   UNL A   1      32.857  23.222  24.351  1.00  0.00     0.316 C 
BRANCH   9  18
ATOM     18  C   UNL A   1      29.821  25.888  25.064  1.00  0.00     0.036 C 
ATOM     19  C   UNL A   1      29.292  26.352  23.717  1.00  0.00     0.009 C 
ENDBRANCH   9  18
BRANCH  12  20
ATOM     20  S   UNL A   1      33.249  29.510  26.836  1.00  0.00     0.310 S 
ATOM     21  F   UNL A   1      31.813  29.889  27.392  1.00  0.00    -0.094 F 
ATOM     22  F   UNL A   1      32.869  30.290  25.521  1.00  0.00    -0.094 F 
ATOM     23  F   UNL A   1      33.781  30.815  27.492  1.00  0.00    -0.094 F 
ATOM     24  F   UNL A   1      33.491  28.740  28.194  1.00  0.00    -0.094 F 
ATOM     25  F   UNL A   1      32.608  28.200  26.224  1.00  0.00    -0.094 F 
ENDBRANCH  12  20
BRANCH  17  26
ATOM     26  C   UNL A   1      32.583  22.216  23.246  1.00  0.00     0.430 C 
ATOM     27  F   UNL A   1      33.331  22.507  22.185  1.00  0.00    -0.167 F 
ATOM     28  F   UNL A   1      32.882  20.993  23.677  1.00  0.00    -0.167 F 
ATOM     29  F   UNL A   1      31.298  22.264  22.910  1.00  0.00    -0.167 F 
ENDBRANCH  17  26
ENDBRANCH   6   8
ENDBRANCH   5   6
ENDBRANCH   4   5
ENDBRANCH   3   4
ENDBRANCH   2   3
ENDBRANCH   1   2
BRANCH   1  30
ATOM     30  C   UNL A   1      38.768  23.853  26.267  1.00  0.00     0.261 C 
BRANCH  30  31
ATOM     31  O   UNL A   1      38.922  24.602  27.464  1.00  0.00    -0.460 OA
BRANCH  31  32
ATOM     32  C   UNL A   1      39.723  25.775  27.469  1.00  0.00     0.338 C 
ATOM     33  O   UNL A   1      40.410  26.079  26.444  1.00  0.00    -0.246 OA
BRANCH  32  34
ATOM     34  C   UNL A   1      39.760  26.665  28.700  1.00  0.00     0.060 A 
ATOM     35  C   UNL A   1      38.940  26.382  29.779  1.00  0.00     0.016 A 
ATOM     36  C   UNL A   1      40.616  27.680  28.733  1.00  0.00     0.016 A 
ATOM     37  C   UNL A   1      38.892  27.412  30.749  1.00  0.00     0.010 A 
ATOM     38  C   UNL A   1      40.604  28.572  29.778  1.00  0.00     0.010 A 
ATOM     39  C   UNL A   1      39.778  28.386  30.851  1.00  0.00    -0.014 A 
BRANCH  39  40
ATOM     40  C   UNL A   1      39.872  29.255  32.095  1.00  0.00     0.031 A 
ATOM     41  C   UNL A   1      38.930  30.273  32.249  1.00  0.00     0.074 A 
ATOM     42  C   UNL A   1      40.902  29.010  32.988  1.00  0.00     0.049 A 
ATOM     43  N   UNL A   1      38.827  31.140  33.257  1.00  0.00    -0.248 NA
ATOM     44  C   UNL A   1      37.858  30.556  31.283  1.00  0.00     0.031 C 
ATOM     45  C   UNL A   1      41.851  27.980  32.845  1.00  0.00     0.029 A 
ATOM     46  N   UNL A   1      41.194  29.695  34.147  1.00  0.00    -0.354 N 
ATOM     47  C   UNL A   1      37.787  31.953  33.060  1.00  0.00     0.074 A 
ATOM     48  C   UNL A   1      37.152  31.593  31.786  1.00  0.00     0.031 C 
ATOM     49  C   UNL A   1      42.710  28.050  33.895  1.00  0.00     0.029 A 
ATOM     50  C   UNL A   1      42.312  29.123  34.713  1.00  0.00     0.049 A 
ATOM     51  H   UNL A   1      40.691  30.460  34.509  1.00  0.00     0.167 HD
ATOM     52  C   UNL A   1      37.341  32.979  33.896  1.00  0.00     0.031 A 
ATOM     53  C   UNL A   1      42.963  29.504  35.876  1.00  0.00     0.031 A 
ATOM     54  C   UNL A   1      37.968  33.331  35.080  1.00  0.00     0.049 A 
ATOM     55  C   UNL A   1      42.552  30.568  36.683  1.00  0.00     0.074 A 
ATOM     56  C   UNL A   1      37.527  34.359  35.939  1.00  0.00     0.029 A 
ATOM     57  N   UNL A   1      39.100  32.776  35.634  1.00  0.00    -0.354 N 
ATOM     58  N   UNL A   1      41.489  31.355  36.506  1.00  0.00    -0.248 NA
ATOM     59  C   UNL A   1      43.253  31.001  37.898  1.00  0.00     0.031 C 
ATOM     60  C   UNL A   1      38.387  34.427  36.989  1.00  0.00     0.029 A 
ATOM     61  C   UNL A   1      39.379  33.446  36.805  1.00  0.00     0.049 A 
ATOM     62  H   UNL A   1      39.619  32.030  35.258  1.00  0.00     0.167 HD
ATOM     63  C   UNL A   1      41.410  32.249  37.494  1.00  0.00     0.074 A 
ATOM     64  C   UNL A   1      42.548  32.039  38.400  1.00  0.00     0.031 C 
ATOM     65  C   UNL A   1      40.434  33.230  37.678  1.00  0.00     0.031 A 
BRANCH  52  66
ATOM     66  C   UNL A   1      36.100  33.753  33.482  1.00  0.00    -0.014 A 
ATOM     67  C   UNL A   1      34.850  33.216  33.744  1.00  0.00     0.010 A 
ATOM     68  C   UNL A   1      36.232  34.934  32.888  1.00  0.00     0.010 A 
ATOM     69  C   UNL A   1      33.792  33.874  33.076  1.00  0.00     0.020 A 
ATOM     70  C   UNL A   1      35.135  35.585  32.377  1.00  0.00     0.020 A 
ATOM     71  C   UNL A   1      33.875  35.081  32.548  1.00  0.00     0.054 A 
BRANCH  71  72
ATOM     72  S   UNL A   1      32.402  36.021  32.075  1.00  0.00     0.124 S 
ATOM     73  O   UNL A   1      31.155  35.323  32.627  1.00  0.00    -0.237 OA
ATOM     74  O   UNL A   1      32.492  37.436  32.651  1.00  0.00    -0.237 OA
ATOM     75  O   UNL A   1      32.300  36.104  30.371  1.00  0.00    -0.744 OA
ENDBRANCH  71  72
ENDBRANCH  52  66
BRANCH  53  76
ATOM     76  C   UNL A   1      44.195  28.719  36.298  1.00  0.00    -0.014 A 
ATOM     77  C   UNL A   1      44.040  27.592  37.090  1.00  0.00     0.010 A 
ATOM     78  C   UNL A   1      45.396  29.129  35.911  1.00  0.00     0.010 A 
ATOM     79  C   UNL A   1      45.246  27.127  37.665  1.00  0.00     0.020 A 
ATOM     80  C   UNL A   1      46.532  28.539  36.411  1.00  0.00     0.020 A 
ATOM     81  C   UNL A   1      46.454  27.458  37.245  1.00  0.00     0.054 A 
BRANCH  81  82
ATOM     82  S   UNL A   1      47.926  26.531  37.746  1.00  0.00     0.124 S 
ATOM     83  O   UNL A   1      48.980  27.502  38.282  1.00  0.00    -0.237 OA
ATOM     84  O   UNL A   1      47.550  25.530  38.841  1.00  0.00    -0.237 OA
ATOM     85  O   UNL A   1      48.557  25.691  36.397  1.00  0.00    -0.744 OA
ENDBRANCH  81  82
ENDBRANCH  53  76
BRANCH  65  86
ATOM     86  C   UNL A   1      40.534  34.114  38.910  1.00  0.00    -0.014 A 
ATOM     87  C   UNL A   1      39.853  33.760  40.063  1.00  0.00     0.010 A 
ATOM     88  C   UNL A   1      41.299  35.199  38.867  1.00  0.00     0.010 A 
ATOM     89  C   UNL A   1      39.812  34.782  41.040  1.00  0.00     0.020 A 
ATOM     90  C   UNL A   1      41.313  36.086  39.916  1.00  0.00     0.020 A 
ATOM     91  C   UNL A   1      40.616  35.829  41.064  1.00  0.00     0.054 A 
BRANCH  91  92
ATOM     92  S   UNL A   1      40.786  36.868  42.536  1.00  0.00     0.124 S 
ATOM     93  O   UNL A   1      40.928  38.333  42.113  1.00  0.00    -0.237 OA
ATOM     94  O   UNL A   1      39.546  36.711  43.419  1.00  0.00    -0.237 OA
ATOM     95  O   UNL A   1      42.174  36.392  43.413  1.00  0.00    -0.744 OA
ENDBRANCH  91  92
ENDBRANCH  65  86
ENDBRANCH  39  40
ENDBRANCH  32  34
ENDBRANCH  31  32
ENDBRANCH  30  31
ENDBRANCH   1  30
TORSDOF 20
ENDMDL
MODEL 3
REMARK VINA RESULT:     -10.8      5.457     10.025
REMARK SMILES CCc1cc(S(F)(F)(F)(F)F)cc2c1O[C@@H](C(F)(F)F)C(C(=O)OCCOCCOC(=O)c1ccc(-c3c4nc(c(-c5ccc(S(=O)(=O)[O-])cc5)c5ccc([nH]5)c(-c5ccc(S(=O)(=O)[O-])cc5)c5nc(c(-c6ccc(S(=O)(=O)[O-])cc6)c6ccc3[nH]6)C=C5)C=C4)cc1)=C2
REMARK SMILES IDX 28 1 27 2 26 3 25 4 24 5 22 6 23 7 21 8 3 9 4 10 14 11 5 12
REMARK SMILES IDX 13 13 15 14 12 15 93 16 16 17 2 18 1 19 6 20 7 21 8 22 9 23
REMARK SMILES IDX 10 24 11 25 17 26 18 27 19 28 20 29 29 30 30 31 31 32 32 33
REMARK SMILES IDX 33 34 34 35 92 36 35 37 91 38 36 39 37 40 38 41 85 42 39 43
REMARK SMILES IDX 90 44 84 45 86 46 40 47 89 48 83 49 82 50 41 52 71 53 52 54
REMARK SMILES IDX 70 55 53 56 56 57 69 58 87 59 54 60 55 61 68 63 88 64 57 65
REMARK SMILES IDX 42 66 43 67 51 68 44 69 50 70 45 71 46 72 47 73 48 74 49 75
REMARK SMILES IDX 72 76 73 77 81 78 74 79 80 80 75 81 76 82 77 83 78 84 79 85
REMARK SMILES IDX 58 86 59 87 67 88 60 89 66 90 61 91 62 92 63 93 64 94 65 95
REMARK H PARENT 86 51 56 62
REMARK Flexibility Score: inf
ROOT
ATOM      1  C   UNL A   1      33.789  28.877  27.403  1.00  0.00     0.202 C 
ENDROOT
BRANCH   1   2
ATOM      2  O   UNL A   1      32.498  29.465  27.447  1.00  0.00    -0.374 OA
BRANCH   2   3
ATOM      3  C   UNL A   1      32.448  30.563  26.548  1.00  0.00     0.202 C 
BRANCH   3   4
ATOM      4  C   UNL A   1      31.470  30.256  25.425  1.00  0.00     0.261 C 
BRANCH   4   5
ATOM      5  O   UNL A   1      31.406  28.851  25.227  1.00  0.00    -0.460 OA
BRANCH   5   6
ATOM      6  C   UNL A   1      31.999  28.268  24.076  1.00  0.00     0.338 C 
ATOM      7  O   UNL A   1      32.206  28.975  23.040  1.00  0.00    -0.246 OA
BRANCH   6   8
ATOM      8  C   UNL A   1      32.388  26.799  24.084  1.00  0.00     0.087 C 
ATOM      9  C   UNL A   1      33.175  22.720  24.531  1.00  0.00    -0.004 A 
ATOM     10  C   UNL A   1      34.457  22.294  24.830  1.00  0.00     0.032 A 
ATOM     11  C   UNL A   1      32.933  24.070  24.442  1.00  0.00     0.131 A 
ATOM     12  C   UNL A   1      35.467  23.195  25.042  1.00  0.00     0.108 A 
ATOM     13  C   UNL A   1      33.933  25.007  24.630  1.00  0.00     0.019 A 
ATOM     14  O   UNL A   1      31.636  24.481  24.255  1.00  0.00    -0.475 OA
ATOM     15  C   UNL A   1      35.208  24.545  24.934  1.00  0.00     0.036 A 
ATOM     16  C   UNL A   1      33.568  26.411  24.554  1.00  0.00     0.027 C 
ATOM     17  C   UNL A   1      31.432  25.739  23.552  1.00  0.00     0.316 C 
BRANCH   9  18
ATOM     18  C   UNL A   1      32.072  21.736  24.181  1.00  0.00     0.036 C 
ATOM     19  C   UNL A   1      32.685  20.386  23.846  1.00  0.00     0.009 C 
ENDBRANCH   9  18
BRANCH  12  20
ATOM     20  S   UNL A   1      37.132  22.616  25.456  1.00  0.00     0.310 S 
ATOM     21  F   UNL A   1      37.976  23.877  24.995  1.00  0.00    -0.094 F 
ATOM     22  F   UNL A   1      37.344  22.031  24.009  1.00  0.00    -0.094 F 
ATOM     23  F   UNL A   1      38.464  21.977  25.940  1.00  0.00    -0.094 F 
ATOM     24  F   UNL A   1      36.973  23.326  26.858  1.00  0.00    -0.094 F 
ATOM     25  F   UNL A   1      35.835  23.364  24.947  1.00  0.00    -0.094 F 
ENDBRANCH  12  20
BRANCH  17  26
ATOM     26  C   UNL A   1      30.003  26.204  23.772  1.00  0.00     0.430 C 
ATOM     27  F   UNL A   1      29.162  25.225  23.451  1.00  0.00    -0.167 F 
ATOM     28  F   UNL A   1      29.836  26.530  25.052  1.00  0.00    -0.167 F 
ATOM     29  F   UNL A   1      29.759  27.266  23.010  1.00  0.00    -0.167 F 
ENDBRANCH  17  26
ENDBRANCH   6   8
ENDBRANCH   5   6
ENDBRANCH   4   5
ENDBRANCH   3   4
ENDBRANCH   2   3
ENDBRANCH   1   2
BRANCH   1  30
ATOM     30  C   UNL A   1      34.824  29.890  27.864  1.00  0.00     0.261 C 
BRANCH  30  31
ATOM     31  O   UNL A   1      36.127  29.374  27.635  1.00  0.00    -0.460 OA
BRANCH  31  32
ATOM     32  C   UNL A   1      37.058  29.298  28.704  1.00  0.00     0.338 C 
ATOM     33  O   UNL A   1      36.650  29.354  29.907  1.00  0.00    -0.246 OA
BRANCH  32  34
ATOM     34  C   UNL A   1      38.543  29.151  28.411  1.00  0.00     0.060 A 
ATOM     35  C   UNL A   1      39.020  29.397  27.135  1.00  0.00     0.016 A 
ATOM     36  C   UNL A   1      39.363  28.831  29.405  1.00  0.00     0.016 A 
ATOM     37  C   UNL A   1      40.362  28.994  26.938  1.00  0.00     0.010 A 
ATOM     38  C   UNL A   1      40.693  28.581  29.160  1.00  0.00     0.010 A 
ATOM     39  C   UNL A   1      41.221  28.747  27.910  1.00  0.00    -0.014 A 
BRANCH  39  40
ATOM     40  C   UNL A   1      42.715  28.652  27.653  1.00  0.00     0.031 A 
ATOM     41  C   UNL A   1      43.489  29.790  27.888  1.00  0.00     0.074 A 
ATOM     42  C   UNL A   1      43.223  27.456  27.172  1.00  0.00     0.049 A 
ATOM     43  N   UNL A   1      44.807  29.924  27.734  1.00  0.00    -0.248 NA
ATOM     44  C   UNL A   1      42.946  31.071  28.365  1.00  0.00     0.031 C 
ATOM     45  C   UNL A   1      42.452  26.301  26.941  1.00  0.00     0.029 A 
ATOM     46  N   UNL A   1      44.528  27.167  26.837  1.00  0.00    -0.354 N 
ATOM     47  C   UNL A   1      45.187  31.156  28.077  1.00  0.00     0.074 A 
ATOM     48  C   UNL A   1      43.996  31.914  28.482  1.00  0.00     0.031 C 
ATOM     49  C   UNL A   1      43.276  25.333  26.463  1.00  0.00     0.029 A 
ATOM     50  C   UNL A   1      44.576  25.866  26.387  1.00  0.00     0.049 A 
ATOM     51  H   UNL A   1      45.292  27.783  26.907  1.00  0.00     0.167 HD
ATOM     52  C   UNL A   1      46.482  31.678  28.070  1.00  0.00     0.031 A 
ATOM     53  C   UNL A   1      45.683  25.167  25.931  1.00  0.00     0.031 A 
ATOM     54  C   UNL A   1      47.595  30.964  27.655  1.00  0.00     0.049 A 
ATOM     55  C   UNL A   1      46.970  25.707  25.869  1.00  0.00     0.074 A 
ATOM     56  C   UNL A   1      48.910  31.473  27.649  1.00  0.00     0.029 A 
ATOM     57  N   UNL A   1      47.641  29.672  27.182  1.00  0.00    -0.354 N 
ATOM     58  N   UNL A   1      47.356  26.926  26.249  1.00  0.00    -0.248 NA
ATOM     59  C   UNL A   1      48.143  24.987  25.357  1.00  0.00     0.031 C 
ATOM     60  C   UNL A   1      49.733  30.504  27.170  1.00  0.00     0.029 A 
ATOM     61  C   UNL A   1      48.949  29.375  26.868  1.00  0.00     0.049 A 
ATOM     62  H   UNL A   1      46.872  29.066  27.085  1.00  0.00     0.167 HD
ATOM     63  C   UNL A   1      48.669  27.074  26.056  1.00  0.00     0.074 A 
ATOM     64  C   UNL A   1      49.192  25.831  25.473  1.00  0.00     0.031 C 
ATOM     65  C   UNL A   1      49.451  28.193  26.346  1.00  0.00     0.031 A 
BRANCH  52  66
ATOM     66  C   UNL A   1      46.682  33.108  28.544  1.00  0.00    -0.014 A 
ATOM     67  C   UNL A   1      46.924  33.348  29.887  1.00  0.00     0.010 A 
ATOM     68  C   UNL A   1      46.634  34.103  27.665  1.00  0.00     0.010 A 
ATOM     69  C   UNL A   1      46.814  34.708  30.256  1.00  0.00     0.020 A 
ATOM     70  C   UNL A   1      46.668  35.410  28.086  1.00  0.00     0.020 A 
ATOM     71  C   UNL A   1      46.845  35.719  29.407  1.00  0.00     0.054 A 
BRANCH  71  72
ATOM     72  S   UNL A   1      47.107  37.423  29.960  1.00  0.00     0.124 S 
ATOM     73  O   UNL A   1      48.164  37.441  31.068  1.00  0.00    -0.237 OA
ATOM     74  O   UNL A   1      47.588  38.273  28.782  1.00  0.00    -0.237 OA
ATOM     75  O   UNL A   1      45.639  38.060  30.562  1.00  0.00    -0.744 OA
ENDBRANCH  71  72
ENDBRANCH  52  66
BRANCH  53  76
ATOM     76  C   UNL A   1      45.485  23.731  25.473  1.00  0.00    -0.014 A 
ATOM     77  C   UNL A   1      45.092  23.486  24.167  1.00  0.00     0.010 A 
ATOM     78  C   UNL A   1      45.681  22.738  26.331  1.00  0.00     0.010 A 
ATOM     79  C   UNL A   1      44.648  22.162  23.942  1.00  0.00     0.020 A 
ATOM     80  C   UNL A   1      45.350  21.447  25.995  1.00  0.00     0.020 A 
ATOM     81  C   UNL A   1      44.900  21.141  24.741  1.00  0.00     0.054 A 
BRANCH  81  82
ATOM     82  S   UNL A   1      44.662  19.428  24.204  1.00  0.00     0.124 S 
ATOM     83  O   UNL A   1      43.339  18.899  24.762  1.00  0.00    -0.237 OA
ATOM     84  O   UNL A   1      44.631  19.372  22.675  1.00  0.00    -0.237 OA
ATOM     85  O   UNL A   1      45.951  18.465  24.784  1.00  0.00    -0.744 OA
ENDBRANCH  81  82
ENDBRANCH  53  76
BRANCH  65  86
ATOM     86  C   UNL A   1      50.944  28.110  26.073  1.00  0.00    -0.014 A 
ATOM     87  C   UNL A   1      51.430  28.443  24.819  1.00  0.00     0.010 A 
ATOM     88  C   UNL A   1      51.761  27.745  27.054  1.00  0.00     0.010 A 
ATOM     89  C   UNL A   1      52.781  28.079  24.613  1.00  0.00     0.020 A 
ATOM     90  C   UNL A   1      53.097  27.537  26.810  1.00  0.00     0.020 A 
ATOM     91  C   UNL A   1      53.635  27.789  25.578  1.00  0.00     0.054 A 
BRANCH  91  92
ATOM     92  S   UNL A   1      55.420  27.731  25.287  1.00  0.00     0.124 S 
ATOM     93  O   UNL A   1      56.086  26.873  26.367  1.00  0.00    -0.237 OA
ATOM     94  O   UNL A   1      55.693  27.121  23.910  1.00  0.00    -0.237 OA
ATOM     95  O   UNL A   1      56.060  29.316  25.345  1.00  0.00    -0.744 OA
ENDBRANCH  91  92
ENDBRANCH  65  86
ENDBRANCH  39  40
ENDBRANCH  32  34
ENDBRANCH  31  32
ENDBRANCH  30  31
ENDBRANCH   1  30
TORSDOF 20
ENDMDL
