MODEL 1
REMARK VINA RESULT:     -11.4      0.000      0.000
REMARK SMILES O=C(OCCOCCOC(=O)c1cccnc1C(=O)Nc1ccc([N+](=O)[O-])cc1)c1ccc(-c2c3nc(c(-c4ccc(S(=O)(=O)[O-])cc4)c4ccc([nH]4)c(-c4ccc(S(=O)(=O)[O-])cc4)c4nc(c(-c5ccc(S(=O)(=O)[O-])cc5)c5ccc2[nH]5)C=C4)C=C3)cc1
REMARK SMILES IDX 6 1 5 2 4 3 3 4 2 5 1 6 30 7 31 8 89 9 32 10 88 11 33 12
REMARK SMILES IDX 34 13 35 14 82 15 36 16 87 17 81 18 83 19 37 20 86 21 80 22
REMARK SMILES IDX 79 23 38 25 68 26 49 27 67 28 50 29 53 30 66 31 84 32 51 33
REMARK SMILES IDX 52 34 65 36 85 37 54 38 39 39 40 40 48 41 41 42 47 43 42 44
REMARK SMILES IDX 43 45 44 46 45 47 46 48 69 49 70 50 78 51 71 52 77 53 72 54
REMARK SMILES IDX 73 55 74 56 75 57 76 58 55 59 56 60 64 61 57 62 63 63 58 64
REMARK SMILES IDX 59 65 60 66 61 67 62 68 7 69 8 70 9 71 10 72 11 73 12 74
REMARK SMILES IDX 13 75 17 76 14 77 16 78 15 79 18 80 19 81 20 82 21 84 22 85
REMARK SMILES IDX 29 86 23 87 28 88 24 89 25 90 26 91 27 92
REMARK H PARENT 83 24 53 35 20 83
REMARK Flexibility Score: inf
ROOT
ATOM      1  O   UNL A   1      31.437  29.917  25.538  1.00  0.00    -0.374 OA
ENDROOT
BRANCH   1   2
ATOM      2  C   UNL A   1      32.699  29.271  25.616  1.00  0.00     0.202 C 
BRANCH   2   3
ATOM      3  C   UNL A   1      33.306  29.317  27.015  1.00  0.00     0.261 C 
BRANCH   3   4
ATOM      4  O   UNL A   1      34.143  30.477  27.146  1.00  0.00    -0.460 OA
BRANCH   4   5
ATOM      5  C   UNL A   1      34.876  30.848  28.223  1.00  0.00     0.338 C 
ATOM      6  O   UNL A   1      34.437  31.745  28.942  1.00  0.00    -0.246 OA
BRANCH   5   7
ATOM      7  C   UNL A   1      36.227  30.294  28.555  1.00  0.00     0.060 A 
ATOM      8  C   UNL A   1      36.569  29.664  29.754  1.00  0.00     0.016 A 
ATOM      9  C   UNL A   1      37.183  30.292  27.528  1.00  0.00     0.016 A 
ATOM     10  C   UNL A   1      37.782  29.017  29.934  1.00  0.00     0.010 A 
ATOM     11  C   UNL A   1      38.427  29.681  27.708  1.00  0.00     0.010 A 
ATOM     12  C   UNL A   1      38.724  29.041  28.917  1.00  0.00    -0.014 A 
BRANCH  12  13
ATOM     13  C   UNL A   1      40.088  28.608  29.251  1.00  0.00     0.031 A 
ATOM     14  C   UNL A   1      40.914  29.554  30.067  1.00  0.00     0.074 A 
ATOM     15  C   UNL A   1      40.509  27.368  28.953  1.00  0.00     0.049 A 
ATOM     16  N   UNL A   1      42.173  29.483  30.391  1.00  0.00    -0.248 NA
ATOM     17  C   UNL A   1      40.215  30.739  30.599  1.00  0.00     0.031 C 
ATOM     18  C   UNL A   1      39.698  26.326  28.321  1.00  0.00     0.029 A 
ATOM     19  N   UNL A   1      41.722  26.770  29.160  1.00  0.00    -0.354 N 
ATOM     20  C   UNL A   1      42.431  30.639  31.117  1.00  0.00     0.074 A 
ATOM     21  C   UNL A   1      41.197  31.381  31.209  1.00  0.00     0.031 C 
ATOM     22  C   UNL A   1      40.442  25.215  28.187  1.00  0.00     0.029 A 
ATOM     23  C   UNL A   1      41.796  25.494  28.653  1.00  0.00     0.049 A 
ATOM     24  H   UNL A   1      42.468  27.210  29.627  1.00  0.00     0.167 HD
ATOM     25  C   UNL A   1      43.611  31.050  31.632  1.00  0.00     0.031 A 
ATOM     26  C   UNL A   1      42.864  24.679  28.534  1.00  0.00     0.031 A 
ATOM     27  C   UNL A   1      44.820  30.287  31.496  1.00  0.00     0.049 A 
ATOM     28  C   UNL A   1      44.194  25.198  29.020  1.00  0.00     0.074 A 
ATOM     29  C   UNL A   1      46.102  30.616  31.886  1.00  0.00     0.029 A 
ATOM     30  N   UNL A   1      44.880  29.026  30.915  1.00  0.00    -0.354 N 
ATOM     31  N   UNL A   1      44.463  26.341  29.612  1.00  0.00    -0.248 NA
ATOM     32  C   UNL A   1      45.363  24.339  28.805  1.00  0.00     0.031 C 
ATOM     33  C   UNL A   1      46.947  29.571  31.495  1.00  0.00     0.029 A 
ATOM     34  C   UNL A   1      46.181  28.566  30.919  1.00  0.00     0.049 A 
ATOM     35  H   UNL A   1      44.108  28.534  30.554  1.00  0.00     0.167 HD
ATOM     36  C   UNL A   1      45.832  26.333  29.851  1.00  0.00     0.074 A 
ATOM     37  C   UNL A   1      46.329  25.062  29.357  1.00  0.00     0.031 C 
ATOM     38  C   UNL A   1      46.616  27.286  30.417  1.00  0.00     0.031 A 
BRANCH  25  39
ATOM     39  C   UNL A   1      43.640  32.417  32.259  1.00  0.00    -0.014 A 
ATOM     40  C   UNL A   1      43.536  32.599  33.651  1.00  0.00     0.010 A 
ATOM     41  C   UNL A   1      43.702  33.547  31.425  1.00  0.00     0.010 A 
ATOM     42  C   UNL A   1      43.439  33.887  34.188  1.00  0.00     0.020 A 
ATOM     43  C   UNL A   1      43.632  34.835  31.960  1.00  0.00     0.020 A 
ATOM     44  C   UNL A   1      43.476  34.996  33.338  1.00  0.00     0.054 A 
BRANCH  44  45
ATOM     45  S   UNL A   1      43.321  36.655  34.056  1.00  0.00     0.124 S 
ATOM     46  O   UNL A   1      43.750  37.503  32.947  1.00  0.00    -0.237 OA
ATOM     47  O   UNL A   1      41.901  36.728  34.388  1.00  0.00    -0.237 OA
ATOM     48  O   UNL A   1      44.226  36.623  35.202  1.00  0.00    -0.744 OA
ENDBRANCH  44  45
ENDBRANCH  25  39
BRANCH  26  49
ATOM     49  C   UNL A   1      42.734  23.357  27.859  1.00  0.00    -0.014 A 
ATOM     50  C   UNL A   1      43.300  23.121  26.594  1.00  0.00     0.010 A 
ATOM     51  C   UNL A   1      42.037  22.308  28.492  1.00  0.00     0.010 A 
ATOM     52  C   UNL A   1      43.163  21.872  25.974  1.00  0.00     0.020 A 
ATOM     53  C   UNL A   1      41.925  21.050  27.891  1.00  0.00     0.020 A 
ATOM     54  C   UNL A   1      42.480  20.843  26.629  1.00  0.00     0.054 A 
BRANCH  54  55
ATOM     55  S   UNL A   1      42.358  19.217  25.830  1.00  0.00     0.124 S 
ATOM     56  O   UNL A   1      42.921  18.336  26.847  1.00  0.00    -0.237 OA
ATOM     57  O   UNL A   1      40.920  19.086  25.603  1.00  0.00    -0.237 OA
ATOM     58  O   UNL A   1      43.161  19.370  24.619  1.00  0.00    -0.744 OA
ENDBRANCH  54  55
ENDBRANCH  26  49
BRANCH  38  59
ATOM     59  C   UNL A   1      48.077  26.968  30.560  1.00  0.00    -0.014 A 
ATOM     60  C   UNL A   1      48.996  27.299  29.550  1.00  0.00     0.010 A 
ATOM     61  C   UNL A   1      48.541  26.408  31.765  1.00  0.00     0.010 A 
ATOM     62  C   UNL A   1      50.357  27.054  29.736  1.00  0.00     0.020 A 
ATOM     63  C   UNL A   1      49.903  26.187  31.963  1.00  0.00     0.020 A 
ATOM     64  C   UNL A   1      50.802  26.503  30.943  1.00  0.00     0.054 A 
BRANCH  64  65
ATOM     65  S   UNL A   1      52.581  26.254  31.183  1.00  0.00     0.124 S 
ATOM     66  O   UNL A   1      52.925  27.364  32.067  1.00  0.00    -0.237 OA
ATOM     67  O   UNL A   1      52.640  24.925  31.788  1.00  0.00    -0.237 OA
ATOM     68  O   UNL A   1      53.127  26.341  29.831  1.00  0.00    -0.744 OA
ENDBRANCH  64  65
ENDBRANCH  38  59
ENDBRANCH  12  13
ENDBRANCH   5   7
ENDBRANCH   4   5
ENDBRANCH   3   4
ENDBRANCH   2   3
ENDBRANCH   1   2
BRANCH   1  69
ATOM     69  C   UNL A   1      30.694  29.820  24.323  1.00  0.00     0.202 C 
BRANCH  69  70
ATOM     70  C   UNL A   1      31.245  28.555  23.389  1.00  0.00     0.261 C 
BRANCH  70  71
ATOM     71  O   UNL A   1      31.274  26.579  23.816  1.00  0.00    -0.460 OA
BRANCH  71  72
ATOM     72  C   UNL A   1      30.916  25.195  23.976  1.00  0.00     0.340 C 
ATOM     73  O   UNL A   1      29.988  24.719  23.324  1.00  0.00    -0.246 OA
BRANCH  72  74
ATOM     74  C   UNL A   1      31.501  24.331  25.071  1.00  0.00     0.091 A 
ATOM     75  C   UNL A   1      30.536  23.742  25.909  1.00  0.00     0.020 A 
ATOM     76  C   UNL A   1      32.848  24.178  25.449  1.00  0.00     0.142 A 
ATOM     77  C   UNL A   1      30.915  23.094  27.083  1.00  0.00     0.021 A 
ATOM     78  N   UNL A   1      33.220  23.527  26.598  1.00  0.00    -0.250 NA
ATOM     79  C   UNL A   1      32.258  23.017  27.387  1.00  0.00     0.112 A 
BRANCH  76  80
ATOM     80  C   UNL A   1      34.052  24.766  24.763  1.00  0.00     0.275 C 
ATOM     81  O   UNL A   1      34.397  25.927  24.986  1.00  0.00    -0.267 OA
ATOM     82  N   UNL A   1      34.785  24.012  23.888  1.00  0.00    -0.321 N 
ATOM     83  H   UNL A   1      35.579  24.418  23.472  1.00  0.00     0.170 HD
BRANCH  82  84
ATOM     84  C   UNL A   1      34.466  22.708  23.561  1.00  0.00     0.042 A 
ATOM     85  C   UNL A   1      35.287  21.469  24.571  1.00  0.00     0.033 A 
ATOM     86  C   UNL A   1      32.905  22.311  22.676  1.00  0.00     0.033 A 
ATOM     87  C   UNL A   1      34.566  19.834  24.709  1.00  0.00     0.088 A 
ATOM     88  C   UNL A   1      32.195  20.655  22.845  1.00  0.00     0.088 A 
ATOM     89  C   UNL A   1      33.022  19.447  23.892  1.00  0.00     0.269 A 
BRANCH  89  90
ATOM     90  N   UNL A   1      32.523  18.093  23.940  1.00  0.00     0.062 N 
ATOM     91  O   UNL A   1      31.872  17.761  24.936  1.00  0.00    -0.258 OA
ATOM     92  O   UNL A   1      32.836  17.349  23.001  1.00  0.00    -0.258 OA
ENDBRANCH  89  90
ENDBRANCH  82  84
ENDBRANCH  76  80
ENDBRANCH  72  74
ENDBRANCH  71  72
ENDBRANCH  70  71
ENDBRANCH  69  70
ENDBRANCH   1  69
TORSDOF 20
ENDMDL
MODEL 2
REMARK VINA RESULT:     -11.1      3.437      7.646
REMARK SMILES O=C(OCCOCCOC(=O)c1cccnc1C(=O)Nc1ccc([N+](=O)[O-])cc1)c1ccc(-c2c3nc(c(-c4ccc(S(=O)(=O)[O-])cc4)c4ccc([nH]4)c(-c4ccc(S(=O)(=O)[O-])cc4)c4nc(c(-c5ccc(S(=O)(=O)[O-])cc5)c5ccc2[nH]5)C=C4)C=C3)cc1
REMARK SMILES IDX 6 1 5 2 4 3 3 4 2 5 1 6 30 7 31 8 89 9 32 10 88 11 33 12
REMARK SMILES IDX 34 13 35 14 82 15 36 16 87 17 81 18 83 19 37 20 86 21 80 22
REMARK SMILES IDX 79 23 38 25 68 26 49 27 67 28 50 29 53 30 66 31 84 32 51 33
REMARK SMILES IDX 52 34 65 36 85 37 54 38 39 39 40 40 48 41 41 42 47 43 42 44
REMARK SMILES IDX 43 45 44 46 45 47 46 48 69 49 70 50 78 51 71 52 77 53 72 54
REMARK SMILES IDX 73 55 74 56 75 57 76 58 55 59 56 60 64 61 57 62 63 63 58 64
REMARK SMILES IDX 59 65 60 66 61 67 62 68 7 69 8 70 9 71 10 72 11 73 12 74
REMARK SMILES IDX 13 75 17 76 14 77 16 78 15 79 18 80 19 81 20 82 21 84 22 85
REMARK SMILES IDX 29 86 23 87 28 88 24 89 25 90 26 91 27 92
REMARK H PARENT 83 24 53 35 20 83
REMARK Flexibility Score: inf
ROOT
ATOM      1  O   UNL A   1      37.287  21.405  24.777  1.00  0.00    -0.374 OA
ENDROOT
BRANCH   1   2
ATOM      2  C   UNL A   1      38.152  20.296  24.975  1.00  0.00     0.202 C 
BRANCH   2   3
ATOM      3  C   UNL A   1      39.193  20.540  26.064  1.00  0.00     0.261 C 
BRANCH   3   4
ATOM      4  O   UNL A   1      40.282  19.617  25.915  1.00  0.00    -0.460 OA
BRANCH   4   5
ATOM      5  C   UNL A   1      41.593  19.840  26.169  1.00  0.00     0.338 C 
ATOM      6  O   UNL A   1      42.339  18.866  26.269  1.00  0.00    -0.246 OA
BRANCH   5   7
ATOM      7  C   UNL A   1      42.186  21.193  26.417  1.00  0.00     0.060 A 
ATOM      8  C   UNL A   1      42.398  22.173  25.444  1.00  0.00     0.016 A 
ATOM      9  C   UNL A   1      42.423  21.547  27.754  1.00  0.00     0.016 A 
ATOM     10  C   UNL A   1      42.784  23.466  25.762  1.00  0.00     0.010 A 
ATOM     11  C   UNL A   1      42.854  22.834  28.089  1.00  0.00     0.010 A 
ATOM     12  C   UNL A   1      43.034  23.794  27.086  1.00  0.00    -0.014 A 
BRANCH  12  13
ATOM     13  C   UNL A   1      43.719  25.069  27.346  1.00  0.00     0.031 A 
ATOM     14  C   UNL A   1      42.891  26.172  27.929  1.00  0.00     0.074 A 
ATOM     15  C   UNL A   1      45.049  25.179  27.195  1.00  0.00     0.049 A 
ATOM     16  N   UNL A   1      43.202  27.419  28.136  1.00  0.00    -0.248 NA
ATOM     17  C   UNL A   1      41.523  25.810  28.347  1.00  0.00     0.031 C 
ATOM     18  C   UNL A   1      45.951  24.094  26.805  1.00  0.00     0.029 A 
ATOM     19  N   UNL A   1      45.875  26.256  27.368  1.00  0.00    -0.354 N 
ATOM     20  C   UNL A   1      42.053  28.003  28.655  1.00  0.00     0.074 A 
ATOM     21  C   UNL A   1      41.048  26.974  28.756  1.00  0.00     0.031 C 
ATOM     22  C   UNL A   1      47.209  24.566  26.765  1.00  0.00     0.029 A 
ATOM     23  C   UNL A   1      47.187  25.997  27.051  1.00  0.00     0.049 A 
ATOM     24  H   UNL A   1      45.560  27.132  27.690  1.00  0.00     0.167 HD
ATOM     25  C   UNL A   1      41.859  29.299  28.987  1.00  0.00     0.031 A 
ATOM     26  C   UNL A   1      48.229  26.845  26.950  1.00  0.00     0.031 A 
ATOM     27  C   UNL A   1      42.885  30.293  28.847  1.00  0.00     0.049 A 
ATOM     28  C   UNL A   1      47.967  28.306  27.221  1.00  0.00     0.074 A 
ATOM     29  C   UNL A   1      42.807  31.655  29.057  1.00  0.00     0.029 A 
ATOM     30  N   UNL A   1      44.188  30.014  28.455  1.00  0.00    -0.354 N 
ATOM     31  N   UNL A   1      46.850  28.882  27.610  1.00  0.00    -0.248 NA
ATOM     32  C   UNL A   1      49.087  29.232  27.022  1.00  0.00     0.031 C 
ATOM     33  C   UNL A   1      44.056  32.206  28.744  1.00  0.00     0.029 A 
ATOM     34  C   UNL A   1      44.926  31.179  28.400  1.00  0.00     0.049 A 
ATOM     35  H   UNL A   1      44.535  29.116  28.247  1.00  0.00     0.167 HD
ATOM     36  C   UNL A   1      47.136  30.238  27.712  1.00  0.00     0.074 A 
ATOM     37  C   UNL A   1      48.538  30.390  27.365  1.00  0.00     0.031 C 
ATOM     38  C   UNL A   1      46.323  31.269  28.052  1.00  0.00     0.031 A 
BRANCH  25  39
ATOM     39  C   UNL A   1      40.468  29.693  29.399  1.00  0.00    -0.014 A 
ATOM     40  C   UNL A   1      39.419  29.805  28.468  1.00  0.00     0.010 A 
ATOM     41  C   UNL A   1      40.225  30.025  30.744  1.00  0.00     0.010 A 
ATOM     42  C   UNL A   1      38.171  30.295  28.866  1.00  0.00     0.020 A 
ATOM     43  C   UNL A   1      38.972  30.490  31.151  1.00  0.00     0.020 A 
ATOM     44  C   UNL A   1      37.959  30.645  30.203  1.00  0.00     0.054 A 
BRANCH  44  45
ATOM     45  S   UNL A   1      36.341  31.304  30.689  1.00  0.00     0.124 S 
ATOM     46  O   UNL A   1      36.685  32.654  31.126  1.00  0.00    -0.237 OA
ATOM     47  O   UNL A   1      35.575  31.223  29.448  1.00  0.00    -0.237 OA
ATOM     48  O   UNL A   1      35.902  30.400  31.749  1.00  0.00    -0.744 OA
ENDBRANCH  44  45
ENDBRANCH  25  39
BRANCH  26  49
ATOM     49  C   UNL A   1      49.561  26.357  26.492  1.00  0.00    -0.014 A 
ATOM     50  C   UNL A   1      49.944  26.430  25.142  1.00  0.00     0.010 A 
ATOM     51  C   UNL A   1      50.469  25.812  27.423  1.00  0.00     0.010 A 
ATOM     52  C   UNL A   1      51.199  25.961  24.732  1.00  0.00     0.020 A 
ATOM     53  C   UNL A   1      51.735  25.372  27.023  1.00  0.00     0.020 A 
ATOM     54  C   UNL A   1      52.088  25.439  25.676  1.00  0.00     0.054 A 
BRANCH  54  55
ATOM     55  S   UNL A   1      53.729  24.884  25.131  1.00  0.00     0.124 S 
ATOM     56  O   UNL A   1      53.883  25.590  23.864  1.00  0.00    -0.237 OA
ATOM     57  O   UNL A   1      54.592  25.338  26.219  1.00  0.00    -0.237 OA
ATOM     58  O   UNL A   1      53.582  23.434  25.027  1.00  0.00    -0.744 OA
ENDBRANCH  54  55
ENDBRANCH  26  49
BRANCH  38  59
ATOM     59  C   UNL A   1      46.941  32.638  28.098  1.00  0.00    -0.014 A 
ATOM     60  C   UNL A   1      46.971  33.460  26.960  1.00  0.00     0.010 A 
ATOM     61  C   UNL A   1      47.417  33.133  29.326  1.00  0.00     0.010 A 
ATOM     62  C   UNL A   1      47.492  34.752  27.045  1.00  0.00     0.020 A 
ATOM     63  C   UNL A   1      47.911  34.433  29.419  1.00  0.00     0.020 A 
ATOM     64  C   UNL A   1      47.955  35.231  28.275  1.00  0.00     0.054 A 
BRANCH  64  65
ATOM     65  S   UNL A   1      48.565  36.935  28.372  1.00  0.00     0.124 S 
ATOM     66  O   UNL A   1      49.553  36.964  27.296  1.00  0.00    -0.237 OA
ATOM     67  O   UNL A   1      47.357  37.723  28.141  1.00  0.00    -0.237 OA
ATOM     68  O   UNL A   1      49.114  37.028  29.723  1.00  0.00    -0.744 OA
ENDBRANCH  64  65
ENDBRANCH  38  59
ENDBRANCH  12  13
ENDBRANCH   5   7
ENDBRANCH   4   5
ENDBRANCH   3   4
ENDBRANCH   2   3
ENDBRANCH   1   2
BRANCH   1  69
ATOM     69  C   UNL A   1      37.101  22.326  25.852  1.00  0.00     0.202 C 
BRANCH  69  70
ATOM     70  C   UNL A   1      36.915  23.879  25.277  1.00  0.00     0.261 C 
BRANCH  70  71
ATOM     71  O   UNL A   1      35.216  24.939  25.008  1.00  0.00    -0.460 OA
BRANCH  71  72
ATOM     72  C   UNL A   1      34.119  25.855  25.170  1.00  0.00     0.340 C 
ATOM     73  O   UNL A   1      34.294  26.932  25.737  1.00  0.00    -0.246 OA
BRANCH  72  74
ATOM     74  C   UNL A   1      32.691  25.470  24.852  1.00  0.00     0.091 A 
ATOM     75  C   UNL A   1      31.814  25.582  25.947  1.00  0.00     0.020 A 
ATOM     76  C   UNL A   1      32.177  24.877  23.684  1.00  0.00     0.142 A 
ATOM     77  C   UNL A   1      30.520  25.067  25.876  1.00  0.00     0.021 A 
ATOM     78  N   UNL A   1      30.898  24.385  23.611  1.00  0.00    -0.250 NA
ATOM     79  C   UNL A   1      30.111  24.478  24.697  1.00  0.00     0.112 A 
BRANCH  76  80
ATOM     80  C   UNL A   1      32.927  24.585  22.412  1.00  0.00     0.275 C 
ATOM     81  O   UNL A   1      33.234  25.495  21.642  1.00  0.00    -0.267 OA
ATOM     82  N   UNL A   1      33.285  23.302  22.101  1.00  0.00    -0.321 N 
ATOM     83  H   UNL A   1      33.794  23.146  21.272  1.00  0.00     0.170 HD
BRANCH  82  84
ATOM     84  C   UNL A   1      32.970  22.215  22.892  1.00  0.00     0.042 A 
ATOM     85  C   UNL A   1      32.102  20.899  22.028  1.00  0.00     0.033 A 
ATOM     86  C   UNL A   1      33.903  21.866  24.436  1.00  0.00     0.033 A 
ATOM     87  C   UNL A   1      32.156  19.234  22.690  1.00  0.00     0.088 A 
ATOM     88  C   UNL A   1      33.952  20.172  25.071  1.00  0.00     0.088 A 
ATOM     89  C   UNL A   1      33.102  18.870  24.165  1.00  0.00     0.269 A 
BRANCH  89  90
ATOM     90  N   UNL A   1      33.041  17.541  24.727  1.00  0.00     0.062 N 
ATOM     91  O   UNL A   1      33.977  16.774  24.478  1.00  0.00    -0.258 OA
ATOM     92  O   UNL A   1      32.023  17.253  25.371  1.00  0.00    -0.258 OA
ENDBRANCH  89  90
ENDBRANCH  82  84
ENDBRANCH  76  80
ENDBRANCH  72  74
ENDBRANCH  71  72
ENDBRANCH  70  71
ENDBRANCH  69  70
ENDBRANCH   1  69
TORSDOF 20
ENDMDL
MODEL 3
REMARK VINA RESULT:     -11.1      3.616      8.405
REMARK SMILES O=C(OCCOCCOC(=O)c1cccnc1C(=O)Nc1ccc([N+](=O)[O-])cc1)c1ccc(-c2c3nc(c(-c4ccc(S(=O)(=O)[O-])cc4)c4ccc([nH]4)c(-c4ccc(S(=O)(=O)[O-])cc4)c4nc(c(-c5ccc(S(=O)(=O)[O-])cc5)c5ccc2[nH]5)C=C4)C=C3)cc1
REMARK SMILES IDX 6 1 5 2 4 3 3 4 2 5 1 6 30 7 31 8 89 9 32 10 88 11 33 12
REMARK SMILES IDX 34 13 35 14 82 15 36 16 87 17 81 18 83 19 37 20 86 21 80 22
REMARK SMILES IDX 79 23 38 25 68 26 49 27 67 28 50 29 53 30 66 31 84 32 51 33
REMARK SMILES IDX 52 34 65 36 85 37 54 38 39 39 40 40 48 41 41 42 47 43 42 44
REMARK SMILES IDX 43 45 44 46 45 47 46 48 69 49 70 50 78 51 71 52 77 53 72 54
REMARK SMILES IDX 73 55 74 56 75 57 76 58 55 59 56 60 64 61 57 62 63 63 58 64
REMARK SMILES IDX 59 65 60 66 61 67 62 68 7 69 8 70 9 71 10 72 11 73 12 74
REMARK SMILES IDX 13 75 17 76 14 77 16 78 15 79 18 80 19 81 20 82 21 84 22 85
REMARK SMILES IDX 29 86 23 87 28 88 24 89 25 90 26 91 27 92
REMARK H PARENT 83 24 53 35 20 83
REMARK Flexibility Score: inf
ROOT
ATOM      1  O   UNL A   1      37.750  21.203  24.790  1.00  0.00    -0.374 OA
ENDROOT
BRANCH   1   2
ATOM      2  C   UNL A   1      38.509  20.024  25.008  1.00  0.00     0.202 C 
BRANCH   2   3
ATOM      3  C   UNL A   1      39.559  20.186  26.104  1.00  0.00     0.261 C 
BRANCH   3   4
ATOM      4  O   UNL A   1      40.680  19.329  25.838  1.00  0.00    -0.460 OA
BRANCH   4   5
ATOM      5  C   UNL A   1      41.993  19.612  26.005  1.00  0.00     0.338 C 
ATOM      6  O   UNL A   1      42.791  18.675  26.018  1.00  0.00    -0.246 OA
BRANCH   5   7
ATOM      7  C   UNL A   1      42.534  20.986  26.256  1.00  0.00     0.060 A 
ATOM      8  C   UNL A   1      42.764  21.955  25.275  1.00  0.00     0.016 A 
ATOM      9  C   UNL A   1      42.695  21.370  27.595  1.00  0.00     0.016 A 
ATOM     10  C   UNL A   1      43.098  23.263  25.587  1.00  0.00     0.010 A 
ATOM     11  C   UNL A   1      43.073  22.675  27.926  1.00  0.00     0.010 A 
ATOM     12  C   UNL A   1      43.274  23.622  26.915  1.00  0.00    -0.014 A 
BRANCH  12  13
ATOM     13  C   UNL A   1      43.908  24.920  27.184  1.00  0.00     0.031 A 
ATOM     14  C   UNL A   1      43.024  26.006  27.714  1.00  0.00     0.074 A 
ATOM     15  C   UNL A   1      45.240  25.070  27.087  1.00  0.00     0.049 A 
ATOM     16  N   UNL A   1      43.289  27.265  27.914  1.00  0.00    -0.248 NA
ATOM     17  C   UNL A   1      41.651  25.608  28.080  1.00  0.00     0.031 C 
ATOM     18  C   UNL A   1      46.190  24.007  26.752  1.00  0.00     0.029 A 
ATOM     19  N   UNL A   1      46.025  26.174  27.278  1.00  0.00    -0.354 N 
ATOM     20  C   UNL A   1      42.102  27.821  28.376  1.00  0.00     0.074 A 
ATOM     21  C   UNL A   1      41.124  26.763  28.451  1.00  0.00     0.031 C 
ATOM     22  C   UNL A   1      47.434  24.516  26.757  1.00  0.00     0.029 A 
ATOM     23  C   UNL A   1      47.356  25.950  27.019  1.00  0.00     0.049 A 
ATOM     24  H   UNL A   1      45.671  27.044  27.572  1.00  0.00     0.167 HD
ATOM     25  C   UNL A   1      41.855  29.115  28.679  1.00  0.00     0.031 A 
ATOM     26  C   UNL A   1      48.376  26.829  26.949  1.00  0.00     0.031 A 
ATOM     27  C   UNL A   1      42.855  30.138  28.567  1.00  0.00     0.049 A 
ATOM     28  C   UNL A   1      48.059  28.284  27.186  1.00  0.00     0.074 A 
ATOM     29  C   UNL A   1      42.729  31.500  28.752  1.00  0.00     0.029 A 
ATOM     30  N   UNL A   1      44.182  29.893  28.234  1.00  0.00    -0.354 N 
ATOM     31  N   UNL A   1      46.910  28.831  27.519  1.00  0.00    -0.248 NA
ATOM     32  C   UNL A   1      49.158  29.241  27.020  1.00  0.00     0.031 C 
ATOM     33  C   UNL A   1      43.972  32.084  28.483  1.00  0.00     0.029 A 
ATOM     34  C   UNL A   1      44.886  31.080  28.192  1.00  0.00     0.049 A 
ATOM     35  H   UNL A   1      44.564  29.004  28.055  1.00  0.00     0.167 HD
ATOM     36  C   UNL A   1      47.151  30.196  27.611  1.00  0.00     0.074 A 
ATOM     37  C   UNL A   1      48.561  30.386  27.321  1.00  0.00     0.031 C 
ATOM     38  C   UNL A   1      46.293  31.208  27.901  1.00  0.00     0.031 A 
BRANCH  25  39
ATOM     39  C   UNL A   1      40.436  29.472  29.027  1.00  0.00    -0.014 A 
ATOM     40  C   UNL A   1      39.455  29.670  28.038  1.00  0.00     0.010 A 
ATOM     41  C   UNL A   1      40.099  29.682  30.376  1.00  0.00     0.010 A 
ATOM     42  C   UNL A   1      38.180  30.124  28.390  1.00  0.00     0.020 A 
ATOM     43  C   UNL A   1      38.818  30.110  30.733  1.00  0.00     0.020 A 
ATOM     44  C   UNL A   1      37.873  30.352  29.735  1.00  0.00     0.054 A 
BRANCH  44  45
ATOM     45  S   UNL A   1      36.221  30.966  30.164  1.00  0.00     0.124 S 
ATOM     46  O   UNL A   1      36.456  32.403  30.279  1.00  0.00    -0.237 OA
ATOM     47  O   UNL A   1      35.418  30.553  29.017  1.00  0.00    -0.237 OA
ATOM     48  O   UNL A   1      35.912  30.283  31.417  1.00  0.00    -0.744 OA
ENDBRANCH  44  45
ENDBRANCH  25  39
BRANCH  26  49
ATOM     49  C   UNL A   1      49.740  26.374  26.555  1.00  0.00    -0.014 A 
ATOM     50  C   UNL A   1      50.137  26.327  25.207  1.00  0.00     0.010 A 
ATOM     51  C   UNL A   1      50.666  25.986  27.545  1.00  0.00     0.010 A 
ATOM     52  C   UNL A   1      51.422  25.894  24.858  1.00  0.00     0.020 A 
ATOM     53  C   UNL A   1      51.960  25.582  27.203  1.00  0.00     0.020 A 
ATOM     54  C   UNL A   1      52.327  25.528  25.859  1.00  0.00     0.054 A 
BRANCH  54  55
ATOM     55  S   UNL A   1      54.005  25.016  25.387  1.00  0.00     0.124 S 
ATOM     56  O   UNL A   1      54.747  25.232  26.625  1.00  0.00    -0.237 OA
ATOM     57  O   UNL A   1      53.811  23.621  24.999  1.00  0.00    -0.237 OA
ATOM     58  O   UNL A   1      54.342  25.919  24.289  1.00  0.00    -0.744 OA
ENDBRANCH  54  55
ENDBRANCH  26  49
BRANCH  38  59
ATOM     59  C   UNL A   1      46.867  32.595  27.952  1.00  0.00    -0.014 A 
ATOM     60  C   UNL A   1      47.417  33.111  29.137  1.00  0.00     0.010 A 
ATOM     61  C   UNL A   1      46.932  33.351  26.768  1.00  0.00     0.010 A 
ATOM     62  C   UNL A   1      48.004  34.378  29.141  1.00  0.00     0.020 A 
ATOM     63  C   UNL A   1      47.543  34.605  26.763  1.00  0.00     0.020 A 
ATOM     64  C   UNL A   1      48.066  35.114  27.953  1.00  0.00     0.054 A 
BRANCH  64  65
ATOM     65  S   UNL A   1      48.891  36.728  27.971  1.00  0.00     0.124 S 
ATOM     66  O   UNL A   1      48.059  37.483  28.905  1.00  0.00    -0.237 OA
ATOM     67  O   UNL A   1      50.232  36.398  28.446  1.00  0.00    -0.237 OA
ATOM     68  O   UNL A   1      48.820  37.167  26.579  1.00  0.00    -0.744 OA
ENDBRANCH  64  65
ENDBRANCH  38  59
ENDBRANCH  12  13
ENDBRANCH   5   7
ENDBRANCH   4   5
ENDBRANCH   3   4
ENDBRANCH   2   3
ENDBRANCH   1   2
BRANCH   1  69
ATOM     69  C   UNL A   1      37.836  22.258  25.748  1.00  0.00     0.202 C 
BRANCH  69  70
ATOM     70  C   UNL A   1      37.171  23.662  25.146  1.00  0.00     0.261 C 
BRANCH  70  71
ATOM     71  O   UNL A   1      35.240  24.258  25.153  1.00  0.00    -0.460 OA
BRANCH  71  72
ATOM     72  C   UNL A   1      34.008  24.948  25.430  1.00  0.00     0.340 C 
ATOM     73  O   UNL A   1      34.021  26.145  25.712  1.00  0.00    -0.246 OA
BRANCH  72  74
ATOM     74  C   UNL A   1      32.692  24.219  25.589  1.00  0.00     0.091 A 
ATOM     75  C   UNL A   1      32.305  24.032  26.929  1.00  0.00     0.020 A 
ATOM     76  C   UNL A   1      31.913  23.578  24.608  1.00  0.00     0.142 A 
ATOM     77  C   UNL A   1      31.233  23.199  27.250  1.00  0.00     0.021 A 
ATOM     78  N   UNL A   1      30.850  22.771  24.924  1.00  0.00    -0.250 NA
ATOM     79  C   UNL A   1      30.544  22.591  26.221  1.00  0.00     0.112 A 
BRANCH  76  80
ATOM     80  C   UNL A   1      32.159  23.568  23.123  1.00  0.00     0.275 C 
ATOM     81  O   UNL A   1      32.666  22.588  22.577  1.00  0.00    -0.267 OA
ATOM     82  N   UNL A   1      31.813  24.649  22.359  1.00  0.00    -0.321 N 
ATOM     83  H   UNL A   1      31.966  24.604  21.387  1.00  0.00     0.170 HD
BRANCH  82  84
ATOM     84  C   UNL A   1      31.256  25.800  22.882  1.00  0.00     0.042 A 
ATOM     85  C   UNL A   1      32.081  27.315  22.379  1.00  0.00     0.033 A 
ATOM     86  C   UNL A   1      29.511  25.829  23.458  1.00  0.00     0.033 A 
ATOM     87  C   UNL A   1      31.181  28.864  22.444  1.00  0.00     0.088 A 
ATOM     88  C   UNL A   1      28.624  27.406  23.499  1.00  0.00     0.088 A 
ATOM     89  C   UNL A   1      29.467  28.901  22.956  1.00  0.00     0.269 A 
BRANCH  89  90
ATOM     90  N   UNL A   1      28.803  30.176  23.094  1.00  0.00     0.062 N 
ATOM     91  O   UNL A   1      27.858  30.412  22.333  1.00  0.00    -0.258 OA
ATOM     92  O   UNL A   1      29.271  30.962  23.929  1.00  0.00    -0.258 OA
ENDBRANCH  89  90
ENDBRANCH  82  84
ENDBRANCH  76  80
ENDBRANCH  72  74
ENDBRANCH  71  72
ENDBRANCH  70  71
ENDBRANCH  69  70
ENDBRANCH   1  69
TORSDOF 20
ENDMDL
