MODEL 1
REMARK VINA RESULT:     -10.8      0.000      0.000
REMARK SMILES Cc1cc(OC(F)(F)F)cc2c1O[C@H](C(F)(F)F)C(C(=O)OCCOCCOC(=O)c1ccc(-c3c4nc(c(-c5ccc(S(=O)(=O)[O-])cc5)c5ccc([nH]5)c(-c5ccc(S(=O)(=O)[O-])cc5)c5nc(c(-c6ccc(S(=O)(=O)[O-])cc6)c6ccc3[nH]6)C=C5)C=C4)cc1)=C2
REMARK SMILES IDX 26 1 25 2 24 3 23 4 22 5 20 6 21 7 19 8 1 9 2 10 3 11 12 12
REMARK SMILES IDX 4 13 11 14 13 15 10 16 91 17 14 18 5 19 6 20 7 21 8 22 9 23
REMARK SMILES IDX 15 24 16 25 17 26 18 27 27 28 28 29 29 30 30 31 31 32 32 33
REMARK SMILES IDX 90 34 33 35 89 36 34 37 35 38 36 39 83 40 37 41 88 42 82 43
REMARK SMILES IDX 84 44 38 45 87 46 81 47 80 48 39 50 69 51 50 52 68 53 51 54
REMARK SMILES IDX 54 55 67 56 85 57 52 58 53 59 66 61 86 62 55 63 40 64 41 65
REMARK SMILES IDX 49 66 42 67 48 68 43 69 44 70 45 71 46 72 47 73 70 74 71 75
REMARK SMILES IDX 79 76 72 77 78 78 73 79 74 80 75 81 76 82 77 83 56 84 57 85
REMARK SMILES IDX 65 86 58 87 64 88 59 89 60 90 61 91 62 92 63 93
REMARK H PARENT 84 49 54 60
REMARK Flexibility Score: inf
ROOT
ATOM      1  C   UNL A   1      34.378  31.753  28.268  1.00  0.00     0.202 C 
ENDROOT
BRANCH   1   2
ATOM      2  O   UNL A   1      34.085  30.914  27.148  1.00  0.00    -0.374 OA
BRANCH   2   3
ATOM      3  C   UNL A   1      32.805  30.286  27.114  1.00  0.00     0.202 C 
BRANCH   3   4
ATOM      4  C   UNL A   1      32.305  29.840  25.736  1.00  0.00     0.261 C 
BRANCH   4   5
ATOM      5  O   UNL A   1      32.363  28.412  25.589  1.00  0.00    -0.460 OA
BRANCH   5   6
ATOM      6  C   UNL A   1      33.285  27.974  24.702  1.00  0.00     0.338 C 
ATOM      7  O   UNL A   1      34.163  28.636  24.169  1.00  0.00    -0.246 OA
BRANCH   6   8
ATOM      8  C   UNL A   1      33.177  26.511  24.546  1.00  0.00     0.087 C 
ATOM      9  C   UNL A   1      32.327  21.697  22.927  1.00  0.00     0.048 C 
ATOM     10  C   UNL A   1      33.273  22.391  23.871  1.00  0.00    -0.005 A 
ATOM     11  C   UNL A   1      34.318  21.636  24.443  1.00  0.00     0.054 A 
ATOM     12  C   UNL A   1      33.173  23.760  24.161  1.00  0.00     0.131 A 
ATOM     13  C   UNL A   1      35.245  22.232  25.298  1.00  0.00     0.130 A 
ATOM     14  C   UNL A   1      34.118  24.362  24.994  1.00  0.00     0.021 A 
ATOM     15  O   UNL A   1      32.126  24.450  23.616  1.00  0.00    -0.475 OA
ATOM     16  C   UNL A   1      35.132  23.595  25.575  1.00  0.00     0.058 A 
ATOM     17  C   UNL A   1      34.094  25.795  25.206  1.00  0.00     0.027 C 
ATOM     18  C   UNL A   1      32.113  25.905  23.675  1.00  0.00     0.316 C 
BRANCH  13  19
ATOM     19  O   UNL A   1      36.296  21.621  25.918  1.00  0.00    -0.406 OA
BRANCH  19  20
ATOM     20  C   UNL A   1      37.517  21.522  25.207  1.00  0.00     0.573 C 
ATOM     21  F   UNL A   1      38.565  21.858  25.990  1.00  0.00    -0.132 F 
ATOM     22  F   UNL A   1      37.700  20.279  24.713  1.00  0.00    -0.132 F 
ATOM     23  F   UNL A   1      37.480  22.385  24.165  1.00  0.00    -0.132 F 
ENDBRANCH  19  20
ENDBRANCH  13  19
BRANCH  18  24
ATOM     24  C   UNL A   1      32.146  26.445  22.237  1.00  0.00     0.430 C 
ATOM     25  F   UNL A   1      31.563  25.576  21.378  1.00  0.00    -0.167 F 
ATOM     26  F   UNL A   1      31.480  27.616  22.124  1.00  0.00    -0.167 F 
ATOM     27  F   UNL A   1      33.412  26.653  21.809  1.00  0.00    -0.167 F 
ENDBRANCH  18  24
ENDBRANCH   6   8
ENDBRANCH   5   6
ENDBRANCH   4   5
ENDBRANCH   3   4
ENDBRANCH   2   3
ENDBRANCH   1   2
BRANCH   1  28
ATOM     28  C   UNL A   1      35.609  31.387  29.106  1.00  0.00     0.261 C 
BRANCH  28  29
ATOM     29  O   UNL A   1      36.164  30.115  28.721  1.00  0.00    -0.460 OA
BRANCH  29  30
ATOM     30  C   UNL A   1      36.856  29.477  29.695  1.00  0.00     0.338 C 
ATOM     31  O   UNL A   1      36.462  29.194  30.817  1.00  0.00    -0.246 OA
BRANCH  30  32
ATOM     32  C   UNL A   1      38.140  28.992  29.164  1.00  0.00     0.060 A 
ATOM     33  C   UNL A   1      38.999  28.315  30.039  1.00  0.00     0.016 A 
ATOM     34  C   UNL A   1      38.545  29.305  27.866  1.00  0.00     0.016 A 
ATOM     35  C   UNL A   1      40.289  27.983  29.630  1.00  0.00     0.010 A 
ATOM     36  C   UNL A   1      39.847  28.990  27.464  1.00  0.00     0.010 A 
ATOM     37  C   UNL A   1      40.733  28.361  28.356  1.00  0.00    -0.014 A 
BRANCH  37  38
ATOM     38  C   UNL A   1      42.172  28.255  28.028  1.00  0.00     0.031 A 
ATOM     39  C   UNL A   1      43.061  29.444  28.274  1.00  0.00     0.074 A 
ATOM     40  C   UNL A   1      42.688  27.108  27.550  1.00  0.00     0.049 A 
ATOM     41  N   UNL A   1      44.336  29.585  28.024  1.00  0.00    -0.248 NA
ATOM     42  C   UNL A   1      42.433  30.627  28.889  1.00  0.00     0.031 C 
ATOM     43  C   UNL A   1      41.939  25.873  27.322  1.00  0.00     0.029 A 
ATOM     44  N   UNL A   1      43.970  26.801  27.168  1.00  0.00    -0.354 N 
ATOM     45  C   UNL A   1      44.664  30.865  28.454  1.00  0.00     0.074 A 
ATOM     46  C   UNL A   1      43.453  31.470  28.962  1.00  0.00     0.031 C 
ATOM     47  C   UNL A   1      42.774  24.943  26.827  1.00  0.00     0.029 A 
ATOM     48  C   UNL A   1      44.107  25.525  26.677  1.00  0.00     0.049 A 
ATOM     49  H   UNL A   1      44.720  27.434  27.239  1.00  0.00     0.167 HD
ATOM     50  C   UNL A   1      45.870  31.478  28.433  1.00  0.00     0.031 A 
ATOM     51  C   UNL A   1      45.179  24.904  26.148  1.00  0.00     0.031 A 
ATOM     52  C   UNL A   1      47.071  30.881  27.918  1.00  0.00     0.049 A 
ATOM     53  C   UNL A   1      46.492  25.635  26.061  1.00  0.00     0.074 A 
ATOM     54  C   UNL A   1      48.338  31.432  27.846  1.00  0.00     0.029 A 
ATOM     55  N   UNL A   1      47.156  29.603  27.391  1.00  0.00    -0.354 N 
ATOM     56  N   UNL A   1      46.782  26.850  26.458  1.00  0.00    -0.248 NA
ATOM     57  C   UNL A   1      47.622  24.913  25.454  1.00  0.00     0.031 C 
ATOM     58  C   UNL A   1      49.183  30.500  27.238  1.00  0.00     0.029 A 
ATOM     59  C   UNL A   1      48.452  29.353  26.976  1.00  0.00     0.049 A 
ATOM     60  H   UNL A   1      46.407  28.968  27.322  1.00  0.00     0.167 HD
ATOM     61  C   UNL A   1      48.130  27.033  26.168  1.00  0.00     0.074 A 
ATOM     62  C   UNL A   1      48.601  25.802  25.568  1.00  0.00     0.031 C 
ATOM     63  C   UNL A   1      48.906  28.122  26.384  1.00  0.00     0.031 A 
BRANCH  50  64
ATOM     64  C   UNL A   1      45.962  32.875  28.975  1.00  0.00    -0.014 A 
ATOM     65  C   UNL A   1      45.600  33.975  28.178  1.00  0.00     0.010 A 
ATOM     66  C   UNL A   1      46.309  33.080  30.322  1.00  0.00     0.010 A 
ATOM     67  C   UNL A   1      45.578  35.261  28.724  1.00  0.00     0.020 A 
ATOM     68  C   UNL A   1      46.273  34.363  30.875  1.00  0.00     0.020 A 
ATOM     69  C   UNL A   1      45.903  35.444  30.072  1.00  0.00     0.054 A 
BRANCH  69  70
ATOM     70  S   UNL A   1      45.801  37.118  30.764  1.00  0.00     0.124 S 
ATOM     71  O   UNL A   1      44.618  37.655  30.093  1.00  0.00    -0.237 OA
ATOM     72  O   UNL A   1      45.650  36.859  32.192  1.00  0.00    -0.237 OA
ATOM     73  O   UNL A   1      47.066  37.736  30.371  1.00  0.00    -0.744 OA
ENDBRANCH  69  70
ENDBRANCH  50  64
BRANCH  51  74
ATOM     74  C   UNL A   1      45.044  23.516  25.632  1.00  0.00    -0.014 A 
ATOM     75  C   UNL A   1      44.658  23.277  24.302  1.00  0.00     0.010 A 
ATOM     76  C   UNL A   1      45.325  22.422  26.473  1.00  0.00     0.010 A 
ATOM     77  C   UNL A   1      44.553  21.968  23.824  1.00  0.00     0.020 A 
ATOM     78  C   UNL A   1      45.241  21.114  25.991  1.00  0.00     0.020 A 
ATOM     79  C   UNL A   1      44.854  20.895  24.668  1.00  0.00     0.054 A 
BRANCH  79  80
ATOM     80  S   UNL A   1      44.756  19.210  24.002  1.00  0.00     0.124 S 
ATOM     81  O   UNL A   1      43.615  18.660  24.726  1.00  0.00    -0.237 OA
ATOM     82  O   UNL A   1      44.546  19.454  22.578  1.00  0.00    -0.237 OA
ATOM     83  O   UNL A   1      46.052  18.628  24.345  1.00  0.00    -0.744 OA
ENDBRANCH  79  80
ENDBRANCH  51  74
BRANCH  63  84
ATOM     84  C   UNL A   1      50.356  28.047  25.995  1.00  0.00    -0.014 A 
ATOM     85  C   UNL A   1      51.313  27.526  26.881  1.00  0.00     0.010 A 
ATOM     86  C   UNL A   1      50.739  28.384  24.683  1.00  0.00     0.010 A 
ATOM     87  C   UNL A   1      52.633  27.344  26.461  1.00  0.00     0.020 A 
ATOM     88  C   UNL A   1      52.053  28.186  24.255  1.00  0.00     0.020 A 
ATOM     89  C   UNL A   1      52.993  27.664  25.147  1.00  0.00     0.054 A 
BRANCH  89  90
ATOM     90  S   UNL A   1      54.697  27.350  24.614  1.00  0.00     0.124 S 
ATOM     91  O   UNL A   1      54.594  26.019  24.022  1.00  0.00    -0.237 OA
ATOM     92  O   UNL A   1      54.938  28.440  23.673  1.00  0.00    -0.237 OA
ATOM     93  O   UNL A   1      55.469  27.419  25.854  1.00  0.00    -0.744 OA
ENDBRANCH  89  90
ENDBRANCH  63  84
ENDBRANCH  37  38
ENDBRANCH  30  32
ENDBRANCH  29  30
ENDBRANCH  28  29
ENDBRANCH   1  28
TORSDOF 20
ENDMDL
MODEL 2
REMARK VINA RESULT:     -10.4      0.740      7.951
REMARK SMILES Cc1cc(OC(F)(F)F)cc2c1O[C@H](C(F)(F)F)C(C(=O)OCCOCCOC(=O)c1ccc(-c3c4nc(c(-c5ccc(S(=O)(=O)[O-])cc5)c5ccc([nH]5)c(-c5ccc(S(=O)(=O)[O-])cc5)c5nc(c(-c6ccc(S(=O)(=O)[O-])cc6)c6ccc3[nH]6)C=C5)C=C4)cc1)=C2
REMARK SMILES IDX 26 1 25 2 24 3 23 4 22 5 20 6 21 7 19 8 1 9 2 10 3 11 12 12
REMARK SMILES IDX 4 13 11 14 13 15 10 16 91 17 14 18 5 19 6 20 7 21 8 22 9 23
REMARK SMILES IDX 15 24 16 25 17 26 18 27 27 28 28 29 29 30 30 31 31 32 32 33
REMARK SMILES IDX 90 34 33 35 89 36 34 37 35 38 36 39 83 40 37 41 88 42 82 43
REMARK SMILES IDX 84 44 38 45 87 46 81 47 80 48 39 50 69 51 50 52 68 53 51 54
REMARK SMILES IDX 54 55 67 56 85 57 52 58 53 59 66 61 86 62 55 63 40 64 41 65
REMARK SMILES IDX 49 66 42 67 48 68 43 69 44 70 45 71 46 72 47 73 70 74 71 75
REMARK SMILES IDX 79 76 72 77 78 78 73 79 74 80 75 81 76 82 77 83 56 84 57 85
REMARK SMILES IDX 65 86 58 87 64 88 59 89 60 90 61 91 62 92 63 93
REMARK H PARENT 84 49 54 60
REMARK Flexibility Score: inf
ROOT
ATOM      1  C   UNL A   1      34.964  32.132  27.996  1.00  0.00     0.202 C 
ENDROOT
BRANCH   1   2
ATOM      2  O   UNL A   1      33.778  31.358  27.809  1.00  0.00    -0.374 OA
BRANCH   2   3
ATOM      3  C   UNL A   1      33.907  30.107  27.136  1.00  0.00     0.202 C 
BRANCH   3   4
ATOM      4  C   UNL A   1      32.873  29.813  26.045  1.00  0.00     0.261 C 
BRANCH   4   5
ATOM      5  O   UNL A   1      32.766  28.404  25.784  1.00  0.00    -0.460 OA
BRANCH   5   6
ATOM      6  C   UNL A   1      33.432  27.983  24.686  1.00  0.00     0.338 C 
ATOM      7  O   UNL A   1      34.137  28.659  23.950  1.00  0.00    -0.246 OA
BRANCH   6   8
ATOM      8  C   UNL A   1      33.301  26.520  24.550  1.00  0.00     0.087 C 
ATOM      9  C   UNL A   1      32.335  21.700  23.017  1.00  0.00     0.048 C 
ATOM     10  C   UNL A   1      33.325  22.392  23.915  1.00  0.00    -0.005 A 
ATOM     11  C   UNL A   1      34.383  21.631  24.453  1.00  0.00     0.054 A 
ATOM     12  C   UNL A   1      33.252  23.765  24.194  1.00  0.00     0.131 A 
ATOM     13  C   UNL A   1      35.350  22.225  25.265  1.00  0.00     0.130 A 
ATOM     14  C   UNL A   1      34.235  24.364  24.983  1.00  0.00     0.021 A 
ATOM     15  O   UNL A   1      32.192  24.461  23.684  1.00  0.00    -0.475 OA
ATOM     16  C   UNL A   1      35.263  23.591  25.531  1.00  0.00     0.058 A 
ATOM     17  C   UNL A   1      34.236  25.800  25.181  1.00  0.00     0.027 C 
ATOM     18  C   UNL A   1      32.198  25.918  23.728  1.00  0.00     0.316 C 
BRANCH  13  19
ATOM     19  O   UNL A   1      36.418  21.608  25.849  1.00  0.00    -0.406 OA
BRANCH  19  20
ATOM     20  C   UNL A   1      37.681  21.738  25.222  1.00  0.00     0.573 C 
ATOM     21  F   UNL A   1      38.424  20.623  25.390  1.00  0.00    -0.132 F 
ATOM     22  F   UNL A   1      37.552  22.003  23.905  1.00  0.00    -0.132 F 
ATOM     23  F   UNL A   1      38.342  22.770  25.795  1.00  0.00    -0.132 F 
ENDBRANCH  19  20
ENDBRANCH  13  19
BRANCH  18  24
ATOM     24  C   UNL A   1      32.179  26.442  22.284  1.00  0.00     0.430 C 
ATOM     25  F   UNL A   1      31.576  25.559  21.453  1.00  0.00    -0.167 F 
ATOM     26  F   UNL A   1      31.501  27.607  22.181  1.00  0.00    -0.167 F 
ATOM     27  F   UNL A   1      33.429  26.655  21.813  1.00  0.00    -0.167 F 
ENDBRANCH  18  24
ENDBRANCH   6   8
ENDBRANCH   5   6
ENDBRANCH   4   5
ENDBRANCH   3   4
ENDBRANCH   2   3
ENDBRANCH   1   2
BRANCH   1  28
ATOM     28  C   UNL A   1      35.841  31.778  29.204  1.00  0.00     0.261 C 
BRANCH  28  29
ATOM     29  O   UNL A   1      37.083  31.167  28.806  1.00  0.00    -0.460 OA
BRANCH  29  30
ATOM     30  C   UNL A   1      37.257  29.895  29.240  1.00  0.00     0.338 C 
ATOM     31  O   UNL A   1      36.425  29.175  29.773  1.00  0.00    -0.246 OA
BRANCH  30  32
ATOM     32  C   UNL A   1      38.578  29.399  28.824  1.00  0.00     0.060 A 
ATOM     33  C   UNL A   1      39.509  29.091  29.825  1.00  0.00     0.016 A 
ATOM     34  C   UNL A   1      38.937  29.354  27.476  1.00  0.00     0.016 A 
ATOM     35  C   UNL A   1      40.822  28.776  29.480  1.00  0.00     0.010 A 
ATOM     36  C   UNL A   1      40.260  29.059  27.134  1.00  0.00     0.010 A 
ATOM     37  C   UNL A   1      41.214  28.805  28.135  1.00  0.00    -0.014 A 
BRANCH  37  38
ATOM     38  C   UNL A   1      42.654  28.743  27.797  1.00  0.00     0.031 A 
ATOM     39  C   UNL A   1      43.214  27.456  27.254  1.00  0.00     0.074 A 
ATOM     40  C   UNL A   1      43.443  29.823  27.938  1.00  0.00     0.049 A 
ATOM     41  N   UNL A   1      44.447  27.168  26.931  1.00  0.00    -0.248 NA
ATOM     42  C   UNL A   1      42.261  26.353  27.041  1.00  0.00     0.031 C 
ATOM     43  C   UNL A   1      43.003  31.139  28.401  1.00  0.00     0.029 A 
ATOM     44  N   UNL A   1      44.786  29.979  27.705  1.00  0.00    -0.354 N 
ATOM     45  C   UNL A   1      44.418  25.856  26.472  1.00  0.00     0.074 A 
ATOM     46  C   UNL A   1      43.051  25.396  26.577  1.00  0.00     0.031 C 
ATOM     47  C   UNL A   1      44.062  31.966  28.431  1.00  0.00     0.029 A 
ATOM     48  C   UNL A   1      45.257  31.232  28.016  1.00  0.00     0.049 A 
ATOM     49  H   UNL A   1      45.358  29.261  27.350  1.00  0.00     0.167 HD
ATOM     50  C   UNL A   1      45.439  25.106  25.999  1.00  0.00     0.031 A 
ATOM     51  C   UNL A   1      46.511  31.724  27.990  1.00  0.00     0.031 A 
ATOM     52  C   UNL A   1      46.799  25.559  25.906  1.00  0.00     0.049 A 
ATOM     53  C   UNL A   1      47.644  30.844  27.536  1.00  0.00     0.074 A 
ATOM     54  C   UNL A   1      47.904  24.863  25.447  1.00  0.00     0.029 A 
ATOM     55  N   UNL A   1      47.240  26.821  26.271  1.00  0.00    -0.354 N 
ATOM     56  N   UNL A   1      47.602  29.601  27.119  1.00  0.00    -0.248 NA
ATOM     57  C   UNL A   1      48.994  31.430  27.548  1.00  0.00     0.031 C 
ATOM     58  C   UNL A   1      49.022  25.692  25.574  1.00  0.00     0.029 A 
ATOM     59  C   UNL A   1      48.604  26.918  26.064  1.00  0.00     0.049 A 
ATOM     60  H   UNL A   1      46.668  27.539  26.624  1.00  0.00     0.167 HD
ATOM     61  C   UNL A   1      48.914  29.263  26.802  1.00  0.00     0.074 A 
ATOM     62  C   UNL A   1      49.725  30.431  27.068  1.00  0.00     0.031 C 
ATOM     63  C   UNL A   1      49.398  28.089  26.330  1.00  0.00     0.031 A 
BRANCH  50  64
ATOM     64  C   UNL A   1      45.138  23.705  25.549  1.00  0.00    -0.014 A 
ATOM     65  C   UNL A   1      44.792  23.444  24.212  1.00  0.00     0.010 A 
ATOM     66  C   UNL A   1      45.305  22.634  26.443  1.00  0.00     0.010 A 
ATOM     67  C   UNL A   1      44.625  22.127  23.775  1.00  0.00     0.020 A 
ATOM     68  C   UNL A   1      45.154  21.315  26.005  1.00  0.00     0.020 A 
ATOM     69  C   UNL A   1      44.819  21.072  24.671  1.00  0.00     0.054 A 
BRANCH  69  70
ATOM     70  S   UNL A   1      44.658  19.374  24.053  1.00  0.00     0.124 S 
ATOM     71  O   UNL A   1      45.919  18.772  24.479  1.00  0.00    -0.237 OA
ATOM     72  O   UNL A   1      43.467  18.898  24.749  1.00  0.00    -0.237 OA
ATOM     73  O   UNL A   1      44.512  19.542  22.608  1.00  0.00    -0.744 OA
ENDBRANCH  69  70
ENDBRANCH  50  64
BRANCH  51  74
ATOM     74  C   UNL A   1      46.762  33.121  28.435  1.00  0.00    -0.014 A 
ATOM     75  C   UNL A   1      46.712  34.187  27.520  1.00  0.00     0.010 A 
ATOM     76  C   UNL A   1      47.032  33.390  29.790  1.00  0.00     0.010 A 
ATOM     77  C   UNL A   1      46.930  35.497  27.954  1.00  0.00     0.020 A 
ATOM     78  C   UNL A   1      47.230  34.701  30.229  1.00  0.00     0.020 A 
ATOM     79  C   UNL A   1      47.179  35.747  29.307  1.00  0.00     0.054 A 
BRANCH  79  80
ATOM     80  S   UNL A   1      47.409  37.464  29.846  1.00  0.00     0.124 S 
ATOM     81  O   UNL A   1      46.082  38.033  29.634  1.00  0.00    -0.237 OA
ATOM     82  O   UNL A   1      47.811  37.297  31.240  1.00  0.00    -0.237 OA
ATOM     83  O   UNL A   1      48.453  37.968  28.957  1.00  0.00    -0.744 OA
ENDBRANCH  79  80
ENDBRANCH  51  74
BRANCH  63  84
ATOM     84  C   UNL A   1      50.870  27.994  26.044  1.00  0.00    -0.014 A 
ATOM     85  C   UNL A   1      51.765  27.523  27.019  1.00  0.00     0.010 A 
ATOM     86  C   UNL A   1      51.340  28.260  24.744  1.00  0.00     0.010 A 
ATOM     87  C   UNL A   1      53.109  27.319  26.698  1.00  0.00     0.020 A 
ATOM     88  C   UNL A   1      52.680  28.040  24.416  1.00  0.00     0.020 A 
ATOM     89  C   UNL A   1      53.557  27.569  25.396  1.00  0.00     0.054 A 
BRANCH  89  90
ATOM     90  S   UNL A   1      55.292  27.228  24.996  1.00  0.00     0.124 S 
ATOM     91  O   UNL A   1      55.586  28.254  24.000  1.00  0.00    -0.237 OA
ATOM     92  O   UNL A   1      55.952  27.399  26.288  1.00  0.00    -0.237 OA
ATOM     93  O   UNL A   1      55.270  25.858  24.487  1.00  0.00    -0.744 OA
ENDBRANCH  89  90
ENDBRANCH  63  84
ENDBRANCH  37  38
ENDBRANCH  30  32
ENDBRANCH  29  30
ENDBRANCH  28  29
ENDBRANCH   1  28
TORSDOF 20
ENDMDL
MODEL 3
REMARK VINA RESULT:     -10.4      3.221      8.866
REMARK SMILES Cc1cc(OC(F)(F)F)cc2c1O[C@H](C(F)(F)F)C(C(=O)OCCOCCOC(=O)c1ccc(-c3c4nc(c(-c5ccc(S(=O)(=O)[O-])cc5)c5ccc([nH]5)c(-c5ccc(S(=O)(=O)[O-])cc5)c5nc(c(-c6ccc(S(=O)(=O)[O-])cc6)c6ccc3[nH]6)C=C5)C=C4)cc1)=C2
REMARK SMILES IDX 26 1 25 2 24 3 23 4 22 5 20 6 21 7 19 8 1 9 2 10 3 11 12 12
REMARK SMILES IDX 4 13 11 14 13 15 10 16 91 17 14 18 5 19 6 20 7 21 8 22 9 23
REMARK SMILES IDX 15 24 16 25 17 26 18 27 27 28 28 29 29 30 30 31 31 32 32 33
REMARK SMILES IDX 90 34 33 35 89 36 34 37 35 38 36 39 83 40 37 41 88 42 82 43
REMARK SMILES IDX 84 44 38 45 87 46 81 47 80 48 39 50 69 51 50 52 68 53 51 54
REMARK SMILES IDX 54 55 67 56 85 57 52 58 53 59 66 61 86 62 55 63 40 64 41 65
REMARK SMILES IDX 49 66 42 67 48 68 43 69 44 70 45 71 46 72 47 73 70 74 71 75
REMARK SMILES IDX 79 76 72 77 78 78 73 79 74 80 75 81 76 82 77 83 56 84 57 85
REMARK SMILES IDX 65 86 58 87 64 88 59 89 60 90 61 91 62 92 63 93
REMARK H PARENT 84 49 54 60
REMARK Flexibility Score: inf
ROOT
ATOM      1  C   UNL A   1      31.745  30.562  25.661  1.00  0.00     0.202 C 
ENDROOT
BRANCH   1   2
ATOM      2  O   UNL A   1      31.670  29.345  24.915  1.00  0.00    -0.374 OA
BRANCH   2   3
ATOM      3  C   UNL A   1      32.804  28.984  24.129  1.00  0.00     0.202 C 
BRANCH   3   4
ATOM      4  C   UNL A   1      32.526  28.613  22.669  1.00  0.00     0.261 C 
BRANCH   4   5
ATOM      5  O   UNL A   1      31.895  27.326  22.562  1.00  0.00    -0.460 OA
BRANCH   5   6
ATOM      6  C   UNL A   1      32.733  26.314  22.242  1.00  0.00     0.338 C 
ATOM      7  O   UNL A   1      33.246  26.102  21.153  1.00  0.00    -0.246 OA
BRANCH   6   8
ATOM      8  C   UNL A   1      33.065  25.536  23.450  1.00  0.00     0.087 C 
ATOM      9  C   UNL A   1      33.082  22.437  27.563  1.00  0.00     0.048 C 
ATOM     10  C   UNL A   1      34.093  22.975  26.586  1.00  0.00    -0.005 A 
ATOM     11  C   UNL A   1      35.413  22.484  26.653  1.00  0.00     0.054 A 
ATOM     12  C   UNL A   1      33.753  23.907  25.593  1.00  0.00     0.131 A 
ATOM     13  C   UNL A   1      36.384  22.920  25.752  1.00  0.00     0.130 A 
ATOM     14  C   UNL A   1      34.718  24.321  24.673  1.00  0.00     0.021 A 
ATOM     15  O   UNL A   1      32.473  24.385  25.582  1.00  0.00    -0.475 OA
ATOM     16  C   UNL A   1      36.030  23.846  24.770  1.00  0.00     0.058 A 
ATOM     17  C   UNL A   1      34.352  25.191  23.574  1.00  0.00     0.027 C 
ATOM     18  C   UNL A   1      31.999  25.152  24.437  1.00  0.00     0.316 C 
BRANCH  13  19
ATOM     19  O   UNL A   1      37.692  22.532  25.707  1.00  0.00    -0.406 OA
BRANCH  19  20
ATOM     20  C   UNL A   1      38.623  23.252  26.493  1.00  0.00     0.573 C 
ATOM     21  F   UNL A   1      38.000  24.149  27.286  1.00  0.00    -0.132 F 
ATOM     22  F   UNL A   1      39.374  22.423  27.249  1.00  0.00    -0.132 F 
ATOM     23  F   UNL A   1      39.452  23.930  25.667  1.00  0.00    -0.132 F 
ENDBRANCH  19  20
ENDBRANCH  13  19
BRANCH  18  24
ATOM     24  C   UNL A   1      30.840  24.380  23.789  1.00  0.00     0.430 C 
ATOM     25  F   UNL A   1      29.859  25.222  23.385  1.00  0.00    -0.167 F 
ATOM     26  F   UNL A   1      31.243  23.692  22.696  1.00  0.00    -0.167 F 
ATOM     27  F   UNL A   1      30.287  23.493  24.647  1.00  0.00    -0.167 F 
ENDBRANCH  18  24
ENDBRANCH   6   8
ENDBRANCH   5   6
ENDBRANCH   4   5
ENDBRANCH   3   4
ENDBRANCH   2   3
ENDBRANCH   1   2
BRANCH   1  28
ATOM     28  C   UNL A   1      32.172  30.450  27.130  1.00  0.00     0.261 C 
BRANCH  28  29
ATOM     29  O   UNL A   1      33.603  30.508  27.280  1.00  0.00    -0.460 OA
BRANCH  29  30
ATOM     30  C   UNL A   1      34.193  29.327  27.583  1.00  0.00     0.338 C 
ATOM     31  O   UNL A   1      33.748  28.206  27.382  1.00  0.00    -0.246 OA
BRANCH  30  32
ATOM     32  C   UNL A   1      35.569  29.557  28.051  1.00  0.00     0.060 A 
ATOM     33  C   UNL A   1      36.537  29.902  27.099  1.00  0.00     0.016 A 
ATOM     34  C   UNL A   1      35.926  29.319  29.378  1.00  0.00     0.016 A 
ATOM     35  C   UNL A   1      37.880  29.969  27.466  1.00  0.00     0.010 A 
ATOM     36  C   UNL A   1      37.276  29.365  29.740  1.00  0.00     0.010 A 
ATOM     37  C   UNL A   1      38.259  29.654  28.777  1.00  0.00    -0.014 A 
BRANCH  37  38
ATOM     38  C   UNL A   1      39.692  29.459  29.092  1.00  0.00     0.031 A 
ATOM     39  C   UNL A   1      40.325  28.129  28.787  1.00  0.00     0.074 A 
ATOM     40  C   UNL A   1      40.427  30.460  29.609  1.00  0.00     0.049 A 
ATOM     41  N   UNL A   1      41.548  27.727  29.015  1.00  0.00    -0.248 NA
ATOM     42  C   UNL A   1      39.472  27.121  28.133  1.00  0.00     0.031 C 
ATOM     43  C   UNL A   1      39.940  31.809  29.895  1.00  0.00     0.029 A 
ATOM     44  N   UNL A   1      41.747  30.490  29.987  1.00  0.00    -0.354 N 
ATOM     45  C   UNL A   1      41.613  26.426  28.530  1.00  0.00     0.074 A 
ATOM     46  C   UNL A   1      40.304  26.096  28.014  1.00  0.00     0.031 C 
ATOM     47  C   UNL A   1      40.946  32.533  30.417  1.00  0.00     0.029 A 
ATOM     48  C   UNL A   1      42.137  31.692  30.527  1.00  0.00     0.049 A 
ATOM     49  H   UNL A   1      42.355  29.724  29.881  1.00  0.00     0.167 HD
ATOM     50  C   UNL A   1      42.673  25.586  28.512  1.00  0.00     0.031 A 
ATOM     51  C   UNL A   1      43.313  32.065  31.067  1.00  0.00     0.031 A 
ATOM     52  C   UNL A   1      43.970  25.910  29.036  1.00  0.00     0.049 A 
ATOM     53  C   UNL A   1      44.455  31.085  31.109  1.00  0.00     0.074 A 
ATOM     54  C   UNL A   1      45.103  25.115  29.070  1.00  0.00     0.029 A 
ATOM     55  N   UNL A   1      44.311  27.123  29.613  1.00  0.00    -0.354 N 
ATOM     56  N   UNL A   1      44.496  29.853  30.659  1.00  0.00    -0.248 NA
ATOM     57  C   UNL A   1      45.708  31.541  31.729  1.00  0.00     0.031 C 
ATOM     58  C   UNL A   1      46.119  25.836  29.704  1.00  0.00     0.029 A 
ATOM     59  C   UNL A   1      45.632  27.093  30.021  1.00  0.00     0.049 A 
ATOM     60  H   UNL A   1      43.703  27.890  29.716  1.00  0.00     0.167 HD
ATOM     61  C   UNL A   1      45.782  29.395  30.925  1.00  0.00     0.074 A 
ATOM     62  C   UNL A   1      46.490  30.481  31.569  1.00  0.00     0.031 C 
ATOM     63  C   UNL A   1      46.325  28.183  30.656  1.00  0.00     0.031 A 
BRANCH  50  64
ATOM     64  C   UNL A   1      42.482  24.222  27.913  1.00  0.00    -0.014 A 
ATOM     65  C   UNL A   1      42.585  24.031  26.524  1.00  0.00     0.010 A 
ATOM     66  C   UNL A   1      42.306  23.109  28.754  1.00  0.00     0.010 A 
ATOM     67  C   UNL A   1      42.522  22.744  25.986  1.00  0.00     0.020 A 
ATOM     68  C   UNL A   1      42.257  21.819  28.219  1.00  0.00     0.020 A 
ATOM     69  C   UNL A   1      42.370  21.645  26.838  1.00  0.00     0.054 A 
BRANCH  69  70
ATOM     70  S   UNL A   1      42.356  19.984  26.110  1.00  0.00     0.124 S 
ATOM     71  O   UNL A   1      43.551  20.009  25.268  1.00  0.00    -0.237 OA
ATOM     72  O   UNL A   1      42.434  19.125  27.287  1.00  0.00    -0.237 OA
ATOM     73  O   UNL A   1      41.090  19.933  25.381  1.00  0.00    -0.744 OA
ENDBRANCH  69  70
ENDBRANCH  50  64
BRANCH  51  74
ATOM     74  C   UNL A   1      43.460  33.429  31.640  1.00  0.00    -0.014 A 
ATOM     75  C   UNL A   1      44.002  34.476  30.874  1.00  0.00     0.010 A 
ATOM     76  C   UNL A   1      43.033  33.690  32.955  1.00  0.00     0.010 A 
ATOM     77  C   UNL A   1      44.117  35.759  31.416  1.00  0.00     0.020 A 
ATOM     78  C   UNL A   1      43.127  34.976  33.492  1.00  0.00     0.020 A 
ATOM     79  C   UNL A   1      43.671  36.003  32.719  1.00  0.00     0.054 A 
BRANCH  79  80
ATOM     80  S   UNL A   1      43.788  37.690  33.376  1.00  0.00     0.124 S 
ATOM     81  O   UNL A   1      43.561  38.501  32.184  1.00  0.00    -0.237 OA
ATOM     82  O   UNL A   1      42.717  37.708  34.368  1.00  0.00    -0.237 OA
ATOM     83  O   UNL A   1      45.141  37.753  33.925  1.00  0.00    -0.744 OA
ENDBRANCH  79  80
ENDBRANCH  51  74
BRANCH  63  84
ATOM     84  C   UNL A   1      47.761  27.952  31.030  1.00  0.00    -0.014 A 
ATOM     85  C   UNL A   1      48.101  27.388  32.271  1.00  0.00     0.010 A 
ATOM     86  C   UNL A   1      48.771  28.186  30.077  1.00  0.00     0.010 A 
ATOM     87  C   UNL A   1      49.430  27.061  32.554  1.00  0.00     0.020 A 
ATOM     88  C   UNL A   1      50.097  27.843  30.351  1.00  0.00     0.020 A 
ATOM     89  C   UNL A   1      50.418  27.281  31.588  1.00  0.00     0.054 A 
BRANCH  89  90
ATOM     90  S   UNL A   1      52.120  26.781  31.961  1.00  0.00     0.124 S 
ATOM     91  O   UNL A   1      52.175  25.432  31.404  1.00  0.00    -0.237 OA
ATOM     92  O   UNL A   1      52.906  27.787  31.251  1.00  0.00    -0.237 OA
ATOM     93  O   UNL A   1      52.194  26.852  33.419  1.00  0.00    -0.744 OA
ENDBRANCH  89  90
ENDBRANCH  63  84
ENDBRANCH  37  38
ENDBRANCH  30  32
ENDBRANCH  29  30
ENDBRANCH  28  29
ENDBRANCH   1  28
TORSDOF 20
ENDMDL
