MODEL 1
REMARK VINA RESULT:     -10.8      0.000      0.000
REMARK SMILES CS(=O)(=O)c1ccc(-c2cc(Cl)cnc2-c2ccc(C(=O)OCCOCCOC(=O)c3ccc(-c4c5nc(c(-c6ccc(S(=O)(=O)[O-])cc6)c6ccc([nH]6)c(-c6ccc(S(=O)(=O)[O-])cc6)c6nc(c(-c7ccc(S(=O)(=O)[O-])cc7)c7ccc4[nH]7)C=C6)C=C5)cc3)nc2)cc1
REMARK SMILES IDX 25 1 24 2 23 3 22 4 20 5 21 6 19 7 16 8 17 9 92 10 18 11
REMARK SMILES IDX 91 12 15 13 9 14 10 15 11 16 14 17 12 18 13 19 8 20 5 21
REMARK SMILES IDX 6 22 94 23 7 24 93 25 2 26 1 27 3 28 4 29 26 30 27 31 28 32
REMARK SMILES IDX 29 33 30 34 31 35 32 36 90 37 33 38 89 39 34 40 35 41 36 42
REMARK SMILES IDX 83 43 37 44 88 45 82 46 84 47 38 48 87 49 81 50 80 51 39 53
REMARK SMILES IDX 69 54 50 55 68 56 51 57 54 58 67 59 85 60 52 61 53 62 66 64
REMARK SMILES IDX 86 65 55 66 40 67 41 68 49 69 42 70 48 71 43 72 44 73 45 74
REMARK SMILES IDX 46 75 47 76 70 77 71 78 79 79 72 80 78 81 73 82 74 83 75 84
REMARK SMILES IDX 76 85 77 86 56 87 57 88 65 89 58 90 64 91 59 92 60 93 61 94
REMARK SMILES IDX 62 95 63 96
REMARK H PARENT 84 52 54 63
REMARK Flexibility Score: inf
ROOT
ATOM      1  O   UNL A   1      32.712  29.477  26.240  1.00  0.00    -0.374 OA
ENDROOT
BRANCH   1   2
ATOM      2  C   UNL A   1      33.422  28.755  25.234  1.00  0.00     0.202 C 
BRANCH   2   3
ATOM      3  C   UNL A   1      32.588  28.201  24.076  1.00  0.00     0.261 C 
BRANCH   3   4
ATOM      4  O   UNL A   1      32.004  26.939  24.433  1.00  0.00    -0.459 OA
BRANCH   4   5
ATOM      5  C   UNL A   1      32.126  25.968  23.495  1.00  0.00     0.356 C 
ATOM      6  O   UNL A   1      31.538  25.913  22.425  1.00  0.00    -0.244 OA
BRANCH   5   7
ATOM      7  C   UNL A   1      33.181  25.000  23.912  1.00  0.00     0.148 A 
ATOM      8  C   UNL A   1      35.299  23.536  24.857  1.00  0.00     0.019 A 
ATOM      9  C   UNL A   1      35.091  23.642  23.474  1.00  0.00     0.014 A 
ATOM     10  C   UNL A   1      34.324  24.072  25.690  1.00  0.00     0.122 A 
ATOM     11  C   UNL A   1      34.018  24.387  22.987  1.00  0.00     0.037 A 
ATOM     12  N   UNL A   1      33.285  24.812  25.255  1.00  0.00    -0.249 NA
BRANCH   8  13
ATOM     13  C   UNL A   1      36.586  23.127  25.426  1.00  0.00     0.080 A 
ATOM     14  C   UNL A   1      36.925  21.757  25.550  1.00  0.00     0.010 A 
ATOM     15  C   UNL A   1      38.205  21.452  26.035  1.00  0.00     0.033 A 
ATOM     16  C   UNL A   1      39.086  22.480  26.354  1.00  0.00     0.060 A 
ATOM     17  N   UNL A   1      37.443  24.140  25.719  1.00  0.00    -0.254 NA
ATOM     18  Cl  UNL A   1      40.664  22.127  26.926  1.00  0.00    -0.083 Cl
ATOM     19  C   UNL A   1      38.668  23.790  26.182  1.00  0.00     0.132 A 
BRANCH  14  20
ATOM     20  C   UNL A   1      35.994  20.678  25.166  1.00  0.00    -0.016 A 
ATOM     21  C   UNL A   1      34.233  18.549  24.653  1.00  0.00     0.067 A 
ATOM     22  C   UNL A   1      33.720  19.781  25.053  1.00  0.00     0.021 A 
ATOM     23  C   UNL A   1      35.608  18.373  24.482  1.00  0.00     0.021 A 
ATOM     24  C   UNL A   1      34.600  20.839  25.299  1.00  0.00     0.010 A 
ATOM     25  C   UNL A   1      36.481  19.435  24.736  1.00  0.00     0.010 A 
BRANCH  21  26
ATOM     26  S   UNL A   1      33.129  17.194  24.319  1.00  0.00     0.175 S 
ATOM     27  C   UNL A   1      33.851  15.783  25.118  1.00  0.00     0.163 C 
ATOM     28  O   UNL A   1      33.177  16.955  22.890  1.00  0.00    -0.224 OA
ATOM     29  O   UNL A   1      31.884  17.515  24.990  1.00  0.00    -0.224 OA
ENDBRANCH  21  26
ENDBRANCH  14  20
ENDBRANCH   8  13
ENDBRANCH   5   7
ENDBRANCH   4   5
ENDBRANCH   3   4
ENDBRANCH   2   3
ENDBRANCH   1   2
BRANCH   1  30
ATOM     30  C   UNL A   1      33.412  29.811  27.440  1.00  0.00     0.202 C 
BRANCH  30  31
ATOM     31  C   UNL A   1      34.911  30.109  27.315  1.00  0.00     0.261 C 
BRANCH  31  32
ATOM     32  O   UNL A   1      35.724  29.128  27.983  1.00  0.00    -0.460 OA
BRANCH  32  33
ATOM     33  C   UNL A   1      36.587  29.628  28.898  1.00  0.00     0.338 C 
ATOM     34  O   UNL A   1      36.309  30.259  29.909  1.00  0.00    -0.246 OA
BRANCH  33  35
ATOM     35  C   UNL A   1      37.949  29.145  28.611  1.00  0.00     0.060 A 
ATOM     36  C   UNL A   1      38.653  28.503  29.640  1.00  0.00     0.016 A 
ATOM     37  C   UNL A   1      38.552  29.378  27.374  1.00  0.00     0.016 A 
ATOM     38  C   UNL A   1      39.982  28.128  29.451  1.00  0.00     0.010 A 
ATOM     39  C   UNL A   1      39.887  29.013  27.191  1.00  0.00     0.010 A 
ATOM     40  C   UNL A   1      40.617  28.419  28.238  1.00  0.00    -0.014 A 
BRANCH  40  41
ATOM     41  C   UNL A   1      42.084  28.264  28.095  1.00  0.00     0.031 A 
ATOM     42  C   UNL A   1      42.963  29.436  28.432  1.00  0.00     0.074 A 
ATOM     43  C   UNL A   1      42.621  27.118  27.641  1.00  0.00     0.049 A 
ATOM     44  N   UNL A   1      44.244  29.596  28.229  1.00  0.00    -0.248 NA
ATOM     45  C   UNL A   1      42.304  30.588  29.073  1.00  0.00     0.031 C 
ATOM     46  C   UNL A   1      41.880  25.895  27.342  1.00  0.00     0.029 A 
ATOM     47  N   UNL A   1      43.921  26.812  27.329  1.00  0.00    -0.354 N 
ATOM     48  C   UNL A   1      44.541  30.873  28.692  1.00  0.00     0.074 A 
ATOM     49  C   UNL A   1      43.303  31.450  29.171  1.00  0.00     0.031 C 
ATOM     50  C   UNL A   1      42.736  24.973  26.866  1.00  0.00     0.029 A 
ATOM     51  C   UNL A   1      44.073  25.560  26.783  1.00  0.00     0.049 A 
ATOM     52  H   UNL A   1      44.674  27.428  27.482  1.00  0.00     0.167 HD
ATOM     53  C   UNL A   1      45.737  31.508  28.711  1.00  0.00     0.031 A 
ATOM     54  C   UNL A   1      45.159  24.970  26.243  1.00  0.00     0.031 A 
ATOM     55  C   UNL A   1      46.959  30.931  28.222  1.00  0.00     0.049 A 
ATOM     56  C   UNL A   1      46.464  25.723  26.202  1.00  0.00     0.074 A 
ATOM     57  C   UNL A   1      48.225  31.489  28.198  1.00  0.00     0.029 A 
ATOM     58  N   UNL A   1      47.068  29.664  27.666  1.00  0.00    -0.354 N 
ATOM     59  N   UNL A   1      46.732  26.931  26.638  1.00  0.00    -0.248 NA
ATOM     60  C   UNL A   1      47.614  25.032  25.600  1.00  0.00     0.031 C 
ATOM     61  C   UNL A   1      49.089  30.579  27.580  1.00  0.00     0.029 A 
ATOM     62  C   UNL A   1      48.376  29.429  27.282  1.00  0.00     0.049 A 
ATOM     63  H   UNL A   1      46.324  29.027  27.563  1.00  0.00     0.167 HD
ATOM     64  C   UNL A   1      48.090  27.127  26.403  1.00  0.00     0.074 A 
ATOM     65  C   UNL A   1      48.586  25.917  25.782  1.00  0.00     0.031 C 
ATOM     66  C   UNL A   1      48.857  28.208  26.684  1.00  0.00     0.031 A 
BRANCH  53  67
ATOM     67  C   UNL A   1      45.769  32.918  29.239  1.00  0.00    -0.014 A 
ATOM     68  C   UNL A   1      45.593  34.023  28.387  1.00  0.00     0.010 A 
ATOM     69  C   UNL A   1      45.949  33.137  30.617  1.00  0.00     0.010 A 
ATOM     70  C   UNL A   1      45.638  35.323  28.899  1.00  0.00     0.020 A 
ATOM     71  C   UNL A   1      45.964  34.433  31.137  1.00  0.00     0.020 A 
ATOM     72  C   UNL A   1      45.827  35.520  30.271  1.00  0.00     0.054 A 
BRANCH  72  73
ATOM     73  S   UNL A   1      45.864  37.216  30.911  1.00  0.00     0.124 S 
ATOM     74  O   UNL A   1      44.528  37.696  30.566  1.00  0.00    -0.237 OA
ATOM     75  O   UNL A   1      46.110  37.016  32.336  1.00  0.00    -0.237 OA
ATOM     76  O   UNL A   1      46.959  37.843  30.174  1.00  0.00    -0.744 OA
ENDBRANCH  72  73
ENDBRANCH  53  67
BRANCH  54  77
ATOM     77  C   UNL A   1      45.053  23.598  25.674  1.00  0.00    -0.014 A 
ATOM     78  C   UNL A   1      44.386  23.380  24.456  1.00  0.00     0.010 A 
ATOM     79  C   UNL A   1      45.622  22.501  26.347  1.00  0.00     0.010 A 
ATOM     80  C   UNL A   1      44.276  22.090  23.930  1.00  0.00     0.020 A 
ATOM     81  C   UNL A   1      45.540  21.214  25.809  1.00  0.00     0.020 A 
ATOM     82  C   UNL A   1      44.857  21.015  24.609  1.00  0.00     0.054 A 
BRANCH  82  83
ATOM     83  S   UNL A   1      44.745  19.358  23.878  1.00  0.00     0.124 S 
ATOM     84  O   UNL A   1      44.580  19.662  22.460  1.00  0.00    -0.237 OA
ATOM     85  O   UNL A   1      46.027  18.763  24.253  1.00  0.00    -0.237 OA
ATOM     86  O   UNL A   1      43.578  18.774  24.535  1.00  0.00    -0.744 OA
ENDBRANCH  82  83
ENDBRANCH  54  77
BRANCH  66  87
ATOM     87  C   UNL A   1      50.333  28.122  26.396  1.00  0.00    -0.014 A 
ATOM     88  C   UNL A   1      50.873  28.569  25.178  1.00  0.00     0.010 A 
ATOM     89  C   UNL A   1      51.201  27.673  27.409  1.00  0.00     0.010 A 
ATOM     90  C   UNL A   1      52.257  28.557  24.975  1.00  0.00     0.020 A 
ATOM     91  C   UNL A   1      52.585  27.685  27.219  1.00  0.00     0.020 A 
ATOM     92  C   UNL A   1      53.104  28.120  26.000  1.00  0.00     0.054 A 
BRANCH  92  93
ATOM     93  S   UNL A   1      54.898  28.189  25.741  1.00  0.00     0.124 S 
ATOM     94  O   UNL A   1      55.017  27.821  24.333  1.00  0.00    -0.237 OA
ATOM     95  O   UNL A   1      55.215  29.580  26.056  1.00  0.00    -0.237 OA
ATOM     96  O   UNL A   1      55.424  27.208  26.688  1.00  0.00    -0.744 OA
ENDBRANCH  92  93
ENDBRANCH  66  87
ENDBRANCH  40  41
ENDBRANCH  33  35
ENDBRANCH  32  33
ENDBRANCH  31  32
ENDBRANCH  30  31
ENDBRANCH   1  30
TORSDOF 20
ENDMDL
MODEL 2
REMARK VINA RESULT:     -10.6      2.206      3.144
REMARK SMILES CS(=O)(=O)c1ccc(-c2cc(Cl)cnc2-c2ccc(C(=O)OCCOCCOC(=O)c3ccc(-c4c5nc(c(-c6ccc(S(=O)(=O)[O-])cc6)c6ccc([nH]6)c(-c6ccc(S(=O)(=O)[O-])cc6)c6nc(c(-c7ccc(S(=O)(=O)[O-])cc7)c7ccc4[nH]7)C=C6)C=C5)cc3)nc2)cc1
REMARK SMILES IDX 25 1 24 2 23 3 22 4 20 5 21 6 19 7 16 8 17 9 92 10 18 11
REMARK SMILES IDX 91 12 15 13 9 14 10 15 11 16 14 17 12 18 13 19 8 20 5 21
REMARK SMILES IDX 6 22 94 23 7 24 93 25 2 26 1 27 3 28 4 29 26 30 27 31 28 32
REMARK SMILES IDX 29 33 30 34 31 35 32 36 90 37 33 38 89 39 34 40 35 41 36 42
REMARK SMILES IDX 83 43 37 44 88 45 82 46 84 47 38 48 87 49 81 50 80 51 39 53
REMARK SMILES IDX 69 54 50 55 68 56 51 57 54 58 67 59 85 60 52 61 53 62 66 64
REMARK SMILES IDX 86 65 55 66 40 67 41 68 49 69 42 70 48 71 43 72 44 73 45 74
REMARK SMILES IDX 46 75 47 76 70 77 71 78 79 79 72 80 78 81 73 82 74 83 75 84
REMARK SMILES IDX 76 85 77 86 56 87 57 88 65 89 58 90 64 91 59 92 60 93 61 94
REMARK SMILES IDX 62 95 63 96
REMARK H PARENT 84 52 54 63
REMARK Flexibility Score: inf
ROOT
ATOM      1  O   UNL A   1      32.685  29.481  27.012  1.00  0.00    -0.374 OA
ENDROOT
BRANCH   1   2
ATOM      2  C   UNL A   1      31.875  29.041  25.921  1.00  0.00     0.202 C 
BRANCH   2   3
ATOM      3  C   UNL A   1      31.574  27.541  25.859  1.00  0.00     0.261 C 
BRANCH   3   4
ATOM      4  O   UNL A   1      32.254  26.936  24.749  1.00  0.00    -0.459 OA
BRANCH   4   5
ATOM      5  C   UNL A   1      33.360  26.223  25.077  1.00  0.00     0.356 C 
ATOM      6  O   UNL A   1      34.300  26.612  25.753  1.00  0.00    -0.244 OA
BRANCH   5   7
ATOM      7  C   UNL A   1      33.224  24.827  24.571  1.00  0.00     0.148 A 
ATOM      8  C   UNL A   1      33.128  22.147  23.999  1.00  0.00     0.019 A 
ATOM      9  C   UNL A   1      33.933  22.993  23.223  1.00  0.00     0.014 A 
ATOM     10  C   UNL A   1      32.301  22.744  24.943  1.00  0.00     0.122 A 
ATOM     11  C   UNL A   1      33.989  24.357  23.511  1.00  0.00     0.037 A 
ATOM     12  N   UNL A   1      32.342  24.054  25.259  1.00  0.00    -0.249 NA
BRANCH   8  13
ATOM     13  C   UNL A   1      33.316  20.693  24.023  1.00  0.00     0.080 A 
ATOM     14  C   UNL A   1      34.467  20.118  24.613  1.00  0.00     0.010 A 
ATOM     15  C   UNL A   1      34.534  18.718  24.662  1.00  0.00     0.033 A 
ATOM     16  C   UNL A   1      33.484  17.959  24.157  1.00  0.00     0.060 A 
ATOM     17  N   UNL A   1      32.277  19.963  23.540  1.00  0.00    -0.254 NA
ATOM     18  Cl  UNL A   1      33.537  16.245  24.228  1.00  0.00    -0.083 Cl
ATOM     19  C   UNL A   1      32.391  18.615  23.613  1.00  0.00     0.132 A 
BRANCH  14  20
ATOM     20  C   UNL A   1      35.553  20.938  25.185  1.00  0.00    -0.016 A 
ATOM     21  C   UNL A   1      37.583  22.652  26.103  1.00  0.00     0.067 A 
ATOM     22  C   UNL A   1      36.285  22.805  26.587  1.00  0.00     0.021 A 
ATOM     23  C   UNL A   1      37.884  21.641  25.187  1.00  0.00     0.021 A 
ATOM     24  C   UNL A   1      35.281  21.944  26.134  1.00  0.00     0.010 A 
ATOM     25  C   UNL A   1      36.873  20.789  24.734  1.00  0.00     0.010 A 
BRANCH  21  26
ATOM     26  S   UNL A   1      38.878  23.726  26.679  1.00  0.00     0.175 S 
ATOM     27  C   UNL A   1      40.254  22.665  27.036  1.00  0.00     0.163 C 
ATOM     28  O   UNL A   1      38.428  24.290  27.936  1.00  0.00    -0.224 OA
ATOM     29  O   UNL A   1      39.228  24.573  25.555  1.00  0.00    -0.224 OA
ENDBRANCH  21  26
ENDBRANCH  14  20
ENDBRANCH   8  13
ENDBRANCH   5   7
ENDBRANCH   4   5
ENDBRANCH   3   4
ENDBRANCH   2   3
ENDBRANCH   1   2
BRANCH   1  30
ATOM     30  C   UNL A   1      34.064  29.751  26.751  1.00  0.00     0.202 C 
BRANCH  30  31
ATOM     31  C   UNL A   1      34.852  30.482  27.843  1.00  0.00     0.261 C 
BRANCH  31  32
ATOM     32  O   UNL A   1      36.266  30.234  27.760  1.00  0.00    -0.460 OA
BRANCH  32  33
ATOM     33  C   UNL A   1      36.821  29.714  28.880  1.00  0.00     0.338 C 
ATOM     34  O   UNL A   1      36.270  29.517  29.955  1.00  0.00    -0.246 OA
BRANCH  33  35
ATOM     35  C   UNL A   1      38.178  29.225  28.580  1.00  0.00     0.060 A 
ATOM     36  C   UNL A   1      38.919  28.648  29.622  1.00  0.00     0.016 A 
ATOM     37  C   UNL A   1      38.742  29.390  27.313  1.00  0.00     0.016 A 
ATOM     38  C   UNL A   1      40.244  28.272  29.414  1.00  0.00     0.010 A 
ATOM     39  C   UNL A   1      40.073  29.024  27.111  1.00  0.00     0.010 A 
ATOM     40  C   UNL A   1      40.840  28.496  28.168  1.00  0.00    -0.014 A 
BRANCH  40  41
ATOM     41  C   UNL A   1      42.303  28.344  27.989  1.00  0.00     0.031 A 
ATOM     42  C   UNL A   1      43.186  29.528  28.274  1.00  0.00     0.074 A 
ATOM     43  C   UNL A   1      42.833  27.190  27.548  1.00  0.00     0.049 A 
ATOM     44  N   UNL A   1      44.460  29.688  28.033  1.00  0.00    -0.248 NA
ATOM     45  C   UNL A   1      42.539  30.691  28.905  1.00  0.00     0.031 C 
ATOM     46  C   UNL A   1      42.090  25.957  27.298  1.00  0.00     0.029 A 
ATOM     47  N   UNL A   1      44.126  26.881  27.209  1.00  0.00    -0.354 N 
ATOM     48  C   UNL A   1      44.764  30.977  28.457  1.00  0.00     0.074 A 
ATOM     49  C   UNL A   1      43.537  31.560  28.955  1.00  0.00     0.031 C 
ATOM     50  C   UNL A   1      42.937  25.028  26.821  1.00  0.00     0.029 A 
ATOM     51  C   UNL A   1      44.269  25.617  26.689  1.00  0.00     0.049 A 
ATOM     52  H   UNL A   1      44.880  27.504  27.327  1.00  0.00     0.167 HD
ATOM     53  C   UNL A   1      45.957  31.617  28.428  1.00  0.00     0.031 A 
ATOM     54  C   UNL A   1      45.343  25.019  26.134  1.00  0.00     0.031 A 
ATOM     55  C   UNL A   1      47.168  31.032  27.921  1.00  0.00     0.049 A 
ATOM     56  C   UNL A   1      46.643  25.775  26.040  1.00  0.00     0.074 A 
ATOM     57  C   UNL A   1      48.431  31.594  27.850  1.00  0.00     0.029 A 
ATOM     58  N   UNL A   1      47.268  29.753  27.393  1.00  0.00    -0.354 N 
ATOM     59  N   UNL A   1      46.917  26.994  26.440  1.00  0.00    -0.248 NA
ATOM     60  C   UNL A   1      47.779  25.075  25.424  1.00  0.00     0.031 C 
ATOM     61  C   UNL A   1      49.282  30.674  27.231  1.00  0.00     0.029 A 
ATOM     62  C   UNL A   1      48.566  29.514  26.979  1.00  0.00     0.049 A 
ATOM     63  H   UNL A   1      46.524  29.111  27.325  1.00  0.00     0.167 HD
ATOM     64  C   UNL A   1      48.267  27.191  26.164  1.00  0.00     0.074 A 
ATOM     65  C   UNL A   1      48.752  25.967  25.559  1.00  0.00     0.031 C 
ATOM     66  C   UNL A   1      49.036  28.281  26.399  1.00  0.00     0.031 A 
BRANCH  53  67
ATOM     67  C   UNL A   1      45.996  33.039  28.922  1.00  0.00    -0.014 A 
ATOM     68  C   UNL A   1      46.285  33.340  30.265  1.00  0.00     0.010 A 
ATOM     69  C   UNL A   1      45.769  34.092  28.017  1.00  0.00     0.010 A 
ATOM     70  C   UNL A   1      46.306  34.668  30.702  1.00  0.00     0.020 A 
ATOM     71  C   UNL A   1      45.819  35.421  28.443  1.00  0.00     0.020 A 
ATOM     72  C   UNL A   1      46.069  35.700  29.788  1.00  0.00     0.054 A 
BRANCH  72  73
ATOM     73  S   UNL A   1      46.118  37.413  30.379  1.00  0.00     0.124 S 
ATOM     74  O   UNL A   1      45.288  38.096  29.389  1.00  0.00    -0.237 OA
ATOM     75  O   UNL A   1      45.541  37.309  31.716  1.00  0.00    -0.237 OA
ATOM     76  O   UNL A   1      47.538  37.755  30.341  1.00  0.00    -0.744 OA
ENDBRANCH  72  73
ENDBRANCH  53  67
BRANCH  54  77
ATOM     77  C   UNL A   1      45.228  23.633  25.602  1.00  0.00    -0.014 A 
ATOM     78  C   UNL A   1      45.615  22.533  26.387  1.00  0.00     0.010 A 
ATOM     79  C   UNL A   1      44.726  23.405  24.308  1.00  0.00     0.010 A 
ATOM     80  C   UNL A   1      45.518  21.233  25.882  1.00  0.00     0.020 A 
ATOM     81  C   UNL A   1      44.599  22.105  23.809  1.00  0.00     0.020 A 
ATOM     82  C   UNL A   1      45.007  21.028  24.597  1.00  0.00     0.054 A 
BRANCH  82  83
ATOM     83  S   UNL A   1      44.844  19.328  23.984  1.00  0.00     0.124 S 
ATOM     84  O   UNL A   1      43.802  18.791  24.855  1.00  0.00    -0.237 OA
ATOM     85  O   UNL A   1      44.459  19.534  22.589  1.00  0.00    -0.237 OA
ATOM     86  O   UNL A   1      46.177  18.765  24.180  1.00  0.00    -0.744 OA
ENDBRANCH  82  83
ENDBRANCH  54  77
BRANCH  66  87
ATOM     87  C   UNL A   1      50.505  28.193  26.073  1.00  0.00    -0.014 A 
ATOM     88  C   UNL A   1      50.999  28.530  24.801  1.00  0.00     0.010 A 
ATOM     89  C   UNL A   1      51.412  27.860  27.096  1.00  0.00     0.010 A 
ATOM     90  C   UNL A   1      52.375  28.524  24.556  1.00  0.00     0.020 A 
ATOM     91  C   UNL A   1      52.789  27.878  26.862  1.00  0.00     0.020 A 
ATOM     92  C   UNL A   1      53.262  28.203  25.590  1.00  0.00     0.054 A 
BRANCH  92  93
ATOM     93  S   UNL A   1      55.046  28.278  25.269  1.00  0.00     0.124 S 
ATOM     94  O   UNL A   1      55.596  28.349  26.619  1.00  0.00    -0.237 OA
ATOM     95  O   UNL A   1      55.295  27.029  24.553  1.00  0.00    -0.237 OA
ATOM     96  O   UNL A   1      55.204  29.489  24.467  1.00  0.00    -0.744 OA
ENDBRANCH  92  93
ENDBRANCH  66  87
ENDBRANCH  40  41
ENDBRANCH  33  35
ENDBRANCH  32  33
ENDBRANCH  31  32
ENDBRANCH  30  31
ENDBRANCH   1  30
TORSDOF 20
ENDMDL
MODEL 3
REMARK VINA RESULT:     -10.3      4.789      9.717
REMARK SMILES CS(=O)(=O)c1ccc(-c2cc(Cl)cnc2-c2ccc(C(=O)OCCOCCOC(=O)c3ccc(-c4c5nc(c(-c6ccc(S(=O)(=O)[O-])cc6)c6ccc([nH]6)c(-c6ccc(S(=O)(=O)[O-])cc6)c6nc(c(-c7ccc(S(=O)(=O)[O-])cc7)c7ccc4[nH]7)C=C6)C=C5)cc3)nc2)cc1
REMARK SMILES IDX 25 1 24 2 23 3 22 4 20 5 21 6 19 7 16 8 17 9 92 10 18 11
REMARK SMILES IDX 91 12 15 13 9 14 10 15 11 16 14 17 12 18 13 19 8 20 5 21
REMARK SMILES IDX 6 22 94 23 7 24 93 25 2 26 1 27 3 28 4 29 26 30 27 31 28 32
REMARK SMILES IDX 29 33 30 34 31 35 32 36 90 37 33 38 89 39 34 40 35 41 36 42
REMARK SMILES IDX 83 43 37 44 88 45 82 46 84 47 38 48 87 49 81 50 80 51 39 53
REMARK SMILES IDX 69 54 50 55 68 56 51 57 54 58 67 59 85 60 52 61 53 62 66 64
REMARK SMILES IDX 86 65 55 66 40 67 41 68 49 69 42 70 48 71 43 72 44 73 45 74
REMARK SMILES IDX 46 75 47 76 70 77 71 78 79 79 72 80 78 81 73 82 74 83 75 84
REMARK SMILES IDX 76 85 77 86 56 87 57 88 65 89 58 90 64 91 59 92 60 93 61 94
REMARK SMILES IDX 62 95 63 96
REMARK H PARENT 84 52 54 63
REMARK Flexibility Score: inf
ROOT
ATOM      1  O   UNL A   1      35.286  32.391  30.179  1.00  0.00    -0.374 OA
ENDROOT
BRANCH   1   2
ATOM      2  C   UNL A   1      35.276  33.804  29.977  1.00  0.00     0.202 C 
BRANCH   2   3
ATOM      3  C   UNL A   1      34.085  34.567  30.563  1.00  0.00     0.261 C 
BRANCH   3   4
ATOM      4  O   UNL A   1      34.001  34.359  31.981  1.00  0.00    -0.459 OA
BRANCH   4   5
ATOM      5  C   UNL A   1      34.515  35.362  32.736  1.00  0.00     0.356 C 
ATOM      6  O   UNL A   1      34.079  36.499  32.828  1.00  0.00    -0.244 OA
BRANCH   5   7
ATOM      7  C   UNL A   1      35.661  34.846  33.540  1.00  0.00     0.148 A 
ATOM      8  C   UNL A   1      37.825  33.636  34.712  1.00  0.00     0.019 A 
ATOM      9  C   UNL A   1      36.572  33.574  35.339  1.00  0.00     0.014 A 
ATOM     10  C   UNL A   1      37.932  34.439  33.583  1.00  0.00     0.122 A 
ATOM     11  C   UNL A   1      35.467  34.184  34.747  1.00  0.00     0.037 A 
ATOM     12  N   UNL A   1      36.883  35.028  32.974  1.00  0.00    -0.249 NA
BRANCH   8  13
ATOM     13  C   UNL A   1      38.914  32.713  35.046  1.00  0.00     0.080 A 
ATOM     14  C   UNL A   1      39.705  32.910  36.204  1.00  0.00     0.010 A 
ATOM     15  C   UNL A   1      40.677  31.941  36.490  1.00  0.00     0.033 A 
ATOM     16  C   UNL A   1      40.817  30.835  35.658  1.00  0.00     0.060 A 
ATOM     17  N   UNL A   1      39.030  31.631  34.233  1.00  0.00    -0.254 NA
ATOM     18  Cl  UNL A   1      41.985  29.626  36.006  1.00  0.00    -0.083 Cl
ATOM     19  C   UNL A   1      39.983  30.723  34.557  1.00  0.00     0.132 A 
BRANCH  14  20
ATOM     20  C   UNL A   1      39.515  34.066  37.101  1.00  0.00    -0.016 A 
ATOM     21  C   UNL A   1      39.336  36.194  38.928  1.00  0.00     0.067 A 
ATOM     22  C   UNL A   1      40.084  36.351  37.763  1.00  0.00     0.021 A 
ATOM     23  C   UNL A   1      38.657  35.000  39.180  1.00  0.00     0.021 A 
ATOM     24  C   UNL A   1      40.163  35.292  36.854  1.00  0.00     0.010 A 
ATOM     25  C   UNL A   1      38.746  33.944  38.268  1.00  0.00     0.010 A 
BRANCH  21  26
ATOM     26  S   UNL A   1      39.210  37.535  40.091  1.00  0.00     0.175 S 
ATOM     27  C   UNL A   1      40.782  38.357  40.041  1.00  0.00     0.163 C 
ATOM     28  O   UNL A   1      39.073  36.940  41.405  1.00  0.00    -0.224 OA
ATOM     29  O   UNL A   1      38.203  38.434  39.560  1.00  0.00    -0.224 OA
ENDBRANCH  21  26
ENDBRANCH  14  20
ENDBRANCH   8  13
ENDBRANCH   5   7
ENDBRANCH   4   5
ENDBRANCH   3   4
ENDBRANCH   2   3
ENDBRANCH   1   2
BRANCH   1  30
ATOM     30  C   UNL A   1      35.979  31.887  31.322  1.00  0.00     0.202 C 
BRANCH  30  31
ATOM     31  C   UNL A   1      37.163  30.947  31.065  1.00  0.00     0.261 C 
BRANCH  31  32
ATOM     32  O   UNL A   1      36.745  29.647  30.615  1.00  0.00    -0.460 OA
BRANCH  32  33
ATOM     33  C   UNL A   1      36.800  29.461  29.275  1.00  0.00     0.338 C 
ATOM     34  O   UNL A   1      35.944  29.760  28.452  1.00  0.00    -0.246 OA
BRANCH  33  35
ATOM     35  C   UNL A   1      38.147  29.003  28.892  1.00  0.00     0.060 A 
ATOM     36  C   UNL A   1      38.890  28.275  29.833  1.00  0.00     0.016 A 
ATOM     37  C   UNL A   1      38.699  29.340  27.655  1.00  0.00     0.016 A 
ATOM     38  C   UNL A   1      40.208  27.917  29.557  1.00  0.00     0.010 A 
ATOM     39  C   UNL A   1      40.024  28.991  27.387  1.00  0.00     0.010 A 
ATOM     40  C   UNL A   1      40.794  28.309  28.348  1.00  0.00    -0.014 A 
BRANCH  40  41
ATOM     41  C   UNL A   1      42.253  28.166  28.132  1.00  0.00     0.031 A 
ATOM     42  C   UNL A   1      43.138  29.348  28.418  1.00  0.00     0.074 A 
ATOM     43  C   UNL A   1      42.776  27.022  27.657  1.00  0.00     0.049 A 
ATOM     44  N   UNL A   1      44.406  29.517  28.149  1.00  0.00    -0.248 NA
ATOM     45  C   UNL A   1      42.502  30.497  29.086  1.00  0.00     0.031 C 
ATOM     46  C   UNL A   1      42.032  25.791  27.401  1.00  0.00     0.029 A 
ATOM     47  N   UNL A   1      44.062  26.725  27.281  1.00  0.00    -0.354 N 
ATOM     48  C   UNL A   1      44.714  30.799  28.590  1.00  0.00     0.074 A 
ATOM     49  C   UNL A   1      43.498  31.368  29.129  1.00  0.00     0.031 C 
ATOM     50  C   UNL A   1      42.871  24.875  26.887  1.00  0.00     0.029 A 
ATOM     51  C   UNL A   1      44.197  25.472  26.734  1.00  0.00     0.049 A 
ATOM     52  H   UNL A   1      44.816  27.349  27.392  1.00  0.00     0.167 HD
ATOM     53  C   UNL A   1      45.904  31.444  28.545  1.00  0.00     0.031 A 
ATOM     54  C   UNL A   1      45.259  24.888  26.142  1.00  0.00     0.031 A 
ATOM     55  C   UNL A   1      47.105  30.874  27.998  1.00  0.00     0.049 A 
ATOM     56  C   UNL A   1      46.554  25.652  26.032  1.00  0.00     0.074 A 
ATOM     57  C   UNL A   1      48.364  31.443  27.908  1.00  0.00     0.029 A 
ATOM     58  N   UNL A   1      47.196  29.605  27.444  1.00  0.00    -0.354 N 
ATOM     59  N   UNL A   1      46.833  26.864  26.447  1.00  0.00    -0.248 NA
ATOM     60  C   UNL A   1      47.677  24.967  25.375  1.00  0.00     0.031 C 
ATOM     61  C   UNL A   1      49.203  30.537  27.251  1.00  0.00     0.029 A 
ATOM     62  C   UNL A   1      48.485  29.380  26.994  1.00  0.00     0.049 A 
ATOM     63  H   UNL A   1      46.454  28.962  27.381  1.00  0.00     0.167 HD
ATOM     64  C   UNL A   1      48.175  27.071  26.143  1.00  0.00     0.074 A 
ATOM     65  C   UNL A   1      48.650  25.861  25.503  1.00  0.00     0.031 C 
ATOM     66  C   UNL A   1      48.946  28.160  26.380  1.00  0.00     0.031 A 
BRANCH  53  67
ATOM     67  C   UNL A   1      45.951  32.857  29.064  1.00  0.00    -0.014 A 
ATOM     68  C   UNL A   1      46.270  33.134  30.405  1.00  0.00     0.010 A 
ATOM     69  C   UNL A   1      45.698  33.926  28.185  1.00  0.00     0.010 A 
ATOM     70  C   UNL A   1      46.297  34.454  30.866  1.00  0.00     0.020 A 
ATOM     71  C   UNL A   1      45.753  35.248  28.635  1.00  0.00     0.020 A 
ATOM     72  C   UNL A   1      46.034  35.502  29.978  1.00  0.00     0.054 A 
BRANCH  72  73
ATOM     73  S   UNL A   1      46.091  37.204  30.600  1.00  0.00     0.124 S 
ATOM     74  O   UNL A   1      45.210  37.896  29.662  1.00  0.00    -0.237 OA
ATOM     75  O   UNL A   1      45.576  37.067  31.959  1.00  0.00    -0.237 OA
ATOM     76  O   UNL A   1      47.504  37.563  30.505  1.00  0.00    -0.744 OA
ENDBRANCH  72  73
ENDBRANCH  53  67
BRANCH  54  77
ATOM     77  C   UNL A   1      45.136  23.512  25.587  1.00  0.00    -0.014 A 
ATOM     78  C   UNL A   1      45.586  22.403  26.324  1.00  0.00     0.010 A 
ATOM     79  C   UNL A   1      44.564  23.303  24.319  1.00  0.00     0.010 A 
ATOM     80  C   UNL A   1      45.481  21.113  25.797  1.00  0.00     0.020 A 
ATOM     81  C   UNL A   1      44.430  22.012  23.800  1.00  0.00     0.020 A 
ATOM     82  C   UNL A   1      44.901  20.926  24.539  1.00  0.00     0.054 A 
BRANCH  82  83
ATOM     83  S   UNL A   1      44.730  19.236  23.899  1.00  0.00     0.124 S 
ATOM     84  O   UNL A   1      44.605  19.467  22.463  1.00  0.00    -0.237 OA
ATOM     85  O   UNL A   1      45.977  18.609  24.334  1.00  0.00    -0.237 OA
ATOM     86  O   UNL A   1      43.527  18.740  24.562  1.00  0.00    -0.744 OA
ENDBRANCH  82  83
ENDBRANCH  54  77
BRANCH  66  87
ATOM     87  C   UNL A   1      50.406  28.084  26.017  1.00  0.00    -0.014 A 
ATOM     88  C   UNL A   1      51.383  27.735  26.964  1.00  0.00     0.010 A 
ATOM     89  C   UNL A   1      50.787  28.272  24.675  1.00  0.00     0.010 A 
ATOM     90  C   UNL A   1      52.719  27.586  26.577  1.00  0.00     0.020 A 
ATOM     91  C   UNL A   1      52.115  28.099  24.279  1.00  0.00     0.020 A 
ATOM     92  C   UNL A   1      53.075  27.763  25.235  1.00  0.00     0.054 A 
BRANCH  92  93
ATOM     93  S   UNL A   1      54.799  27.488  24.743  1.00  0.00     0.124 S 
ATOM     94  O   UNL A   1      55.349  26.824  25.921  1.00  0.00    -0.237 OA
ATOM     95  O   UNL A   1      54.664  26.649  23.555  1.00  0.00    -0.237 OA
ATOM     96  O   UNL A   1      55.308  28.834  24.492  1.00  0.00    -0.744 OA
ENDBRANCH  92  93
ENDBRANCH  66  87
ENDBRANCH  40  41
ENDBRANCH  33  35
ENDBRANCH  32  33
ENDBRANCH  31  32
ENDBRANCH  30  31
ENDBRANCH   1  30
TORSDOF 20
ENDMDL
