MODEL 1
REMARK VINA RESULT:     -12.0      0.000      0.000
REMARK SMILES Cc1c(CC(=O)OCCOCCOC(=O)c2ccc(-c3c4nc(c(-c5ccc(S(=O)(=O)[O-])cc5)c5ccc([nH]5)c(-c5ccc(S(=O)(=O)[O-])cc5)c5nc(c(-c6ccc(S(=O)(=O)[O-])cc6)c6ccc3[nH]6)C=C5)C=C4)cc2)cc(-c2ccc(S(C)(=O)=O)cc2)n1-c1cccc(F)c1
REMARK SMILES IDX 10 1 9 2 8 3 7 4 5 5 6 6 4 7 3 8 1 9 2 10 88 11 76 12 77 13
REMARK SMILES IDX 89 14 90 15 95 16 91 17 93 18 92 19 94 20 78 21 79 22 87 23
REMARK SMILES IDX 80 24 86 25 81 26 82 27 83 28 84 29 85 30 11 31 12 32 13 33
REMARK SMILES IDX 14 34 15 35 16 36 17 37 75 38 18 39 74 40 19 41 20 42 21 43
REMARK SMILES IDX 68 44 22 45 73 46 67 47 69 48 23 49 72 50 66 51 65 52 24 54
REMARK SMILES IDX 54 55 35 56 53 57 36 58 39 59 52 60 70 61 37 62 38 63 51 65
REMARK SMILES IDX 71 66 40 67 25 68 26 69 34 70 27 71 33 72 28 73 29 74 30 75
REMARK SMILES IDX 31 76 32 77 55 78 56 79 64 80 57 81 63 82 58 83 59 84 60 85
REMARK SMILES IDX 61 86 62 87 41 88 42 89 50 90 43 91 49 92 44 93 45 94 46 95
REMARK SMILES IDX 47 96 48 97
REMARK H PARENT 69 53 39 64
REMARK Flexibility Score: inf
ROOT
ATOM      1  O   UNL A   1      33.800  24.363  25.087  1.00  0.00    -0.374 OA
ENDROOT
BRANCH   1   2
ATOM      2  C   UNL A   1      33.714  25.383  26.062  1.00  0.00     0.202 C 
BRANCH   2   3
ATOM      3  C   UNL A   1      32.643  26.473  25.851  1.00  0.00     0.261 C 
BRANCH   3   4
ATOM      4  O   UNL A   1      32.724  27.596  26.756  1.00  0.00    -0.463 OA
BRANCH   4   5
ATOM      5  C   UNL A   1      33.302  28.727  26.262  1.00  0.00     0.310 C 
ATOM      6  O   UNL A   1      32.728  29.523  25.520  1.00  0.00    -0.252 OA
BRANCH   5   7
ATOM      7  C   UNL A   1      34.775  28.897  26.587  1.00  0.00     0.160 C 
BRANCH   7   8
ATOM      8  C   UNL A   1      35.225  30.054  27.445  1.00  0.00    -0.015 A 
ATOM      9  C   UNL A   1      37.646  29.367  28.156  1.00  0.00     0.065 C 
ATOM     10  C   UNL A   1      36.446  30.256  28.090  1.00  0.00     0.024 A 
ATOM     11  N   UNL A   1      36.376  31.438  28.828  1.00  0.00    -0.313 N 
ATOM     12  C   UNL A   1      34.366  31.084  27.916  1.00  0.00     0.033 A 
ATOM     13  C   UNL A   1      35.056  31.878  28.815  1.00  0.00     0.053 A 
BRANCH  11  14
ATOM     14  C   UNL A   1      37.458  32.073  29.509  1.00  0.00     0.049 A 
ATOM     15  C   UNL A   1      37.918  31.581  30.734  1.00  0.00     0.027 A 
ATOM     16  C   UNL A   1      37.993  33.256  28.996  1.00  0.00     0.065 A 
ATOM     17  C   UNL A   1      38.900  32.286  31.442  1.00  0.00     0.005 A 
ATOM     18  C   UNL A   1      38.914  33.980  29.743  1.00  0.00     0.125 A 
ATOM     19  C   UNL A   1      39.380  33.503  30.958  1.00  0.00     0.039 A 
ATOM     20  F   UNL A   1      39.346  35.160  29.282  1.00  0.00    -0.207 F 
ENDBRANCH  11  14
BRANCH  13  21
ATOM     21  C   UNL A   1      34.540  33.017  29.573  1.00  0.00    -0.001 A 
ATOM     22  C   UNL A   1      34.704  33.090  30.963  1.00  0.00     0.011 A 
ATOM     23  C   UNL A   1      33.874  34.051  28.901  1.00  0.00     0.011 A 
ATOM     24  C   UNL A   1      34.185  34.171  31.678  1.00  0.00     0.021 A 
ATOM     25  C   UNL A   1      33.346  35.132  29.610  1.00  0.00     0.021 A 
ATOM     26  C   UNL A   1      33.499  35.181  30.999  1.00  0.00     0.067 A 
BRANCH  26  27
ATOM     27  S   UNL A   1      32.849  36.573  31.894  1.00  0.00     0.175 S 
ATOM     28  C   UNL A   1      33.936  36.754  33.285  1.00  0.00     0.163 C 
ATOM     29  O   UNL A   1      33.030  37.742  31.018  1.00  0.00    -0.224 OA
ATOM     30  O   UNL A   1      31.557  36.221  32.386  1.00  0.00    -0.224 OA
ENDBRANCH  26  27
ENDBRANCH  13  21
ENDBRANCH   7   8
ENDBRANCH   5   7
ENDBRANCH   4   5
ENDBRANCH   3   4
ENDBRANCH   2   3
ENDBRANCH   1   2
BRANCH   1  31
ATOM     31  C   UNL A   1      33.795  23.038  25.603  1.00  0.00     0.202 C 
BRANCH  31  32
ATOM     32  C   UNL A   1      35.119  22.189  25.774  1.00  0.00     0.261 C 
BRANCH  32  33
ATOM     33  O   UNL A   1      36.211  21.979  24.770  1.00  0.00    -0.460 OA
BRANCH  33  34
ATOM     34  C   UNL A   1      37.478  21.647  25.288  1.00  0.00     0.338 C 
ATOM     35  O   UNL A   1      37.964  20.544  25.057  1.00  0.00    -0.246 OA
BRANCH  34  36
ATOM     36  C   UNL A   1      38.295  22.671  26.205  1.00  0.00     0.060 A 
ATOM     37  C   UNL A   1      37.986  24.040  26.354  1.00  0.00     0.016 A 
ATOM     38  C   UNL A   1      39.630  22.475  26.558  1.00  0.00     0.016 A 
ATOM     39  C   UNL A   1      38.901  25.126  26.959  1.00  0.00     0.010 A 
ATOM     40  C   UNL A   1      40.537  23.568  27.116  1.00  0.00     0.010 A 
ATOM     41  C   UNL A   1      40.247  24.977  27.456  1.00  0.00    -0.014 A 
BRANCH  41  42
ATOM     42  C   UNL A   1      41.394  26.410  27.489  1.00  0.00     0.031 A 
ATOM     43  C   UNL A   1      41.789  26.349  26.024  1.00  0.00     0.074 A 
ATOM     44  C   UNL A   1      42.259  27.449  28.213  1.00  0.00     0.049 A 
ATOM     45  N   UNL A   1      42.061  25.167  25.554  1.00  0.00    -0.248 NA
ATOM     46  C   UNL A   1      42.424  27.400  25.258  1.00  0.00     0.031 C 
ATOM     47  C   UNL A   1      43.591  27.943  27.642  1.00  0.00     0.029 A 
ATOM     48  N   UNL A   1      42.528  28.140  29.526  1.00  0.00    -0.354 N 
ATOM     49  C   UNL A   1      43.415  25.290  25.422  1.00  0.00     0.074 A 
ATOM     50  C   UNL A   1      43.536  26.697  24.982  1.00  0.00     0.031 C 
ATOM     51  C   UNL A   1      44.273  28.912  28.289  1.00  0.00     0.029 A 
ATOM     52  C   UNL A   1      43.638  29.309  29.563  1.00  0.00     0.049 A 
ATOM     53  H   UNL A   1      42.037  27.885  30.341  1.00  0.00     0.167 HD
ATOM     54  C   UNL A   1      44.132  24.563  26.344  1.00  0.00     0.031 A 
ATOM     55  C   UNL A   1      44.642  29.771  30.500  1.00  0.00     0.031 A 
ATOM     56  C   UNL A   1      44.063  24.667  27.832  1.00  0.00     0.049 A 
ATOM     57  C   UNL A   1      45.114  28.579  31.211  1.00  0.00     0.074 A 
ATOM     58  C   UNL A   1      43.166  24.673  28.898  1.00  0.00     0.029 A 
ATOM     59  N   UNL A   1      45.248  24.540  28.533  1.00  0.00    -0.354 N 
ATOM     60  N   UNL A   1      46.215  27.936  31.006  1.00  0.00    -0.248 NA
ATOM     61  C   UNL A   1      44.160  27.991  32.135  1.00  0.00     0.031 C 
ATOM     62  C   UNL A   1      43.790  24.731  30.154  1.00  0.00     0.029 A 
ATOM     63  C   UNL A   1      45.093  24.979  29.846  1.00  0.00     0.049 A 
ATOM     64  H   UNL A   1      46.087  24.188  28.156  1.00  0.00     0.167 HD
ATOM     65  C   UNL A   1      45.866  26.652  31.380  1.00  0.00     0.074 A 
ATOM     66  C   UNL A   1      44.667  26.769  32.198  1.00  0.00     0.031 C 
ATOM     67  C   UNL A   1      46.164  25.674  30.487  1.00  0.00     0.031 A 
BRANCH  54  68
ATOM     68  C   UNL A   1      44.394  23.211  25.739  1.00  0.00    -0.014 A 
ATOM     69  C   UNL A   1      45.604  22.943  25.064  1.00  0.00     0.010 A 
ATOM     70  C   UNL A   1      43.478  22.164  25.920  1.00  0.00     0.010 A 
ATOM     71  C   UNL A   1      45.943  21.652  24.701  1.00  0.00     0.020 A 
ATOM     72  C   UNL A   1      43.826  20.862  25.587  1.00  0.00     0.020 A 
ATOM     73  C   UNL A   1      45.072  20.615  25.016  1.00  0.00     0.054 A 
BRANCH  73  74
ATOM     74  S   UNL A   1      45.655  18.929  24.779  1.00  0.00     0.124 S 
ATOM     75  O   UNL A   1      45.705  18.827  23.322  1.00  0.00    -0.237 OA
ATOM     76  O   UNL A   1      46.952  18.952  25.449  1.00  0.00    -0.237 OA
ATOM     77  O   UNL A   1      44.626  18.116  25.423  1.00  0.00    -0.744 OA
ENDBRANCH  73  74
ENDBRANCH  54  68
BRANCH  55  78
ATOM     78  C   UNL A   1      45.108  31.065  31.381  1.00  0.00    -0.014 A 
ATOM     79  C   UNL A   1      44.998  31.293  32.797  1.00  0.00     0.010 A 
ATOM     80  C   UNL A   1      45.323  32.284  30.682  1.00  0.00     0.010 A 
ATOM     81  C   UNL A   1      45.256  32.589  33.429  1.00  0.00     0.020 A 
ATOM     82  C   UNL A   1      45.530  33.561  31.279  1.00  0.00     0.020 A 
ATOM     83  C   UNL A   1      45.561  33.712  32.655  1.00  0.00     0.054 A 
BRANCH  83  84
ATOM     84  S   UNL A   1      46.145  35.315  33.366  1.00  0.00     0.124 S 
ATOM     85  O   UNL A   1      46.095  36.241  32.240  1.00  0.00    -0.237 OA
ATOM     86  O   UNL A   1      45.178  35.567  34.433  1.00  0.00    -0.237 OA
ATOM     87  O   UNL A   1      47.496  35.005  33.842  1.00  0.00    -0.744 OA
ENDBRANCH  83  84
ENDBRANCH  55  78
BRANCH  67  88
ATOM     88  C   UNL A   1      47.512  25.711  29.880  1.00  0.00    -0.014 A 
ATOM     89  C   UNL A   1      47.568  26.103  28.542  1.00  0.00     0.010 A 
ATOM     90  C   UNL A   1      48.683  25.633  30.658  1.00  0.00     0.010 A 
ATOM     91  C   UNL A   1      48.765  26.562  28.025  1.00  0.00     0.020 A 
ATOM     92  C   UNL A   1      49.866  26.165  30.166  1.00  0.00     0.020 A 
ATOM     93  C   UNL A   1      49.889  26.640  28.855  1.00  0.00     0.054 A 
BRANCH  93  94
ATOM     94  S   UNL A   1      51.368  27.421  28.184  1.00  0.00     0.124 S 
ATOM     95  O   UNL A   1      51.113  27.362  26.747  1.00  0.00    -0.237 OA
ATOM     96  O   UNL A   1      51.301  28.753  28.778  1.00  0.00    -0.237 OA
ATOM     97  O   UNL A   1      52.453  26.567  28.657  1.00  0.00    -0.744 OA
ENDBRANCH  93  94
ENDBRANCH  67  88
ENDBRANCH  41  42
ENDBRANCH  34  36
ENDBRANCH  33  34
ENDBRANCH  32  33
ENDBRANCH  31  32
ENDBRANCH   1  31
TORSDOF 21
ENDMDL
MODEL 2
REMARK VINA RESULT:     -11.7      3.136     11.023
REMARK SMILES Cc1c(CC(=O)OCCOCCOC(=O)c2ccc(-c3c4nc(c(-c5ccc(S(=O)(=O)[O-])cc5)c5ccc([nH]5)c(-c5ccc(S(=O)(=O)[O-])cc5)c5nc(c(-c6ccc(S(=O)(=O)[O-])cc6)c6ccc3[nH]6)C=C5)C=C4)cc2)cc(-c2ccc(S(C)(=O)=O)cc2)n1-c1cccc(F)c1
REMARK SMILES IDX 10 1 9 2 8 3 7 4 5 5 6 6 4 7 3 8 1 9 2 10 88 11 76 12 77 13
REMARK SMILES IDX 89 14 90 15 95 16 91 17 93 18 92 19 94 20 78 21 79 22 87 23
REMARK SMILES IDX 80 24 86 25 81 26 82 27 83 28 84 29 85 30 11 31 12 32 13 33
REMARK SMILES IDX 14 34 15 35 16 36 17 37 75 38 18 39 74 40 19 41 20 42 21 43
REMARK SMILES IDX 68 44 22 45 73 46 67 47 69 48 23 49 72 50 66 51 65 52 24 54
REMARK SMILES IDX 54 55 35 56 53 57 36 58 39 59 52 60 70 61 37 62 38 63 51 65
REMARK SMILES IDX 71 66 40 67 25 68 26 69 34 70 27 71 33 72 28 73 29 74 30 75
REMARK SMILES IDX 31 76 32 77 55 78 56 79 64 80 57 81 63 82 58 83 59 84 60 85
REMARK SMILES IDX 61 86 62 87 41 88 42 89 50 90 43 91 49 92 44 93 45 94 46 95
REMARK SMILES IDX 47 96 48 97
REMARK H PARENT 69 53 39 64
REMARK Flexibility Score: inf
ROOT
ATOM      1  O   UNL A   1      33.978  29.055  25.811  1.00  0.00    -0.374 OA
ENDROOT
BRANCH   1   2
ATOM      2  C   UNL A   1      32.929  29.684  25.102  1.00  0.00     0.202 C 
BRANCH   2   3
ATOM      3  C   UNL A   1      31.487  29.364  25.547  1.00  0.00     0.261 C 
BRANCH   3   4
ATOM      4  O   UNL A   1      30.945  28.130  25.027  1.00  0.00    -0.463 OA
BRANCH   4   5
ATOM      5  C   UNL A   1      30.715  27.142  25.937  1.00  0.00     0.310 C 
ATOM      6  O   UNL A   1      30.844  27.285  27.152  1.00  0.00    -0.252 OA
BRANCH   5   7
ATOM      7  C   UNL A   1      30.401  25.778  25.349  1.00  0.00     0.160 C 
BRANCH   7   8
ATOM      8  C   UNL A   1      31.500  24.757  25.194  1.00  0.00    -0.015 A 
ATOM      9  C   UNL A   1      33.565  26.200  24.495  1.00  0.00     0.065 C 
ATOM     10  C   UNL A   1      32.840  24.943  24.851  1.00  0.00     0.024 A 
ATOM     11  N   UNL A   1      33.459  23.696  24.761  1.00  0.00    -0.313 N 
ATOM     12  C   UNL A   1      31.291  23.351  25.184  1.00  0.00     0.033 A 
ATOM     13  C   UNL A   1      32.475  22.717  24.847  1.00  0.00     0.053 A 
BRANCH  11  14
ATOM     14  C   UNL A   1      34.855  23.458  24.579  1.00  0.00     0.049 A 
ATOM     15  C   UNL A   1      35.356  23.066  23.334  1.00  0.00     0.027 A 
ATOM     16  C   UNL A   1      35.712  23.519  25.679  1.00  0.00     0.065 A 
ATOM     17  C   UNL A   1      36.709  22.724  23.204  1.00  0.00     0.005 A 
ATOM     18  C   UNL A   1      37.033  23.108  25.551  1.00  0.00     0.125 A 
ATOM     19  C   UNL A   1      37.543  22.719  24.322  1.00  0.00     0.039 A 
ATOM     20  F   UNL A   1      37.818  23.081  26.635  1.00  0.00    -0.207 F 
ENDBRANCH  11  14
BRANCH  13  21
ATOM     21  C   UNL A   1      32.696  21.282  24.672  1.00  0.00    -0.001 A 
ATOM     22  C   UNL A   1      32.312  20.633  23.491  1.00  0.00     0.011 A 
ATOM     23  C   UNL A   1      33.300  20.545  25.701  1.00  0.00     0.011 A 
ATOM     24  C   UNL A   1      32.507  19.257  23.347  1.00  0.00     0.021 A 
ATOM     25  C   UNL A   1      33.492  19.169  25.567  1.00  0.00     0.021 A 
ATOM     26  C   UNL A   1      33.085  18.531  24.390  1.00  0.00     0.067 A 
BRANCH  26  27
ATOM     27  S   UNL A   1      33.356  16.782  24.214  1.00  0.00     0.175 S 
ATOM     28  C   UNL A   1      34.856  16.472  25.110  1.00  0.00     0.163 C 
ATOM     29  O   UNL A   1      32.252  16.124  24.933  1.00  0.00    -0.224 OA
ATOM     30  O   UNL A   1      33.599  16.506  22.836  1.00  0.00    -0.224 OA
ENDBRANCH  26  27
ENDBRANCH  13  21
ENDBRANCH   7   8
ENDBRANCH   5   7
ENDBRANCH   4   5
ENDBRANCH   3   4
ENDBRANCH   2   3
ENDBRANCH   1   2
BRANCH   1  31
ATOM     31  C   UNL A   1      33.894  29.162  27.227  1.00  0.00     0.202 C 
BRANCH  31  32
ATOM     32  C   UNL A   1      33.988  30.551  27.979  1.00  0.00     0.261 C 
BRANCH  32  33
ATOM     33  O   UNL A   1      34.689  31.795  27.527  1.00  0.00    -0.460 OA
BRANCH  33  34
ATOM     34  C   UNL A   1      35.500  32.435  28.483  1.00  0.00     0.338 C 
ATOM     35  O   UNL A   1      35.358  33.634  28.704  1.00  0.00    -0.246 OA
BRANCH  34  36
ATOM     36  C   UNL A   1      36.636  31.637  29.277  1.00  0.00     0.060 A 
ATOM     37  C   UNL A   1      38.017  31.712  28.995  1.00  0.00     0.016 A 
ATOM     38  C   UNL A   1      36.387  30.457  29.975  1.00  0.00     0.016 A 
ATOM     39  C   UNL A   1      39.110  30.747  29.505  1.00  0.00     0.010 A 
ATOM     40  C   UNL A   1      37.474  29.489  30.437  1.00  0.00     0.010 A 
ATOM     41  C   UNL A   1      38.945  29.575  30.329  1.00  0.00    -0.014 A 
BRANCH  41  42
ATOM     42  C   UNL A   1      40.173  28.211  30.268  1.00  0.00     0.031 A 
ATOM     43  C   UNL A   1      40.849  28.529  31.590  1.00  0.00     0.074 A 
ATOM     44  C   UNL A   1      40.955  27.110  29.541  1.00  0.00     0.049 A 
ATOM     45  N   UNL A   1      41.115  29.783  31.809  1.00  0.00    -0.248 NA
ATOM     46  C   UNL A   1      41.708  27.648  32.352  1.00  0.00     0.031 C 
ATOM     47  C   UNL A   1      42.410  26.778  29.884  1.00  0.00     0.029 A 
ATOM     48  N   UNL A   1      41.007  26.227  28.320  1.00  0.00    -0.354 N 
ATOM     49  C   UNL A   1      42.473  29.747  31.668  1.00  0.00     0.074 A 
ATOM     50  C   UNL A   1      42.793  28.437  32.279  1.00  0.00     0.031 C 
ATOM     51  C   UNL A   1      43.022  25.750  29.260  1.00  0.00     0.029 A 
ATOM     52  C   UNL A   1      42.177  25.121  28.224  1.00  0.00     0.049 A 
ATOM     53  H   UNL A   1      40.343  26.322  27.599  1.00  0.00     0.167 HD
ATOM     54  C   UNL A   1      42.929  30.347  30.516  1.00  0.00     0.031 A 
ATOM     55  C   UNL A   1      43.004  24.559  27.175  1.00  0.00     0.031 A 
ATOM     56  C   UNL A   1      42.570  29.998  29.110  1.00  0.00     0.049 A 
ATOM     57  C   UNL A   1      43.226  25.640  26.210  1.00  0.00     0.074 A 
ATOM     58  C   UNL A   1      41.479  29.776  28.271  1.00  0.00     0.029 A 
ATOM     59  N   UNL A   1      43.575  30.064  28.162  1.00  0.00    -0.354 N 
ATOM     60  N   UNL A   1      44.291  26.359  26.079  1.00  0.00    -0.248 NA
ATOM     61  C   UNL A   1      42.062  26.025  25.432  1.00  0.00     0.031 C 
ATOM     62  C   UNL A   1      41.839  29.543  26.935  1.00  0.00     0.029 A 
ATOM     63  C   UNL A   1      43.194  29.410  26.993  1.00  0.00     0.049 A 
ATOM     64  H   UNL A   1      44.442  30.512  28.296  1.00  0.00     0.167 HD
ATOM     65  C   UNL A   1      43.772  27.547  25.599  1.00  0.00     0.074 A 
ATOM     66  C   UNL A   1      42.446  27.242  25.081  1.00  0.00     0.031 C 
ATOM     67  C   UNL A   1      44.165  28.671  26.251  1.00  0.00     0.031 A 
BRANCH  54  68
ATOM     68  C   UNL A   1      43.199  31.790  30.843  1.00  0.00    -0.014 A 
ATOM     69  C   UNL A   1      44.477  32.207  31.275  1.00  0.00     0.010 A 
ATOM     70  C   UNL A   1      42.210  32.761  30.630  1.00  0.00     0.010 A 
ATOM     71  C   UNL A   1      44.791  33.551  31.363  1.00  0.00     0.020 A 
ATOM     72  C   UNL A   1      42.528  34.112  30.686  1.00  0.00     0.020 A 
ATOM     73  C   UNL A   1      43.828  34.492  31.015  1.00  0.00     0.054 A 
BRANCH  73  74
ATOM     74  S   UNL A   1      44.344  36.210  30.879  1.00  0.00     0.124 S 
ATOM     75  O   UNL A   1      44.101  36.708  32.231  1.00  0.00    -0.237 OA
ATOM     76  O   UNL A   1      45.749  36.083  30.503  1.00  0.00    -0.237 OA
ATOM     77  O   UNL A   1      43.461  36.753  29.850  1.00  0.00    -0.744 OA
ENDBRANCH  73  74
ENDBRANCH  54  68
BRANCH  55  78
ATOM     78  C   UNL A   1      43.385  23.163  26.419  1.00  0.00    -0.014 A 
ATOM     79  C   UNL A   1      42.782  21.863  26.543  1.00  0.00     0.010 A 
ATOM     80  C   UNL A   1      44.678  23.073  25.835  1.00  0.00     0.010 A 
ATOM     81  C   UNL A   1      43.362  20.645  25.972  1.00  0.00     0.020 A 
ATOM     82  C   UNL A   1      45.277  21.888  25.317  1.00  0.00     0.020 A 
ATOM     83  C   UNL A   1      44.599  20.681  25.323  1.00  0.00     0.054 A 
BRANCH  83  84
ATOM     84  S   UNL A   1      45.288  19.262  24.359  1.00  0.00     0.124 S 
ATOM     85  O   UNL A   1      44.629  19.364  23.062  1.00  0.00    -0.237 OA
ATOM     86  O   UNL A   1      46.724  19.538  24.361  1.00  0.00    -0.237 OA
ATOM     87  O   UNL A   1      44.901  18.092  25.151  1.00  0.00    -0.744 OA
ENDBRANCH  83  84
ENDBRANCH  55  78
BRANCH  67  88
ATOM     88  C   UNL A   1      45.606  28.797  26.558  1.00  0.00    -0.014 A 
ATOM     89  C   UNL A   1      45.956  28.688  27.904  1.00  0.00     0.010 A 
ATOM     90  C   UNL A   1      46.590  28.747  25.551  1.00  0.00     0.010 A 
ATOM     91  C   UNL A   1      47.262  28.379  28.237  1.00  0.00     0.020 A 
ATOM     92  C   UNL A   1      47.881  28.360  25.877  1.00  0.00     0.020 A 
ATOM     93  C   UNL A   1      48.199  28.164  27.222  1.00  0.00     0.054 A 
BRANCH  93  94
ATOM     94  S   UNL A   1      49.834  27.578  27.705  1.00  0.00     0.124 S 
ATOM     95  O   UNL A   1      49.826  27.824  29.145  1.00  0.00    -0.237 OA
ATOM     96  O   UNL A   1      49.780  26.174  27.308  1.00  0.00    -0.237 OA
ATOM     97  O   UNL A   1      50.744  28.423  26.937  1.00  0.00    -0.744 OA
ENDBRANCH  93  94
ENDBRANCH  67  88
ENDBRANCH  41  42
ENDBRANCH  34  36
ENDBRANCH  33  34
ENDBRANCH  32  33
ENDBRANCH  31  32
ENDBRANCH   1  31
TORSDOF 21
ENDMDL
MODEL 3
REMARK VINA RESULT:     -10.5      4.199     11.340
REMARK SMILES Cc1c(CC(=O)OCCOCCOC(=O)c2ccc(-c3c4nc(c(-c5ccc(S(=O)(=O)[O-])cc5)c5ccc([nH]5)c(-c5ccc(S(=O)(=O)[O-])cc5)c5nc(c(-c6ccc(S(=O)(=O)[O-])cc6)c6ccc3[nH]6)C=C5)C=C4)cc2)cc(-c2ccc(S(C)(=O)=O)cc2)n1-c1cccc(F)c1
REMARK SMILES IDX 10 1 9 2 8 3 7 4 5 5 6 6 4 7 3 8 1 9 2 10 88 11 76 12 77 13
REMARK SMILES IDX 89 14 90 15 95 16 91 17 93 18 92 19 94 20 78 21 79 22 87 23
REMARK SMILES IDX 80 24 86 25 81 26 82 27 83 28 84 29 85 30 11 31 12 32 13 33
REMARK SMILES IDX 14 34 15 35 16 36 17 37 75 38 18 39 74 40 19 41 20 42 21 43
REMARK SMILES IDX 68 44 22 45 73 46 67 47 69 48 23 49 72 50 66 51 65 52 24 54
REMARK SMILES IDX 54 55 35 56 53 57 36 58 39 59 52 60 70 61 37 62 38 63 51 65
REMARK SMILES IDX 71 66 40 67 25 68 26 69 34 70 27 71 33 72 28 73 29 74 30 75
REMARK SMILES IDX 31 76 32 77 55 78 56 79 64 80 57 81 63 82 58 83 59 84 60 85
REMARK SMILES IDX 61 86 62 87 41 88 42 89 50 90 43 91 49 92 44 93 45 94 46 95
REMARK SMILES IDX 47 96 48 97
REMARK H PARENT 69 53 39 64
REMARK Flexibility Score: inf
ROOT
ATOM      1  O   UNL A   1      35.282  30.820  28.308  1.00  0.00    -0.374 OA
ENDROOT
BRANCH   1   2
ATOM      2  C   UNL A   1      36.693  30.757  28.365  1.00  0.00     0.202 C 
BRANCH   2   3
ATOM      3  C   UNL A   1      37.317  29.958  29.528  1.00  0.00     0.261 C 
BRANCH   3   4
ATOM      4  O   UNL A   1      38.752  29.806  29.466  1.00  0.00    -0.463 OA
BRANCH   4   5
ATOM      5  C   UNL A   1      39.212  28.580  29.089  1.00  0.00     0.310 C 
ATOM      6  O   UNL A   1      39.442  27.662  29.874  1.00  0.00    -0.252 OA
BRANCH   5   7
ATOM      7  C   UNL A   1      39.555  28.441  27.616  1.00  0.00     0.160 C 
BRANCH   7   8
ATOM      8  C   UNL A   1      40.704  27.560  27.193  1.00  0.00    -0.015 A 
ATOM      9  C   UNL A   1      39.765  25.144  27.538  1.00  0.00     0.065 C 
ATOM     10  C   UNL A   1      40.781  26.166  27.145  1.00  0.00     0.024 A 
ATOM     11  N   UNL A   1      42.070  25.800  26.759  1.00  0.00    -0.313 N 
ATOM     12  C   UNL A   1      42.024  28.027  26.949  1.00  0.00     0.033 A 
ATOM     13  C   UNL A   1      42.863  26.943  26.758  1.00  0.00     0.053 A 
BRANCH  11  14
ATOM     14  C   UNL A   1      42.514  24.479  26.449  1.00  0.00     0.049 A 
ATOM     15  C   UNL A   1      42.904  24.143  25.149  1.00  0.00     0.027 A 
ATOM     16  C   UNL A   1      42.460  23.487  27.431  1.00  0.00     0.065 A 
ATOM     17  C   UNL A   1      43.223  22.815  24.839  1.00  0.00     0.005 A 
ATOM     18  C   UNL A   1      42.711  22.163  27.091  1.00  0.00     0.125 A 
ATOM     19  C   UNL A   1      43.100  21.817  25.806  1.00  0.00     0.039 A 
ATOM     20  F   UNL A   1      42.563  21.211  28.020  1.00  0.00    -0.207 F 
ENDBRANCH  11  14
BRANCH  13  21
ATOM     21  C   UNL A   1      44.307  26.966  26.528  1.00  0.00    -0.001 A 
ATOM     22  C   UNL A   1      45.202  26.561  27.527  1.00  0.00     0.011 A 
ATOM     23  C   UNL A   1      44.803  27.399  25.290  1.00  0.00     0.011 A 
ATOM     24  C   UNL A   1      46.579  26.611  27.303  1.00  0.00     0.021 A 
ATOM     25  C   UNL A   1      46.179  27.459  25.061  1.00  0.00     0.021 A 
ATOM     26  C   UNL A   1      47.061  27.071  26.076  1.00  0.00     0.067 A 
BRANCH  26  27
ATOM     27  S   UNL A   1      48.812  27.123  25.769  1.00  0.00     0.175 S 
ATOM     28  C   UNL A   1      49.509  27.744  27.279  1.00  0.00     0.163 C 
ATOM     29  O   UNL A   1      49.240  25.723  25.611  1.00  0.00    -0.224 OA
ATOM     30  O   UNL A   1      49.055  28.083  24.743  1.00  0.00    -0.224 OA
ENDBRANCH  26  27
ENDBRANCH  13  21
ENDBRANCH   7   8
ENDBRANCH   5   7
ENDBRANCH   4   5
ENDBRANCH   3   4
ENDBRANCH   2   3
ENDBRANCH   1   2
BRANCH   1  31
ATOM     31  C   UNL A   1      34.749  32.117  28.070  1.00  0.00     0.202 C 
BRANCH  31  32
ATOM     32  C   UNL A   1      34.241  33.053  29.240  1.00  0.00     0.261 C 
BRANCH  32  33
ATOM     33  O   UNL A   1      34.398  32.847  30.715  1.00  0.00    -0.460 OA
BRANCH  33  34
ATOM     34  C   UNL A   1      34.933  33.928  31.443  1.00  0.00     0.338 C 
ATOM     35  O   UNL A   1      34.187  34.789  31.898  1.00  0.00    -0.246 OA
BRANCH  34  36
ATOM     36  C   UNL A   1      36.509  34.080  31.667  1.00  0.00     0.060 A 
ATOM     37  C   UNL A   1      37.495  33.372  30.946  1.00  0.00     0.016 A 
ATOM     38  C   UNL A   1      37.066  34.524  32.865  1.00  0.00     0.016 A 
ATOM     39  C   UNL A   1      38.987  33.241  31.321  1.00  0.00     0.010 A 
ATOM     40  C   UNL A   1      38.534  34.350  33.244  1.00  0.00     0.010 A 
ATOM     41  C   UNL A   1      39.661  33.773  32.480  1.00  0.00    -0.014 A 
BRANCH  41  42
ATOM     42  C   UNL A   1      41.192  32.982  33.115  1.00  0.00     0.031 A 
ATOM     43  C   UNL A   1      41.939  34.270  33.415  1.00  0.00     0.074 A 
ATOM     44  C   UNL A   1      42.130  31.784  33.308  1.00  0.00     0.049 A 
ATOM     45  N   UNL A   1      41.882  35.190  32.497  1.00  0.00    -0.248 NA
ATOM     46  C   UNL A   1      43.106  34.411  34.259  1.00  0.00     0.031 C 
ATOM     47  C   UNL A   1      43.654  31.933  33.311  1.00  0.00     0.029 A 
ATOM     48  N   UNL A   1      42.245  30.281  33.275  1.00  0.00    -0.354 N 
ATOM     49  C   UNL A   1      43.163  35.114  32.030  1.00  0.00     0.074 A 
ATOM     50  C   UNL A   1      43.912  34.860  33.282  1.00  0.00     0.031 C 
ATOM     51  C   UNL A   1      44.427  30.854  33.557  1.00  0.00     0.029 A 
ATOM     52  C   UNL A   1      43.645  29.610  33.710  1.00  0.00     0.049 A 
ATOM     53  H   UNL A   1      41.482  29.723  32.996  1.00  0.00     0.167 HD
ATOM     54  C   UNL A   1      43.267  34.550  30.780  1.00  0.00     0.031 A 
ATOM     55  C   UNL A   1      44.433  28.468  33.293  1.00  0.00     0.031 A 
ATOM     56  C   UNL A   1      42.818  33.190  30.360  1.00  0.00     0.049 A 
ATOM     57  C   UNL A   1      44.210  28.325  31.851  1.00  0.00     0.074 A 
ATOM     58  C   UNL A   1      41.719  32.332  30.387  1.00  0.00     0.029 A 
ATOM     59  N   UNL A   1      43.619  32.504  29.465  1.00  0.00    -0.354 N 
ATOM     60  N   UNL A   1      45.008  28.684  30.901  1.00  0.00    -0.248 NA
ATOM     61  C   UNL A   1      42.885  27.867  31.471  1.00  0.00     0.031 C 
ATOM     62  C   UNL A   1      41.932  31.128  29.698  1.00  0.00     0.029 A 
ATOM     63  C   UNL A   1      43.265  31.158  29.419  1.00  0.00     0.049 A 
ATOM     64  H   UNL A   1      44.341  32.911  28.933  1.00  0.00     0.167 HD
ATOM     65  C   UNL A   1      44.122  28.966  29.878  1.00  0.00     0.074 A 
ATOM     66  C   UNL A   1      42.869  28.309  30.223  1.00  0.00     0.031 C 
ATOM     67  C   UNL A   1      44.284  30.167  29.268  1.00  0.00     0.031 A 
BRANCH  54  68
ATOM     68  C   UNL A   1      43.178  35.668  29.778  1.00  0.00    -0.014 A 
ATOM     69  C   UNL A   1      42.229  35.630  28.734  1.00  0.00     0.010 A 
ATOM     70  C   UNL A   1      43.975  36.814  29.923  1.00  0.00     0.010 A 
ATOM     71  C   UNL A   1      41.994  36.745  27.949  1.00  0.00     0.020 A 
ATOM     72  C   UNL A   1      43.721  37.946  29.160  1.00  0.00     0.020 A 
ATOM     73  C   UNL A   1      42.707  37.911  28.206  1.00  0.00     0.054 A 
BRANCH  73  74
ATOM     74  S   UNL A   1      42.194  39.411  27.357  1.00  0.00     0.124 S 
ATOM     75  O   UNL A   1      41.672  40.220  28.456  1.00  0.00    -0.237 OA
ATOM     76  O   UNL A   1      43.447  39.883  26.774  1.00  0.00    -0.237 OA
ATOM     77  O   UNL A   1      41.193  38.941  26.402  1.00  0.00    -0.744 OA
ENDBRANCH  73  74
ENDBRANCH  54  68
BRANCH  55  78
ATOM     78  C   UNL A   1      45.067  27.057  33.817  1.00  0.00    -0.014 A 
ATOM     79  C   UNL A   1      45.533  25.928  33.058  1.00  0.00     0.010 A 
ATOM     80  C   UNL A   1      44.820  26.697  35.170  1.00  0.00     0.010 A 
ATOM     81  C   UNL A   1      45.874  24.636  33.658  1.00  0.00     0.020 A 
ATOM     82  C   UNL A   1      45.102  25.430  35.759  1.00  0.00     0.020 A 
ATOM     83  C   UNL A   1      45.689  24.413  35.025  1.00  0.00     0.054 A 
BRANCH  83  84
ATOM     84  S   UNL A   1      46.319  22.919  35.912  1.00  0.00     0.124 S 
ATOM     85  O   UNL A   1      45.182  22.005  35.916  1.00  0.00    -0.237 OA
ATOM     86  O   UNL A   1      47.454  22.509  35.087  1.00  0.00    -0.237 OA
ATOM     87  O   UNL A   1      46.692  23.437  37.230  1.00  0.00    -0.744 OA
ENDBRANCH  83  84
ENDBRANCH  55  78
BRANCH  67  88
ATOM     88  C   UNL A   1      45.665  30.552  28.906  1.00  0.00    -0.014 A 
ATOM     89  C   UNL A   1      46.087  30.180  27.629  1.00  0.00     0.010 A 
ATOM     90  C   UNL A   1      46.409  31.470  29.672  1.00  0.00     0.010 A 
ATOM     91  C   UNL A   1      47.163  30.834  27.059  1.00  0.00     0.020 A 
ATOM     92  C   UNL A   1      47.438  32.182  29.075  1.00  0.00     0.020 A 
ATOM     93  C   UNL A   1      47.794  31.865  27.763  1.00  0.00     0.054 A 
BRANCH  93  94
ATOM     94  S   UNL A   1      49.064  32.810  26.900  1.00  0.00     0.124 S 
ATOM     95  O   UNL A   1      48.264  33.620  25.985  1.00  0.00    -0.237 OA
ATOM     96  O   UNL A   1      49.693  33.539  27.997  1.00  0.00    -0.237 OA
ATOM     97  O   UNL A   1      49.884  31.783  26.265  1.00  0.00    -0.744 OA
ENDBRANCH  93  94
ENDBRANCH  67  88
ENDBRANCH  41  42
ENDBRANCH  34  36
ENDBRANCH  33  34
ENDBRANCH  32  33
ENDBRANCH  31  32
ENDBRANCH   1  31
TORSDOF 21
ENDMDL
