MODEL 1
REMARK VINA RESULT:     -11.0      0.000      0.000
REMARK SMILES O=C(CSc1ccc(NC(=O)c2cccc3ccccc23)cc1)OCCOCCOC(=O)c1ccc(-c2c3nc(c(-c4ccc(S(=O)(=O)[O-])cc4)c4ccc([nH]4)c(-c4ccc(S(=O)(=O)[O-])cc4)c4nc(c(-c5ccc(S(=O)(=O)[O-])cc5)c5ccc2[nH]5)C=C4)C=C3)cc1
REMARK SMILES IDX 26 1 25 2 24 3 2 4 1 5 3 6 4 7 5 8 6 9 23 10 7 11 22 12 8 13
REMARK SMILES IDX 9 14 10 15 11 17 12 18 13 19 21 20 14 21 16 22 20 23 15 24
REMARK SMILES IDX 17 25 19 26 18 27 27 28 28 29 29 30 30 31 31 32 32 33 33 34
REMARK SMILES IDX 34 35 92 36 35 37 91 38 36 39 37 40 38 41 85 42 39 43 90 44
REMARK SMILES IDX 84 45 86 46 40 47 89 48 83 49 82 50 41 52 71 53 52 54 70 55
REMARK SMILES IDX 53 56 56 57 69 58 87 59 54 60 55 61 68 63 88 64 57 65 42 66
REMARK SMILES IDX 43 67 51 68 44 69 50 70 45 71 46 72 47 73 48 74 49 75 72 76
REMARK SMILES IDX 73 77 81 78 74 79 80 80 75 81 76 82 77 83 78 84 79 85 58 86
REMARK SMILES IDX 59 87 67 88 60 89 66 90 61 91 62 92 63 93 64 94 65 95
REMARK H PARENT 9 16 86 51 56 62
REMARK Flexibility Score: inf
ROOT
ATOM      1  C   UNL A   1      41.083  21.340  27.143  1.00  0.00     0.202 C 
ENDROOT
BRANCH   1   2
ATOM      2  C   UNL A   1      39.790  21.833  26.513  1.00  0.00     0.261 C 
BRANCH   2   3
ATOM      3  O   UNL A   1      39.172  20.819  25.700  1.00  0.00    -0.463 OA
BRANCH   3   4
ATOM      4  C   UNL A   1      37.913  20.880  25.203  1.00  0.00     0.316 C 
ATOM      5  O   UNL A   1      37.411  19.865  24.716  1.00  0.00    -0.251 OA
BRANCH   4   6
ATOM      6  C   UNL A   1      37.143  22.185  25.209  1.00  0.00     0.197 C 
BRANCH   6   7
ATOM      7  S   UNL A   1      36.607  22.762  23.583  1.00  0.00    -0.114 SA
BRANCH   7   8
ATOM      8  C   UNL A   1      35.038  23.406  24.078  1.00  0.00     0.008 A 
ATOM      9  C   UNL A   1      33.870  23.040  23.406  1.00  0.00     0.017 A 
ATOM     10  C   UNL A   1      34.987  24.320  25.124  1.00  0.00     0.017 A 
ATOM     11  C   UNL A   1      32.640  23.509  23.843  1.00  0.00     0.027 A 
ATOM     12  C   UNL A   1      33.754  24.742  25.595  1.00  0.00     0.027 A 
ATOM     13  C   UNL A   1      32.584  24.224  25.029  1.00  0.00     0.041 A 
BRANCH  13  14
ATOM     14  N   UNL A   1      31.446  24.300  25.831  1.00  0.00    -0.322 N 
ATOM     15  C   UNL A   1      30.466  25.256  25.937  1.00  0.00     0.256 C 
ATOM     16  H   UNL A   1      31.323  23.528  26.430  1.00  0.00     0.170 HD
ATOM     17  O   UNL A   1      29.480  24.974  26.627  1.00  0.00    -0.269 OA
BRANCH  15  18
ATOM     18  C   UNL A   1      30.504  26.612  25.331  1.00  0.00     0.048 A 
ATOM     19  C   UNL A   1      29.773  26.679  24.132  1.00  0.00     0.014 A 
ATOM     20  C   UNL A   1      31.256  27.743  25.790  1.00  0.00    -0.006 A 
ATOM     21  C   UNL A   1      29.793  27.823  23.351  1.00  0.00     0.001 A 
ATOM     22  C   UNL A   1      31.247  28.906  24.972  1.00  0.00    -0.018 A 
ATOM     23  C   UNL A   1      31.984  27.838  27.008  1.00  0.00     0.009 A 
ATOM     24  C   UNL A   1      30.546  28.919  23.759  1.00  0.00     0.009 A 
ATOM     25  C   UNL A   1      31.919  30.074  25.371  1.00  0.00     0.009 A 
ATOM     26  C   UNL A   1      32.553  29.044  27.441  1.00  0.00     0.001 A 
ATOM     27  C   UNL A   1      32.533  30.157  26.616  1.00  0.00     0.001 A 
ENDBRANCH  15  18
ENDBRANCH  13  14
ENDBRANCH   7   8
ENDBRANCH   6   7
ENDBRANCH   4   6
ENDBRANCH   3   4
ENDBRANCH   2   3
ENDBRANCH   1   2
BRANCH   1  28
ATOM     28  O   UNL A   1      41.795  22.332  27.884  1.00  0.00    -0.374 OA
BRANCH  28  29
ATOM     29  C   UNL A   1      42.824  23.020  27.159  1.00  0.00     0.202 C 
BRANCH  29  30
ATOM     30  C   UNL A   1      42.668  24.537  27.104  1.00  0.00     0.261 C 
BRANCH  30  31
ATOM     31  O   UNL A   1      41.280  24.893  27.068  1.00  0.00    -0.460 OA
BRANCH  31  32
ATOM     32  C   UNL A   1      41.041  26.124  26.555  1.00  0.00     0.338 C 
ATOM     33  O   UNL A   1      41.099  26.456  25.385  1.00  0.00    -0.246 OA
BRANCH  32  34
ATOM     34  C   UNL A   1      40.483  26.991  27.611  1.00  0.00     0.060 A 
ATOM     35  C   UNL A   1      40.868  28.338  27.599  1.00  0.00     0.016 A 
ATOM     36  C   UNL A   1      39.643  26.495  28.613  1.00  0.00     0.016 A 
ATOM     37  C   UNL A   1      40.523  29.163  28.659  1.00  0.00     0.010 A 
ATOM     38  C   UNL A   1      39.295  27.325  29.679  1.00  0.00     0.010 A 
ATOM     39  C   UNL A   1      39.806  28.633  29.737  1.00  0.00    -0.014 A 
BRANCH  39  40
ATOM     40  C   UNL A   1      39.842  29.357  31.026  1.00  0.00     0.031 A 
ATOM     41  C   UNL A   1      40.995  29.080  31.956  1.00  0.00     0.074 A 
ATOM     42  C   UNL A   1      38.920  30.287  31.320  1.00  0.00     0.049 A 
ATOM     43  N   UNL A   1      41.268  29.612  33.118  1.00  0.00    -0.248 NA
ATOM     44  C   UNL A   1      41.970  28.066  31.517  1.00  0.00     0.031 C 
ATOM     45  C   UNL A   1      37.796  30.666  30.464  1.00  0.00     0.029 A 
ATOM     46  N   UNL A   1      38.795  31.092  32.421  1.00  0.00    -0.354 N 
ATOM     47  C   UNL A   1      42.431  28.985  33.553  1.00  0.00     0.074 A 
ATOM     48  C   UNL A   1      42.794  28.010  32.551  1.00  0.00     0.031 C 
ATOM     49  C   UNL A   1      37.098  31.640  31.071  1.00  0.00     0.029 A 
ATOM     50  C   UNL A   1      37.708  31.929  32.367  1.00  0.00     0.049 A 
ATOM     51  H   UNL A   1      39.424  31.072  33.177  1.00  0.00     0.167 HD
ATOM     52  C   UNL A   1      43.140  29.209  34.685  1.00  0.00     0.031 A 
ATOM     53  C   UNL A   1      37.259  32.821  33.271  1.00  0.00     0.031 A 
ATOM     54  C   UNL A   1      42.766  30.182  35.674  1.00  0.00     0.049 A 
ATOM     55  C   UNL A   1      38.035  33.016  34.547  1.00  0.00     0.074 A 
ATOM     56  C   UNL A   1      43.416  30.508  36.850  1.00  0.00     0.029 A 
ATOM     57  N   UNL A   1      41.635  30.984  35.603  1.00  0.00    -0.354 N 
ATOM     58  N   UNL A   1      39.143  32.430  34.939  1.00  0.00    -0.248 NA
ATOM     59  C   UNL A   1      37.509  34.007  35.494  1.00  0.00     0.031 C 
ATOM     60  C   UNL A   1      42.645  31.463  37.521  1.00  0.00     0.029 A 
ATOM     61  C   UNL A   1      41.556  31.787  36.726  1.00  0.00     0.049 A 
ATOM     62  H   UNL A   1      40.986  30.981  34.863  1.00  0.00     0.167 HD
ATOM     63  C   UNL A   1      39.471  33.014  36.158  1.00  0.00     0.074 A 
ATOM     64  C   UNL A   1      38.447  34.004  36.431  1.00  0.00     0.031 C 
ATOM     65  C   UNL A   1      40.525  32.765  36.975  1.00  0.00     0.031 A 
BRANCH  52  66
ATOM     66  C   UNL A   1      44.357  28.355  34.928  1.00  0.00    -0.014 A 
ATOM     67  C   UNL A   1      45.625  28.719  34.437  1.00  0.00     0.010 A 
ATOM     68  C   UNL A   1      44.232  27.175  35.683  1.00  0.00     0.010 A 
ATOM     69  C   UNL A   1      46.734  27.898  34.663  1.00  0.00     0.020 A 
ATOM     70  C   UNL A   1      45.345  26.368  35.939  1.00  0.00     0.020 A 
ATOM     71  C   UNL A   1      46.586  26.728  35.412  1.00  0.00     0.054 A 
BRANCH  71  72
ATOM     72  S   UNL A   1      48.047  25.695  35.712  1.00  0.00     0.124 S 
ATOM     73  O   UNL A   1      47.811  25.228  37.076  1.00  0.00    -0.237 OA
ATOM     74  O   UNL A   1      47.936  24.677  34.671  1.00  0.00    -0.237 OA
ATOM     75  O   UNL A   1      49.166  26.621  35.557  1.00  0.00    -0.744 OA
ENDBRANCH  71  72
ENDBRANCH  52  66
BRANCH  53  76
ATOM     76  C   UNL A   1      36.020  33.598  32.996  1.00  0.00    -0.014 A 
ATOM     77  C   UNL A   1      34.753  33.040  33.241  1.00  0.00     0.010 A 
ATOM     78  C   UNL A   1      36.103  34.908  32.490  1.00  0.00     0.010 A 
ATOM     79  C   UNL A   1      33.593  33.772  32.966  1.00  0.00     0.020 A 
ATOM     80  C   UNL A   1      34.948  35.653  32.244  1.00  0.00     0.020 A 
ATOM     81  C   UNL A   1      33.699  35.075  32.473  1.00  0.00     0.054 A 
BRANCH  81  82
ATOM     82  S   UNL A   1      32.180  36.021  32.172  1.00  0.00     0.124 S 
ATOM     83  O   UNL A   1      32.504  37.314  32.766  1.00  0.00    -0.237 OA
ATOM     84  O   UNL A   1      32.081  36.000  30.715  1.00  0.00    -0.237 OA
ATOM     85  O   UNL A   1      31.153  35.250  32.868  1.00  0.00    -0.744 OA
ENDBRANCH  81  82
ENDBRANCH  53  76
BRANCH  65  86
ATOM     86  C   UNL A   1      40.659  33.618  38.210  1.00  0.00    -0.014 A 
ATOM     87  C   UNL A   1      41.160  34.930  38.151  1.00  0.00     0.010 A 
ATOM     88  C   UNL A   1      40.241  33.098  39.449  1.00  0.00     0.010 A 
ATOM     89  C   UNL A   1      41.292  35.686  39.319  1.00  0.00     0.020 A 
ATOM     90  C   UNL A   1      40.339  33.863  40.612  1.00  0.00     0.020 A 
ATOM     91  C   UNL A   1      40.886  35.145  40.543  1.00  0.00     0.054 A 
BRANCH  91  92
ATOM     92  S   UNL A   1      41.059  36.149  42.043  1.00  0.00     0.124 S 
ATOM     93  O   UNL A   1      40.804  35.167  43.094  1.00  0.00    -0.237 OA
ATOM     94  O   UNL A   1      42.435  36.628  41.951  1.00  0.00    -0.237 OA
ATOM     95  O   UNL A   1      40.035  37.180  41.891  1.00  0.00    -0.744 OA
ENDBRANCH  91  92
ENDBRANCH  65  86
ENDBRANCH  39  40
ENDBRANCH  32  34
ENDBRANCH  31  32
ENDBRANCH  30  31
ENDBRANCH  29  30
ENDBRANCH  28  29
ENDBRANCH   1  28
TORSDOF 21
ENDMDL
MODEL 2
REMARK VINA RESULT:     -10.4      5.797     12.120
REMARK SMILES O=C(CSc1ccc(NC(=O)c2cccc3ccccc23)cc1)OCCOCCOC(=O)c1ccc(-c2c3nc(c(-c4ccc(S(=O)(=O)[O-])cc4)c4ccc([nH]4)c(-c4ccc(S(=O)(=O)[O-])cc4)c4nc(c(-c5ccc(S(=O)(=O)[O-])cc5)c5ccc2[nH]5)C=C4)C=C3)cc1
REMARK SMILES IDX 26 1 25 2 24 3 2 4 1 5 3 6 4 7 5 8 6 9 23 10 7 11 22 12 8 13
REMARK SMILES IDX 9 14 10 15 11 17 12 18 13 19 21 20 14 21 16 22 20 23 15 24
REMARK SMILES IDX 17 25 19 26 18 27 27 28 28 29 29 30 30 31 31 32 32 33 33 34
REMARK SMILES IDX 34 35 92 36 35 37 91 38 36 39 37 40 38 41 85 42 39 43 90 44
REMARK SMILES IDX 84 45 86 46 40 47 89 48 83 49 82 50 41 52 71 53 52 54 70 55
REMARK SMILES IDX 53 56 56 57 69 58 87 59 54 60 55 61 68 63 88 64 57 65 42 66
REMARK SMILES IDX 43 67 51 68 44 69 50 70 45 71 46 72 47 73 48 74 49 75 72 76
REMARK SMILES IDX 73 77 81 78 74 79 80 80 75 81 76 82 77 83 78 84 79 85 58 86
REMARK SMILES IDX 59 87 67 88 60 89 66 90 61 91 62 92 63 93 64 94 65 95
REMARK H PARENT 9 16 86 51 56 62
REMARK Flexibility Score: inf
ROOT
ATOM      1  C   UNL A   1      34.406  32.591  29.637  1.00  0.00     0.202 C 
ENDROOT
BRANCH   1   2
ATOM      2  C   UNL A   1      34.499  32.573  28.120  1.00  0.00     0.261 C 
BRANCH   2   3
ATOM      3  O   UNL A   1      33.332  31.981  27.521  1.00  0.00    -0.463 OA
BRANCH   3   4
ATOM      4  C   UNL A   1      33.233  30.691  27.119  1.00  0.00     0.316 C 
ATOM      5  O   UNL A   1      34.191  29.935  27.289  1.00  0.00    -0.251 OA
BRANCH   4   6
ATOM      6  C   UNL A   1      31.976  30.190  26.437  1.00  0.00     0.197 C 
BRANCH   6   7
ATOM      7  S   UNL A   1      32.246  29.362  24.854  1.00  0.00    -0.114 SA
BRANCH   7   8
ATOM      8  C   UNL A   1      31.430  27.846  25.249  1.00  0.00     0.008 A 
ATOM      9  C   UNL A   1      30.456  27.315  24.402  1.00  0.00     0.017 A 
ATOM     10  C   UNL A   1      31.743  27.207  26.444  1.00  0.00     0.017 A 
ATOM     11  C   UNL A   1      29.866  26.095  24.698  1.00  0.00     0.027 A 
ATOM     12  C   UNL A   1      31.195  25.962  26.710  1.00  0.00     0.027 A 
ATOM     13  C   UNL A   1      30.360  25.358  25.764  1.00  0.00     0.041 A 
BRANCH  13  14
ATOM     14  N   UNL A   1      30.248  23.972  25.861  1.00  0.00    -0.322 N 
ATOM     15  C   UNL A   1      31.065  22.957  25.426  1.00  0.00     0.256 C 
ATOM     16  H   UNL A   1      29.436  23.665  26.325  1.00  0.00     0.170 HD
ATOM     17  O   UNL A   1      30.786  21.814  25.801  1.00  0.00    -0.269 OA
BRANCH  15  18
ATOM     18  C   UNL A   1      32.228  23.108  24.514  1.00  0.00     0.048 A 
ATOM     19  C   UNL A   1      31.859  23.006  23.161  1.00  0.00     0.014 A 
ATOM     20  C   UNL A   1      33.607  23.241  24.884  1.00  0.00    -0.006 A 
ATOM     21  C   UNL A   1      32.819  22.993  22.162  1.00  0.00     0.001 A 
ATOM     22  C   UNL A   1      34.567  23.235  23.835  1.00  0.00    -0.018 A 
ATOM     23  C   UNL A   1      34.116  23.417  26.200  1.00  0.00     0.009 A 
ATOM     24  C   UNL A   1      34.164  23.083  22.502  1.00  0.00     0.009 A 
ATOM     25  C   UNL A   1      35.934  23.407  24.109  1.00  0.00     0.009 A 
ATOM     26  C   UNL A   1      35.468  23.698  26.443  1.00  0.00     0.001 A 
ATOM     27  C   UNL A   1      36.379  23.678  25.398  1.00  0.00     0.001 A 
ENDBRANCH  15  18
ENDBRANCH  13  14
ENDBRANCH   7   8
ENDBRANCH   6   7
ENDBRANCH   4   6
ENDBRANCH   3   4
ENDBRANCH   2   3
ENDBRANCH   1   2
BRANCH   1  28
ATOM     28  O   UNL A   1      35.466  33.295  30.286  1.00  0.00    -0.374 OA
BRANCH  28  29
ATOM     29  C   UNL A   1      35.205  33.687  31.641  1.00  0.00     0.202 C 
BRANCH  29  30
ATOM     30  C   UNL A   1      35.757  32.739  32.703  1.00  0.00     0.261 C 
BRANCH  30  31
ATOM     31  O   UNL A   1      36.673  31.810  32.112  1.00  0.00    -0.460 OA
BRANCH  31  32
ATOM     32  C   UNL A   1      37.975  32.161  32.244  1.00  0.00     0.338 C 
ATOM     33  O   UNL A   1      38.440  32.979  33.015  1.00  0.00    -0.246 OA
BRANCH  32  34
ATOM     34  C   UNL A   1      38.810  31.243  31.443  1.00  0.00     0.060 A 
ATOM     35  C   UNL A   1      39.686  30.404  32.143  1.00  0.00     0.016 A 
ATOM     36  C   UNL A   1      38.770  31.233  30.045  1.00  0.00     0.016 A 
ATOM     37  C   UNL A   1      40.619  29.649  31.448  1.00  0.00     0.010 A 
ATOM     38  C   UNL A   1      39.708  30.472  29.347  1.00  0.00     0.010 A 
ATOM     39  C   UNL A   1      40.682  29.747  30.054  1.00  0.00    -0.014 A 
BRANCH  39  40
ATOM     40  C   UNL A   1      41.926  29.323  29.377  1.00  0.00     0.031 A 
ATOM     41  C   UNL A   1      43.047  30.325  29.275  1.00  0.00     0.074 A 
ATOM     42  C   UNL A   1      42.079  28.063  28.941  1.00  0.00     0.049 A 
ATOM     43  N   UNL A   1      44.242  30.184  28.764  1.00  0.00    -0.248 NA
ATOM     44  C   UNL A   1      42.785  31.669  29.820  1.00  0.00     0.031 C 
ATOM     45  C   UNL A   1      41.075  27.004  29.041  1.00  0.00     0.029 A 
ATOM     46  N   UNL A   1      43.149  27.460  28.335  1.00  0.00    -0.354 N 
ATOM     47  C   UNL A   1      44.862  31.420  28.911  1.00  0.00     0.074 A 
ATOM     48  C   UNL A   1      43.904  32.310  29.524  1.00  0.00     0.031 C 
ATOM     49  C   UNL A   1      41.583  25.874  28.521  1.00  0.00     0.029 A 
ATOM     50  C   UNL A   1      42.931  26.141  28.025  1.00  0.00     0.049 A 
ATOM     51  H   UNL A   1      43.993  27.928  28.142  1.00  0.00     0.167 HD
ATOM     52  C   UNL A   1      46.122  31.779  28.571  1.00  0.00     0.031 A 
ATOM     53  C   UNL A   1      43.734  25.255  27.405  1.00  0.00     0.031 A 
ATOM     54  C   UNL A   1      47.064  30.882  27.960  1.00  0.00     0.049 A 
ATOM     55  C   UNL A   1      45.115  25.692  26.990  1.00  0.00     0.074 A 
ATOM     56  C   UNL A   1      48.373  31.130  27.589  1.00  0.00     0.029 A 
ATOM     57  N   UNL A   1      46.793  29.563  27.626  1.00  0.00    -0.354 N 
ATOM     58  N   UNL A   1      45.696  26.858  27.150  1.00  0.00    -0.248 NA
ATOM     59  C   UNL A   1      45.954  24.686  26.327  1.00  0.00     0.031 C 
ATOM     60  C   UNL A   1      48.874  29.978  26.973  1.00  0.00     0.029 A 
ATOM     61  C   UNL A   1      47.902  28.990  27.030  1.00  0.00     0.049 A 
ATOM     62  H   UNL A   1      45.938  29.103  27.788  1.00  0.00     0.167 HD
ATOM     63  C   UNL A   1      46.984  26.713  26.647  1.00  0.00     0.074 A 
ATOM     64  C   UNL A   1      47.097  25.343  26.187  1.00  0.00     0.031 C 
ATOM     65  C   UNL A   1      47.989  27.623  26.579  1.00  0.00     0.031 A 
BRANCH  52  66
ATOM     66  C   UNL A   1      46.531  33.209  28.813  1.00  0.00    -0.014 A 
ATOM     67  C   UNL A   1      47.139  33.611  30.016  1.00  0.00     0.010 A 
ATOM     68  C   UNL A   1      46.320  34.166  27.804  1.00  0.00     0.010 A 
ATOM     69  C   UNL A   1      47.492  34.948  30.220  1.00  0.00     0.020 A 
ATOM     70  C   UNL A   1      46.700  35.498  27.991  1.00  0.00     0.020 A 
ATOM     71  C   UNL A   1      47.270  35.883  29.205  1.00  0.00     0.054 A 
BRANCH  71  72
ATOM     72  S   UNL A   1      47.761  37.607  29.486  1.00  0.00     0.124 S 
ATOM     73  O   UNL A   1      46.938  37.971  30.636  1.00  0.00    -0.237 OA
ATOM     74  O   UNL A   1      49.193  37.492  29.749  1.00  0.00    -0.237 OA
ATOM     75  O   UNL A   1      47.411  38.276  28.235  1.00  0.00    -0.744 OA
ENDBRANCH  71  72
ENDBRANCH  52  66
BRANCH  53  76
ATOM     76  C   UNL A   1      43.254  23.870  27.149  1.00  0.00    -0.014 A 
ATOM     77  C   UNL A   1      42.828  23.484  25.866  1.00  0.00     0.010 A 
ATOM     78  C   UNL A   1      43.228  22.925  28.190  1.00  0.00     0.010 A 
ATOM     79  C   UNL A   1      42.364  22.184  25.635  1.00  0.00     0.020 A 
ATOM     80  C   UNL A   1      42.796  21.617  27.957  1.00  0.00     0.020 A 
ATOM     81  C   UNL A   1      42.355  21.259  26.683  1.00  0.00     0.054 A 
BRANCH  81  82
ATOM     82  S   UNL A   1      41.797  19.565  26.347  1.00  0.00     0.124 S 
ATOM     83  O   UNL A   1      42.265  18.850  27.530  1.00  0.00    -0.237 OA
ATOM     84  O   UNL A   1      40.350  19.729  26.236  1.00  0.00    -0.237 OA
ATOM     85  O   UNL A   1      42.474  19.223  25.098  1.00  0.00    -0.744 OA
ENDBRANCH  81  82
ENDBRANCH  53  76
BRANCH  65  86
ATOM     86  C   UNL A   1      49.315  27.149  26.044  1.00  0.00    -0.014 A 
ATOM     87  C   UNL A   1      50.170  26.332  26.804  1.00  0.00     0.010 A 
ATOM     88  C   UNL A   1      49.693  27.508  24.737  1.00  0.00     0.010 A 
ATOM     89  C   UNL A   1      51.403  25.929  26.286  1.00  0.00     0.020 A 
ATOM     90  C   UNL A   1      50.908  27.078  24.203  1.00  0.00     0.020 A 
ATOM     91  C   UNL A   1      51.767  26.309  24.990  1.00  0.00     0.054 A 
BRANCH  91  92
ATOM     92  S   UNL A   1      53.368  25.767  24.336  1.00  0.00     0.124 S 
ATOM     93  O   UNL A   1      53.516  24.451  24.953  1.00  0.00    -0.237 OA
ATOM     94  O   UNL A   1      53.141  25.763  22.894  1.00  0.00    -0.237 OA
ATOM     95  O   UNL A   1      54.301  26.786  24.811  1.00  0.00    -0.744 OA
ENDBRANCH  91  92
ENDBRANCH  65  86
ENDBRANCH  39  40
ENDBRANCH  32  34
ENDBRANCH  31  32
ENDBRANCH  30  31
ENDBRANCH  29  30
ENDBRANCH  28  29
ENDBRANCH   1  28
TORSDOF 21
ENDMDL
MODEL 3
REMARK VINA RESULT:     -10.1      2.423      3.553
REMARK SMILES O=C(CSc1ccc(NC(=O)c2cccc3ccccc23)cc1)OCCOCCOC(=O)c1ccc(-c2c3nc(c(-c4ccc(S(=O)(=O)[O-])cc4)c4ccc([nH]4)c(-c4ccc(S(=O)(=O)[O-])cc4)c4nc(c(-c5ccc(S(=O)(=O)[O-])cc5)c5ccc2[nH]5)C=C4)C=C3)cc1
REMARK SMILES IDX 26 1 25 2 24 3 2 4 1 5 3 6 4 7 5 8 6 9 23 10 7 11 22 12 8 13
REMARK SMILES IDX 9 14 10 15 11 17 12 18 13 19 21 20 14 21 16 22 20 23 15 24
REMARK SMILES IDX 17 25 19 26 18 27 27 28 28 29 29 30 30 31 31 32 32 33 33 34
REMARK SMILES IDX 34 35 92 36 35 37 91 38 36 39 37 40 38 41 85 42 39 43 90 44
REMARK SMILES IDX 84 45 86 46 40 47 89 48 83 49 82 50 41 52 71 53 52 54 70 55
REMARK SMILES IDX 53 56 56 57 69 58 87 59 54 60 55 61 68 63 88 64 57 65 42 66
REMARK SMILES IDX 43 67 51 68 44 69 50 70 45 71 46 72 47 73 48 74 49 75 72 76
REMARK SMILES IDX 73 77 81 78 74 79 80 80 75 81 76 82 77 83 78 84 79 85 58 86
REMARK SMILES IDX 59 87 67 88 60 89 66 90 61 91 62 92 63 93 64 94 65 95
REMARK H PARENT 9 16 86 51 56 62
REMARK Flexibility Score: inf
ROOT
ATOM      1  C   UNL A   1      44.007  20.512  24.936  1.00  0.00     0.202 C 
ENDROOT
BRANCH   1   2
ATOM      2  C   UNL A   1      43.574  19.169  25.502  1.00  0.00     0.261 C 
BRANCH   2   3
ATOM      3  O   UNL A   1      42.709  19.324  26.642  1.00  0.00    -0.463 OA
BRANCH   3   4
ATOM      4  C   UNL A   1      41.902  20.388  26.868  1.00  0.00     0.316 C 
ATOM      5  O   UNL A   1      42.338  21.345  27.511  1.00  0.00    -0.251 OA
BRANCH   4   6
ATOM      6  C   UNL A   1      40.471  20.392  26.371  1.00  0.00     0.197 C 
BRANCH   6   7
ATOM      7  S   UNL A   1      39.733  22.030  26.179  1.00  0.00    -0.114 SA
BRANCH   7   8
ATOM      8  C   UNL A   1      38.123  21.497  25.688  1.00  0.00     0.008 A 
ATOM      9  C   UNL A   1      37.945  20.293  25.004  1.00  0.00     0.017 A 
ATOM     10  C   UNL A   1      37.034  22.319  25.955  1.00  0.00     0.017 A 
ATOM     11  C   UNL A   1      36.668  19.861  24.677  1.00  0.00     0.027 A 
ATOM     12  C   UNL A   1      35.755  21.860  25.678  1.00  0.00     0.027 A 
ATOM     13  C   UNL A   1      35.580  20.573  25.160  1.00  0.00     0.041 A 
BRANCH  13  14
ATOM     14  N   UNL A   1      34.320  20.013  25.361  1.00  0.00    -0.322 N 
ATOM     15  C   UNL A   1      33.061  20.563  25.338  1.00  0.00     0.256 C 
ATOM     16  H   UNL A   1      34.334  19.047  25.555  1.00  0.00     0.170 HD
ATOM     17  O   UNL A   1      32.107  19.780  25.393  1.00  0.00    -0.269 OA
BRANCH  15  18
ATOM     18  C   UNL A   1      32.748  22.014  25.293  1.00  0.00     0.048 A 
ATOM     19  C   UNL A   1      32.351  22.510  26.547  1.00  0.00     0.014 A 
ATOM     20  C   UNL A   1      32.725  22.859  24.135  1.00  0.00    -0.006 A 
ATOM     21  C   UNL A   1      31.896  23.812  26.684  1.00  0.00     0.001 A 
ATOM     22  C   UNL A   1      32.263  24.192  24.311  1.00  0.00    -0.018 A 
ATOM     23  C   UNL A   1      33.156  22.511  22.826  1.00  0.00     0.009 A 
ATOM     24  C   UNL A   1      31.831  24.637  25.567  1.00  0.00     0.009 A 
ATOM     25  C   UNL A   1      32.254  25.099  23.237  1.00  0.00     0.009 A 
ATOM     26  C   UNL A   1      33.244  23.459  21.796  1.00  0.00     0.001 A 
ATOM     27  C   UNL A   1      32.778  24.748  21.998  1.00  0.00     0.001 A 
ENDBRANCH  15  18
ENDBRANCH  13  14
ENDBRANCH   7   8
ENDBRANCH   6   7
ENDBRANCH   4   6
ENDBRANCH   3   4
ENDBRANCH   2   3
ENDBRANCH   1   2
BRANCH   1  28
ATOM     28  O   UNL A   1      45.178  21.059  25.544  1.00  0.00    -0.374 OA
BRANCH  28  29
ATOM     29  C   UNL A   1      45.425  22.445  25.268  1.00  0.00     0.202 C 
BRANCH  29  30
ATOM     30  C   UNL A   1      44.271  23.182  24.594  1.00  0.00     0.261 C 
BRANCH  30  31
ATOM     31  O   UNL A   1      43.558  23.971  25.554  1.00  0.00    -0.460 OA
BRANCH  31  32
ATOM     32  C   UNL A   1      43.941  25.270  25.593  1.00  0.00     0.338 C 
ATOM     33  O   UNL A   1      44.759  25.816  24.877  1.00  0.00    -0.246 OA
BRANCH  32  34
ATOM     34  C   UNL A   1      43.059  26.010  26.518  1.00  0.00     0.060 A 
ATOM     35  C   UNL A   1      43.128  27.408  26.482  1.00  0.00     0.016 A 
ATOM     36  C   UNL A   1      42.221  25.357  27.427  1.00  0.00     0.016 A 
ATOM     37  C   UNL A   1      42.461  28.156  27.440  1.00  0.00     0.010 A 
ATOM     38  C   UNL A   1      41.550  26.108  28.391  1.00  0.00     0.010 A 
ATOM     39  C   UNL A   1      41.738  27.500  28.443  1.00  0.00    -0.014 A 
BRANCH  39  40
ATOM     40  C   UNL A   1      41.429  28.243  29.684  1.00  0.00     0.031 A 
ATOM     41  C   UNL A   1      42.323  28.023  30.876  1.00  0.00     0.074 A 
ATOM     42  C   UNL A   1      40.433  29.142  29.719  1.00  0.00     0.049 A 
ATOM     43  N   UNL A   1      42.282  28.581  32.057  1.00  0.00    -0.248 NA
ATOM     44  C   UNL A   1      43.410  27.040  30.716  1.00  0.00     0.031 C 
ATOM     45  C   UNL A   1      39.544  29.466  28.603  1.00  0.00     0.029 A 
ATOM     46  N   UNL A   1      40.011  29.956  30.736  1.00  0.00    -0.354 N 
ATOM     47  C   UNL A   1      43.321  28.004  32.781  1.00  0.00     0.074 A 
ATOM     48  C   UNL A   1      43.953  27.030  31.923  1.00  0.00     0.031 C 
ATOM     49  C   UNL A   1      38.685  30.421  28.996  1.00  0.00     0.029 A 
ATOM     50  C   UNL A   1      38.944  30.750  30.395  1.00  0.00     0.049 A 
ATOM     51  H   UNL A   1      40.433  29.971  31.625  1.00  0.00     0.167 HD
ATOM     52  C   UNL A   1      43.718  28.270  34.048  1.00  0.00     0.031 A 
ATOM     53  C   UNL A   1      38.256  31.637  31.139  1.00  0.00     0.031 A 
ATOM     54  C   UNL A   1      43.078  29.242  34.891  1.00  0.00     0.049 A 
ATOM     55  C   UNL A   1      38.684  31.880  32.563  1.00  0.00     0.074 A 
ATOM     56  C   UNL A   1      43.404  29.609  36.184  1.00  0.00     0.029 A 
ATOM     57  N   UNL A   1      41.975  30.001  34.524  1.00  0.00    -0.354 N 
ATOM     58  N   UNL A   1      39.679  31.342  33.230  1.00  0.00    -0.248 NA
ATOM     59  C   UNL A   1      37.907  32.864  33.327  1.00  0.00     0.031 C 
ATOM     60  C   UNL A   1      42.460  30.544  36.620  1.00  0.00     0.029 A 
ATOM     61  C   UNL A   1      41.592  30.816  35.573  1.00  0.00     0.049 A 
ATOM     62  H   UNL A   1      41.530  29.963  33.646  1.00  0.00     0.167 HD
ATOM     63  C   UNL A   1      39.674  31.955  34.479  1.00  0.00     0.074 A 
ATOM     64  C   UNL A   1      38.582  32.908  34.467  1.00  0.00     0.031 C 
ATOM     65  C   UNL A   1      40.500  31.757  35.537  1.00  0.00     0.031 A 
BRANCH  52  66
ATOM     66  C   UNL A   1      44.864  27.467  34.605  1.00  0.00    -0.014 A 
ATOM     67  C   UNL A   1      46.190  27.936  34.551  1.00  0.00     0.010 A 
ATOM     68  C   UNL A   1      44.605  26.226  35.214  1.00  0.00     0.010 A 
ATOM     69  C   UNL A   1      47.237  27.161  35.060  1.00  0.00     0.020 A 
ATOM     70  C   UNL A   1      45.645  25.463  35.752  1.00  0.00     0.020 A 
ATOM     71  C   UNL A   1      46.957  25.929  35.657  1.00  0.00     0.054 A 
BRANCH  71  72
ATOM     72  S   UNL A   1      48.331  24.956  36.332  1.00  0.00     0.124 S 
ATOM     73  O   UNL A   1      48.195  25.197  37.766  1.00  0.00    -0.237 OA
ATOM     74  O   UNL A   1      48.010  23.602  35.889  1.00  0.00    -0.237 OA
ATOM     75  O   UNL A   1      49.514  25.547  35.712  1.00  0.00    -0.744 OA
ENDBRANCH  71  72
ENDBRANCH  52  66
BRANCH  53  76
ATOM     76  C   UNL A   1      37.099  32.363  30.548  1.00  0.00    -0.014 A 
ATOM     77  C   UNL A   1      37.290  33.562  29.839  1.00  0.00     0.010 A 
ATOM     78  C   UNL A   1      35.796  31.852  30.687  1.00  0.00     0.010 A 
ATOM     79  C   UNL A   1      36.197  34.247  29.298  1.00  0.00     0.020 A 
ATOM     80  C   UNL A   1      34.704  32.515  30.121  1.00  0.00     0.020 A 
ATOM     81  C   UNL A   1      34.911  33.716  29.440  1.00  0.00     0.054 A 
BRANCH  81  82
ATOM     82  S   UNL A   1      33.515  34.596  28.687  1.00  0.00     0.124 S 
ATOM     83  O   UNL A   1      32.686  34.902  29.848  1.00  0.00    -0.237 OA
ATOM     84  O   UNL A   1      34.169  35.740  28.056  1.00  0.00    -0.237 OA
ATOM     85  O   UNL A   1      32.956  33.618  27.756  1.00  0.00    -0.744 OA
ENDBRANCH  81  82
ENDBRANCH  53  76
BRANCH  65  86
ATOM     86  C   UNL A   1      40.294  32.632  36.747  1.00  0.00    -0.014 A 
ATOM     87  C   UNL A   1      41.175  33.682  37.057  1.00  0.00     0.010 A 
ATOM     88  C   UNL A   1      39.174  32.410  37.568  1.00  0.00     0.010 A 
ATOM     89  C   UNL A   1      40.968  34.460  38.200  1.00  0.00     0.020 A 
ATOM     90  C   UNL A   1      38.944  33.208  38.690  1.00  0.00     0.020 A 
ATOM     91  C   UNL A   1      39.856  34.214  39.012  1.00  0.00     0.054 A 
BRANCH  91  92
ATOM     92  S   UNL A   1      39.604  35.242  40.484  1.00  0.00     0.124 S 
ATOM     93  O   UNL A   1      38.815  36.348  39.947  1.00  0.00    -0.237 OA
ATOM     94  O   UNL A   1      38.892  34.341  41.386  1.00  0.00    -0.237 OA
ATOM     95  O   UNL A   1      40.961  35.589  40.902  1.00  0.00    -0.744 OA
ENDBRANCH  91  92
ENDBRANCH  65  86
ENDBRANCH  39  40
ENDBRANCH  32  34
ENDBRANCH  31  32
ENDBRANCH  30  31
ENDBRANCH  29  30
ENDBRANCH  28  29
ENDBRANCH   1  28
TORSDOF 21
ENDMDL
