MODEL 1
REMARK VINA RESULT:     -10.2      0.000      0.000
REMARK SMILES Cc1[nH]c(=O)sc1S(=O)(=O)NC1(CC(=O)OCCOCCOC(=O)c2ccc(-c3c4nc(c(-c5ccc(S(=O)(=O)[O-])cc5)c5ccc([nH]5)c(-c5ccc(S(=O)(=O)[O-])cc5)c5nc(c(-c6ccc(S(=O)(=O)[O-])cc6)c6ccc3[nH]6)C=C5)C=C4)cc2)CCC1
REMARK SMILES IDX 18 1 17 2 16 3 14 4 15 5 13 6 12 7 85 8 87 9 86 10 11 11
REMARK SMILES IDX 8 13 9 14 10 15 7 16 1 17 2 18 3 19 4 20 6 22 5 23 19 24
REMARK SMILES IDX 20 25 21 26 22 27 23 28 24 29 25 30 26 31 84 32 27 33 83 34
REMARK SMILES IDX 28 35 29 36 30 37 77 38 31 39 82 40 76 41 78 42 32 43 81 44
REMARK SMILES IDX 75 45 74 46 33 48 63 49 44 50 62 51 45 52 48 53 61 54 79 55
REMARK SMILES IDX 46 56 47 57 60 59 80 60 49 61 34 62 35 63 43 64 36 65 42 66
REMARK SMILES IDX 37 67 38 68 39 69 40 70 41 71 64 72 65 73 73 74 66 75 72 76
REMARK SMILES IDX 67 77 68 78 69 79 70 80 71 81 50 82 51 83 59 84 52 85 58 86
REMARK SMILES IDX 53 87 54 88 55 89 56 90 57 91
REMARK H PARENT 11 12 3 21 78 47 48 58
REMARK Flexibility Score: inf
ROOT
ATOM      1  C   UNL A   1      35.775  21.827  24.217  1.00  0.00     0.202 C 
ENDROOT
BRANCH   1   2
ATOM      2  C   UNL A   1      35.701  23.356  24.093  1.00  0.00     0.261 C 
BRANCH   2   3
ATOM      3  O   UNL A   1      34.549  23.860  23.378  1.00  0.00    -0.463 OA
BRANCH   3   4
ATOM      4  C   UNL A   1      33.885  24.843  24.045  1.00  0.00     0.307 C 
ATOM      5  O   UNL A   1      34.395  25.917  24.360  1.00  0.00    -0.252 OA
BRANCH   4   6
ATOM      6  C   UNL A   1      32.421  24.596  24.329  1.00  0.00     0.146 C 
BRANCH   6   7
ATOM      7  C   UNL A   1      31.963  24.053  25.687  1.00  0.00     0.044 C 
ATOM      8  C   UNL A   1      32.866  22.895  26.246  1.00  0.00     0.024 C 
ATOM      9  C   UNL A   1      30.864  22.939  25.565  1.00  0.00     0.024 C 
ATOM     10  C   UNL A   1      31.998  21.901  25.453  1.00  0.00     0.004 C 
BRANCH   7  11
ATOM     11  N   UNL A   1      31.659  25.194  26.636  1.00  0.00    -0.204 NA
ATOM     12  H   UNL A   1      30.715  24.993  26.964  1.00  0.00     0.142 HD
BRANCH  11  13
ATOM     13  S   UNL A   1      31.655  26.878  26.395  1.00  0.00     0.252 S 
ATOM     14  O   UNL A   1      33.035  27.296  26.526  1.00  0.00    -0.206 OA
ATOM     15  O   UNL A   1      30.689  27.318  27.385  1.00  0.00    -0.206 OA
BRANCH  13  16
ATOM     16  C   UNL A   1      31.075  27.421  24.844  1.00  0.00     0.158 A 
ATOM     17  C   UNL A   1      28.848  26.122  24.516  1.00  0.00     0.067 C 
ATOM     18  C   UNL A   1      29.940  27.077  24.205  1.00  0.00     0.046 A 
ATOM     19  N   UNL A   1      29.746  27.800  23.043  1.00  0.00    -0.315 N 
ATOM     20  C   UNL A   1      30.668  28.750  22.736  1.00  0.00     0.305 A 
ATOM     21  H   UNL A   1      28.969  27.633  22.460  1.00  0.00     0.170 HD
ATOM     22  S   UNL A   1      31.909  28.716  23.961  1.00  0.00    -0.061 S 
ATOM     23  O   UNL A   1      30.640  29.510  21.768  1.00  0.00    -0.257 OA
ENDBRANCH  13  16
ENDBRANCH  11  13
ENDBRANCH   7  11
ENDBRANCH   6   7
ENDBRANCH   4   6
ENDBRANCH   3   4
ENDBRANCH   2   3
ENDBRANCH   1   2
BRANCH   1  24
ATOM     24  O   UNL A   1      36.412  21.293  25.375  1.00  0.00    -0.374 OA
BRANCH  24  25
ATOM     25  C   UNL A   1      37.520  22.007  25.914  1.00  0.00     0.202 C 
BRANCH  25  26
ATOM     26  C   UNL A   1      38.898  21.375  25.800  1.00  0.00     0.261 C 
BRANCH  26  27
ATOM     27  O   UNL A   1      39.887  22.398  25.842  1.00  0.00    -0.460 OA
BRANCH  27  28
ATOM     28  C   UNL A   1      40.390  22.678  27.063  1.00  0.00     0.338 C 
ATOM     29  O   UNL A   1      40.442  21.938  28.031  1.00  0.00    -0.246 OA
BRANCH  28  30
ATOM     30  C   UNL A   1      40.793  24.087  27.065  1.00  0.00     0.060 A 
ATOM     31  C   UNL A   1      41.942  24.397  27.787  1.00  0.00     0.016 A 
ATOM     32  C   UNL A   1      39.898  25.075  26.626  1.00  0.00     0.016 A 
ATOM     33  C   UNL A   1      42.043  25.663  28.308  1.00  0.00     0.010 A 
ATOM     34  C   UNL A   1      39.990  26.336  27.156  1.00  0.00     0.010 A 
ATOM     35  C   UNL A   1      41.005  26.573  28.072  1.00  0.00    -0.014 A 
BRANCH  35  36
ATOM     36  C   UNL A   1      41.039  27.814  28.802  1.00  0.00     0.031 A 
ATOM     37  C   UNL A   1      42.120  28.706  28.360  1.00  0.00     0.074 A 
ATOM     38  C   UNL A   1      40.142  28.130  29.750  1.00  0.00     0.049 A 
ATOM     39  N   UNL A   1      43.252  28.906  28.943  1.00  0.00    -0.248 NA
ATOM     40  C   UNL A   1      42.014  29.268  27.007  1.00  0.00     0.031 C 
ATOM     41  C   UNL A   1      38.871  27.474  30.062  1.00  0.00     0.029 A 
ATOM     42  N   UNL A   1      40.152  29.204  30.576  1.00  0.00    -0.354 N 
ATOM     43  C   UNL A   1      43.919  29.809  28.130  1.00  0.00     0.074 A 
ATOM     44  C   UNL A   1      43.225  29.806  26.866  1.00  0.00     0.031 C 
ATOM     45  C   UNL A   1      38.133  28.302  30.840  1.00  0.00     0.029 A 
ATOM     46  C   UNL A   1      38.934  29.468  31.181  1.00  0.00     0.049 A 
ATOM     47  H   UNL A   1      40.956  29.751  30.733  1.00  0.00     0.167 HD
ATOM     48  C   UNL A   1      44.808  30.701  28.640  1.00  0.00     0.031 A 
ATOM     49  C   UNL A   1      38.605  30.615  31.825  1.00  0.00     0.031 A 
ATOM     50  C   UNL A   1      45.190  30.372  29.990  1.00  0.00     0.049 A 
ATOM     51  C   UNL A   1      39.876  31.297  32.191  1.00  0.00     0.074 A 
ATOM     52  C   UNL A   1      45.800  29.288  30.589  1.00  0.00     0.029 A 
ATOM     53  N   UNL A   1      44.574  31.074  31.001  1.00  0.00    -0.354 N 
ATOM     54  N   UNL A   1      40.719  30.825  33.066  1.00  0.00    -0.248 NA
ATOM     55  C   UNL A   1      40.433  32.274  31.265  1.00  0.00     0.031 C 
ATOM     56  C   UNL A   1      45.155  29.148  31.851  1.00  0.00     0.029 A 
ATOM     57  C   UNL A   1      44.223  30.181  31.981  1.00  0.00     0.049 A 
ATOM     58  H   UNL A   1      44.412  32.045  31.017  1.00  0.00     0.167 HD
ATOM     59  C   UNL A   1      41.977  31.107  32.546  1.00  0.00     0.074 A 
ATOM     60  C   UNL A   1      41.737  32.091  31.495  1.00  0.00     0.031 C 
ATOM     61  C   UNL A   1      43.052  30.312  32.827  1.00  0.00     0.031 A 
BRANCH  48  62
ATOM     62  C   UNL A   1      44.986  32.082  28.067  1.00  0.00    -0.014 A 
ATOM     63  C   UNL A   1      46.271  32.493  27.668  1.00  0.00     0.010 A 
ATOM     64  C   UNL A   1      43.989  33.077  28.153  1.00  0.00     0.010 A 
ATOM     65  C   UNL A   1      46.551  33.844  27.426  1.00  0.00     0.020 A 
ATOM     66  C   UNL A   1      44.244  34.414  27.864  1.00  0.00     0.020 A 
ATOM     67  C   UNL A   1      45.535  34.795  27.537  1.00  0.00     0.054 A 
BRANCH  67  68
ATOM     68  S   UNL A   1      45.926  36.546  27.329  1.00  0.00     0.124 S 
ATOM     69  O   UNL A   1      44.595  37.138  27.241  1.00  0.00    -0.237 OA
ATOM     70  O   UNL A   1      46.676  36.842  28.547  1.00  0.00    -0.237 OA
ATOM     71  O   UNL A   1      46.710  36.577  26.098  1.00  0.00    -0.744 OA
ENDBRANCH  67  68
ENDBRANCH  48  62
BRANCH  49  72
ATOM     72  C   UNL A   1      37.293  31.308  31.809  1.00  0.00    -0.014 A 
ATOM     73  C   UNL A   1      36.654  31.668  33.010  1.00  0.00     0.010 A 
ATOM     74  C   UNL A   1      36.800  31.867  30.612  1.00  0.00     0.010 A 
ATOM     75  C   UNL A   1      35.609  32.608  33.017  1.00  0.00     0.020 A 
ATOM     76  C   UNL A   1      35.752  32.793  30.609  1.00  0.00     0.020 A 
ATOM     77  C   UNL A   1      35.180  33.182  31.817  1.00  0.00     0.054 A 
BRANCH  77  78
ATOM     78  S   UNL A   1      33.969  34.536  31.854  1.00  0.00     0.124 S 
ATOM     79  O   UNL A   1      33.520  34.588  30.466  1.00  0.00    -0.237 OA
ATOM     80  O   UNL A   1      32.986  34.057  32.821  1.00  0.00    -0.237 OA
ATOM     81  O   UNL A   1      34.756  35.687  32.295  1.00  0.00    -0.744 OA
ENDBRANCH  77  78
ENDBRANCH  49  72
BRANCH  61  82
ATOM     82  C   UNL A   1      42.932  29.315  33.959  1.00  0.00    -0.014 A 
ATOM     83  C   UNL A   1      42.873  29.679  35.318  1.00  0.00     0.010 A 
ATOM     84  C   UNL A   1      42.721  27.969  33.616  1.00  0.00     0.010 A 
ATOM     85  C   UNL A   1      42.637  28.712  36.308  1.00  0.00     0.020 A 
ATOM     86  C   UNL A   1      42.466  27.005  34.594  1.00  0.00     0.020 A 
ATOM     87  C   UNL A   1      42.435  27.379  35.937  1.00  0.00     0.054 A 
BRANCH  87  88
ATOM     88  S   UNL A   1      42.079  26.140  37.215  1.00  0.00     0.124 S 
ATOM     89  O   UNL A   1      43.109  26.410  38.214  1.00  0.00    -0.237 OA
ATOM     90  O   UNL A   1      40.712  26.470  37.615  1.00  0.00    -0.237 OA
ATOM     91  O   UNL A   1      42.216  24.865  36.513  1.00  0.00    -0.744 OA
ENDBRANCH  87  88
ENDBRANCH  61  82
ENDBRANCH  35  36
ENDBRANCH  28  30
ENDBRANCH  27  28
ENDBRANCH  26  27
ENDBRANCH  25  26
ENDBRANCH  24  25
ENDBRANCH   1  24
TORSDOF 21
ENDMDL
MODEL 2
REMARK VINA RESULT:     -10.2      1.727      2.719
REMARK SMILES Cc1[nH]c(=O)sc1S(=O)(=O)NC1(CC(=O)OCCOCCOC(=O)c2ccc(-c3c4nc(c(-c5ccc(S(=O)(=O)[O-])cc5)c5ccc([nH]5)c(-c5ccc(S(=O)(=O)[O-])cc5)c5nc(c(-c6ccc(S(=O)(=O)[O-])cc6)c6ccc3[nH]6)C=C5)C=C4)cc2)CCC1
REMARK SMILES IDX 18 1 17 2 16 3 14 4 15 5 13 6 12 7 85 8 87 9 86 10 11 11
REMARK SMILES IDX 8 13 9 14 10 15 7 16 1 17 2 18 3 19 4 20 6 22 5 23 19 24
REMARK SMILES IDX 20 25 21 26 22 27 23 28 24 29 25 30 26 31 84 32 27 33 83 34
REMARK SMILES IDX 28 35 29 36 30 37 77 38 31 39 82 40 76 41 78 42 32 43 81 44
REMARK SMILES IDX 75 45 74 46 33 48 63 49 44 50 62 51 45 52 48 53 61 54 79 55
REMARK SMILES IDX 46 56 47 57 60 59 80 60 49 61 34 62 35 63 43 64 36 65 42 66
REMARK SMILES IDX 37 67 38 68 39 69 40 70 41 71 64 72 65 73 73 74 66 75 72 76
REMARK SMILES IDX 67 77 68 78 69 79 70 80 71 81 50 82 51 83 59 84 52 85 58 86
REMARK SMILES IDX 53 87 54 88 55 89 56 90 57 91
REMARK H PARENT 11 12 3 21 78 47 48 58
REMARK Flexibility Score: inf
ROOT
ATOM      1  C   UNL A   1      39.426  21.657  26.446  1.00  0.00     0.202 C 
ENDROOT
BRANCH   1   2
ATOM      2  C   UNL A   1      38.324  22.301  25.593  1.00  0.00     0.261 C 
BRANCH   2   3
ATOM      3  O   UNL A   1      36.975  22.099  26.076  1.00  0.00    -0.463 OA
BRANCH   3   4
ATOM      4  C   UNL A   1      36.288  21.150  25.383  1.00  0.00     0.307 C 
ATOM      5  O   UNL A   1      36.795  20.107  24.973  1.00  0.00    -0.252 OA
BRANCH   4   6
ATOM      6  C   UNL A   1      34.808  21.390  25.194  1.00  0.00     0.146 C 
BRANCH   6   7
ATOM      7  C   UNL A   1      34.123  22.613  25.811  1.00  0.00     0.044 C 
ATOM      8  C   UNL A   1      34.425  22.807  27.341  1.00  0.00     0.024 C 
ATOM      9  C   UNL A   1      32.656  22.322  26.287  1.00  0.00     0.024 C 
ATOM     10  C   UNL A   1      33.238  21.875  27.643  1.00  0.00     0.004 C 
BRANCH   7  11
ATOM     11  N   UNL A   1      34.312  23.827  24.925  1.00  0.00    -0.204 NA
ATOM     12  H   UNL A   1      34.327  24.608  25.581  1.00  0.00     0.142 HD
BRANCH  11  13
ATOM     13  S   UNL A   1      33.394  24.411  23.618  1.00  0.00     0.252 S 
ATOM     14  O   UNL A   1      32.334  23.445  23.420  1.00  0.00    -0.206 OA
ATOM     15  O   UNL A   1      34.406  24.566  22.589  1.00  0.00    -0.206 OA
BRANCH  13  16
ATOM     16  C   UNL A   1      32.659  25.974  23.846  1.00  0.00     0.158 A 
ATOM     17  C   UNL A   1      30.107  25.479  23.822  1.00  0.00     0.067 C 
ATOM     18  C   UNL A   1      31.350  26.282  23.937  1.00  0.00     0.046 A 
ATOM     19  N   UNL A   1      31.138  27.614  24.241  1.00  0.00    -0.315 N 
ATOM     20  C   UNL A   1      32.235  28.392  24.439  1.00  0.00     0.305 A 
ATOM     21  H   UNL A   1      30.228  27.984  24.311  1.00  0.00     0.170 HD
ATOM     22  S   UNL A   1      33.652  27.408  24.181  1.00  0.00    -0.061 S 
ATOM     23  O   UNL A   1      32.239  29.582  24.751  1.00  0.00    -0.257 OA
ENDBRANCH  13  16
ENDBRANCH  11  13
ENDBRANCH   7  11
ENDBRANCH   6   7
ENDBRANCH   4   6
ENDBRANCH   3   4
ENDBRANCH   2   3
ENDBRANCH   1   2
BRANCH   1  24
ATOM     24  O   UNL A   1      40.180  20.602  25.855  1.00  0.00    -0.374 OA
BRANCH  24  25
ATOM     25  C   UNL A   1      41.229  20.021  26.624  1.00  0.00     0.202 C 
BRANCH  25  26
ATOM     26  C   UNL A   1      42.660  20.253  26.169  1.00  0.00     0.261 C 
BRANCH  26  27
ATOM     27  O   UNL A   1      42.697  21.382  25.302  1.00  0.00    -0.460 OA
BRANCH  27  28
ATOM     28  C   UNL A   1      43.464  22.414  25.715  1.00  0.00     0.338 C 
ATOM     29  O   UNL A   1      44.664  22.558  25.550  1.00  0.00    -0.246 OA
BRANCH  28  30
ATOM     30  C   UNL A   1      42.613  23.315  26.496  1.00  0.00     0.060 A 
ATOM     31  C   UNL A   1      41.953  24.312  25.782  1.00  0.00     0.016 A 
ATOM     32  C   UNL A   1      42.719  23.346  27.896  1.00  0.00     0.016 A 
ATOM     33  C   UNL A   1      41.649  25.474  26.446  1.00  0.00     0.010 A 
ATOM     34  C   UNL A   1      42.428  24.510  28.558  1.00  0.00     0.010 A 
ATOM     35  C   UNL A   1      41.997  25.588  27.797  1.00  0.00    -0.014 A 
BRANCH  35  36
ATOM     36  C   UNL A   1      41.857  26.887  28.405  1.00  0.00     0.031 A 
ATOM     37  C   UNL A   1      43.014  27.759  28.160  1.00  0.00     0.074 A 
ATOM     38  C   UNL A   1      40.760  27.263  29.080  1.00  0.00     0.049 A 
ATOM     39  N   UNL A   1      43.974  28.028  28.977  1.00  0.00    -0.248 NA
ATOM     40  C   UNL A   1      43.237  28.204  26.778  1.00  0.00     0.031 C 
ATOM     41  C   UNL A   1      39.450  26.612  29.134  1.00  0.00     0.029 A 
ATOM     42  N   UNL A   1      40.573  28.403  29.790  1.00  0.00    -0.354 N 
ATOM     43  C   UNL A   1      44.818  28.872  28.273  1.00  0.00     0.074 A 
ATOM     44  C   UNL A   1      44.447  28.751  26.885  1.00  0.00     0.031 C 
ATOM     45  C   UNL A   1      38.549  27.488  29.639  1.00  0.00     0.029 A 
ATOM     46  C   UNL A   1      39.246  28.694  30.061  1.00  0.00     0.049 A 
ATOM     47  H   UNL A   1      41.317  28.976  30.087  1.00  0.00     0.167 HD
ATOM     48  C   UNL A   1      45.560  29.821  28.903  1.00  0.00     0.031 A 
ATOM     49  C   UNL A   1      38.774  29.884  30.507  1.00  0.00     0.031 A 
ATOM     50  C   UNL A   1      45.607  29.613  30.328  1.00  0.00     0.049 A 
ATOM     51  C   UNL A   1      39.922  30.618  31.107  1.00  0.00     0.074 A 
ATOM     52  C   UNL A   1      46.053  28.594  31.145  1.00  0.00     0.029 A 
ATOM     53  N   UNL A   1      44.767  30.385  31.098  1.00  0.00    -0.354 N 
ATOM     54  N   UNL A   1      40.530  30.236  32.195  1.00  0.00    -0.248 NA
ATOM     55  C   UNL A   1      40.686  31.525  30.260  1.00  0.00     0.031 C 
ATOM     56  C   UNL A   1      45.123  28.548  32.224  1.00  0.00     0.029 A 
ATOM     57  C   UNL A   1      44.190  29.571  32.039  1.00  0.00     0.049 A 
ATOM     58  H   UNL A   1      44.608  31.351  30.991  1.00  0.00     0.167 HD
ATOM     59  C   UNL A   1      41.876  30.497  31.969  1.00  0.00     0.074 A 
ATOM     60  C   UNL A   1      41.896  31.386  30.810  1.00  0.00     0.031 C 
ATOM     61  C   UNL A   1      42.851  29.749  32.566  1.00  0.00     0.031 A 
BRANCH  48  62
ATOM     62  C   UNL A   1      45.873  31.152  28.273  1.00  0.00    -0.014 A 
ATOM     63  C   UNL A   1      44.875  32.142  28.242  1.00  0.00     0.010 A 
ATOM     64  C   UNL A   1      47.019  31.367  27.478  1.00  0.00     0.010 A 
ATOM     65  C   UNL A   1      44.998  33.263  27.411  1.00  0.00     0.020 A 
ATOM     66  C   UNL A   1      47.175  32.502  26.688  1.00  0.00     0.020 A 
ATOM     67  C   UNL A   1      46.144  33.427  26.631  1.00  0.00     0.054 A 
BRANCH  67  68
ATOM     68  S   UNL A   1      46.250  34.815  25.481  1.00  0.00     0.124 S 
ATOM     69  O   UNL A   1      47.638  34.729  25.039  1.00  0.00    -0.237 OA
ATOM     70  O   UNL A   1      45.241  34.469  24.485  1.00  0.00    -0.237 OA
ATOM     71  O   UNL A   1      45.926  35.972  26.312  1.00  0.00    -0.744 OA
ENDBRANCH  67  68
ENDBRANCH  48  62
BRANCH  49  72
ATOM     72  C   UNL A   1      37.505  30.549  30.119  1.00  0.00    -0.014 A 
ATOM     73  C   UNL A   1      36.647  31.089  31.093  1.00  0.00     0.010 A 
ATOM     74  C   UNL A   1      37.272  30.901  28.773  1.00  0.00     0.010 A 
ATOM     75  C   UNL A   1      35.640  32.004  30.741  1.00  0.00     0.020 A 
ATOM     76  C   UNL A   1      36.264  31.802  28.413  1.00  0.00     0.020 A 
ATOM     77  C   UNL A   1      35.470  32.372  29.404  1.00  0.00     0.054 A 
BRANCH  77  78
ATOM     78  S   UNL A   1      34.304  33.699  28.980  1.00  0.00     0.124 S 
ATOM     79  O   UNL A   1      33.471  33.067  27.962  1.00  0.00    -0.237 OA
ATOM     80  O   UNL A   1      33.650  33.966  30.259  1.00  0.00    -0.237 OA
ATOM     81  O   UNL A   1      35.169  34.774  28.497  1.00  0.00    -0.744 OA
ENDBRANCH  77  78
ENDBRANCH  49  72
BRANCH  61  82
ATOM     82  C   UNL A   1      42.460  28.849  33.717  1.00  0.00    -0.014 A 
ATOM     83  C   UNL A   1      41.597  27.744  33.588  1.00  0.00     0.010 A 
ATOM     84  C   UNL A   1      43.114  29.048  34.945  1.00  0.00     0.010 A 
ATOM     85  C   UNL A   1      41.374  26.878  34.670  1.00  0.00     0.020 A 
ATOM     86  C   UNL A   1      42.912  28.180  36.020  1.00  0.00     0.020 A 
ATOM     87  C   UNL A   1      42.036  27.104  35.881  1.00  0.00     0.054 A 
BRANCH  87  88
ATOM     88  S   UNL A   1      41.786  25.953  37.263  1.00  0.00     0.124 S 
ATOM     89  O   UNL A   1      41.935  24.650  36.622  1.00  0.00    -0.237 OA
ATOM     90  O   UNL A   1      42.851  26.325  38.192  1.00  0.00    -0.237 OA
ATOM     91  O   UNL A   1      40.435  26.260  37.732  1.00  0.00    -0.744 OA
ENDBRANCH  87  88
ENDBRANCH  61  82
ENDBRANCH  35  36
ENDBRANCH  28  30
ENDBRANCH  27  28
ENDBRANCH  26  27
ENDBRANCH  25  26
ENDBRANCH  24  25
ENDBRANCH   1  24
TORSDOF 21
ENDMDL
MODEL 3
REMARK VINA RESULT:      -9.3      1.744      2.417
REMARK SMILES Cc1[nH]c(=O)sc1S(=O)(=O)NC1(CC(=O)OCCOCCOC(=O)c2ccc(-c3c4nc(c(-c5ccc(S(=O)(=O)[O-])cc5)c5ccc([nH]5)c(-c5ccc(S(=O)(=O)[O-])cc5)c5nc(c(-c6ccc(S(=O)(=O)[O-])cc6)c6ccc3[nH]6)C=C5)C=C4)cc2)CCC1
REMARK SMILES IDX 18 1 17 2 16 3 14 4 15 5 13 6 12 7 85 8 87 9 86 10 11 11
REMARK SMILES IDX 8 13 9 14 10 15 7 16 1 17 2 18 3 19 4 20 6 22 5 23 19 24
REMARK SMILES IDX 20 25 21 26 22 27 23 28 24 29 25 30 26 31 84 32 27 33 83 34
REMARK SMILES IDX 28 35 29 36 30 37 77 38 31 39 82 40 76 41 78 42 32 43 81 44
REMARK SMILES IDX 75 45 74 46 33 48 63 49 44 50 62 51 45 52 48 53 61 54 79 55
REMARK SMILES IDX 46 56 47 57 60 59 80 60 49 61 34 62 35 63 43 64 36 65 42 66
REMARK SMILES IDX 37 67 38 68 39 69 40 70 41 71 64 72 65 73 73 74 66 75 72 76
REMARK SMILES IDX 67 77 68 78 69 79 70 80 71 81 50 82 51 83 59 84 52 85 58 86
REMARK SMILES IDX 53 87 54 88 55 89 56 90 57 91
REMARK H PARENT 11 12 3 21 78 47 48 58
REMARK Flexibility Score: inf
ROOT
ATOM      1  C   UNL A   1      38.189  21.620  25.290  1.00  0.00     0.202 C 
ENDROOT
BRANCH   1   2
ATOM      2  C   UNL A   1      36.726  21.949  25.623  1.00  0.00     0.261 C 
BRANCH   2   3
ATOM      3  O   UNL A   1      35.893  20.806  25.927  1.00  0.00    -0.463 OA
BRANCH   3   4
ATOM      4  C   UNL A   1      34.584  20.988  25.601  1.00  0.00     0.307 C 
ATOM      5  O   UNL A   1      33.651  20.719  26.356  1.00  0.00    -0.252 OA
BRANCH   4   6
ATOM      6  C   UNL A   1      34.304  21.629  24.261  1.00  0.00     0.146 C 
BRANCH   6   7
ATOM      7  C   UNL A   1      33.191  22.670  24.103  1.00  0.00     0.044 C 
ATOM      8  C   UNL A   1      32.067  22.249  23.090  1.00  0.00     0.024 C 
ATOM      9  C   UNL A   1      33.530  23.776  23.042  1.00  0.00     0.024 C 
ATOM     10  C   UNL A   1      32.921  22.857  21.963  1.00  0.00     0.004 C 
BRANCH   7  11
ATOM     11  N   UNL A   1      32.731  23.161  25.460  1.00  0.00    -0.204 NA
ATOM     12  H   UNL A   1      32.322  22.333  25.893  1.00  0.00     0.142 HD
BRANCH  11  13
ATOM     13  S   UNL A   1      31.666  24.414  25.893  1.00  0.00     0.252 S 
ATOM     14  O   UNL A   1      31.168  24.070  27.208  1.00  0.00    -0.206 OA
ATOM     15  O   UNL A   1      30.744  24.422  24.771  1.00  0.00    -0.206 OA
BRANCH  13  16
ATOM     16  C   UNL A   1      32.366  26.007  25.984  1.00  0.00     0.158 A 
ATOM     17  C   UNL A   1      34.907  25.599  25.618  1.00  0.00     0.067 C 
ATOM     18  C   UNL A   1      33.656  26.367  25.837  1.00  0.00     0.046 A 
ATOM     19  N   UNL A   1      33.829  27.739  25.853  1.00  0.00    -0.315 N 
ATOM     20  C   UNL A   1      32.714  28.508  25.969  1.00  0.00     0.305 A 
ATOM     21  H   UNL A   1      34.725  28.142  25.782  1.00  0.00     0.170 HD
ATOM     22  S   UNL A   1      31.338  27.448  26.122  1.00  0.00    -0.061 S 
ATOM     23  O   UNL A   1      32.673  29.738  25.965  1.00  0.00    -0.257 OA
ENDBRANCH  13  16
ENDBRANCH  11  13
ENDBRANCH   7  11
ENDBRANCH   6   7
ENDBRANCH   4   6
ENDBRANCH   3   4
ENDBRANCH   2   3
ENDBRANCH   1   2
BRANCH   1  24
ATOM     24  O   UNL A   1      39.188  22.081  26.196  1.00  0.00    -0.374 OA
BRANCH  24  25
ATOM     25  C   UNL A   1      40.111  21.127  26.711  1.00  0.00     0.202 C 
BRANCH  25  26
ATOM     26  C   UNL A   1      41.494  21.063  26.084  1.00  0.00     0.261 C 
BRANCH  26  27
ATOM     27  O   UNL A   1      41.669  22.184  25.222  1.00  0.00    -0.460 OA
BRANCH  27  28
ATOM     28  C   UNL A   1      42.610  23.075  25.602  1.00  0.00     0.338 C 
ATOM     29  O   UNL A   1      43.768  23.135  25.226  1.00  0.00    -0.246 OA
BRANCH  28  30
ATOM     30  C   UNL A   1      42.021  23.927  26.640  1.00  0.00     0.060 A 
ATOM     31  C   UNL A   1      41.213  24.969  26.194  1.00  0.00     0.016 A 
ATOM     32  C   UNL A   1      42.503  23.866  27.957  1.00  0.00     0.016 A 
ATOM     33  C   UNL A   1      41.124  26.087  26.985  1.00  0.00     0.010 A 
ATOM     34  C   UNL A   1      42.427  24.987  28.743  1.00  0.00     0.010 A 
ATOM     35  C   UNL A   1      41.828  26.113  28.196  1.00  0.00    -0.014 A 
BRANCH  35  36
ATOM     36  C   UNL A   1      41.885  27.370  28.897  1.00  0.00     0.031 A 
ATOM     37  C   UNL A   1      43.043  28.188  28.508  1.00  0.00     0.074 A 
ATOM     38  C   UNL A   1      40.948  27.761  29.775  1.00  0.00     0.049 A 
ATOM     39  N   UNL A   1      44.144  28.340  29.160  1.00  0.00    -0.248 NA
ATOM     40  C   UNL A   1      43.059  28.718  27.138  1.00  0.00     0.031 C 
ATOM     41  C   UNL A   1      39.624  27.186  30.016  1.00  0.00     0.029 A 
ATOM     42  N   UNL A   1      40.965  28.855  30.574  1.00  0.00    -0.354 N 
ATOM     43  C   UNL A   1      44.913  29.182  28.374  1.00  0.00     0.074 A 
ATOM     44  C   UNL A   1      44.305  29.183  27.066  1.00  0.00     0.031 C 
ATOM     45  C   UNL A   1      38.885  28.074  30.722  1.00  0.00     0.029 A 
ATOM     46  C   UNL A   1      39.727  29.203  31.090  1.00  0.00     0.049 A 
ATOM     47  H   UNL A   1      41.787  29.360  30.772  1.00  0.00     0.167 HD
ATOM     48  C   UNL A   1      45.817  30.037  28.921  1.00  0.00     0.031 A 
ATOM     49  C   UNL A   1      39.423  30.384  31.683  1.00  0.00     0.031 A 
ATOM     50  C   UNL A   1      46.089  29.724  30.301  1.00  0.00     0.049 A 
ATOM     51  C   UNL A   1      40.704  31.004  32.117  1.00  0.00     0.074 A 
ATOM     52  C   UNL A   1      46.595  28.624  30.965  1.00  0.00     0.029 A 
ATOM     53  N   UNL A   1      45.449  30.486  31.251  1.00  0.00    -0.354 N 
ATOM     54  N   UNL A   1      41.460  30.509  33.057  1.00  0.00    -0.248 NA
ATOM     55  C   UNL A   1      41.376  31.923  31.208  1.00  0.00     0.031 C 
ATOM     56  C   UNL A   1      45.861  28.555  32.184  1.00  0.00     0.029 A 
ATOM     57  C   UNL A   1      44.984  29.641  32.227  1.00  0.00     0.049 A 
ATOM     58  H   UNL A   1      45.343  31.465  31.233  1.00  0.00     0.167 HD
ATOM     59  C   UNL A   1      42.763  30.706  32.618  1.00  0.00     0.074 A 
ATOM     60  C   UNL A   1      42.649  31.673  31.529  1.00  0.00     0.031 C 
ATOM     61  C   UNL A   1      43.770  29.860  32.989  1.00  0.00     0.031 A 
BRANCH  48  62
ATOM     62  C   UNL A   1      46.111  31.389  28.329  1.00  0.00    -0.014 A 
ATOM     63  C   UNL A   1      45.205  32.441  28.550  1.00  0.00     0.010 A 
ATOM     64  C   UNL A   1      47.106  31.591  27.348  1.00  0.00     0.010 A 
ATOM     65  C   UNL A   1      45.260  33.612  27.782  1.00  0.00     0.020 A 
ATOM     66  C   UNL A   1      47.202  32.770  26.616  1.00  0.00     0.020 A 
ATOM     67  C   UNL A   1      46.253  33.761  26.813  1.00  0.00     0.054 A 
BRANCH  67  68
ATOM     68  S   UNL A   1      46.254  35.224  25.753  1.00  0.00     0.124 S 
ATOM     69  O   UNL A   1      45.241  36.055  26.395  1.00  0.00    -0.237 OA
ATOM     70  O   UNL A   1      47.632  35.691  25.874  1.00  0.00    -0.237 OA
ATOM     71  O   UNL A   1      45.894  34.695  24.441  1.00  0.00    -0.744 OA
ENDBRANCH  67  68
ENDBRANCH  48  62
BRANCH  49  72
ATOM     72  C   UNL A   1      38.157  31.148  31.562  1.00  0.00    -0.014 A 
ATOM     73  C   UNL A   1      37.000  30.741  32.252  1.00  0.00     0.010 A 
ATOM     74  C   UNL A   1      38.158  32.438  30.992  1.00  0.00     0.010 A 
ATOM     75  C   UNL A   1      35.917  31.618  32.426  1.00  0.00     0.020 A 
ATOM     76  C   UNL A   1      37.079  33.313  31.150  1.00  0.00     0.020 A 
ATOM     77  C   UNL A   1      35.973  32.908  31.893  1.00  0.00     0.054 A 
BRANCH  77  78
ATOM     78  S   UNL A   1      34.660  34.100  32.288  1.00  0.00     0.124 S 
ATOM     79  O   UNL A   1      33.837  34.067  31.083  1.00  0.00    -0.237 OA
ATOM     80  O   UNL A   1      34.056  33.521  33.485  1.00  0.00    -0.237 OA
ATOM     81  O   UNL A   1      35.386  35.350  32.510  1.00  0.00    -0.744 OA
ENDBRANCH  77  78
ENDBRANCH  49  72
BRANCH  61  82
ATOM     82  C   UNL A   1      43.518  28.903  34.133  1.00  0.00    -0.014 A 
ATOM     83  C   UNL A   1      43.810  29.198  35.478  1.00  0.00     0.010 A 
ATOM     84  C   UNL A   1      42.820  27.717  33.843  1.00  0.00     0.010 A 
ATOM     85  C   UNL A   1      43.437  28.314  36.503  1.00  0.00     0.020 A 
ATOM     86  C   UNL A   1      42.429  26.843  34.858  1.00  0.00     0.020 A 
ATOM     87  C   UNL A   1      42.747  27.140  36.184  1.00  0.00     0.054 A 
BRANCH  87  88
ATOM     88  S   UNL A   1      42.221  26.024  37.515  1.00  0.00     0.124 S 
ATOM     89  O   UNL A   1      40.803  26.343  37.656  1.00  0.00    -0.237 OA
ATOM     90  O   UNL A   1      42.517  24.702  36.967  1.00  0.00    -0.237 OA
ATOM     91  O   UNL A   1      43.058  26.415  38.649  1.00  0.00    -0.744 OA
ENDBRANCH  87  88
ENDBRANCH  61  82
ENDBRANCH  35  36
ENDBRANCH  28  30
ENDBRANCH  27  28
ENDBRANCH  26  27
ENDBRANCH  25  26
ENDBRANCH  24  25
ENDBRANCH   1  24
TORSDOF 21
ENDMDL
