MODEL 1
REMARK VINA RESULT:      -9.6      0.000      0.000
REMARK SMILES CC[C@@H]1CCCN(S(=O)(=O)c2cc(C(=O)OCCOCCOC(=O)c3ccc(-c4c5nc(c(-c6ccc(S(=O)(=O)[O-])cc6)c6ccc([nH]6)c(-c6ccc(S(=O)(=O)[O-])cc6)c6nc(c(-c7ccc(S(=O)(=O)[O-])cc7)c7ccc4[nH]7)C=C6)C=C5)cc3)ccc2F)C1
REMARK SMILES IDX 19 1 18 2 17 3 16 4 14 5 15 6 13 7 11 8 12 9 87 10 86 11
REMARK SMILES IDX 88 12 85 13 8 14 9 15 10 16 7 17 3 18 4 19 89 20 5 21 6 22
REMARK SMILES IDX 2 23 1 24 20 25 21 26 22 27 23 28 24 29 25 30 26 31 84 32
REMARK SMILES IDX 27 33 83 34 28 35 29 36 30 37 77 38 31 39 82 40 76 41 78 42
REMARK SMILES IDX 32 43 81 44 75 45 74 46 33 48 63 49 44 50 62 51 45 52 48 53
REMARK SMILES IDX 61 54 79 55 46 56 47 57 60 59 80 60 49 61 34 62 35 63 43 64
REMARK SMILES IDX 36 65 42 66 37 67 38 68 39 69 40 70 41 71 64 72 65 73 73 74
REMARK SMILES IDX 66 75 72 76 67 77 68 78 69 79 70 80 71 81 50 82 51 83 59 84
REMARK SMILES IDX 52 85 58 86 53 87 54 88 55 89 56 90 57 91
REMARK H PARENT 78 47 48 58
REMARK Flexibility Score: inf
ROOT
ATOM      1  O   UNL A   1      31.559  31.112  25.692  1.00  0.00    -0.374 OA
ENDROOT
BRANCH   1   2
ATOM      2  C   UNL A   1      30.313  31.650  25.252  1.00  0.00     0.202 C 
BRANCH   2   3
ATOM      3  C   UNL A   1      29.543  30.864  24.186  1.00  0.00     0.261 C 
BRANCH   3   4
ATOM      4  O   UNL A   1      30.400  30.448  23.111  1.00  0.00    -0.460 OA
BRANCH   4   5
ATOM      5  C   UNL A   1      30.343  29.130  22.805  1.00  0.00     0.338 C 
ATOM      6  O   UNL A   1      29.616  28.592  21.986  1.00  0.00    -0.246 OA
BRANCH   5   7
ATOM      7  C   UNL A   1      31.449  28.413  23.485  1.00  0.00     0.061 A 
ATOM      8  C   UNL A   1      32.137  26.493  24.791  1.00  0.00     0.119 A 
ATOM      9  C   UNL A   1      31.125  27.242  24.184  1.00  0.00     0.040 A 
ATOM     10  C   UNL A   1      33.462  26.900  24.680  1.00  0.00     0.143 A 
ATOM     11  C   UNL A   1      33.788  28.073  24.001  1.00  0.00     0.041 A 
ATOM     12  F   UNL A   1      34.455  26.211  25.258  1.00  0.00    -0.206 F 
ATOM     13  C   UNL A   1      32.784  28.831  23.395  1.00  0.00     0.019 A 
BRANCH   8  14
ATOM     14  S   UNL A   1      31.736  24.975  25.596  1.00  0.00     0.246 S 
ATOM     15  O   UNL A   1      30.484  24.475  25.075  1.00  0.00    -0.207 OA
ATOM     16  O   UNL A   1      31.885  25.194  27.024  1.00  0.00    -0.207 OA
BRANCH  14  17
ATOM     17  N   UNL A   1      32.992  23.886  25.115  1.00  0.00    -0.197 NA
ATOM     18  C   UNL A   1      34.982  22.547  25.897  1.00  0.00     0.004 C 
ATOM     19  C   UNL A   1      34.463  21.363  25.073  1.00  0.00     0.006 C 
ATOM     20  C   UNL A   1      33.809  23.459  26.301  1.00  0.00     0.106 C 
ATOM     21  C   UNL A   1      33.652  21.837  23.879  1.00  0.00     0.017 C 
ATOM     22  C   UNL A   1      32.496  22.717  24.331  1.00  0.00     0.102 C 
BRANCH  18  23
ATOM     23  C   UNL A   1      36.095  23.310  25.148  1.00  0.00     0.001 C 
ATOM     24  C   UNL A   1      37.211  23.761  26.082  1.00  0.00     0.004 C 
ENDBRANCH  18  23
ENDBRANCH  14  17
ENDBRANCH   8  14
ENDBRANCH   5   7
ENDBRANCH   4   5
ENDBRANCH   3   4
ENDBRANCH   2   3
ENDBRANCH   1   2
BRANCH   1  25
ATOM     25  C   UNL A   1      31.534  30.115  26.711  1.00  0.00     0.202 C 
BRANCH  25  26
ATOM     26  C   UNL A   1      32.876  29.591  27.241  1.00  0.00     0.261 C 
BRANCH  26  27
ATOM     27  O   UNL A   1      33.985  30.443  26.910  1.00  0.00    -0.460 OA
BRANCH  27  28
ATOM     28  C   UNL A   1      34.628  30.970  27.982  1.00  0.00     0.338 C 
ATOM     29  O   UNL A   1      34.194  31.795  28.768  1.00  0.00    -0.246 OA
BRANCH  28  30
ATOM     30  C   UNL A   1      35.903  30.262  28.197  1.00  0.00     0.060 A 
ATOM     31  C   UNL A   1      36.148  29.733  29.471  1.00  0.00     0.016 A 
ATOM     32  C   UNL A   1      36.871  30.185  27.195  1.00  0.00     0.016 A 
ATOM     33  C   UNL A   1      37.388  29.168  29.765  1.00  0.00     0.010 A 
ATOM     34  C   UNL A   1      38.116  29.622  27.494  1.00  0.00     0.010 A 
ATOM     35  C   UNL A   1      38.392  29.145  28.789  1.00  0.00    -0.014 A 
BRANCH  35  36
ATOM     36  C   UNL A   1      39.777  28.761  29.159  1.00  0.00     0.031 A 
ATOM     37  C   UNL A   1      40.646  29.763  29.869  1.00  0.00     0.074 A 
ATOM     38  C   UNL A   1      40.252  27.537  28.870  1.00  0.00     0.049 A 
ATOM     39  N   UNL A   1      41.902  29.669  30.219  1.00  0.00    -0.248 NA
ATOM     40  C   UNL A   1      40.014  31.045  30.225  1.00  0.00     0.031 C 
ATOM     41  C   UNL A   1      39.494  26.464  28.229  1.00  0.00     0.029 A 
ATOM     42  N   UNL A   1      41.497  26.995  29.073  1.00  0.00    -0.354 N 
ATOM     43  C   UNL A   1      42.218  30.883  30.820  1.00  0.00     0.074 A 
ATOM     44  C   UNL A   1      41.030  31.707  30.759  1.00  0.00     0.031 C 
ATOM     45  C   UNL A   1      40.294  25.393  28.082  1.00  0.00     0.029 A 
ATOM     46  C   UNL A   1      41.629  25.719  28.578  1.00  0.00     0.049 A 
ATOM     47  H   UNL A   1      42.226  27.475  29.529  1.00  0.00     0.167 HD
ATOM     48  C   UNL A   1      43.390  31.275  31.374  1.00  0.00     0.031 A 
ATOM     49  C   UNL A   1      42.710  24.917  28.510  1.00  0.00     0.031 A 
ATOM     50  C   UNL A   1      44.572  30.454  31.420  1.00  0.00     0.049 A 
ATOM     51  C   UNL A   1      44.024  25.400  29.063  1.00  0.00     0.074 A 
ATOM     52  C   UNL A   1      45.803  30.750  31.975  1.00  0.00     0.029 A 
ATOM     53  N   UNL A   1      44.672  29.179  30.882  1.00  0.00    -0.354 N 
ATOM     54  N   UNL A   1      44.304  26.542  29.647  1.00  0.00    -0.248 NA
ATOM     55  C   UNL A   1      45.168  24.482  28.960  1.00  0.00     0.031 C 
ATOM     56  C   UNL A   1      46.669  29.684  31.714  1.00  0.00     0.029 A 
ATOM     57  C   UNL A   1      45.955  28.689  31.065  1.00  0.00     0.049 A 
ATOM     58  H   UNL A   1      43.941  28.695  30.436  1.00  0.00     0.167 HD
ATOM     59  C   UNL A   1      45.645  26.465  30.010  1.00  0.00     0.074 A 
ATOM     60  C   UNL A   1      46.117  25.162  29.589  1.00  0.00     0.031 C 
ATOM     61  C   UNL A   1      46.413  27.388  30.642  1.00  0.00     0.031 A 
BRANCH  48  62
ATOM     62  C   UNL A   1      43.464  32.671  31.937  1.00  0.00    -0.014 A 
ATOM     63  C   UNL A   1      43.206  32.931  33.296  1.00  0.00     0.010 A 
ATOM     64  C   UNL A   1      43.827  33.740  31.096  1.00  0.00     0.010 A 
ATOM     65  C   UNL A   1      43.266  34.237  33.791  1.00  0.00     0.020 A 
ATOM     66  C   UNL A   1      43.921  35.042  31.594  1.00  0.00     0.020 A 
ATOM     67  C   UNL A   1      43.621  35.284  32.935  1.00  0.00     0.054 A 
BRANCH  67  68
ATOM     68  S   UNL A   1      43.705  36.967  33.609  1.00  0.00     0.124 S 
ATOM     69  O   UNL A   1      44.902  36.897  34.444  1.00  0.00    -0.237 OA
ATOM     70  O   UNL A   1      43.826  37.786  32.407  1.00  0.00    -0.237 OA
ATOM     71  O   UNL A   1      42.448  37.113  34.338  1.00  0.00    -0.744 OA
ENDBRANCH  67  68
ENDBRANCH  48  62
BRANCH  49  72
ATOM     72  C   UNL A   1      42.595  23.575  27.873  1.00  0.00    -0.014 A 
ATOM     73  C   UNL A   1      42.786  23.418  26.489  1.00  0.00     0.010 A 
ATOM     74  C   UNL A   1      42.307  22.441  28.656  1.00  0.00     0.010 A 
ATOM     75  C   UNL A   1      42.682  22.155  25.899  1.00  0.00     0.020 A 
ATOM     76  C   UNL A   1      42.233  21.173  28.074  1.00  0.00     0.020 A 
ATOM     77  C   UNL A   1      42.413  21.039  26.696  1.00  0.00     0.054 A 
BRANCH  77  78
ATOM     78  S   UNL A   1      42.349  19.402  25.917  1.00  0.00     0.124 S 
ATOM     79  O   UNL A   1      42.798  18.532  26.999  1.00  0.00    -0.237 OA
ATOM     80  O   UNL A   1      40.940  19.284  25.552  1.00  0.00    -0.237 OA
ATOM     81  O   UNL A   1      43.269  19.524  24.788  1.00  0.00    -0.744 OA
ENDBRANCH  77  78
ENDBRANCH  49  72
BRANCH  61  82
ATOM     82  C   UNL A   1      47.836  27.012  30.966  1.00  0.00    -0.014 A 
ATOM     83  C   UNL A   1      48.175  26.369  32.169  1.00  0.00     0.010 A 
ATOM     84  C   UNL A   1      48.844  27.249  30.010  1.00  0.00     0.010 A 
ATOM     85  C   UNL A   1      49.499  25.996  32.423  1.00  0.00     0.020 A 
ATOM     86  C   UNL A   1      50.162  26.849  30.247  1.00  0.00     0.020 A 
ATOM     87  C   UNL A   1      50.483  26.235  31.458  1.00  0.00     0.054 A 
BRANCH  87  88
ATOM     88  S   UNL A   1      52.182  25.695  31.791  1.00  0.00     0.124 S 
ATOM     89  O   UNL A   1      52.835  25.933  30.507  1.00  0.00    -0.237 OA
ATOM     90  O   UNL A   1      52.591  26.581  32.878  1.00  0.00    -0.237 OA
ATOM     91  O   UNL A   1      52.033  24.289  32.164  1.00  0.00    -0.744 OA
ENDBRANCH  87  88
ENDBRANCH  61  82
ENDBRANCH  35  36
ENDBRANCH  28  30
ENDBRANCH  27  28
ENDBRANCH  26  27
ENDBRANCH  25  26
ENDBRANCH   1  25
TORSDOF 20
ENDMDL
MODEL 2
REMARK VINA RESULT:      -9.5      3.163      8.737
REMARK SMILES CC[C@@H]1CCCN(S(=O)(=O)c2cc(C(=O)OCCOCCOC(=O)c3ccc(-c4c5nc(c(-c6ccc(S(=O)(=O)[O-])cc6)c6ccc([nH]6)c(-c6ccc(S(=O)(=O)[O-])cc6)c6nc(c(-c7ccc(S(=O)(=O)[O-])cc7)c7ccc4[nH]7)C=C6)C=C5)cc3)ccc2F)C1
REMARK SMILES IDX 19 1 18 2 17 3 16 4 14 5 15 6 13 7 11 8 12 9 87 10 86 11
REMARK SMILES IDX 88 12 85 13 8 14 9 15 10 16 7 17 3 18 4 19 89 20 5 21 6 22
REMARK SMILES IDX 2 23 1 24 20 25 21 26 22 27 23 28 24 29 25 30 26 31 84 32
REMARK SMILES IDX 27 33 83 34 28 35 29 36 30 37 77 38 31 39 82 40 76 41 78 42
REMARK SMILES IDX 32 43 81 44 75 45 74 46 33 48 63 49 44 50 62 51 45 52 48 53
REMARK SMILES IDX 61 54 79 55 46 56 47 57 60 59 80 60 49 61 34 62 35 63 43 64
REMARK SMILES IDX 36 65 42 66 37 67 38 68 39 69 40 70 41 71 64 72 65 73 73 74
REMARK SMILES IDX 66 75 72 76 67 77 68 78 69 79 70 80 71 81 50 82 51 83 59 84
REMARK SMILES IDX 52 85 58 86 53 87 54 88 55 89 56 90 57 91
REMARK H PARENT 78 47 48 58
REMARK Flexibility Score: inf
ROOT
ATOM      1  O   UNL A   1      34.657  32.030  27.321  1.00  0.00    -0.374 OA
ENDROOT
BRANCH   1   2
ATOM      2  C   UNL A   1      33.599  31.227  27.843  1.00  0.00     0.202 C 
BRANCH   2   3
ATOM      3  C   UNL A   1      33.368  29.858  27.195  1.00  0.00     0.261 C 
BRANCH   3   4
ATOM      4  O   UNL A   1      33.199  29.966  25.772  1.00  0.00    -0.460 OA
BRANCH   4   5
ATOM      5  C   UNL A   1      31.918  29.890  25.337  1.00  0.00     0.338 C 
ATOM      6  O   UNL A   1      31.068  30.763  25.387  1.00  0.00    -0.246 OA
BRANCH   5   7
ATOM      7  C   UNL A   1      31.722  28.624  24.591  1.00  0.00     0.061 A 
ATOM      8  C   UNL A   1      31.558  26.209  24.678  1.00  0.00     0.119 A 
ATOM      9  C   UNL A   1      31.797  27.428  25.318  1.00  0.00     0.040 A 
ATOM     10  C   UNL A   1      31.225  26.188  23.328  1.00  0.00     0.143 A 
ATOM     11  C   UNL A   1      31.166  27.373  22.595  1.00  0.00     0.041 A 
ATOM     12  F   UNL A   1      31.000  25.037  22.682  1.00  0.00    -0.206 F 
ATOM     13  C   UNL A   1      31.408  28.596  23.225  1.00  0.00     0.019 A 
BRANCH   8  14
ATOM     14  S   UNL A   1      31.569  24.714  25.616  1.00  0.00     0.246 S 
ATOM     15  O   UNL A   1      30.459  23.885  25.203  1.00  0.00    -0.207 OA
ATOM     16  O   UNL A   1      31.711  25.084  27.012  1.00  0.00    -0.207 OA
BRANCH  14  17
ATOM     17  N   UNL A   1      33.034  23.921  25.148  1.00  0.00    -0.197 NA
ATOM     18  C   UNL A   1      35.184  22.891  25.974  1.00  0.00     0.004 C 
ATOM     19  C   UNL A   1      34.951  21.721  25.012  1.00  0.00     0.006 C 
ATOM     20  C   UNL A   1      33.839  23.534  26.356  1.00  0.00     0.106 C 
ATOM     21  C   UNL A   1      34.145  22.157  23.800  1.00  0.00     0.017 C 
ATOM     22  C   UNL A   1      32.818  22.766  24.229  1.00  0.00     0.102 C 
BRANCH  18  23
ATOM     23  C   UNL A   1      36.182  23.912  25.386  1.00  0.00     0.001 C 
ATOM     24  C   UNL A   1      37.457  24.013  26.215  1.00  0.00     0.004 C 
ENDBRANCH  18  23
ENDBRANCH  14  17
ENDBRANCH   8  14
ENDBRANCH   5   7
ENDBRANCH   4   5
ENDBRANCH   3   4
ENDBRANCH   2   3
ENDBRANCH   1   2
BRANCH   1  25
ATOM     25  C   UNL A   1      35.775  32.292  28.166  1.00  0.00     0.202 C 
BRANCH  25  26
ATOM     26  C   UNL A   1      35.591  32.120  29.681  1.00  0.00     0.261 C 
BRANCH  26  27
ATOM     27  O   UNL A   1      36.810  31.775  30.361  1.00  0.00    -0.460 OA
BRANCH  27  28
ATOM     28  C   UNL A   1      36.905  30.469  30.714  1.00  0.00     0.338 C 
ATOM     29  O   UNL A   1      36.062  29.797  31.287  1.00  0.00    -0.246 OA
BRANCH  28  30
ATOM     30  C   UNL A   1      38.129  29.884  30.139  1.00  0.00     0.060 A 
ATOM     31  C   UNL A   1      39.162  29.535  31.019  1.00  0.00     0.016 A 
ATOM     32  C   UNL A   1      38.295  29.752  28.759  1.00  0.00     0.016 A 
ATOM     33  C   UNL A   1      40.387  29.098  30.519  1.00  0.00     0.010 A 
ATOM     34  C   UNL A   1      39.527  29.320  28.260  1.00  0.00     0.010 A 
ATOM     35  C   UNL A   1      40.589  29.026  29.136  1.00  0.00    -0.014 A 
BRANCH  35  36
ATOM     36  C   UNL A   1      41.951  28.789  28.596  1.00  0.00     0.031 A 
ATOM     37  C   UNL A   1      42.322  27.404  28.137  1.00  0.00     0.074 A 
ATOM     38  C   UNL A   1      42.843  29.792  28.512  1.00  0.00     0.049 A 
ATOM     39  N   UNL A   1      43.469  26.956  27.702  1.00  0.00    -0.248 NA
ATOM     40  C   UNL A   1      41.255  26.391  28.181  1.00  0.00     0.031 C 
ATOM     41  C   UNL A   1      42.589  31.183  28.878  1.00  0.00     0.029 A 
ATOM     42  N   UNL A   1      44.151  29.785  28.097  1.00  0.00    -0.354 N 
ATOM     43  C   UNL A   1      43.271  25.605  27.439  1.00  0.00     0.074 A 
ATOM     44  C   UNL A   1      41.901  25.301  27.790  1.00  0.00     0.031 C 
ATOM     45  C   UNL A   1      43.711  31.897  28.681  1.00  0.00     0.029 A 
ATOM     46  C   UNL A   1      44.771  31.007  28.216  1.00  0.00     0.049 A 
ATOM     47  H   UNL A   1      44.603  28.983  27.748  1.00  0.00     0.167 HD
ATOM     48  C   UNL A   1      44.149  24.699  26.945  1.00  0.00     0.031 A 
ATOM     49  C   UNL A   1      46.055  31.359  28.000  1.00  0.00     0.031 A 
ATOM     50  C   UNL A   1      45.516  25.005  26.609  1.00  0.00     0.049 A 
ATOM     51  C   UNL A   1      47.036  30.320  27.524  1.00  0.00     0.074 A 
ATOM     52  C   UNL A   1      46.481  24.164  26.085  1.00  0.00     0.029 A 
ATOM     53  N   UNL A   1      46.113  26.247  26.772  1.00  0.00    -0.354 N 
ATOM     54  N   UNL A   1      46.829  29.051  27.259  1.00  0.00    -0.248 NA
ATOM     55  C   UNL A   1      48.420  30.762  27.306  1.00  0.00     0.031 C 
ATOM     56  C   UNL A   1      47.680  24.878  25.994  1.00  0.00     0.029 A 
ATOM     57  C   UNL A   1      47.442  26.186  26.388  1.00  0.00     0.049 A 
ATOM     58  H   UNL A   1      45.660  27.052  27.110  1.00  0.00     0.167 HD
ATOM     59  C   UNL A   1      48.050  28.553  26.812  1.00  0.00     0.074 A 
ATOM     60  C   UNL A   1      48.984  29.659  26.833  1.00  0.00     0.031 C 
ATOM     61  C   UNL A   1      48.364  27.295  26.412  1.00  0.00     0.031 A 
BRANCH  48  62
ATOM     62  C   UNL A   1      43.671  23.279  26.781  1.00  0.00    -0.014 A 
ATOM     63  C   UNL A   1      43.124  22.558  27.858  1.00  0.00     0.010 A 
ATOM     64  C   UNL A   1      43.743  22.665  25.517  1.00  0.00     0.010 A 
ATOM     65  C   UNL A   1      42.701  21.237  27.683  1.00  0.00     0.020 A 
ATOM     66  C   UNL A   1      43.292  21.356  25.330  1.00  0.00     0.020 A 
ATOM     67  C   UNL A   1      42.791  20.644  26.421  1.00  0.00     0.054 A 
BRANCH  67  68
ATOM     68  S   UNL A   1      42.222  18.933  26.221  1.00  0.00     0.124 S 
ATOM     69  O   UNL A   1      42.388  18.401  27.572  1.00  0.00    -0.237 OA
ATOM     70  O   UNL A   1      40.840  19.105  25.780  1.00  0.00    -0.237 OA
ATOM     71  O   UNL A   1      43.129  18.379  25.220  1.00  0.00    -0.744 OA
ENDBRANCH  67  68
ENDBRANCH  48  62
BRANCH  49  72
ATOM     72  C   UNL A   1      46.488  32.762  28.252  1.00  0.00    -0.014 A 
ATOM     73  C   UNL A   1      46.521  33.702  27.207  1.00  0.00     0.010 A 
ATOM     74  C   UNL A   1      46.856  33.168  29.549  1.00  0.00     0.010 A 
ATOM     75  C   UNL A   1      46.924  35.018  27.453  1.00  0.00     0.020 A 
ATOM     76  C   UNL A   1      47.229  34.490  29.803  1.00  0.00     0.020 A 
ATOM     77  C   UNL A   1      47.269  35.406  28.750  1.00  0.00     0.054 A 
BRANCH  77  78
ATOM     78  S   UNL A   1      47.724  37.135  29.055  1.00  0.00     0.124 S 
ATOM     79  O   UNL A   1      47.935  37.145  30.499  1.00  0.00    -0.237 OA
ATOM     80  O   UNL A   1      48.923  37.292  28.237  1.00  0.00    -0.237 OA
ATOM     81  O   UNL A   1      46.558  37.883  28.588  1.00  0.00    -0.744 OA
ENDBRANCH  77  78
ENDBRANCH  49  72
BRANCH  61  82
ATOM     82  C   UNL A   1      49.766  27.047  25.916  1.00  0.00    -0.014 A 
ATOM     83  C   UNL A   1      50.766  26.531  26.759  1.00  0.00     0.010 A 
ATOM     84  C   UNL A   1      50.065  27.274  24.559  1.00  0.00     0.010 A 
ATOM     85  C   UNL A   1      52.046  26.273  26.259  1.00  0.00     0.020 A 
ATOM     86  C   UNL A   1      51.334  26.987  24.049  1.00  0.00     0.020 A 
ATOM     87  C   UNL A   1      52.321  26.499  24.906  1.00  0.00     0.054 A 
BRANCH  87  88
ATOM     88  S   UNL A   1      53.976  26.108  24.273  1.00  0.00     0.124 S 
ATOM     89  O   UNL A   1      53.748  26.066  22.832  1.00  0.00    -0.237 OA
ATOM     90  O   UNL A   1      54.774  27.234  24.752  1.00  0.00    -0.237 OA
ATOM     91  O   UNL A   1      54.289  24.822  24.893  1.00  0.00    -0.744 OA
ENDBRANCH  87  88
ENDBRANCH  61  82
ENDBRANCH  35  36
ENDBRANCH  28  30
ENDBRANCH  27  28
ENDBRANCH  26  27
ENDBRANCH  25  26
ENDBRANCH   1  25
TORSDOF 20
ENDMDL
MODEL 3
REMARK VINA RESULT:      -9.5      4.004      5.369
REMARK SMILES CC[C@@H]1CCCN(S(=O)(=O)c2cc(C(=O)OCCOCCOC(=O)c3ccc(-c4c5nc(c(-c6ccc(S(=O)(=O)[O-])cc6)c6ccc([nH]6)c(-c6ccc(S(=O)(=O)[O-])cc6)c6nc(c(-c7ccc(S(=O)(=O)[O-])cc7)c7ccc4[nH]7)C=C6)C=C5)cc3)ccc2F)C1
REMARK SMILES IDX 19 1 18 2 17 3 16 4 14 5 15 6 13 7 11 8 12 9 87 10 86 11
REMARK SMILES IDX 88 12 85 13 8 14 9 15 10 16 7 17 3 18 4 19 89 20 5 21 6 22
REMARK SMILES IDX 2 23 1 24 20 25 21 26 22 27 23 28 24 29 25 30 26 31 84 32
REMARK SMILES IDX 27 33 83 34 28 35 29 36 30 37 77 38 31 39 82 40 76 41 78 42
REMARK SMILES IDX 32 43 81 44 75 45 74 46 33 48 63 49 44 50 62 51 45 52 48 53
REMARK SMILES IDX 61 54 79 55 46 56 47 57 60 59 80 60 49 61 34 62 35 63 43 64
REMARK SMILES IDX 36 65 42 66 37 67 38 68 39 69 40 70 41 71 64 72 65 73 73 74
REMARK SMILES IDX 66 75 72 76 67 77 68 78 69 79 70 80 71 81 50 82 51 83 59 84
REMARK SMILES IDX 52 85 58 86 53 87 54 88 55 89 56 90 57 91
REMARK H PARENT 78 47 48 58
REMARK Flexibility Score: inf
ROOT
ATOM      1  O   UNL A   1      34.335  30.918  27.479  1.00  0.00    -0.374 OA
ENDROOT
BRANCH   1   2
ATOM      2  C   UNL A   1      34.775  29.564  27.386  1.00  0.00     0.202 C 
BRANCH   2   3
ATOM      3  C   UNL A   1      34.228  28.724  26.228  1.00  0.00     0.261 C 
BRANCH   3   4
ATOM      4  O   UNL A   1      33.608  27.515  26.695  1.00  0.00    -0.460 OA
BRANCH   4   5
ATOM      5  C   UNL A   1      32.284  27.408  26.433  1.00  0.00     0.338 C 
ATOM      6  O   UNL A   1      31.358  27.688  27.177  1.00  0.00    -0.246 OA
BRANCH   5   7
ATOM      7  C   UNL A   1      32.086  27.069  25.003  1.00  0.00     0.061 A 
ATOM      8  C   UNL A   1      32.303  25.411  23.251  1.00  0.00     0.119 A 
ATOM      9  C   UNL A   1      32.520  25.807  24.573  1.00  0.00     0.040 A 
ATOM     10  C   UNL A   1      31.638  26.261  22.373  1.00  0.00     0.143 A 
ATOM     11  C   UNL A   1      31.221  27.524  22.790  1.00  0.00     0.041 A 
ATOM     12  F   UNL A   1      31.424  25.916  21.096  1.00  0.00    -0.206 F 
ATOM     13  C   UNL A   1      31.438  27.931  24.108  1.00  0.00     0.019 A 
BRANCH   8  14
ATOM     14  S   UNL A   1      32.773  23.790  22.737  1.00  0.00     0.246 S 
ATOM     15  O   UNL A   1      33.321  23.853  21.401  1.00  0.00    -0.207 OA
ATOM     16  O   UNL A   1      31.652  22.910  23.014  1.00  0.00    -0.207 OA
BRANCH  14  17
ATOM     17  N   UNL A   1      34.047  23.346  23.820  1.00  0.00    -0.197 NA
ATOM     18  C   UNL A   1      34.817  21.654  25.527  1.00  0.00     0.004 C 
ATOM     19  C   UNL A   1      36.199  21.667  24.863  1.00  0.00     0.006 C 
ATOM     20  C   UNL A   1      33.737  22.043  24.501  1.00  0.00     0.106 C 
ATOM     21  C   UNL A   1      36.477  23.004  24.197  1.00  0.00     0.017 C 
ATOM     22  C   UNL A   1      35.394  23.332  23.179  1.00  0.00     0.102 C 
BRANCH  18  23
ATOM     23  C   UNL A   1      34.789  22.550  26.784  1.00  0.00     0.001 C 
ATOM     24  C   UNL A   1      33.599  22.240  27.684  1.00  0.00     0.004 C 
ENDBRANCH  18  23
ENDBRANCH  14  17
ENDBRANCH   8  14
ENDBRANCH   5   7
ENDBRANCH   4   5
ENDBRANCH   3   4
ENDBRANCH   2   3
ENDBRANCH   1   2
BRANCH   1  25
ATOM     25  C   UNL A   1      32.957  31.191  27.233  1.00  0.00     0.202 C 
BRANCH  25  26
ATOM     26  C   UNL A   1      32.461  32.632  27.418  1.00  0.00     0.261 C 
BRANCH  26  27
ATOM     27  O   UNL A   1      33.531  33.588  27.514  1.00  0.00    -0.460 OA
BRANCH  27  28
ATOM     28  C   UNL A   1      33.490  34.365  28.625  1.00  0.00     0.338 C 
ATOM     29  O   UNL A   1      32.628  35.173  28.928  1.00  0.00    -0.246 OA
BRANCH  28  30
ATOM     30  C   UNL A   1      34.567  33.970  29.551  1.00  0.00     0.060 A 
ATOM     31  C   UNL A   1      35.882  34.303  29.203  1.00  0.00     0.016 A 
ATOM     32  C   UNL A   1      34.302  33.220  30.699  1.00  0.00     0.016 A 
ATOM     33  C   UNL A   1      36.947  33.843  29.976  1.00  0.00     0.010 A 
ATOM     34  C   UNL A   1      35.372  32.755  31.469  1.00  0.00     0.010 A 
ATOM     35  C   UNL A   1      36.699  33.033  31.091  1.00  0.00    -0.014 A 
BRANCH  35  36
ATOM     36  C   UNL A   1      37.824  32.353  31.779  1.00  0.00     0.031 A 
ATOM     37  C   UNL A   1      38.301  32.889  33.102  1.00  0.00     0.074 A 
ATOM     38  C   UNL A   1      38.410  31.270  31.236  1.00  0.00     0.049 A 
ATOM     39  N   UNL A   1      39.307  32.499  33.839  1.00  0.00    -0.248 NA
ATOM     40  C   UNL A   1      37.543  34.019  33.663  1.00  0.00     0.031 C 
ATOM     41  C   UNL A   1      38.008  30.628  29.986  1.00  0.00     0.029 A 
ATOM     42  N   UNL A   1      39.478  30.526  31.669  1.00  0.00    -0.354 N 
ATOM     43  C   UNL A   1      39.318  33.346  34.941  1.00  0.00     0.074 A 
ATOM     44  C   UNL A   1      38.235  34.289  34.761  1.00  0.00     0.031 C 
ATOM     45  C   UNL A   1      38.827  29.590  29.747  1.00  0.00     0.029 A 
ATOM     46  C   UNL A   1      39.835  29.521  30.802  1.00  0.00     0.049 A 
ATOM     47  H   UNL A   1      39.945  30.697  32.519  1.00  0.00     0.167 HD
ATOM     48  C   UNL A   1      40.151  33.339  36.009  1.00  0.00     0.031 A 
ATOM     49  C   UNL A   1      40.873  28.661  30.842  1.00  0.00     0.031 A 
ATOM     50  C   UNL A   1      41.235  32.405  36.176  1.00  0.00     0.049 A 
ATOM     51  C   UNL A   1      41.834  28.717  32.000  1.00  0.00     0.074 A 
ATOM     52  C   UNL A   1      42.125  32.301  37.229  1.00  0.00     0.029 A 
ATOM     53  N   UNL A   1      41.581  31.421  35.261  1.00  0.00    -0.354 N 
ATOM     54  N   UNL A   1      41.820  29.510  33.046  1.00  0.00    -0.248 NA
ATOM     55  C   UNL A   1      42.946  27.756  31.990  1.00  0.00     0.031 C 
ATOM     56  C   UNL A   1      43.051  31.299  36.921  1.00  0.00     0.029 A 
ATOM     57  C   UNL A   1      42.691  30.726  35.712  1.00  0.00     0.049 A 
ATOM     58  H   UNL A   1      41.108  31.243  34.417  1.00  0.00     0.167 HD
ATOM     59  C   UNL A   1      42.899  29.120  33.833  1.00  0.00     0.074 A 
ATOM     60  C   UNL A   1      43.538  28.015  33.147  1.00  0.00     0.031 C 
ATOM     61  C   UNL A   1      43.317  29.626  35.021  1.00  0.00     0.031 A 
BRANCH  48  62
ATOM     62  C   UNL A   1      39.951  34.401  37.060  1.00  0.00    -0.014 A 
ATOM     63  C   UNL A   1      39.034  34.229  38.113  1.00  0.00     0.010 A 
ATOM     64  C   UNL A   1      40.716  35.580  37.007  1.00  0.00     0.010 A 
ATOM     65  C   UNL A   1      38.856  35.235  39.067  1.00  0.00     0.020 A 
ATOM     66  C   UNL A   1      40.564  36.575  37.977  1.00  0.00     0.020 A 
ATOM     67  C   UNL A   1      39.620  36.403  38.991  1.00  0.00     0.054 A 
BRANCH  67  68
ATOM     68  S   UNL A   1      39.377  37.686  40.250  1.00  0.00     0.124 S 
ATOM     69  O   UNL A   1      40.600  38.475  40.115  1.00  0.00    -0.237 OA
ATOM     70  O   UNL A   1      38.153  38.345  39.804  1.00  0.00    -0.237 OA
ATOM     71  O   UNL A   1      39.260  36.933  41.496  1.00  0.00    -0.744 OA
ENDBRANCH  67  68
ENDBRANCH  48  62
BRANCH  49  72
ATOM     72  C   UNL A   1      41.064  27.682  29.736  1.00  0.00    -0.014 A 
ATOM     73  C   UNL A   1      42.205  27.739  28.916  1.00  0.00     0.010 A 
ATOM     74  C   UNL A   1      40.108  26.675  29.507  1.00  0.00     0.010 A 
ATOM     75  C   UNL A   1      42.381  26.813  27.883  1.00  0.00     0.020 A 
ATOM     76  C   UNL A   1      40.295  25.729  28.496  1.00  0.00     0.020 A 
ATOM     77  C   UNL A   1      41.428  25.810  27.684  1.00  0.00     0.054 A 
BRANCH  77  78
ATOM     78  S   UNL A   1      41.712  24.581  26.380  1.00  0.00     0.124 S 
ATOM     79  O   UNL A   1      40.532  23.731  26.501  1.00  0.00    -0.237 OA
ATOM     80  O   UNL A   1      41.777  25.409  25.178  1.00  0.00    -0.237 OA
ATOM     81  O   UNL A   1      42.976  23.957  26.766  1.00  0.00    -0.744 OA
ENDBRANCH  77  78
ENDBRANCH  49  72
BRANCH  61  82
ATOM     82  C   UNL A   1      44.496  28.964  35.688  1.00  0.00    -0.014 A 
ATOM     83  C   UNL A   1      45.811  29.418  35.483  1.00  0.00     0.010 A 
ATOM     84  C   UNL A   1      44.271  27.908  36.592  1.00  0.00     0.010 A 
ATOM     85  C   UNL A   1      46.880  28.810  36.148  1.00  0.00     0.020 A 
ATOM     86  C   UNL A   1      45.333  27.319  37.283  1.00  0.00     0.020 A 
ATOM     87  C   UNL A   1      46.634  27.766  37.047  1.00  0.00     0.054 A 
BRANCH  87  88
ATOM     88  S   UNL A   1      48.033  27.029  37.935  1.00  0.00     0.124 S 
ATOM     89  O   UNL A   1      48.194  27.943  39.063  1.00  0.00    -0.237 OA
ATOM     90  O   UNL A   1      47.532  25.699  38.270  1.00  0.00    -0.237 OA
ATOM     91  O   UNL A   1      49.117  27.053  36.955  1.00  0.00    -0.744 OA
ENDBRANCH  87  88
ENDBRANCH  61  82
ENDBRANCH  35  36
ENDBRANCH  28  30
ENDBRANCH  27  28
ENDBRANCH  26  27
ENDBRANCH  25  26
ENDBRANCH   1  25
TORSDOF 20
ENDMDL
