MODEL 1
REMARK VINA RESULT:     -10.9      0.000      0.000
REMARK SMILES O=C(OCCOCCOC(=O)c1cccc(N2NC(=O)[C@H]3CC=CC[C@H]3C2=O)c1)c1ccc(-c2c3nc(c(-c4ccc(S(=O)(=O)[O-])cc4)c4ccc([nH]4)c(-c4ccc(S(=O)(=O)[O-])cc4)c4nc(c(-c5ccc(S(=O)(=O)[O-])cc5)c5ccc2[nH]5)C=C4)C=C3)cc1
REMARK SMILES IDX 5 1 4 2 3 3 2 4 1 5 30 6 31 7 89 8 32 9 88 10 33 11 34 12
REMARK SMILES IDX 35 13 82 14 36 15 87 16 81 17 83 18 37 19 86 20 80 21 79 22
REMARK SMILES IDX 38 24 68 25 49 26 67 27 50 28 53 29 66 30 84 31 51 32 52 33
REMARK SMILES IDX 65 35 85 36 54 37 39 38 40 39 48 40 41 41 47 42 42 43 43 44
REMARK SMILES IDX 44 45 45 46 46 47 69 48 70 49 78 50 71 51 77 52 72 53 73 54
REMARK SMILES IDX 74 55 75 56 76 57 55 58 56 59 64 60 57 61 63 62 58 63 59 64
REMARK SMILES IDX 60 65 61 66 62 67 6 68 7 69 8 70 9 71 10 72 11 73 12 74
REMARK SMILES IDX 13 75 29 76 14 77 16 78 15 79 17 80 18 81 27 82 19 83 26 85
REMARK SMILES IDX 28 86 20 87 21 88 25 89 22 90 24 91 23 92
REMARK H PARENT 83 23 53 34 18 84
REMARK Flexibility Score: inf
ROOT
ATOM      1  C   UNL A   1      44.673  22.842  25.585  1.00  0.00     0.202 C 
ENDROOT
BRANCH   1   2
ATOM      2  C   UNL A   1      44.642  24.191  24.870  1.00  0.00     0.261 C 
BRANCH   2   3
ATOM      3  O   UNL A   1      44.276  25.227  25.791  1.00  0.00    -0.460 OA
BRANCH   3   4
ATOM      4  C   UNL A   1      43.031  25.637  26.124  1.00  0.00     0.338 C 
ATOM      5  O   UNL A   1      42.094  25.318  25.392  1.00  0.00    -0.246 OA
BRANCH   4   6
ATOM      6  C   UNL A   1      42.725  26.460  27.333  1.00  0.00     0.060 A 
ATOM      7  C   UNL A   1      43.209  27.748  27.571  1.00  0.00     0.016 A 
ATOM      8  C   UNL A   1      41.796  25.930  28.242  1.00  0.00     0.016 A 
ATOM      9  C   UNL A   1      42.824  28.483  28.676  1.00  0.00     0.010 A 
ATOM     10  C   UNL A   1      41.376  26.672  29.348  1.00  0.00     0.010 A 
ATOM     11  C   UNL A   1      41.900  27.950  29.563  1.00  0.00    -0.014 A 
BRANCH  11  12
ATOM     12  C   UNL A   1      41.595  28.734  30.766  1.00  0.00     0.031 A 
ATOM     13  C   UNL A   1      40.397  29.624  30.737  1.00  0.00     0.074 A 
ATOM     14  C   UNL A   1      42.314  28.528  31.884  1.00  0.00     0.049 A 
ATOM     15  N   UNL A   1      39.958  30.444  31.648  1.00  0.00    -0.248 NA
ATOM     16  C   UNL A   1      39.574  29.573  29.514  1.00  0.00     0.031 C 
ATOM     17  C   UNL A   1      43.407  27.560  32.016  1.00  0.00     0.029 A 
ATOM     18  N   UNL A   1      42.218  29.096  33.123  1.00  0.00    -0.354 N 
ATOM     19  C   UNL A   1      38.832  31.040  31.096  1.00  0.00     0.074 A 
ATOM     20  C   UNL A   1      38.651  30.485  29.775  1.00  0.00     0.031 C 
ATOM     21  C   UNL A   1      43.879  27.602  33.272  1.00  0.00     0.029 A 
ATOM     22  C   UNL A   1      43.173  28.647  34.004  1.00  0.00     0.049 A 
ATOM     23  H   UNL A   1      41.532  29.760  33.362  1.00  0.00     0.167 HD
ATOM     24  C   UNL A   1      38.039  31.985  31.651  1.00  0.00     0.031 A 
ATOM     25  C   UNL A   1      43.470  29.078  35.243  1.00  0.00     0.031 A 
ATOM     26  C   UNL A   1      38.280  32.524  32.961  1.00  0.00     0.049 A 
ATOM     27  C   UNL A   1      42.638  30.199  35.803  1.00  0.00     0.074 A 
ATOM     28  C   UNL A   1      37.600  33.527  33.623  1.00  0.00     0.029 A 
ATOM     29  N   UNL A   1      39.298  32.097  33.806  1.00  0.00    -0.354 N 
ATOM     30  N   UNL A   1      41.610  30.809  35.256  1.00  0.00    -0.248 NA
ATOM     31  C   UNL A   1      43.003  30.700  37.132  1.00  0.00     0.031 C 
ATOM     32  C   UNL A   1      38.245  33.746  34.845  1.00  0.00     0.029 A 
ATOM     33  C   UNL A   1      39.284  32.834  34.975  1.00  0.00     0.049 A 
ATOM     34  H   UNL A   1      39.937  31.376  33.602  1.00  0.00     0.167 HD
ATOM     35  C   UNL A   1      41.195  31.760  36.178  1.00  0.00     0.074 A 
ATOM     36  C   UNL A   1      42.075  31.629  37.326  1.00  0.00     0.031 C 
ATOM     37  C   UNL A   1      40.186  32.662  36.089  1.00  0.00     0.031 A 
BRANCH  24  38
ATOM     38  C   UNL A   1      36.943  32.546  30.787  1.00  0.00    -0.014 A 
ATOM     39  C   UNL A   1      37.195  33.518  29.802  1.00  0.00     0.010 A 
ATOM     40  C   UNL A   1      35.617  32.134  31.016  1.00  0.00     0.010 A 
ATOM     41  C   UNL A   1      36.135  34.113  29.109  1.00  0.00     0.020 A 
ATOM     42  C   UNL A   1      34.558  32.706  30.306  1.00  0.00     0.020 A 
ATOM     43  C   UNL A   1      34.822  33.711  29.374  1.00  0.00     0.054 A 
BRANCH  43  44
ATOM     44  S   UNL A   1      33.463  34.522  28.489  1.00  0.00     0.124 S 
ATOM     45  O   UNL A   1      32.981  33.446  27.626  1.00  0.00    -0.237 OA
ATOM     46  O   UNL A   1      32.561  34.908  29.571  1.00  0.00    -0.237 OA
ATOM     47  O   UNL A   1      34.112  35.632  27.796  1.00  0.00    -0.744 OA
ENDBRANCH  43  44
ENDBRANCH  24  38
BRANCH  25  48
ATOM     48  C   UNL A   1      44.638  28.507  35.970  1.00  0.00    -0.014 A 
ATOM     49  C   UNL A   1      44.499  27.407  36.833  1.00  0.00     0.010 A 
ATOM     50  C   UNL A   1      45.923  29.046  35.761  1.00  0.00     0.010 A 
ATOM     51  C   UNL A   1      45.619  26.863  37.475  1.00  0.00     0.020 A 
ATOM     52  C   UNL A   1      47.048  28.487  36.374  1.00  0.00     0.020 A 
ATOM     53  C   UNL A   1      46.887  27.403  37.236  1.00  0.00     0.054 A 
BRANCH  53  54
ATOM     54  S   UNL A   1      48.332  26.643  38.029  1.00  0.00     0.124 S 
ATOM     55  O   UNL A   1      49.005  27.801  38.609  1.00  0.00    -0.237 OA
ATOM     56  O   UNL A   1      47.721  25.723  38.984  1.00  0.00    -0.237 OA
ATOM     57  O   UNL A   1      49.035  26.001  36.920  1.00  0.00    -0.744 OA
ENDBRANCH  53  54
ENDBRANCH  25  48
BRANCH  37  58
ATOM     58  C   UNL A   1      39.965  33.552  37.278  1.00  0.00    -0.014 A 
ATOM     59  C   UNL A   1      39.125  33.161  38.334  1.00  0.00     0.010 A 
ATOM     60  C   UNL A   1      40.686  34.757  37.375  1.00  0.00     0.010 A 
ATOM     61  C   UNL A   1      38.998  33.969  39.464  1.00  0.00     0.020 A 
ATOM     62  C   UNL A   1      40.585  35.552  38.516  1.00  0.00     0.020 A 
ATOM     63  C   UNL A   1      39.734  35.156  39.550  1.00  0.00     0.054 A 
BRANCH  63  64
ATOM     64  S   UNL A   1      39.612  36.149  41.062  1.00  0.00     0.124 S 
ATOM     65  O   UNL A   1      40.942  36.746  41.141  1.00  0.00    -0.237 OA
ATOM     66  O   UNL A   1      38.525  37.074  40.749  1.00  0.00    -0.237 OA
ATOM     67  O   UNL A   1      39.307  35.166  42.099  1.00  0.00    -0.744 OA
ENDBRANCH  63  64
ENDBRANCH  37  58
ENDBRANCH  11  12
ENDBRANCH   4   6
ENDBRANCH   3   4
ENDBRANCH   2   3
ENDBRANCH   1   2
BRANCH   1  68
ATOM     68  O   UNL A   1      43.705  21.902  25.129  1.00  0.00    -0.374 OA
BRANCH  68  69
ATOM     69  C   UNL A   1      43.969  20.517  25.376  1.00  0.00     0.202 C 
BRANCH  69  70
ATOM     70  C   UNL A   1      42.661  19.840  25.805  1.00  0.00     0.261 C 
BRANCH  70  71
ATOM     71  O   UNL A   1      41.617  20.822  25.758  1.00  0.00    -0.460 OA
BRANCH  71  72
ATOM     72  C   UNL A   1      40.740  20.768  26.795  1.00  0.00     0.338 C 
ATOM     73  O   UNL A   1      40.833  20.127  27.826  1.00  0.00    -0.246 OA
BRANCH  72  74
ATOM     74  C   UNL A   1      39.725  21.812  26.548  1.00  0.00     0.062 A 
ATOM     75  C   UNL A   1      39.814  23.055  27.182  1.00  0.00     0.016 A 
ATOM     76  C   UNL A   1      38.696  21.563  25.652  1.00  0.00     0.044 A 
ATOM     77  C   UNL A   1      38.920  24.072  26.842  1.00  0.00     0.003 A 
ATOM     78  C   UNL A   1      37.726  22.533  25.409  1.00  0.00     0.067 A 
ATOM     79  C   UNL A   1      37.881  23.818  25.940  1.00  0.00     0.028 A 
BRANCH  78  80
ATOM     80  N   UNL A   1      36.479  22.096  24.896  1.00  0.00    -0.221 N 
ATOM     81  N   UNL A   1      35.663  21.480  25.860  1.00  0.00    -0.260 N 
ATOM     82  C   UNL A   1      35.961  22.562  23.694  1.00  0.00     0.249 C 
ATOM     83  C   UNL A   1      34.313  21.381  25.788  1.00  0.00     0.243 C 
ATOM     84  H   UNL A   1      36.106  21.092  26.649  1.00  0.00     0.192 HD
ATOM     85  C   UNL A   1      34.459  22.739  23.676  1.00  0.00     0.097 C 
ATOM     86  O   UNL A   1      36.644  22.964  22.752  1.00  0.00    -0.272 OA
ATOM     87  O   UNL A   1      33.682  20.988  26.766  1.00  0.00    -0.273 OA
ATOM     88  C   UNL A   1      33.704  21.650  24.437  1.00  0.00     0.097 C 
ATOM     89  C   UNL A   1      34.211  24.158  24.216  1.00  0.00     0.041 C 
ATOM     90  C   UNL A   1      32.209  21.971  24.578  1.00  0.00     0.041 C 
ATOM     91  C   UNL A   1      32.824  24.393  24.714  1.00  0.00    -0.030 C 
ATOM     92  C   UNL A   1      31.923  23.415  24.869  1.00  0.00    -0.030 C 
ENDBRANCH  78  80
ENDBRANCH  72  74
ENDBRANCH  71  72
ENDBRANCH  70  71
ENDBRANCH  69  70
ENDBRANCH  68  69
ENDBRANCH   1  68
TORSDOF 18
ENDMDL
MODEL 2
REMARK VINA RESULT:     -10.9      6.186     10.720
REMARK SMILES O=C(OCCOCCOC(=O)c1cccc(N2NC(=O)[C@H]3CC=CC[C@H]3C2=O)c1)c1ccc(-c2c3nc(c(-c4ccc(S(=O)(=O)[O-])cc4)c4ccc([nH]4)c(-c4ccc(S(=O)(=O)[O-])cc4)c4nc(c(-c5ccc(S(=O)(=O)[O-])cc5)c5ccc2[nH]5)C=C4)C=C3)cc1
REMARK SMILES IDX 5 1 4 2 3 3 2 4 1 5 30 6 31 7 89 8 32 9 88 10 33 11 34 12
REMARK SMILES IDX 35 13 82 14 36 15 87 16 81 17 83 18 37 19 86 20 80 21 79 22
REMARK SMILES IDX 38 24 68 25 49 26 67 27 50 28 53 29 66 30 84 31 51 32 52 33
REMARK SMILES IDX 65 35 85 36 54 37 39 38 40 39 48 40 41 41 47 42 42 43 43 44
REMARK SMILES IDX 44 45 45 46 46 47 69 48 70 49 78 50 71 51 77 52 72 53 73 54
REMARK SMILES IDX 74 55 75 56 76 57 55 58 56 59 64 60 57 61 63 62 58 63 59 64
REMARK SMILES IDX 60 65 61 66 62 67 6 68 7 69 8 70 9 71 10 72 11 73 12 74
REMARK SMILES IDX 13 75 29 76 14 77 16 78 15 79 17 80 18 81 27 82 19 83 26 85
REMARK SMILES IDX 28 86 20 87 21 88 25 89 22 90 24 91 23 92
REMARK H PARENT 83 23 53 34 18 84
REMARK Flexibility Score: inf
ROOT
ATOM      1  C   UNL A   1      41.310  19.593  26.076  1.00  0.00     0.202 C 
ENDROOT
BRANCH   1   2
ATOM      2  C   UNL A   1      42.731  19.034  26.055  1.00  0.00     0.261 C 
BRANCH   2   3
ATOM      3  O   UNL A   1      43.321  19.239  24.765  1.00  0.00    -0.460 OA
BRANCH   3   4
ATOM      4  C   UNL A   1      44.436  19.944  24.467  1.00  0.00     0.338 C 
ATOM      5  O   UNL A   1      45.332  19.384  23.837  1.00  0.00    -0.246 OA
BRANCH   4   6
ATOM      6  C   UNL A   1      44.645  21.369  24.863  1.00  0.00     0.060 A 
ATOM      7  C   UNL A   1      44.167  22.476  24.158  1.00  0.00     0.016 A 
ATOM      8  C   UNL A   1      45.280  21.599  26.094  1.00  0.00     0.016 A 
ATOM      9  C   UNL A   1      44.331  23.768  24.623  1.00  0.00     0.010 A 
ATOM     10  C   UNL A   1      45.428  22.896  26.589  1.00  0.00     0.010 A 
ATOM     11  C   UNL A   1      44.954  23.981  25.844  1.00  0.00    -0.014 A 
BRANCH  11  12
ATOM     12  C   UNL A   1      45.183  25.374  26.247  1.00  0.00     0.031 A 
ATOM     13  C   UNL A   1      46.552  25.939  26.065  1.00  0.00     0.074 A 
ATOM     14  C   UNL A   1      44.137  26.125  26.634  1.00  0.00     0.049 A 
ATOM     15  N   UNL A   1      47.007  27.114  26.390  1.00  0.00    -0.248 NA
ATOM     16  C   UNL A   1      47.542  25.059  25.415  1.00  0.00     0.031 C 
ATOM     17  C   UNL A   1      42.746  25.667  26.692  1.00  0.00     0.029 A 
ATOM     18  N   UNL A   1      44.076  27.433  27.027  1.00  0.00    -0.354 N 
ATOM     19  C   UNL A   1      48.347  27.105  26.025  1.00  0.00     0.074 A 
ATOM     20  C   UNL A   1      48.631  25.811  25.449  1.00  0.00     0.031 C 
ATOM     21  C   UNL A   1      41.967  26.684  27.095  1.00  0.00     0.029 A 
ATOM     22  C   UNL A   1      42.813  27.833  27.392  1.00  0.00     0.049 A 
ATOM     23  H   UNL A   1      44.859  28.030  27.043  1.00  0.00     0.167 HD
ATOM     24  C   UNL A   1      49.256  28.094  26.185  1.00  0.00     0.031 A 
ATOM     25  C   UNL A   1      42.407  28.985  27.955  1.00  0.00     0.031 A 
ATOM     26  C   UNL A   1      48.928  29.355  26.789  1.00  0.00     0.049 A 
ATOM     27  C   UNL A   1      43.452  30.035  28.215  1.00  0.00     0.074 A 
ATOM     28  C   UNL A   1      49.757  30.422  27.072  1.00  0.00     0.029 A 
ATOM     29  N   UNL A   1      47.651  29.709  27.214  1.00  0.00    -0.354 N 
ATOM     30  N   UNL A   1      44.734  30.004  27.928  1.00  0.00    -0.248 NA
ATOM     31  C   UNL A   1      43.009  31.265  28.879  1.00  0.00     0.031 C 
ATOM     32  C   UNL A   1      48.992  31.398  27.721  1.00  0.00     0.029 A 
ATOM     33  C   UNL A   1      47.673  30.969  27.781  1.00  0.00     0.049 A 
ATOM     34  H   UNL A   1      46.849  29.145  27.124  1.00  0.00     0.167 HD
ATOM     35  C   UNL A   1      45.254  31.214  28.365  1.00  0.00     0.074 A 
ATOM     36  C   UNL A   1      44.139  31.962  28.920  1.00  0.00     0.031 C 
ATOM     37  C   UNL A   1      46.531  31.669  28.320  1.00  0.00     0.031 A 
BRANCH  24  38
ATOM     38  C   UNL A   1      50.677  27.781  25.802  1.00  0.00    -0.014 A 
ATOM     39  C   UNL A   1      51.125  27.865  24.471  1.00  0.00     0.010 A 
ATOM     40  C   UNL A   1      51.564  27.325  26.794  1.00  0.00     0.010 A 
ATOM     41  C   UNL A   1      52.413  27.439  24.132  1.00  0.00     0.020 A 
ATOM     42  C   UNL A   1      52.862  26.926  26.463  1.00  0.00     0.020 A 
ATOM     43  C   UNL A   1      53.270  26.961  25.129  1.00  0.00     0.054 A 
BRANCH  43  44
ATOM     44  S   UNL A   1      54.923  26.382  24.658  1.00  0.00     0.124 S 
ATOM     45  O   UNL A   1      54.988  26.768  23.250  1.00  0.00    -0.237 OA
ATOM     46  O   UNL A   1      55.794  27.137  25.555  1.00  0.00    -0.237 OA
ATOM     47  O   UNL A   1      54.871  24.944  24.908  1.00  0.00    -0.744 OA
ENDBRANCH  43  44
ENDBRANCH  24  38
BRANCH  25  48
ATOM     48  C   UNL A   1      40.986  29.149  28.374  1.00  0.00    -0.014 A 
ATOM     49  C   UNL A   1      40.612  29.132  29.727  1.00  0.00     0.010 A 
ATOM     50  C   UNL A   1      39.992  29.370  27.399  1.00  0.00     0.010 A 
ATOM     51  C   UNL A   1      39.275  29.328  30.097  1.00  0.00     0.020 A 
ATOM     52  C   UNL A   1      38.662  29.596  27.764  1.00  0.00     0.020 A 
ATOM     53  C   UNL A   1      38.310  29.565  29.113  1.00  0.00     0.054 A 
BRANCH  53  54
ATOM     54  S   UNL A   1      36.595  29.878  29.618  1.00  0.00     0.124 S 
ATOM     55  O   UNL A   1      35.843  29.355  28.481  1.00  0.00    -0.237 OA
ATOM     56  O   UNL A   1      36.485  29.111  30.856  1.00  0.00    -0.237 OA
ATOM     57  O   UNL A   1      36.546  31.328  29.787  1.00  0.00    -0.744 OA
ENDBRANCH  53  54
ENDBRANCH  25  48
BRANCH  37  58
ATOM     58  C   UNL A   1      46.779  33.049  28.857  1.00  0.00    -0.014 A 
ATOM     59  C   UNL A   1      47.174  33.251  30.190  1.00  0.00     0.010 A 
ATOM     60  C   UNL A   1      46.705  34.148  27.981  1.00  0.00     0.010 A 
ATOM     61  C   UNL A   1      47.476  34.536  30.643  1.00  0.00     0.020 A 
ATOM     62  C   UNL A   1      47.036  35.429  28.423  1.00  0.00     0.020 A 
ATOM     63  C   UNL A   1      47.412  35.615  29.755  1.00  0.00     0.054 A 
BRANCH  63  64
ATOM     64  S   UNL A   1      47.885  37.261  30.348  1.00  0.00     0.124 S 
ATOM     65  O   UNL A   1      49.248  37.033  30.819  1.00  0.00    -0.237 OA
ATOM     66  O   UNL A   1      47.764  38.081  29.145  1.00  0.00    -0.237 OA
ATOM     67  O   UNL A   1      46.904  37.548  31.392  1.00  0.00    -0.744 OA
ENDBRANCH  63  64
ENDBRANCH  37  58
ENDBRANCH  11  12
ENDBRANCH   4   6
ENDBRANCH   3   4
ENDBRANCH   2   3
ENDBRANCH   1   2
BRANCH   1  68
ATOM     68  O   UNL A   1      41.010  20.416  27.199  1.00  0.00    -0.374 OA
BRANCH  68  69
ATOM     69  C   UNL A   1      41.825  21.574  27.400  1.00  0.00     0.202 C 
BRANCH  69  70
ATOM     70  C   UNL A   1      40.965  22.823  27.175  1.00  0.00     0.261 C 
BRANCH  70  71
ATOM     71  O   UNL A   1      39.603  22.402  27.023  1.00  0.00    -0.460 OA
BRANCH  71  72
ATOM     72  C   UNL A   1      38.784  23.322  26.449  1.00  0.00     0.338 C 
ATOM     73  O   UNL A   1      38.990  24.510  26.279  1.00  0.00    -0.246 OA
BRANCH  72  74
ATOM     74  C   UNL A   1      37.655  22.575  25.857  1.00  0.00     0.062 A 
ATOM     75  C   UNL A   1      37.873  21.365  25.193  1.00  0.00     0.016 A 
ATOM     76  C   UNL A   1      36.366  23.071  25.992  1.00  0.00     0.044 A 
ATOM     77  C   UNL A   1      36.783  20.611  24.751  1.00  0.00     0.003 A 
ATOM     78  C   UNL A   1      35.289  22.384  25.436  1.00  0.00     0.067 A 
ATOM     79  C   UNL A   1      35.485  21.112  24.885  1.00  0.00     0.028 A 
BRANCH  78  80
ATOM     80  N   UNL A   1      34.108  23.123  25.175  1.00  0.00    -0.221 N 
ATOM     81  N   UNL A   1      33.134  22.992  26.180  1.00  0.00    -0.260 N 
ATOM     82  C   UNL A   1      34.061  24.155  24.247  1.00  0.00     0.249 C 
ATOM     83  C   UNL A   1      32.145  23.886  26.427  1.00  0.00     0.243 C 
ATOM     84  H   UNL A   1      33.173  22.189  26.748  1.00  0.00     0.192 HD
ATOM     85  C   UNL A   1      33.175  25.318  24.634  1.00  0.00     0.097 C 
ATOM     86  O   UNL A   1      34.788  24.233  23.256  1.00  0.00    -0.272 OA
ATOM     87  O   UNL A   1      31.461  23.768  27.440  1.00  0.00    -0.273 OA
ATOM     88  C   UNL A   1      31.888  24.899  25.342  1.00  0.00     0.097 C 
ATOM     89  C   UNL A   1      34.069  26.248  25.471  1.00  0.00     0.041 C 
ATOM     90  C   UNL A   1      31.118  26.102  25.906  1.00  0.00     0.041 C 
ATOM     91  C   UNL A   1      33.321  27.211  26.331  1.00  0.00    -0.030 C 
ATOM     92  C   UNL A   1      31.997  27.152  26.521  1.00  0.00    -0.030 C 
ENDBRANCH  78  80
ENDBRANCH  72  74
ENDBRANCH  71  72
ENDBRANCH  70  71
ENDBRANCH  69  70
ENDBRANCH  68  69
ENDBRANCH   1  68
TORSDOF 18
ENDMDL
MODEL 3
REMARK VINA RESULT:     -10.8      2.146      3.854
REMARK SMILES O=C(OCCOCCOC(=O)c1cccc(N2NC(=O)[C@H]3CC=CC[C@H]3C2=O)c1)c1ccc(-c2c3nc(c(-c4ccc(S(=O)(=O)[O-])cc4)c4ccc([nH]4)c(-c4ccc(S(=O)(=O)[O-])cc4)c4nc(c(-c5ccc(S(=O)(=O)[O-])cc5)c5ccc2[nH]5)C=C4)C=C3)cc1
REMARK SMILES IDX 5 1 4 2 3 3 2 4 1 5 30 6 31 7 89 8 32 9 88 10 33 11 34 12
REMARK SMILES IDX 35 13 82 14 36 15 87 16 81 17 83 18 37 19 86 20 80 21 79 22
REMARK SMILES IDX 38 24 68 25 49 26 67 27 50 28 53 29 66 30 84 31 51 32 52 33
REMARK SMILES IDX 65 35 85 36 54 37 39 38 40 39 48 40 41 41 47 42 42 43 43 44
REMARK SMILES IDX 44 45 45 46 46 47 69 48 70 49 78 50 71 51 77 52 72 53 73 54
REMARK SMILES IDX 74 55 75 56 76 57 55 58 56 59 64 60 57 61 63 62 58 63 59 64
REMARK SMILES IDX 60 65 61 66 62 67 6 68 7 69 8 70 9 71 10 72 11 73 12 74
REMARK SMILES IDX 13 75 29 76 14 77 16 78 15 79 17 80 18 81 27 82 19 83 26 85
REMARK SMILES IDX 28 86 20 87 21 88 25 89 22 90 24 91 23 92
REMARK H PARENT 83 23 53 34 18 84
REMARK Flexibility Score: inf
ROOT
ATOM      1  C   UNL A   1      39.374  22.179  26.347  1.00  0.00     0.202 C 
ENDROOT
BRANCH   1   2
ATOM      2  C   UNL A   1      39.891  23.360  27.165  1.00  0.00     0.261 C 
BRANCH   2   3
ATOM      3  O   UNL A   1      40.791  24.149  26.375  1.00  0.00    -0.460 OA
BRANCH   3   4
ATOM      4  C   UNL A   1      40.897  25.496  26.339  1.00  0.00     0.338 C 
ATOM      5  O   UNL A   1      41.124  26.037  25.257  1.00  0.00    -0.246 OA
BRANCH   4   6
ATOM      6  C   UNL A   1      40.755  26.371  27.542  1.00  0.00     0.060 A 
ATOM      7  C   UNL A   1      39.806  26.200  28.551  1.00  0.00     0.016 A 
ATOM      8  C   UNL A   1      41.723  27.374  27.714  1.00  0.00     0.016 A 
ATOM      9  C   UNL A   1      39.780  27.002  29.677  1.00  0.00     0.010 A 
ATOM     10  C   UNL A   1      41.726  28.173  28.859  1.00  0.00     0.010 A 
ATOM     11  C   UNL A   1      40.746  27.985  29.838  1.00  0.00    -0.014 A 
BRANCH  11  12
ATOM     12  C   UNL A   1      40.619  28.866  31.006  1.00  0.00     0.031 A 
ATOM     13  C   UNL A   1      39.528  29.885  30.998  1.00  0.00     0.074 A 
ATOM     14  C   UNL A   1      41.389  28.641  32.084  1.00  0.00     0.049 A 
ATOM     15  N   UNL A   1      39.251  30.800  31.881  1.00  0.00    -0.248 NA
ATOM     16  C   UNL A   1      38.618  29.860  29.838  1.00  0.00     0.031 C 
ATOM     17  C   UNL A   1      42.375  27.562  32.207  1.00  0.00     0.029 A 
ATOM     18  N   UNL A   1      41.448  29.286  33.288  1.00  0.00    -0.354 N 
ATOM     19  C   UNL A   1      38.160  31.490  31.368  1.00  0.00     0.074 A 
ATOM     20  C   UNL A   1      37.823  30.886  30.099  1.00  0.00     0.031 C 
ATOM     21  C   UNL A   1      42.939  27.621  33.423  1.00  0.00     0.029 A 
ATOM     22  C   UNL A   1      42.409  28.780  34.131  1.00  0.00     0.049 A 
ATOM     23  H   UNL A   1      40.859  30.037  33.528  1.00  0.00     0.167 HD
ATOM     24  C   UNL A   1      37.520  32.551  31.911  1.00  0.00     0.031 A 
ATOM     25  C   UNL A   1      42.841  29.244  35.317  1.00  0.00     0.031 A 
ATOM     26  C   UNL A   1      37.914  33.131  33.164  1.00  0.00     0.049 A 
ATOM     27  C   UNL A   1      42.182  30.484  35.857  1.00  0.00     0.074 A 
ATOM     28  C   UNL A   1      37.400  34.242  33.803  1.00  0.00     0.029 A 
ATOM     29  N   UNL A   1      38.937  32.638  33.966  1.00  0.00    -0.354 N 
ATOM     30  N   UNL A   1      41.191  31.176  35.341  1.00  0.00    -0.248 NA
ATOM     31  C   UNL A   1      42.697  31.013  37.124  1.00  0.00     0.031 C 
ATOM     32  C   UNL A   1      38.153  34.454  34.964  1.00  0.00     0.029 A 
ATOM     33  C   UNL A   1      39.091  33.437  35.084  1.00  0.00     0.049 A 
ATOM     34  H   UNL A   1      39.475  31.838  33.768  1.00  0.00     0.167 HD
ATOM     35  C   UNL A   1      40.953  32.219  36.225  1.00  0.00     0.074 A 
ATOM     36  C   UNL A   1      41.894  32.053  37.319  1.00  0.00     0.031 C 
ATOM     37  C   UNL A   1      40.046  33.226  36.145  1.00  0.00     0.031 A 
BRANCH  24  38
ATOM     38  C   UNL A   1      36.433  33.184  31.086  1.00  0.00    -0.014 A 
ATOM     39  C   UNL A   1      36.693  33.763  29.831  1.00  0.00     0.010 A 
ATOM     40  C   UNL A   1      35.132  33.259  31.617  1.00  0.00     0.010 A 
ATOM     41  C   UNL A   1      35.687  34.459  29.152  1.00  0.00     0.020 A 
ATOM     42  C   UNL A   1      34.117  33.928  30.928  1.00  0.00     0.020 A 
ATOM     43  C   UNL A   1      34.408  34.547  29.712  1.00  0.00     0.054 A 
BRANCH  43  44
ATOM     44  S   UNL A   1      33.130  35.485  28.830  1.00  0.00     0.124 S 
ATOM     45  O   UNL A   1      32.394  36.100  29.933  1.00  0.00    -0.237 OA
ATOM     46  O   UNL A   1      33.916  36.405  28.012  1.00  0.00    -0.237 OA
ATOM     47  O   UNL A   1      32.399  34.463  28.087  1.00  0.00    -0.744 OA
ENDBRANCH  43  44
ENDBRANCH  24  38
BRANCH  25  48
ATOM     48  C   UNL A   1      43.988  28.584  36.002  1.00  0.00    -0.014 A 
ATOM     49  C   UNL A   1      43.792  27.548  36.930  1.00  0.00     0.010 A 
ATOM     50  C   UNL A   1      45.306  28.970  35.685  1.00  0.00     0.010 A 
ATOM     51  C   UNL A   1      44.888  26.915  37.530  1.00  0.00     0.020 A 
ATOM     52  C   UNL A   1      46.404  28.321  36.258  1.00  0.00     0.020 A 
ATOM     53  C   UNL A   1      46.187  27.302  37.185  1.00  0.00     0.054 A 
BRANCH  53  54
ATOM     54  S   UNL A   1      47.594  26.428  37.928  1.00  0.00     0.124 S 
ATOM     55  O   UNL A   1      48.642  27.444  37.883  1.00  0.00    -0.237 OA
ATOM     56  O   UNL A   1      47.092  26.096  39.259  1.00  0.00    -0.237 OA
ATOM     57  O   UNL A   1      47.793  25.283  37.043  1.00  0.00    -0.744 OA
ENDBRANCH  53  54
ENDBRANCH  25  48
BRANCH  37  58
ATOM     58  C   UNL A   1      40.013  34.201  37.285  1.00  0.00    -0.014 A 
ATOM     59  C   UNL A   1      40.674  35.438  37.205  1.00  0.00     0.010 A 
ATOM     60  C   UNL A   1      39.227  33.907  38.415  1.00  0.00     0.010 A 
ATOM     61  C   UNL A   1      40.562  36.361  38.245  1.00  0.00     0.020 A 
ATOM     62  C   UNL A   1      39.088  34.840  39.442  1.00  0.00     0.020 A 
ATOM     63  C   UNL A   1      39.764  36.059  39.354  1.00  0.00     0.054 A 
BRANCH  63  64
ATOM     64  S   UNL A   1      39.572  37.306  40.655  1.00  0.00     0.124 S 
ATOM     65  O   UNL A   1      38.827  36.570  41.673  1.00  0.00    -0.237 OA
ATOM     66  O   UNL A   1      40.955  37.627  40.997  1.00  0.00    -0.237 OA
ATOM     67  O   UNL A   1      38.833  38.382  39.998  1.00  0.00    -0.744 OA
ENDBRANCH  63  64
ENDBRANCH  37  58
ENDBRANCH  11  12
ENDBRANCH   4   6
ENDBRANCH   3   4
ENDBRANCH   2   3
ENDBRANCH   1   2
BRANCH   1  68
ATOM     68  O   UNL A   1      37.966  22.170  26.135  1.00  0.00    -0.374 OA
BRANCH  68  69
ATOM     69  C   UNL A   1      37.446  21.195  25.226  1.00  0.00     0.202 C 
BRANCH  69  70
ATOM     70  C   UNL A   1      35.925  21.372  25.138  1.00  0.00     0.261 C 
BRANCH  70  71
ATOM     71  O   UNL A   1      35.648  22.773  25.005  1.00  0.00    -0.460 OA
BRANCH  71  72
ATOM     72  C   UNL A   1      35.358  23.177  23.740  1.00  0.00     0.338 C 
ATOM     73  O   UNL A   1      36.052  23.088  22.744  1.00  0.00    -0.246 OA
BRANCH  72  74
ATOM     74  C   UNL A   1      33.931  23.560  23.733  1.00  0.00     0.062 A 
ATOM     75  C   UNL A   1      32.991  22.795  23.036  1.00  0.00     0.016 A 
ATOM     76  C   UNL A   1      33.522  24.673  24.454  1.00  0.00     0.044 A 
ATOM     77  C   UNL A   1      31.633  23.098  23.144  1.00  0.00     0.003 A 
ATOM     78  C   UNL A   1      32.182  25.053  24.456  1.00  0.00     0.067 A 
ATOM     79  C   UNL A   1      31.222  24.221  23.869  1.00  0.00     0.028 A 
BRANCH  78  80
ATOM     80  N   UNL A   1      31.887  26.402  24.778  1.00  0.00    -0.221 N 
ATOM     81  N   UNL A   1      31.346  26.564  26.065  1.00  0.00    -0.260 N 
ATOM     82  C   UNL A   1      32.422  27.473  24.074  1.00  0.00     0.249 C 
ATOM     83  C   UNL A   1      31.389  27.709  26.790  1.00  0.00     0.243 C 
ATOM     84  H   UNL A   1      30.901  25.785  26.472  1.00  0.00     0.192 HD
ATOM     85  C   UNL A   1      32.756  28.684  24.917  1.00  0.00     0.097 C 
ATOM     86  O   UNL A   1      32.765  27.427  22.892  1.00  0.00    -0.272 OA
ATOM     87  O   UNL A   1      31.051  27.691  27.970  1.00  0.00    -0.273 OA
ATOM     88  C   UNL A   1      31.742  28.958  26.026  1.00  0.00     0.097 C 
ATOM     89  C   UNL A   1      34.185  28.439  25.431  1.00  0.00     0.041 C 
ATOM     90  C   UNL A   1      32.216  30.057  26.987  1.00  0.00     0.041 C 
ATOM     91  C   UNL A   1      34.558  29.252  26.625  1.00  0.00    -0.030 C 
ATOM     92  C   UNL A   1      33.678  29.985  27.319  1.00  0.00    -0.030 C 
ENDBRANCH  78  80
ENDBRANCH  72  74
ENDBRANCH  71  72
ENDBRANCH  70  71
ENDBRANCH  69  70
ENDBRANCH  68  69
ENDBRANCH   1  68
TORSDOF 18
ENDMDL
