MODEL 1
REMARK VINA RESULT:      -9.4      0.000      0.000
REMARK SMILES CC1=C(C)C(=O)N([C@@](C)(C(=O)OCCOCCOC(=O)c2ccc(-c3c4nc(c(-c5ccc(S(=O)(=O)[O-])cc5)c5ccc([nH]5)c(-c5ccc(S(=O)(=O)[O-])cc5)c5nc(c(-c6ccc(S(=O)(=O)[O-])cc6)c6ccc3[nH]6)C=C5)C=C4)cc2)C(F)(F)F)C1=O
REMARK SMILES IDX 16 1 15 2 14 3 13 4 12 5 10 6 11 7 8 8 9 9 7 10 1 11 2 12
REMARK SMILES IDX 3 13 85 14 4 15 5 16 86 17 6 18 81 19 82 20 83 21 84 22
REMARK SMILES IDX 17 23 18 24 19 25 20 26 21 27 22 28 80 29 23 30 79 31 24 32
REMARK SMILES IDX 25 33 26 34 73 35 27 36 78 37 72 38 74 39 28 40 77 41 71 42
REMARK SMILES IDX 70 43 29 45 59 46 40 47 58 48 41 49 44 50 57 51 75 52 42 53
REMARK SMILES IDX 43 54 56 56 76 57 45 58 30 59 31 60 39 61 32 62 38 63 33 64
REMARK SMILES IDX 34 65 35 66 36 67 37 68 60 69 61 70 69 71 62 72 68 73 63 74
REMARK SMILES IDX 64 75 65 76 66 77 67 78 46 79 47 80 55 81 48 82 54 83 49 84
REMARK SMILES IDX 50 85 51 86 52 87 53 88
REMARK H PARENT 74 44 44 55
REMARK Flexibility Score: inf
ROOT
ATOM      1  C   UNL A   1      33.601  34.558  28.512  1.00  0.00     0.202 C 
ENDROOT
BRANCH   1   2
ATOM      2  O   UNL A   1      32.703  35.333  29.303  1.00  0.00    -0.374 OA
BRANCH   2   3
ATOM      3  C   UNL A   1      33.235  36.179  30.316  1.00  0.00     0.202 C 
BRANCH   3   4
ATOM      4  C   UNL A   1      32.995  35.794  31.777  1.00  0.00     0.261 C 
BRANCH   4   5
ATOM      5  O   UNL A   1      33.639  34.560  32.143  1.00  0.00    -0.461 OA
BRANCH   5   6
ATOM      6  C   UNL A   1      34.942  34.682  32.513  1.00  0.00     0.341 C 
ATOM      7  O   UNL A   1      35.449  35.749  32.845  1.00  0.00    -0.249 OA
BRANCH   6   8
ATOM      8  C   UNL A   1      35.744  33.384  32.438  1.00  0.00     0.240 C 
ATOM      9  C   UNL A   1      34.776  32.302  31.914  1.00  0.00     0.058 C 
BRANCH   8  10
ATOM     10  N   UNL A   1      36.363  32.885  33.712  1.00  0.00    -0.249 N 
ATOM     11  C   UNL A   1      39.082  31.071  35.432  1.00  0.00     0.051 C 
ATOM     12  C   UNL A   1      37.924  31.928  35.089  1.00  0.00     0.023 C 
ATOM     13  C   UNL A   1      37.405  32.967  35.749  1.00  0.00     0.023 C 
ATOM     14  C   UNL A   1      37.238  31.849  33.786  1.00  0.00     0.258 C 
ATOM     15  C   UNL A   1      37.869  33.619  36.998  1.00  0.00     0.051 C 
ATOM     16  C   UNL A   1      36.314  33.505  34.922  1.00  0.00     0.258 C 
ATOM     17  O   UNL A   1      37.514  31.032  32.926  1.00  0.00    -0.269 OA
ATOM     18  O   UNL A   1      35.553  34.367  35.310  1.00  0.00    -0.269 OA
ENDBRANCH   8  10
BRANCH   8  19
ATOM     19  C   UNL A   1      36.768  33.669  31.316  1.00  0.00     0.422 C 
ATOM     20  F   UNL A   1      37.944  34.139  31.788  1.00  0.00    -0.168 F 
ATOM     21  F   UNL A   1      37.020  32.543  30.599  1.00  0.00    -0.168 F 
ATOM     22  F   UNL A   1      36.325  34.567  30.404  1.00  0.00    -0.168 F 
ENDBRANCH   8  19
ENDBRANCH   6   8
ENDBRANCH   5   6
ENDBRANCH   4   5
ENDBRANCH   3   4
ENDBRANCH   2   3
ENDBRANCH   1   2
BRANCH   1  23
ATOM     23  C   UNL A   1      33.867  33.094  28.895  1.00  0.00     0.261 C 
BRANCH  23  24
ATOM     24  O   UNL A   1      34.699  32.380  27.962  1.00  0.00    -0.460 OA
BRANCH  24  25
ATOM     25  C   UNL A   1      34.461  31.042  27.928  1.00  0.00     0.338 C 
ATOM     26  O   UNL A   1      33.410  30.493  27.641  1.00  0.00    -0.246 OA
BRANCH  25  27
ATOM     27  C   UNL A   1      35.709  30.278  28.111  1.00  0.00     0.060 A 
ATOM     28  C   UNL A   1      35.966  29.763  29.388  1.00  0.00     0.016 A 
ATOM     29  C   UNL A   1      36.667  30.185  27.101  1.00  0.00     0.016 A 
ATOM     30  C   UNL A   1      37.208  29.208  29.680  1.00  0.00     0.010 A 
ATOM     31  C   UNL A   1      37.919  29.633  27.400  1.00  0.00     0.010 A 
ATOM     32  C   UNL A   1      38.211  29.185  28.702  1.00  0.00    -0.014 A 
BRANCH  32  33
ATOM     33  C   UNL A   1      39.597  28.840  29.103  1.00  0.00     0.031 A 
ATOM     34  C   UNL A   1      40.393  29.827  29.915  1.00  0.00     0.074 A 
ATOM     35  C   UNL A   1      40.117  27.635  28.805  1.00  0.00     0.049 A 
ATOM     36  N   UNL A   1      41.609  29.722  30.388  1.00  0.00    -0.248 NA
ATOM     37  C   UNL A   1      39.731  31.102  30.239  1.00  0.00     0.031 C 
ATOM     38  C   UNL A   1      39.428  26.577  28.068  1.00  0.00     0.029 A 
ATOM     39  N   UNL A   1      41.346  27.098  29.095  1.00  0.00    -0.354 N 
ATOM     40  C   UNL A   1      41.861  30.916  31.055  1.00  0.00     0.074 A 
ATOM     41  C   UNL A   1      40.685  31.744  30.897  1.00  0.00     0.031 C 
ATOM     42  C   UNL A   1      40.244  25.514  27.967  1.00  0.00     0.029 A 
ATOM     43  C   UNL A   1      41.523  25.829  28.599  1.00  0.00     0.049 A 
ATOM     44  H   UNL A   1      42.035  27.576  29.611  1.00  0.00     0.167 HD
ATOM     45  C   UNL A   1      42.968  31.287  31.743  1.00  0.00     0.031 A 
ATOM     46  C   UNL A   1      42.600  25.019  28.636  1.00  0.00     0.031 A 
ATOM     47  C   UNL A   1      44.139  30.462  31.890  1.00  0.00     0.049 A 
ATOM     48  C   UNL A   1      43.845  25.482  29.346  1.00  0.00     0.074 A 
ATOM     49  C   UNL A   1      45.305  30.740  32.582  1.00  0.00     0.029 A 
ATOM     50  N   UNL A   1      44.298  29.203  31.332  1.00  0.00    -0.354 N 
ATOM     51  N   UNL A   1      44.059  26.604  29.992  1.00  0.00    -0.248 NA
ATOM     52  C   UNL A   1      44.992  24.563  29.340  1.00  0.00     0.031 C 
ATOM     53  C   UNL A   1      46.193  29.678  32.387  1.00  0.00     0.029 A 
ATOM     54  C   UNL A   1      45.553  28.705  31.635  1.00  0.00     0.049 A 
ATOM     55  H   UNL A   1      43.616  28.732  30.798  1.00  0.00     0.167 HD
ATOM     56  C   UNL A   1      45.354  26.512  30.493  1.00  0.00     0.074 A 
ATOM     57  C   UNL A   1      45.866  25.218  30.090  1.00  0.00     0.031 C 
ATOM     58  C   UNL A   1      46.055  27.417  31.222  1.00  0.00     0.031 A 
BRANCH  45  59
ATOM     59  C   UNL A   1      42.981  32.664  32.357  1.00  0.00    -0.014 A 
ATOM     60  C   UNL A   1      43.392  33.792  31.624  1.00  0.00     0.010 A 
ATOM     61  C   UNL A   1      42.532  32.837  33.680  1.00  0.00     0.010 A 
ATOM     62  C   UNL A   1      43.391  35.059  32.215  1.00  0.00     0.020 A 
ATOM     63  C   UNL A   1      42.502  34.106  34.264  1.00  0.00     0.020 A 
ATOM     64  C   UNL A   1      42.947  35.208  33.532  1.00  0.00     0.054 A 
BRANCH  64  65
ATOM     65  S   UNL A   1      42.936  36.867  34.265  1.00  0.00     0.124 S 
ATOM     66  O   UNL A   1      41.557  36.982  34.732  1.00  0.00    -0.237 OA
ATOM     67  O   UNL A   1      43.948  36.759  35.314  1.00  0.00    -0.237 OA
ATOM     68  O   UNL A   1      43.291  37.743  33.151  1.00  0.00    -0.744 OA
ENDBRANCH  64  65
ENDBRANCH  45  59
BRANCH  46  69
ATOM     69  C   UNL A   1      42.553  23.691  27.962  1.00  0.00    -0.014 A 
ATOM     70  C   UNL A   1      42.266  22.522  28.687  1.00  0.00     0.010 A 
ATOM     71  C   UNL A   1      42.798  23.594  26.579  1.00  0.00     0.010 A 
ATOM     72  C   UNL A   1      42.241  21.279  28.046  1.00  0.00     0.020 A 
ATOM     73  C   UNL A   1      42.742  22.358  25.929  1.00  0.00     0.020 A 
ATOM     74  C   UNL A   1      42.475  21.206  26.670  1.00  0.00     0.054 A 
BRANCH  74  75
ATOM     75  S   UNL A   1      42.386  19.590  25.851  1.00  0.00     0.124 S 
ATOM     76  O   UNL A   1      41.008  19.568  25.370  1.00  0.00    -0.237 OA
ATOM     77  O   UNL A   1      43.415  19.704  24.821  1.00  0.00    -0.237 OA
ATOM     78  O   UNL A   1      42.690  18.646  26.923  1.00  0.00    -0.744 OA
ENDBRANCH  74  75
ENDBRANCH  46  69
BRANCH  58  79
ATOM     79  C   UNL A   1      47.443  27.028  31.662  1.00  0.00    -0.014 A 
ATOM     80  C   UNL A   1      48.579  27.393  30.916  1.00  0.00     0.010 A 
ATOM     81  C   UNL A   1      47.615  26.322  32.867  1.00  0.00     0.010 A 
ATOM     82  C   UNL A   1      49.857  27.022  31.347  1.00  0.00     0.020 A 
ATOM     83  C   UNL A   1      48.893  25.978  33.317  1.00  0.00     0.020 A 
ATOM     84  C   UNL A   1      50.005  26.315  32.544  1.00  0.00     0.054 A 
BRANCH  84  85
ATOM     85  S   UNL A   1      51.675  25.872  33.094  1.00  0.00     0.124 S 
ATOM     86  O   UNL A   1      51.400  24.907  34.155  1.00  0.00    -0.237 OA
ATOM     87  O   UNL A   1      52.276  25.319  31.882  1.00  0.00    -0.237 OA
ATOM     88  O   UNL A   1      52.243  27.143  33.540  1.00  0.00    -0.744 OA
ENDBRANCH  84  85
ENDBRANCH  58  79
ENDBRANCH  32  33
ENDBRANCH  25  27
ENDBRANCH  24  25
ENDBRANCH  23  24
ENDBRANCH   1  23
TORSDOF 19
ENDMDL
MODEL 2
REMARK VINA RESULT:      -9.2      1.473      2.232
REMARK SMILES CC1=C(C)C(=O)N([C@@](C)(C(=O)OCCOCCOC(=O)c2ccc(-c3c4nc(c(-c5ccc(S(=O)(=O)[O-])cc5)c5ccc([nH]5)c(-c5ccc(S(=O)(=O)[O-])cc5)c5nc(c(-c6ccc(S(=O)(=O)[O-])cc6)c6ccc3[nH]6)C=C5)C=C4)cc2)C(F)(F)F)C1=O
REMARK SMILES IDX 16 1 15 2 14 3 13 4 12 5 10 6 11 7 8 8 9 9 7 10 1 11 2 12
REMARK SMILES IDX 3 13 85 14 4 15 5 16 86 17 6 18 81 19 82 20 83 21 84 22
REMARK SMILES IDX 17 23 18 24 19 25 20 26 21 27 22 28 80 29 23 30 79 31 24 32
REMARK SMILES IDX 25 33 26 34 73 35 27 36 78 37 72 38 74 39 28 40 77 41 71 42
REMARK SMILES IDX 70 43 29 45 59 46 40 47 58 48 41 49 44 50 57 51 75 52 42 53
REMARK SMILES IDX 43 54 56 56 76 57 45 58 30 59 31 60 39 61 32 62 38 63 33 64
REMARK SMILES IDX 34 65 35 66 36 67 37 68 60 69 61 70 69 71 62 72 68 73 63 74
REMARK SMILES IDX 64 75 65 76 66 77 67 78 46 79 47 80 55 81 48 82 54 83 49 84
REMARK SMILES IDX 50 85 51 86 52 87 53 88
REMARK H PARENT 74 44 44 55
REMARK Flexibility Score: inf
ROOT
ATOM      1  C   UNL A   1      33.967  34.027  29.928  1.00  0.00     0.202 C 
ENDROOT
BRANCH   1   2
ATOM      2  O   UNL A   1      33.605  34.380  31.260  1.00  0.00    -0.374 OA
BRANCH   2   3
ATOM      3  C   UNL A   1      34.256  35.485  31.878  1.00  0.00     0.202 C 
BRANCH   3   4
ATOM      4  C   UNL A   1      35.084  35.223  33.137  1.00  0.00     0.261 C 
BRANCH   4   5
ATOM      5  O   UNL A   1      36.260  34.433  32.879  1.00  0.00    -0.461 OA
BRANCH   5   6
ATOM      6  C   UNL A   1      36.459  33.403  33.744  1.00  0.00     0.341 C 
ATOM      7  O   UNL A   1      35.595  32.572  34.009  1.00  0.00    -0.249 OA
BRANCH   6   8
ATOM      8  C   UNL A   1      37.838  33.386  34.400  1.00  0.00     0.240 C 
ATOM      9  C   UNL A   1      38.493  34.745  34.074  1.00  0.00     0.058 C 
BRANCH   8  10
ATOM     10  N   UNL A   1      38.783  32.296  33.983  1.00  0.00    -0.249 N 
ATOM     11  C   UNL A   1      41.612  30.059  34.780  1.00  0.00     0.051 C 
ATOM     12  C   UNL A   1      40.426  30.711  34.180  1.00  0.00     0.023 C 
ATOM     13  C   UNL A   1      39.488  30.204  33.375  1.00  0.00     0.023 C 
ATOM     14  C   UNL A   1      39.996  32.071  34.553  1.00  0.00     0.258 C 
ATOM     15  C   UNL A   1      39.313  28.814  32.888  1.00  0.00     0.051 C 
ATOM     16  C   UNL A   1      38.496  31.265  33.144  1.00  0.00     0.258 C 
ATOM     17  O   UNL A   1      40.613  32.789  35.318  1.00  0.00    -0.269 OA
ATOM     18  O   UNL A   1      37.592  31.161  32.341  1.00  0.00    -0.269 OA
ENDBRANCH   8  10
BRANCH   8  19
ATOM     19  C   UNL A   1      37.509  33.383  35.909  1.00  0.00     0.422 C 
ATOM     20  F   UNL A   1      37.503  32.140  36.441  1.00  0.00    -0.168 F 
ATOM     21  F   UNL A   1      38.407  34.134  36.599  1.00  0.00    -0.168 F 
ATOM     22  F   UNL A   1      36.306  33.936  36.195  1.00  0.00    -0.168 F 
ENDBRANCH   8  19
ENDBRANCH   6   8
ENDBRANCH   5   6
ENDBRANCH   4   5
ENDBRANCH   3   4
ENDBRANCH   2   3
ENDBRANCH   1   2
BRANCH   1  23
ATOM     23  C   UNL A   1      34.851  32.792  29.691  1.00  0.00     0.261 C 
BRANCH  23  24
ATOM     24  O   UNL A   1      34.916  32.365  28.318  1.00  0.00    -0.460 OA
BRANCH  24  25
ATOM     25  C   UNL A   1      34.686  31.036  28.147  1.00  0.00     0.338 C 
ATOM     26  O   UNL A   1      33.632  30.511  27.828  1.00  0.00    -0.246 OA
BRANCH  25  27
ATOM     27  C   UNL A   1      35.943  30.268  28.215  1.00  0.00     0.060 A 
ATOM     28  C   UNL A   1      36.259  29.660  29.437  1.00  0.00     0.016 A 
ATOM     29  C   UNL A   1      36.855  30.257  27.159  1.00  0.00     0.016 A 
ATOM     30  C   UNL A   1      37.514  29.092  29.630  1.00  0.00     0.010 A 
ATOM     31  C   UNL A   1      38.121  29.693  27.359  1.00  0.00     0.010 A 
ATOM     32  C   UNL A   1      38.472  29.149  28.609  1.00  0.00    -0.014 A 
BRANCH  32  33
ATOM     33  C   UNL A   1      39.876  28.783  28.920  1.00  0.00     0.031 A 
ATOM     34  C   UNL A   1      40.756  29.783  29.622  1.00  0.00     0.074 A 
ATOM     35  C   UNL A   1      40.341  27.552  28.642  1.00  0.00     0.049 A 
ATOM     36  N   UNL A   1      42.001  29.665  30.006  1.00  0.00    -0.248 NA
ATOM     37  C   UNL A   1      40.153  31.090  29.934  1.00  0.00     0.031 C 
ATOM     38  C   UNL A   1      39.571  26.481  28.010  1.00  0.00     0.029 A 
ATOM     39  N   UNL A   1      41.574  26.993  28.864  1.00  0.00    -0.354 N 
ATOM     40  C   UNL A   1      42.334  30.881  30.595  1.00  0.00     0.074 A 
ATOM     41  C   UNL A   1      41.171  31.734  30.487  1.00  0.00     0.031 C 
ATOM     42  C   UNL A   1      40.350  25.392  27.898  1.00  0.00     0.029 A 
ATOM     43  C   UNL A   1      41.681  25.698  28.417  1.00  0.00     0.049 A 
ATOM     44  H   UNL A   1      42.313  27.475  29.303  1.00  0.00     0.167 HD
ATOM     45  C   UNL A   1      43.500  31.251  31.179  1.00  0.00     0.031 A 
ATOM     46  C   UNL A   1      42.737  24.860  28.411  1.00  0.00     0.031 A 
ATOM     47  C   UNL A   1      44.657  30.400  31.277  1.00  0.00     0.049 A 
ATOM     48  C   UNL A   1      44.044  25.319  29.002  1.00  0.00     0.074 A 
ATOM     49  C   UNL A   1      45.879  30.676  31.865  1.00  0.00     0.029 A 
ATOM     50  N   UNL A   1      44.741  29.113  30.769  1.00  0.00    -0.354 N 
ATOM     51  N   UNL A   1      44.335  26.463  29.576  1.00  0.00    -0.248 NA
ATOM     52  C   UNL A   1      45.164  24.368  28.954  1.00  0.00     0.031 C 
ATOM     53  C   UNL A   1      46.722  29.581  31.654  1.00  0.00     0.029 A 
ATOM     54  C   UNL A   1      46.003  28.593  30.999  1.00  0.00     0.049 A 
ATOM     55  H   UNL A   1      44.009  28.638  30.311  1.00  0.00     0.167 HD
ATOM     56  C   UNL A   1      45.662  26.358  29.982  1.00  0.00     0.074 A 
ATOM     57  C   UNL A   1      46.109  25.032  29.604  1.00  0.00     0.031 C 
ATOM     58  C   UNL A   1      46.439  27.275  30.612  1.00  0.00     0.031 A 
BRANCH  45  59
ATOM     59  C   UNL A   1      43.593  32.654  31.724  1.00  0.00    -0.014 A 
ATOM     60  C   UNL A   1      43.974  33.735  30.908  1.00  0.00     0.010 A 
ATOM     61  C   UNL A   1      43.253  32.899  33.067  1.00  0.00     0.010 A 
ATOM     62  C   UNL A   1      44.050  35.027  31.437  1.00  0.00     0.020 A 
ATOM     63  C   UNL A   1      43.299  34.194  33.591  1.00  0.00     0.020 A 
ATOM     64  C   UNL A   1      43.713  35.248  32.775  1.00  0.00     0.054 A 
BRANCH  64  65
ATOM     65  S   UNL A   1      43.801  36.939  33.428  1.00  0.00     0.124 S 
ATOM     66  O   UNL A   1      42.588  37.012  34.238  1.00  0.00    -0.237 OA
ATOM     67  O   UNL A   1      45.056  36.928  34.175  1.00  0.00    -0.237 OA
ATOM     68  O   UNL A   1      43.799  37.775  32.229  1.00  0.00    -0.744 OA
ENDBRANCH  64  65
ENDBRANCH  45  59
BRANCH  46  69
ATOM     69  C   UNL A   1      42.606  23.505  27.807  1.00  0.00    -0.014 A 
ATOM     70  C   UNL A   1      42.970  23.272  26.469  1.00  0.00     0.010 A 
ATOM     71  C   UNL A   1      42.113  22.435  28.576  1.00  0.00     0.010 A 
ATOM     72  C   UNL A   1      42.828  21.999  25.908  1.00  0.00     0.020 A 
ATOM     73  C   UNL A   1      42.000  21.154  28.029  1.00  0.00     0.020 A 
ATOM     74  C   UNL A   1      42.347  20.947  26.693  1.00  0.00     0.054 A 
BRANCH  74  75
ATOM     75  S   UNL A   1      42.220  19.293  25.959  1.00  0.00     0.124 S 
ATOM     76  O   UNL A   1      40.785  19.178  25.717  1.00  0.00    -0.237 OA
ATOM     77  O   UNL A   1      43.056  19.414  24.768  1.00  0.00    -0.237 OA
ATOM     78  O   UNL A   1      42.753  18.416  26.998  1.00  0.00    -0.744 OA
ENDBRANCH  74  75
ENDBRANCH  46  69
BRANCH  58  79
ATOM     79  C   UNL A   1      47.847  26.866  30.965  1.00  0.00    -0.014 A 
ATOM     80  C   UNL A   1      48.146  26.248  32.192  1.00  0.00     0.010 A 
ATOM     81  C   UNL A   1      48.881  27.066  30.031  1.00  0.00     0.010 A 
ATOM     82  C   UNL A   1      49.459  25.876  32.496  1.00  0.00     0.020 A 
ATOM     83  C   UNL A   1      50.189  26.666  30.317  1.00  0.00     0.020 A 
ATOM     84  C   UNL A   1      50.473  26.090  31.556  1.00  0.00     0.054 A 
BRANCH  84  85
ATOM     85  S   UNL A   1      52.162  25.571  31.963  1.00  0.00     0.124 S 
ATOM     86  O   UNL A   1      51.983  24.150  32.249  1.00  0.00    -0.237 OA
ATOM     87  O   UNL A   1      52.896  25.878  30.737  1.00  0.00    -0.237 OA
ATOM     88  O   UNL A   1      52.512  26.399  33.116  1.00  0.00    -0.744 OA
ENDBRANCH  84  85
ENDBRANCH  58  79
ENDBRANCH  32  33
ENDBRANCH  25  27
ENDBRANCH  24  25
ENDBRANCH  23  24
ENDBRANCH   1  23
TORSDOF 19
ENDMDL
MODEL 3
REMARK VINA RESULT:      -9.1      2.045      2.781
REMARK SMILES CC1=C(C)C(=O)N([C@@](C)(C(=O)OCCOCCOC(=O)c2ccc(-c3c4nc(c(-c5ccc(S(=O)(=O)[O-])cc5)c5ccc([nH]5)c(-c5ccc(S(=O)(=O)[O-])cc5)c5nc(c(-c6ccc(S(=O)(=O)[O-])cc6)c6ccc3[nH]6)C=C5)C=C4)cc2)C(F)(F)F)C1=O
REMARK SMILES IDX 16 1 15 2 14 3 13 4 12 5 10 6 11 7 8 8 9 9 7 10 1 11 2 12
REMARK SMILES IDX 3 13 85 14 4 15 5 16 86 17 6 18 81 19 82 20 83 21 84 22
REMARK SMILES IDX 17 23 18 24 19 25 20 26 21 27 22 28 80 29 23 30 79 31 24 32
REMARK SMILES IDX 25 33 26 34 73 35 27 36 78 37 72 38 74 39 28 40 77 41 71 42
REMARK SMILES IDX 70 43 29 45 59 46 40 47 58 48 41 49 44 50 57 51 75 52 42 53
REMARK SMILES IDX 43 54 56 56 76 57 45 58 30 59 31 60 39 61 32 62 38 63 33 64
REMARK SMILES IDX 34 65 35 66 36 67 37 68 60 69 61 70 69 71 62 72 68 73 63 74
REMARK SMILES IDX 64 75 65 76 66 77 67 78 46 79 47 80 55 81 48 82 54 83 49 84
REMARK SMILES IDX 50 85 51 86 52 87 53 88
REMARK H PARENT 74 44 44 55
REMARK Flexibility Score: inf
ROOT
ATOM      1  C   UNL A   1      33.890  33.825  28.061  1.00  0.00     0.202 C 
ENDROOT
BRANCH   1   2
ATOM      2  O   UNL A   1      32.730  34.566  28.431  1.00  0.00    -0.374 OA
BRANCH   2   3
ATOM      3  C   UNL A   1      32.892  35.781  29.153  1.00  0.00     0.202 C 
BRANCH   3   4
ATOM      4  C   UNL A   1      32.757  35.740  30.676  1.00  0.00     0.261 C 
BRANCH   4   5
ATOM      5  O   UNL A   1      33.508  34.668  31.275  1.00  0.00    -0.461 OA
BRANCH   5   6
ATOM      6  C   UNL A   1      34.517  35.064  32.097  1.00  0.00     0.341 C 
ATOM      7  O   UNL A   1      34.764  36.242  32.337  1.00  0.00    -0.249 OA
BRANCH   6   8
ATOM      8  C   UNL A   1      35.356  33.921  32.664  1.00  0.00     0.240 C 
ATOM      9  C   UNL A   1      34.402  33.066  33.526  1.00  0.00     0.058 C 
BRANCH   8  10
ATOM     10  N   UNL A   1      36.543  34.293  33.504  1.00  0.00    -0.249 N 
ATOM     11  C   UNL A   1      38.533  33.838  36.583  1.00  0.00     0.051 C 
ATOM     12  C   UNL A   1      38.048  34.191  35.228  1.00  0.00     0.023 C 
ATOM     13  C   UNL A   1      38.740  34.483  34.123  1.00  0.00     0.023 C 
ATOM     14  C   UNL A   1      36.628  34.096  34.846  1.00  0.00     0.258 C 
ATOM     15  C   UNL A   1      40.206  34.482  33.899  1.00  0.00     0.051 C 
ATOM     16  C   UNL A   1      37.764  34.676  33.041  1.00  0.00     0.258 C 
ATOM     17  O   UNL A   1      35.738  33.796  35.620  1.00  0.00    -0.269 OA
ATOM     18  O   UNL A   1      38.069  35.091  31.941  1.00  0.00    -0.269 OA
ENDBRANCH   8  10
BRANCH   8  19
ATOM     19  C   UNL A   1      35.713  33.092  31.411  1.00  0.00     0.422 C 
ATOM     20  F   UNL A   1      36.031  33.862  30.347  1.00  0.00    -0.168 F 
ATOM     21  F   UNL A   1      36.763  32.266  31.664  1.00  0.00    -0.168 F 
ATOM     22  F   UNL A   1      34.714  32.267  31.013  1.00  0.00    -0.168 F 
ENDBRANCH   8  19
ENDBRANCH   6   8
ENDBRANCH   5   6
ENDBRANCH   4   5
ENDBRANCH   3   4
ENDBRANCH   2   3
ENDBRANCH   1   2
BRANCH   1  23
ATOM     23  C   UNL A   1      33.782  32.305  27.865  1.00  0.00     0.261 C 
BRANCH  23  24
ATOM     24  O   UNL A   1      35.019  31.664  27.503  1.00  0.00    -0.460 OA
BRANCH  24  25
ATOM     25  C   UNL A   1      35.132  30.392  27.965  1.00  0.00     0.338 C 
ATOM     26  O   UNL A   1      34.470  29.426  27.621  1.00  0.00    -0.246 OA
BRANCH  25  27
ATOM     27  C   UNL A   1      36.311  30.248  28.839  1.00  0.00     0.060 A 
ATOM     28  C   UNL A   1      37.473  30.937  28.469  1.00  0.00     0.016 A 
ATOM     29  C   UNL A   1      36.326  29.355  29.912  1.00  0.00     0.016 A 
ATOM     30  C   UNL A   1      38.672  30.691  29.130  1.00  0.00     0.010 A 
ATOM     31  C   UNL A   1      37.535  29.103  30.571  1.00  0.00     0.010 A 
ATOM     32  C   UNL A   1      38.722  29.735  30.153  1.00  0.00    -0.014 A 
BRANCH  32  33
ATOM     33  C   UNL A   1      40.046  29.295  30.661  1.00  0.00     0.031 A 
ATOM     34  C   UNL A   1      40.608  29.941  31.900  1.00  0.00     0.074 A 
ATOM     35  C   UNL A   1      40.708  28.287  30.065  1.00  0.00     0.049 A 
ATOM     36  N   UNL A   1      41.731  29.697  32.524  1.00  0.00    -0.248 NA
ATOM     37  C   UNL A   1      39.796  31.003  32.517  1.00  0.00     0.031 C 
ATOM     38  C   UNL A   1      40.244  27.550  28.890  1.00  0.00     0.029 A 
ATOM     39  N   UNL A   1      41.911  27.704  30.374  1.00  0.00    -0.354 N 
ATOM     40  C   UNL A   1      41.766  30.578  33.601  1.00  0.00     0.074 A 
ATOM     41  C   UNL A   1      40.568  31.385  33.524  1.00  0.00     0.031 C 
ATOM     42  C   UNL A   1      41.152  26.609  28.579  1.00  0.00     0.029 A 
ATOM     43  C   UNL A   1      42.275  26.701  29.509  1.00  0.00     0.049 A 
ATOM     44  H   UNL A   1      42.460  27.979  31.143  1.00  0.00     0.167 HD
ATOM     45  C   UNL A   1      42.706  30.698  34.569  1.00  0.00     0.031 A 
ATOM     46  C   UNL A   1      43.394  25.951  29.462  1.00  0.00     0.031 A 
ATOM     47  C   UNL A   1      43.900  29.897  34.636  1.00  0.00     0.049 A 
ATOM     48  C   UNL A   1      44.459  26.152  30.509  1.00  0.00     0.074 A 
ATOM     49  C   UNL A   1      44.906  29.931  35.587  1.00  0.00     0.029 A 
ATOM     50  N   UNL A   1      44.256  28.924  33.714  1.00  0.00    -0.354 N 
ATOM     51  N   UNL A   1      44.466  26.973  31.533  1.00  0.00    -0.248 NA
ATOM     52  C   UNL A   1      45.663  25.318  30.398  1.00  0.00     0.031 C 
ATOM     53  C   UNL A   1      45.900  29.025  35.203  1.00  0.00     0.029 A 
ATOM     54  C   UNL A   1      45.481  28.374  34.054  1.00  0.00     0.049 A 
ATOM     55  H   UNL A   1      43.717  28.663  32.933  1.00  0.00     0.167 HD
ATOM     56  C   UNL A   1      45.661  26.732  32.204  1.00  0.00     0.074 A 
ATOM     57  C   UNL A   1      46.341  25.678  31.479  1.00  0.00     0.031 C 
ATOM     58  C   UNL A   1      46.151  27.329  33.320  1.00  0.00     0.031 A 
BRANCH  45  59
ATOM     59  C   UNL A   1      42.500  31.764  35.615  1.00  0.00    -0.014 A 
ATOM     60  C   UNL A   1      41.738  31.521  36.772  1.00  0.00     0.010 A 
ATOM     61  C   UNL A   1      43.116  33.020  35.455  1.00  0.00     0.010 A 
ATOM     62  C   UNL A   1      41.563  32.525  37.729  1.00  0.00     0.020 A 
ATOM     63  C   UNL A   1      42.968  34.016  36.424  1.00  0.00     0.020 A 
ATOM     64  C   UNL A   1      42.179  33.767  37.548  1.00  0.00     0.054 A 
BRANCH  64  65
ATOM     65  S   UNL A   1      41.954  35.045  38.817  1.00  0.00     0.124 S 
ATOM     66  O   UNL A   1      40.686  34.646  39.423  1.00  0.00    -0.237 OA
ATOM     67  O   UNL A   1      43.135  34.871  39.658  1.00  0.00    -0.237 OA
ATOM     68  O   UNL A   1      41.914  36.290  38.053  1.00  0.00    -0.744 OA
ENDBRANCH  64  65
ENDBRANCH  45  59
BRANCH  46  69
ATOM     69  C   UNL A   1      43.574  24.952  28.372  1.00  0.00    -0.014 A 
ATOM     70  C   UNL A   1      44.194  25.307  27.161  1.00  0.00     0.010 A 
ATOM     71  C   UNL A   1      43.122  23.631  28.546  1.00  0.00     0.010 A 
ATOM     72  C   UNL A   1      44.343  24.364  26.139  1.00  0.00     0.020 A 
ATOM     73  C   UNL A   1      43.297  22.678  27.539  1.00  0.00     0.020 A 
ATOM     74  C   UNL A   1      43.897  23.054  26.337  1.00  0.00     0.054 A 
BRANCH  74  75
ATOM     75  S   UNL A   1      44.147  21.835  25.016  1.00  0.00     0.124 S 
ATOM     76  O   UNL A   1      45.534  21.432  25.234  1.00  0.00    -0.237 OA
ATOM     77  O   UNL A   1      43.138  20.827  25.326  1.00  0.00    -0.237 OA
ATOM     78  O   UNL A   1      43.901  22.599  23.795  1.00  0.00    -0.744 OA
ENDBRANCH  74  75
ENDBRANCH  46  69
BRANCH  58  79
ATOM     79  C   UNL A   1      47.473  26.834  33.849  1.00  0.00    -0.014 A 
ATOM     80  C   UNL A   1      47.549  25.730  34.717  1.00  0.00     0.010 A 
ATOM     81  C   UNL A   1      48.664  27.459  33.433  1.00  0.00     0.010 A 
ATOM     82  C   UNL A   1      48.787  25.288  35.193  1.00  0.00     0.020 A 
ATOM     83  C   UNL A   1      49.905  26.999  33.880  1.00  0.00     0.020 A 
ATOM     84  C   UNL A   1      49.958  25.927  34.772  1.00  0.00     0.054 A 
BRANCH  84  85
ATOM     85  S   UNL A   1      51.553  25.315  35.380  1.00  0.00     0.124 S 
ATOM     86  O   UNL A   1      51.292  23.886  35.532  1.00  0.00    -0.237 OA
ATOM     87  O   UNL A   1      52.468  25.676  34.300  1.00  0.00    -0.237 OA
ATOM     88  O   UNL A   1      51.752  26.047  36.630  1.00  0.00    -0.744 OA
ENDBRANCH  84  85
ENDBRANCH  58  79
ENDBRANCH  32  33
ENDBRANCH  25  27
ENDBRANCH  24  25
ENDBRANCH  23  24
ENDBRANCH   1  23
TORSDOF 19
ENDMDL
