MODEL 1
REMARK VINA RESULT:     -11.3      0.000      0.000
REMARK SMILES CC(C)[C@H](NC(=O)Cn1ccc2c(Br)cccc21)C(=O)OCCOCCOC(=O)c1ccc(-c2c3nc(c(-c4ccc(S(=O)(=O)[O-])cc4)c4ccc([nH]4)c(-c4ccc(S(=O)(=O)[O-])cc4)c4nc(c(-c5ccc(S(=O)(=O)[O-])cc5)c5ccc2[nH]5)C=C4)C=C3)cc1
REMARK SMILES IDX 24 1 23 2 22 3 21 4 19 5 20 6 4 7 2 8 1 9 3 10 5 11 6 12
REMARK SMILES IDX 7 14 8 15 9 16 10 17 18 18 11 19 12 20 17 21 13 22 16 23
REMARK SMILES IDX 14 24 15 25 25 26 26 27 27 28 28 29 29 30 30 31 31 32 89 33
REMARK SMILES IDX 32 34 88 35 33 36 34 37 35 38 82 39 36 40 87 41 81 42 83 43
REMARK SMILES IDX 37 44 86 45 80 46 79 47 38 49 68 50 49 51 67 52 50 53 53 54
REMARK SMILES IDX 66 55 84 56 51 57 52 58 65 60 85 61 54 62 39 63 40 64 48 65
REMARK SMILES IDX 41 66 47 67 42 68 43 69 44 70 45 71 46 72 69 73 70 74 78 75
REMARK SMILES IDX 71 76 77 77 72 78 73 79 74 80 75 81 76 82 55 83 56 84 64 85
REMARK SMILES IDX 57 86 63 87 58 88 59 89 60 90 61 91 62 92
REMARK H PARENT 5 13 83 48 53 59
REMARK Flexibility Score: inf
ROOT
ATOM      1  O   UNL A   1      41.452  21.593  27.375  1.00  0.00    -0.374 OA
ENDROOT
BRANCH   1   2
ATOM      2  C   UNL A   1      40.158  22.137  27.089  1.00  0.00     0.202 C 
BRANCH   2   3
ATOM      3  C   UNL A   1      39.383  21.312  26.071  1.00  0.00     0.261 C 
BRANCH   3   4
ATOM      4  O   UNL A   1      38.054  21.854  25.911  1.00  0.00    -0.462 OA
BRANCH   4   5
ATOM      5  C   UNL A   1      37.178  21.051  25.269  1.00  0.00     0.328 C 
ATOM      6  O   UNL A   1      37.491  20.069  24.602  1.00  0.00    -0.250 OA
BRANCH   5   7
ATOM      7  C   UNL A   1      35.710  21.503  25.394  1.00  0.00     0.194 C 
BRANCH   7   8
ATOM      8  C   UNL A   1      35.556  22.827  26.171  1.00  0.00     0.017 C 
ATOM      9  C   UNL A   1      35.244  24.054  25.310  1.00  0.00     0.010 C 
ATOM     10  C   UNL A   1      34.513  22.670  27.277  1.00  0.00     0.010 C 
ENDBRANCH   7   8
BRANCH   7  11
ATOM     11  N   UNL A   1      34.677  20.478  25.689  1.00  0.00    -0.341 N 
ATOM     12  C   UNL A   1      33.489  20.066  25.181  1.00  0.00     0.240 C 
ATOM     13  H   UNL A   1      34.926  19.945  26.478  1.00  0.00     0.164 HD
ATOM     14  O   UNL A   1      33.004  19.058  25.712  1.00  0.00    -0.273 OA
BRANCH  12  15
ATOM     15  C   UNL A   1      32.776  20.695  24.002  1.00  0.00     0.222 C 
BRANCH  15  16
ATOM     16  N   UNL A   1      32.129  21.959  24.317  1.00  0.00    -0.338 N 
ATOM     17  C   UNL A   1      31.361  22.190  25.429  1.00  0.00     0.087 A 
ATOM     18  C   UNL A   1      32.208  23.105  23.552  1.00  0.00     0.050 A 
ATOM     19  C   UNL A   1      30.804  23.440  25.300  1.00  0.00     0.029 A 
ATOM     20  C   UNL A   1      31.325  24.033  24.115  1.00  0.00     0.014 A 
ATOM     21  C   UNL A   1      32.956  23.391  22.401  1.00  0.00     0.027 A 
ATOM     22  C   UNL A   1      31.141  25.267  23.456  1.00  0.00     0.027 A 
ATOM     23  C   UNL A   1      32.769  24.631  21.792  1.00  0.00     0.003 A 
ATOM     24  Br  UNL A   1      29.921  26.553  24.121  1.00  0.00    -0.050 Br
ATOM     25  C   UNL A   1      31.851  25.549  22.286  1.00  0.00     0.016 A 
ENDBRANCH  15  16
ENDBRANCH  12  15
ENDBRANCH   7  11
ENDBRANCH   5   7
ENDBRANCH   4   5
ENDBRANCH   3   4
ENDBRANCH   2   3
ENDBRANCH   1   2
BRANCH   1  26
ATOM     26  C   UNL A   1      42.131  20.959  26.295  1.00  0.00     0.202 C 
BRANCH  26  27
ATOM     27  C   UNL A   1      43.232  21.795  25.675  1.00  0.00     0.261 C 
BRANCH  27  28
ATOM     28  O   UNL A   1      42.668  22.982  25.152  1.00  0.00    -0.460 OA
BRANCH  28  29
ATOM     29  C   UNL A   1      43.349  24.129  25.363  1.00  0.00     0.338 C 
ATOM     30  O   UNL A   1      44.455  24.428  24.977  1.00  0.00    -0.246 OA
BRANCH  29  31
ATOM     31  C   UNL A   1      42.515  24.917  26.278  1.00  0.00     0.060 A 
ATOM     32  C   UNL A   1      41.515  25.718  25.725  1.00  0.00     0.016 A 
ATOM     33  C   UNL A   1      42.886  25.003  27.635  1.00  0.00     0.016 A 
ATOM     34  C   UNL A   1      41.050  26.768  26.481  1.00  0.00     0.010 A 
ATOM     35  C   UNL A   1      42.419  26.038  28.387  1.00  0.00     0.010 A 
ATOM     36  C   UNL A   1      41.606  26.960  27.751  1.00  0.00    -0.014 A 
BRANCH  36  37
ATOM     37  C   UNL A   1      41.408  28.219  28.410  1.00  0.00     0.031 A 
ATOM     38  C   UNL A   1      42.486  29.183  28.153  1.00  0.00     0.074 A 
ATOM     39  C   UNL A   1      40.278  28.443  29.105  1.00  0.00     0.049 A 
ATOM     40  N   UNL A   1      43.456  29.472  28.951  1.00  0.00    -0.248 NA
ATOM     41  C   UNL A   1      42.641  29.717  26.791  1.00  0.00     0.031 C 
ATOM     42  C   UNL A   1      39.048  27.646  29.168  1.00  0.00     0.029 A 
ATOM     43  N   UNL A   1      39.969  29.520  29.856  1.00  0.00    -0.354 N 
ATOM     44  C   UNL A   1      44.206  30.425  28.284  1.00  0.00     0.074 A 
ATOM     45  C   UNL A   1      43.801  30.367  26.901  1.00  0.00     0.031 C 
ATOM     46  C   UNL A   1      38.060  28.398  29.712  1.00  0.00     0.029 A 
ATOM     47  C   UNL A   1      38.624  29.660  30.159  1.00  0.00     0.049 A 
ATOM     48  H   UNL A   1      40.650  30.159  30.166  1.00  0.00     0.167 HD
ATOM     49  C   UNL A   1      44.887  31.382  28.966  1.00  0.00     0.031 A 
ATOM     50  C   UNL A   1      38.045  30.786  30.653  1.00  0.00     0.031 A 
ATOM     51  C   UNL A   1      44.980  31.075  30.371  1.00  0.00     0.049 A 
ATOM     52  C   UNL A   1      39.151  31.565  31.291  1.00  0.00     0.074 A 
ATOM     53  C   UNL A   1      45.519  30.019  31.082  1.00  0.00     0.029 A 
ATOM     54  N   UNL A   1      44.057  31.667  31.206  1.00  0.00    -0.354 N 
ATOM     55  N   UNL A   1      39.826  31.122  32.323  1.00  0.00    -0.248 NA
ATOM     56  C   UNL A   1      39.854  32.548  30.474  1.00  0.00     0.031 C 
ATOM     57  C   UNL A   1      44.558  29.734  32.095  1.00  0.00     0.029 A 
ATOM     58  C   UNL A   1      43.536  30.684  32.013  1.00  0.00     0.049 A 
ATOM     59  H   UNL A   1      43.815  32.621  31.222  1.00  0.00     0.167 HD
ATOM     60  C   UNL A   1      41.154  31.435  32.054  1.00  0.00     0.074 A 
ATOM     61  C   UNL A   1      41.099  32.373  30.930  1.00  0.00     0.031 C 
ATOM     62  C   UNL A   1      42.187  30.686  32.546  1.00  0.00     0.031 A 
BRANCH  49  63
ATOM     63  C   UNL A   1      45.092  32.764  28.422  1.00  0.00    -0.014 A 
ATOM     64  C   UNL A   1      46.398  33.251  28.250  1.00  0.00     0.010 A 
ATOM     65  C   UNL A   1      44.032  33.690  28.311  1.00  0.00     0.010 A 
ATOM     66  C   UNL A   1      46.629  34.611  28.007  1.00  0.00     0.020 A 
ATOM     67  C   UNL A   1      44.247  35.035  28.026  1.00  0.00     0.020 A 
ATOM     68  C   UNL A   1      45.550  35.493  27.900  1.00  0.00     0.054 A 
BRANCH  68  69
ATOM     69  S   UNL A   1      45.868  37.260  27.686  1.00  0.00     0.124 S 
ATOM     70  O   UNL A   1      46.495  37.613  28.957  1.00  0.00    -0.237 OA
ATOM     71  O   UNL A   1      46.747  37.271  26.520  1.00  0.00    -0.237 OA
ATOM     72  O   UNL A   1      44.539  37.824  27.467  1.00  0.00    -0.744 OA
ENDBRANCH  68  69
ENDBRANCH  49  63
BRANCH  50  73
ATOM     73  C   UNL A   1      36.777  31.396  30.149  1.00  0.00    -0.014 A 
ATOM     74  C   UNL A   1      35.794  31.885  31.032  1.00  0.00     0.010 A 
ATOM     75  C   UNL A   1      36.639  31.742  28.785  1.00  0.00     0.010 A 
ATOM     76  C   UNL A   1      34.766  32.739  30.582  1.00  0.00     0.020 A 
ATOM     77  C   UNL A   1      35.617  32.584  28.328  1.00  0.00     0.020 A 
ATOM     78  C   UNL A   1      34.704  33.106  29.236  1.00  0.00     0.054 A 
BRANCH  78  79
ATOM     79  S   UNL A   1      33.487  34.343  28.689  1.00  0.00     0.124 S 
ATOM     80  O   UNL A   1      32.704  33.602  27.705  1.00  0.00    -0.237 OA
ATOM     81  O   UNL A   1      32.795  34.669  29.933  1.00  0.00    -0.237 OA
ATOM     82  O   UNL A   1      34.309  35.419  28.140  1.00  0.00    -0.744 OA
ENDBRANCH  78  79
ENDBRANCH  50  73
BRANCH  62  83
ATOM     83  C   UNL A   1      41.894  29.616  33.578  1.00  0.00    -0.014 A 
ATOM     84  C   UNL A   1      41.591  28.275  33.262  1.00  0.00     0.010 A 
ATOM     85  C   UNL A   1      42.162  29.939  34.920  1.00  0.00     0.010 A 
ATOM     86  C   UNL A   1      41.557  27.289  34.266  1.00  0.00     0.020 A 
ATOM     87  C   UNL A   1      42.144  28.963  35.919  1.00  0.00     0.020 A 
ATOM     88  C   UNL A   1      41.844  27.641  35.589  1.00  0.00     0.054 A 
BRANCH  88  89
ATOM     89  S   UNL A   1      41.851  26.364  36.882  1.00  0.00     0.124 S 
ATOM     90  O   UNL A   1      42.109  25.140  36.128  1.00  0.00    -0.237 OA
ATOM     91  O   UNL A   1      42.935  26.802  37.759  1.00  0.00    -0.237 OA
ATOM     92  O   UNL A   1      40.514  26.453  37.469  1.00  0.00    -0.744 OA
ENDBRANCH  88  89
ENDBRANCH  62  83
ENDBRANCH  36  37
ENDBRANCH  29  31
ENDBRANCH  28  29
ENDBRANCH  27  28
ENDBRANCH  26  27
ENDBRANCH   1  26
TORSDOF 21
ENDMDL
MODEL 2
REMARK VINA RESULT:     -10.8      3.166      9.575
REMARK SMILES CC(C)[C@H](NC(=O)Cn1ccc2c(Br)cccc21)C(=O)OCCOCCOC(=O)c1ccc(-c2c3nc(c(-c4ccc(S(=O)(=O)[O-])cc4)c4ccc([nH]4)c(-c4ccc(S(=O)(=O)[O-])cc4)c4nc(c(-c5ccc(S(=O)(=O)[O-])cc5)c5ccc2[nH]5)C=C4)C=C3)cc1
REMARK SMILES IDX 24 1 23 2 22 3 21 4 19 5 20 6 4 7 2 8 1 9 3 10 5 11 6 12
REMARK SMILES IDX 7 14 8 15 9 16 10 17 18 18 11 19 12 20 17 21 13 22 16 23
REMARK SMILES IDX 14 24 15 25 25 26 26 27 27 28 28 29 29 30 30 31 31 32 89 33
REMARK SMILES IDX 32 34 88 35 33 36 34 37 35 38 82 39 36 40 87 41 81 42 83 43
REMARK SMILES IDX 37 44 86 45 80 46 79 47 38 49 68 50 49 51 67 52 50 53 53 54
REMARK SMILES IDX 66 55 84 56 51 57 52 58 65 60 85 61 54 62 39 63 40 64 48 65
REMARK SMILES IDX 41 66 47 67 42 68 43 69 44 70 45 71 46 72 69 73 70 74 78 75
REMARK SMILES IDX 71 76 77 77 72 78 73 79 74 80 75 81 76 82 55 83 56 84 64 85
REMARK SMILES IDX 57 86 63 87 58 88 59 89 60 90 61 91 62 92
REMARK H PARENT 5 13 83 48 53 59
REMARK Flexibility Score: inf
ROOT
ATOM      1  O   UNL A   1      34.058  29.619  26.524  1.00  0.00    -0.374 OA
ENDROOT
BRANCH   1   2
ATOM      2  C   UNL A   1      33.662  28.317  26.973  1.00  0.00     0.202 C 
BRANCH   2   3
ATOM      3  C   UNL A   1      32.436  27.788  26.241  1.00  0.00     0.261 C 
BRANCH   3   4
ATOM      4  O   UNL A   1      32.586  27.995  24.821  1.00  0.00    -0.462 OA
BRANCH   4   5
ATOM      5  C   UNL A   1      31.651  28.785  24.251  1.00  0.00     0.328 C 
ATOM      6  O   UNL A   1      31.179  29.794  24.770  1.00  0.00    -0.250 OA
BRANCH   5   7
ATOM      7  C   UNL A   1      31.162  28.285  22.878  1.00  0.00     0.194 C 
BRANCH   7   8
ATOM      8  C   UNL A   1      29.720  27.737  22.921  1.00  0.00     0.017 C 
ATOM      9  C   UNL A   1      29.380  26.901  24.158  1.00  0.00     0.010 C 
ATOM     10  C   UNL A   1      28.718  28.879  22.754  1.00  0.00     0.010 C 
ENDBRANCH   7   8
BRANCH   7  11
ATOM     11  N   UNL A   1      32.104  27.509  22.032  1.00  0.00    -0.341 N 
ATOM     12  C   UNL A   1      32.516  26.224  21.897  1.00  0.00     0.240 C 
ATOM     13  H   UNL A   1      32.558  28.094  21.384  1.00  0.00     0.164 HD
ATOM     14  O   UNL A   1      33.277  26.007  20.944  1.00  0.00    -0.273 OA
BRANCH  12  15
ATOM     15  C   UNL A   1      32.068  25.066  22.764  1.00  0.00     0.222 C 
BRANCH  15  16
ATOM     16  N   UNL A   1      33.156  24.413  23.475  1.00  0.00    -0.338 N 
ATOM     17  C   UNL A   1      34.310  25.033  23.881  1.00  0.00     0.087 A 
ATOM     18  C   UNL A   1      33.175  23.086  23.853  1.00  0.00     0.050 A 
ATOM     19  C   UNL A   1      35.151  24.065  24.377  1.00  0.00     0.029 A 
ATOM     20  C   UNL A   1      34.452  22.825  24.362  1.00  0.00     0.014 A 
ATOM     21  C   UNL A   1      32.191  22.091  23.763  1.00  0.00     0.027 A 
ATOM     22  C   UNL A   1      34.767  21.500  24.732  1.00  0.00     0.027 A 
ATOM     23  C   UNL A   1      32.530  20.799  24.162  1.00  0.00     0.003 A 
ATOM     24  Br  UNL A   1      36.492  21.054  25.376  1.00  0.00    -0.050 Br
ATOM     25  C   UNL A   1      33.809  20.491  24.609  1.00  0.00     0.016 A 
ENDBRANCH  15  16
ENDBRANCH  12  15
ENDBRANCH   7  11
ENDBRANCH   5   7
ENDBRANCH   4   5
ENDBRANCH   3   4
ENDBRANCH   2   3
ENDBRANCH   1   2
BRANCH   1  26
ATOM     26  C   UNL A   1      33.469  30.730  27.194  1.00  0.00     0.202 C 
BRANCH  26  27
ATOM     27  C   UNL A   1      34.469  31.694  27.799  1.00  0.00     0.261 C 
BRANCH  27  28
ATOM     28  O   UNL A   1      35.232  31.012  28.775  1.00  0.00    -0.460 OA
BRANCH  28  29
ATOM     29  C   UNL A   1      35.604  31.718  29.865  1.00  0.00     0.338 C 
ATOM     30  O   UNL A   1      35.208  32.799  30.230  1.00  0.00    -0.246 OA
BRANCH  29  31
ATOM     31  C   UNL A   1      36.700  30.953  30.470  1.00  0.00     0.060 A 
ATOM     32  C   UNL A   1      37.872  31.638  30.798  1.00  0.00     0.016 A 
ATOM     33  C   UNL A   1      36.616  29.547  30.498  1.00  0.00     0.016 A 
ATOM     34  C   UNL A   1      39.025  30.900  30.928  1.00  0.00     0.010 A 
ATOM     35  C   UNL A   1      37.756  28.815  30.635  1.00  0.00     0.010 A 
ATOM     36  C   UNL A   1      38.946  29.518  30.727  1.00  0.00    -0.014 A 
BRANCH  36  37
ATOM     37  C   UNL A   1      40.157  28.780  30.508  1.00  0.00     0.031 A 
ATOM     38  C   UNL A   1      40.974  28.634  31.720  1.00  0.00     0.074 A 
ATOM     39  C   UNL A   1      40.402  28.234  29.303  1.00  0.00     0.049 A 
ATOM     40  N   UNL A   1      42.023  29.320  32.019  1.00  0.00    -0.248 NA
ATOM     41  C   UNL A   1      40.456  27.806  32.821  1.00  0.00     0.031 C 
ATOM     42  C   UNL A   1      39.515  28.095  28.143  1.00  0.00     0.029 A 
ATOM     43  N   UNL A   1      41.519  27.595  28.896  1.00  0.00    -0.354 N 
ATOM     44  C   UNL A   1      42.447  28.825  33.240  1.00  0.00     0.074 A 
ATOM     45  C   UNL A   1      41.341  28.076  33.782  1.00  0.00     0.031 C 
ATOM     46  C   UNL A   1      40.053  27.202  27.277  1.00  0.00     0.029 A 
ATOM     47  C   UNL A   1      41.373  26.826  27.753  1.00  0.00     0.049 A 
ATOM     48  H   UNL A   1      42.374  27.670  29.377  1.00  0.00     0.167 HD
ATOM     49  C   UNL A   1      43.764  28.826  33.576  1.00  0.00     0.031 A 
ATOM     50  C   UNL A   1      42.259  25.890  27.320  1.00  0.00     0.031 A 
ATOM     51  C   UNL A   1      44.541  29.657  32.692  1.00  0.00     0.049 A 
ATOM     52  C   UNL A   1      43.568  26.249  27.949  1.00  0.00     0.074 A 
ATOM     53  C   UNL A   1      44.503  31.000  32.368  1.00  0.00     0.029 A 
ATOM     54  N   UNL A   1      45.192  29.031  31.651  1.00  0.00    -0.354 N 
ATOM     55  N   UNL A   1      44.195  27.369  27.689  1.00  0.00    -0.248 NA
ATOM     56  C   UNL A   1      43.895  25.645  29.236  1.00  0.00     0.031 C 
ATOM     57  C   UNL A   1      44.684  31.040  30.955  1.00  0.00     0.029 A 
ATOM     58  C   UNL A   1      44.918  29.738  30.505  1.00  0.00     0.049 A 
ATOM     59  H   UNL A   1      45.753  28.224  31.717  1.00  0.00     0.167 HD
ATOM     60  C   UNL A   1      44.657  27.823  28.920  1.00  0.00     0.074 A 
ATOM     61  C   UNL A   1      44.498  26.683  29.826  1.00  0.00     0.031 C 
ATOM     62  C   UNL A   1      44.836  29.154  29.178  1.00  0.00     0.031 A 
BRANCH  49  63
ATOM     63  C   UNL A   1      44.375  27.758  34.432  1.00  0.00    -0.014 A 
ATOM     64  C   UNL A   1      44.651  26.499  33.873  1.00  0.00     0.010 A 
ATOM     65  C   UNL A   1      44.454  27.878  35.836  1.00  0.00     0.010 A 
ATOM     66  C   UNL A   1      44.962  25.405  34.689  1.00  0.00     0.020 A 
ATOM     67  C   UNL A   1      44.806  26.807  36.655  1.00  0.00     0.020 A 
ATOM     68  C   UNL A   1      45.034  25.569  36.075  1.00  0.00     0.054 A 
BRANCH  68  69
ATOM     69  S   UNL A   1      45.339  24.127  37.123  1.00  0.00     0.124 S 
ATOM     70  O   UNL A   1      46.788  24.181  37.302  1.00  0.00    -0.237 OA
ATOM     71  O   UNL A   1      44.542  24.438  38.307  1.00  0.00    -0.237 OA
ATOM     72  O   UNL A   1      44.850  23.009  36.321  1.00  0.00    -0.744 OA
ENDBRANCH  68  69
ENDBRANCH  49  63
BRANCH  50  73
ATOM     73  C   UNL A   1      41.903  24.513  26.859  1.00  0.00    -0.014 A 
ATOM     74  C   UNL A   1      42.629  23.870  25.837  1.00  0.00     0.010 A 
ATOM     75  C   UNL A   1      41.006  23.716  27.604  1.00  0.00     0.010 A 
ATOM     76  C   UNL A   1      42.516  22.481  25.623  1.00  0.00     0.020 A 
ATOM     77  C   UNL A   1      40.882  22.337  27.394  1.00  0.00     0.020 A 
ATOM     78  C   UNL A   1      41.663  21.719  26.425  1.00  0.00     0.054 A 
BRANCH  78  79
ATOM     79  S   UNL A   1      41.647  19.907  26.266  1.00  0.00     0.124 S 
ATOM     80  O   UNL A   1      40.275  19.638  25.849  1.00  0.00    -0.237 OA
ATOM     81  O   UNL A   1      42.674  19.675  25.254  1.00  0.00    -0.237 OA
ATOM     82  O   UNL A   1      41.987  19.438  27.609  1.00  0.00    -0.744 OA
ENDBRANCH  78  79
ENDBRANCH  50  73
BRANCH  62  83
ATOM     83  C   UNL A   1      44.731  30.147  28.037  1.00  0.00    -0.014 A 
ATOM     84  C   UNL A   1      43.519  30.716  27.594  1.00  0.00     0.010 A 
ATOM     85  C   UNL A   1      45.937  30.687  27.555  1.00  0.00     0.010 A 
ATOM     86  C   UNL A   1      43.520  31.795  26.690  1.00  0.00     0.020 A 
ATOM     87  C   UNL A   1      45.944  31.766  26.669  1.00  0.00     0.020 A 
ATOM     88  C   UNL A   1      44.737  32.319  26.241  1.00  0.00     0.054 A 
BRANCH  88  89
ATOM     89  S   UNL A   1      44.745  33.745  25.114  1.00  0.00     0.124 S 
ATOM     90  O   UNL A   1      44.338  33.155  23.842  1.00  0.00    -0.237 OA
ATOM     91  O   UNL A   1      43.772  34.645  25.730  1.00  0.00    -0.237 OA
ATOM     92  O   UNL A   1      46.129  34.217  25.157  1.00  0.00    -0.744 OA
ENDBRANCH  88  89
ENDBRANCH  62  83
ENDBRANCH  36  37
ENDBRANCH  29  31
ENDBRANCH  28  29
ENDBRANCH  27  28
ENDBRANCH  26  27
ENDBRANCH   1  26
TORSDOF 21
ENDMDL
MODEL 3
REMARK VINA RESULT:     -10.7      1.452      2.287
REMARK SMILES CC(C)[C@H](NC(=O)Cn1ccc2c(Br)cccc21)C(=O)OCCOCCOC(=O)c1ccc(-c2c3nc(c(-c4ccc(S(=O)(=O)[O-])cc4)c4ccc([nH]4)c(-c4ccc(S(=O)(=O)[O-])cc4)c4nc(c(-c5ccc(S(=O)(=O)[O-])cc5)c5ccc2[nH]5)C=C4)C=C3)cc1
REMARK SMILES IDX 24 1 23 2 22 3 21 4 19 5 20 6 4 7 2 8 1 9 3 10 5 11 6 12
REMARK SMILES IDX 7 14 8 15 9 16 10 17 18 18 11 19 12 20 17 21 13 22 16 23
REMARK SMILES IDX 14 24 15 25 25 26 26 27 27 28 28 29 29 30 30 31 31 32 89 33
REMARK SMILES IDX 32 34 88 35 33 36 34 37 35 38 82 39 36 40 87 41 81 42 83 43
REMARK SMILES IDX 37 44 86 45 80 46 79 47 38 49 68 50 49 51 67 52 50 53 53 54
REMARK SMILES IDX 66 55 84 56 51 57 52 58 65 60 85 61 54 62 39 63 40 64 48 65
REMARK SMILES IDX 41 66 47 67 42 68 43 69 44 70 45 71 46 72 69 73 70 74 78 75
REMARK SMILES IDX 71 76 77 77 72 78 73 79 74 80 75 81 76 82 55 83 56 84 64 85
REMARK SMILES IDX 57 86 63 87 58 88 59 89 60 90 61 91 62 92
REMARK H PARENT 5 13 83 48 53 59
REMARK Flexibility Score: inf
ROOT
ATOM      1  O   UNL A   1      39.686  21.996  25.631  1.00  0.00    -0.374 OA
ENDROOT
BRANCH   1   2
ATOM      2  C   UNL A   1      38.311  22.045  26.032  1.00  0.00     0.202 C 
BRANCH   2   3
ATOM      3  C   UNL A   1      37.418  21.144  25.191  1.00  0.00     0.261 C 
BRANCH   3   4
ATOM      4  O   UNL A   1      36.362  21.924  24.591  1.00  0.00    -0.462 OA
BRANCH   4   5
ATOM      5  C   UNL A   1      35.218  21.994  25.306  1.00  0.00     0.328 C 
ATOM      6  O   UNL A   1      35.153  21.898  26.529  1.00  0.00    -0.250 OA
BRANCH   5   7
ATOM      7  C   UNL A   1      33.951  22.154  24.444  1.00  0.00     0.194 C 
BRANCH   7   8
ATOM      8  C   UNL A   1      33.295  20.803  24.090  1.00  0.00     0.017 C 
ATOM      9  C   UNL A   1      32.793  19.991  25.288  1.00  0.00     0.010 C 
ATOM     10  C   UNL A   1      32.169  21.013  23.077  1.00  0.00     0.010 C 
ENDBRANCH   7   8
BRANCH   7  11
ATOM     11  N   UNL A   1      33.965  23.152  23.345  1.00  0.00    -0.341 N 
ATOM     12  C   UNL A   1      33.856  24.496  23.201  1.00  0.00     0.240 C 
ATOM     13  H   UNL A   1      34.089  22.714  22.472  1.00  0.00     0.164 HD
ATOM     14  O   UNL A   1      34.039  24.925  22.053  1.00  0.00    -0.273 OA
BRANCH  12  15
ATOM     15  C   UNL A   1      33.602  25.480  24.325  1.00  0.00     0.222 C 
BRANCH  15  16
ATOM     16  N   UNL A   1      32.869  26.665  23.910  1.00  0.00    -0.338 N 
ATOM     17  C   UNL A   1      33.443  27.867  23.584  1.00  0.00     0.087 A 
ATOM     18  C   UNL A   1      31.498  26.744  23.771  1.00  0.00     0.050 A 
ATOM     19  C   UNL A   1      32.430  28.777  23.395  1.00  0.00     0.029 A 
ATOM     20  C   UNL A   1      31.191  28.084  23.514  1.00  0.00     0.014 A 
ATOM     21  C   UNL A   1      30.506  25.759  23.879  1.00  0.00     0.027 A 
ATOM     22  C   UNL A   1      29.832  28.456  23.429  1.00  0.00     0.027 A 
ATOM     23  C   UNL A   1      29.175  26.158  23.763  1.00  0.00     0.003 A 
ATOM     24  Br  UNL A   1      29.331  30.259  23.141  1.00  0.00    -0.050 Br
ATOM     25  C   UNL A   1      28.832  27.491  23.575  1.00  0.00     0.016 A 
ENDBRANCH  15  16
ENDBRANCH  12  15
ENDBRANCH   7  11
ENDBRANCH   5   7
ENDBRANCH   4   5
ENDBRANCH   3   4
ENDBRANCH   2   3
ENDBRANCH   1   2
BRANCH   1  26
ATOM     26  C   UNL A   1      40.568  21.250  26.465  1.00  0.00     0.202 C 
BRANCH  26  27
ATOM     27  C   UNL A   1      42.035  21.565  26.257  1.00  0.00     0.261 C 
BRANCH  27  28
ATOM     28  O   UNL A   1      42.150  22.633  25.338  1.00  0.00    -0.460 OA
BRANCH  28  29
ATOM     29  C   UNL A   1      42.966  23.653  25.683  1.00  0.00     0.338 C 
ATOM     30  O   UNL A   1      44.150  23.771  25.476  1.00  0.00    -0.246 OA
BRANCH  29  31
ATOM     31  C   UNL A   1      42.138  24.560  26.488  1.00  0.00     0.060 A 
ATOM     32  C   UNL A   1      41.295  25.446  25.815  1.00  0.00     0.016 A 
ATOM     33  C   UNL A   1      42.379  24.653  27.873  1.00  0.00     0.016 A 
ATOM     34  C   UNL A   1      40.878  26.566  26.494  1.00  0.00     0.010 A 
ATOM     35  C   UNL A   1      41.959  25.759  28.547  1.00  0.00     0.010 A 
ATOM     36  C   UNL A   1      41.322  26.741  27.808  1.00  0.00    -0.014 A 
BRANCH  36  37
ATOM     37  C   UNL A   1      41.203  28.037  28.413  1.00  0.00     0.031 A 
ATOM     38  C   UNL A   1      42.310  28.940  28.073  1.00  0.00     0.074 A 
ATOM     39  C   UNL A   1      40.109  28.343  29.135  1.00  0.00     0.049 A 
ATOM     40  N   UNL A   1      43.320  29.223  28.822  1.00  0.00    -0.248 NA
ATOM     41  C   UNL A   1      42.437  29.402  26.682  1.00  0.00     0.031 C 
ATOM     42  C   UNL A   1      38.849  27.606  29.279  1.00  0.00     0.029 A 
ATOM     43  N   UNL A   1      39.874  29.466  29.844  1.00  0.00    -0.354 N 
ATOM     44  C   UNL A   1      44.085  30.109  28.083  1.00  0.00     0.074 A 
ATOM     45  C   UNL A   1      43.627  30.005  26.720  1.00  0.00     0.031 C 
ATOM     46  C   UNL A   1      37.915  28.424  29.820  1.00  0.00     0.029 A 
ATOM     47  C   UNL A   1      38.548  29.680  30.186  1.00  0.00     0.049 A 
ATOM     48  H   UNL A   1      40.593  30.089  30.099  1.00  0.00     0.167 HD
ATOM     49  C   UNL A   1      44.831  31.066  28.695  1.00  0.00     0.031 A 
ATOM     50  C   UNL A   1      38.037  30.852  30.645  1.00  0.00     0.031 A 
ATOM     51  C   UNL A   1      44.962  30.821  30.108  1.00  0.00     0.049 A 
ATOM     52  C   UNL A   1      39.198  31.610  31.207  1.00  0.00     0.074 A 
ATOM     53  C   UNL A   1      45.482  29.777  30.851  1.00  0.00     0.029 A 
ATOM     54  N   UNL A   1      44.097  31.491  30.946  1.00  0.00    -0.354 N 
ATOM     55  N   UNL A   1      39.890  31.186  32.234  1.00  0.00    -0.248 NA
ATOM     56  C   UNL A   1      39.911  32.522  30.319  1.00  0.00     0.031 C 
ATOM     57  C   UNL A   1      44.548  29.581  31.909  1.00  0.00     0.029 A 
ATOM     58  C   UNL A   1      43.565  30.571  31.817  1.00  0.00     0.049 A 
ATOM     59  H   UNL A   1      43.896  32.455  30.924  1.00  0.00     0.167 HD
ATOM     60  C   UNL A   1      41.219  31.428  31.905  1.00  0.00     0.074 A 
ATOM     61  C   UNL A   1      41.163  32.314  30.739  1.00  0.00     0.031 C 
ATOM     62  C   UNL A   1      42.237  30.658  32.396  1.00  0.00     0.031 A 
BRANCH  49  63
ATOM     63  C   UNL A   1      45.074  32.411  28.078  1.00  0.00    -0.014 A 
ATOM     64  C   UNL A   1      46.392  32.863  27.907  1.00  0.00     0.010 A 
ATOM     65  C   UNL A   1      44.035  33.348  27.892  1.00  0.00     0.010 A 
ATOM     66  C   UNL A   1      46.656  34.203  27.593  1.00  0.00     0.020 A 
ATOM     67  C   UNL A   1      44.282  34.671  27.536  1.00  0.00     0.020 A 
ATOM     68  C   UNL A   1      45.596  35.097  27.413  1.00  0.00     0.054 A 
BRANCH  68  69
ATOM     69  S   UNL A   1      45.953  36.843  27.107  1.00  0.00     0.124 S 
ATOM     70  O   UNL A   1      46.747  36.781  25.882  1.00  0.00    -0.237 OA
ATOM     71  O   UNL A   1      44.613  37.406  26.967  1.00  0.00    -0.237 OA
ATOM     72  O   UNL A   1      46.680  37.260  28.302  1.00  0.00    -0.744 OA
ENDBRANCH  68  69
ENDBRANCH  49  63
BRANCH  50  73
ATOM     73  C   UNL A   1      36.778  31.494  30.157  1.00  0.00    -0.014 A 
ATOM     74  C   UNL A   1      35.785  31.940  31.051  1.00  0.00     0.010 A 
ATOM     75  C   UNL A   1      36.659  31.910  28.811  1.00  0.00     0.010 A 
ATOM     76  C   UNL A   1      34.767  32.822  30.633  1.00  0.00     0.020 A 
ATOM     77  C   UNL A   1      35.647  32.779  28.386  1.00  0.00     0.020 A 
ATOM     78  C   UNL A   1      34.724  33.259  29.307  1.00  0.00     0.054 A 
BRANCH  78  79
ATOM     79  S   UNL A   1      33.519  34.527  28.809  1.00  0.00     0.124 S 
ATOM     80  O   UNL A   1      32.706  33.822  27.824  1.00  0.00    -0.237 OA
ATOM     81  O   UNL A   1      32.855  34.838  30.072  1.00  0.00    -0.237 OA
ATOM     82  O   UNL A   1      34.351  35.601  28.268  1.00  0.00    -0.744 OA
ENDBRANCH  78  79
ENDBRANCH  50  73
BRANCH  62  83
ATOM     83  C   UNL A   1      41.937  29.650  33.488  1.00  0.00    -0.014 A 
ATOM     84  C   UNL A   1      41.475  28.339  33.248  1.00  0.00     0.010 A 
ATOM     85  C   UNL A   1      42.361  29.979  34.788  1.00  0.00     0.010 A 
ATOM     86  C   UNL A   1      41.437  27.390  34.286  1.00  0.00     0.020 A 
ATOM     87  C   UNL A   1      42.339  29.037  35.818  1.00  0.00     0.020 A 
ATOM     88  C   UNL A   1      41.880  27.745  35.565  1.00  0.00     0.054 A 
BRANCH  88  89
ATOM     89  S   UNL A   1      41.881  26.508  36.896  1.00  0.00     0.124 S 
ATOM     90  O   UNL A   1      43.062  26.870  37.675  1.00  0.00    -0.237 OA
ATOM     91  O   UNL A   1      40.598  26.745  37.553  1.00  0.00    -0.237 OA
ATOM     92  O   UNL A   1      41.980  25.232  36.188  1.00  0.00    -0.744 OA
ENDBRANCH  88  89
ENDBRANCH  62  83
ENDBRANCH  36  37
ENDBRANCH  29  31
ENDBRANCH  28  29
ENDBRANCH  27  28
ENDBRANCH  26  27
ENDBRANCH   1  26
TORSDOF 21
ENDMDL
