MODEL 1
REMARK VINA RESULT:      -9.3      0.000      0.000
REMARK SMILES C[C@]([NH3+])(Cc1ccccc1Br)C(=O)OCCOCCOC(=O)c1ccc(-c2c3nc(c(-c4ccc(S(=O)(=O)[O-])cc4)c4ccc([nH]4)c(-c4ccc(S(=O)(=O)[O-])cc4)c4nc(c(-c5ccc(S(=O)(=O)[O-])cc5)c5ccc2[nH]5)C=C4)C=C3)cc1
REMARK SMILES IDX 18 1 17 2 16 3 15 4 14 5 12 6 13 7 2 8 1 9 4 10 5 11 6 12
REMARK SMILES IDX 10 13 7 14 9 15 11 16 8 17 3 18 19 22 20 23 21 24 22 25
REMARK SMILES IDX 23 26 24 27 82 28 25 29 81 30 26 31 27 32 28 33 75 34 29 35
REMARK SMILES IDX 80 36 74 37 76 38 30 39 79 40 73 41 72 42 31 44 61 45 42 46
REMARK SMILES IDX 60 47 43 48 46 49 59 50 77 51 44 52 45 53 58 55 78 56 47 57
REMARK SMILES IDX 32 58 33 59 41 60 34 61 40 62 35 63 36 64 37 65 38 66 39 67
REMARK SMILES IDX 62 68 63 69 71 70 64 71 70 72 65 73 66 74 67 75 68 76 69 77
REMARK SMILES IDX 48 78 49 79 57 80 50 81 56 82 51 83 52 84 53 85 54 86 55 87
REMARK H PARENT 3 19 3 20 3 21 76 43 46 54
REMARK Flexibility Score: inf
ROOT
ATOM      1  C   UNL A   1      32.587  29.842  25.593  1.00  0.00     0.202 C 
ENDROOT
BRANCH   1   2
ATOM      2  O   UNL A   1      31.415  29.066  25.803  1.00  0.00    -0.374 OA
BRANCH   2   3
ATOM      3  C   UNL A   1      31.494  27.662  25.564  1.00  0.00     0.202 C 
BRANCH   3   4
ATOM      4  C   UNL A   1      32.344  26.797  26.504  1.00  0.00     0.261 C 
BRANCH   4   5
ATOM      5  O   UNL A   1      32.775  25.537  25.945  1.00  0.00    -0.459 OA
BRANCH   5   6
ATOM      6  C   UNL A   1      32.059  24.448  26.351  1.00  0.00     0.368 C 
ATOM      7  O   UNL A   1      31.192  24.476  27.223  1.00  0.00    -0.245 OA
BRANCH   6   8
ATOM      8  C   UNL A   1      32.538  23.115  25.712  1.00  0.00     0.194 C 
ATOM      9  C   UNL A   1      31.292  22.205  25.705  1.00  0.00     0.092 C 
BRANCH   8  10
ATOM     10  C   UNL A   1      33.686  22.372  26.449  1.00  0.00     0.117 C 
BRANCH  10  11
ATOM     11  C   UNL A   1      35.123  22.335  25.939  1.00  0.00    -0.027 A 
ATOM     12  C   UNL A   1      36.033  23.380  26.159  1.00  0.00     0.005 A 
ATOM     13  C   UNL A   1      35.608  21.188  25.269  1.00  0.00     0.021 A 
ATOM     14  C   UNL A   1      37.385  23.259  25.804  1.00  0.00     0.000 A 
ATOM     15  C   UNL A   1      36.956  21.073  24.903  1.00  0.00     0.016 A 
ATOM     16  Br  UNL A   1      34.486  19.715  24.821  1.00  0.00    -0.051 Br
ATOM     17  C   UNL A   1      37.849  22.100  25.192  1.00  0.00     0.001 A 
ENDBRANCH  10  11
ENDBRANCH   8  10
BRANCH   8  18
ATOM     18  N   UNL A   1      32.905  23.372  24.289  1.00  0.00    -0.343 N 
ATOM     19  H   UNL A   1      32.345  22.775  23.681  1.00  0.00     0.345 HD
ATOM     20  H   UNL A   1      33.894  23.164  24.152  1.00  0.00     0.345 HD
ATOM     21  H   UNL A   1      32.728  24.351  24.064  1.00  0.00     0.345 HD
ENDBRANCH   8  18
ENDBRANCH   6   8
ENDBRANCH   5   6
ENDBRANCH   4   5
ENDBRANCH   3   4
ENDBRANCH   2   3
ENDBRANCH   1   2
BRANCH   1  22
ATOM     22  C   UNL A   1      33.103  30.726  26.736  1.00  0.00     0.261 C 
BRANCH  22  23
ATOM     23  O   UNL A   1      33.831  30.029  27.743  1.00  0.00    -0.460 OA
BRANCH  23  24
ATOM     24  C   UNL A   1      34.708  30.811  28.406  1.00  0.00     0.338 C 
ATOM     25  O   UNL A   1      34.479  31.857  29.007  1.00  0.00    -0.246 OA
BRANCH  24  26
ATOM     26  C   UNL A   1      36.008  30.142  28.445  1.00  0.00     0.060 A 
ATOM     27  C   UNL A   1      36.407  29.596  29.669  1.00  0.00     0.016 A 
ATOM     28  C   UNL A   1      36.840  30.102  27.322  1.00  0.00     0.016 A 
ATOM     29  C   UNL A   1      37.680  29.065  29.795  1.00  0.00     0.010 A 
ATOM     30  C   UNL A   1      38.121  29.568  27.452  1.00  0.00     0.010 A 
ATOM     31  C   UNL A   1      38.555  29.094  28.700  1.00  0.00    -0.014 A 
BRANCH  31  32
ATOM     32  C   UNL A   1      39.976  28.775  28.935  1.00  0.00     0.031 A 
ATOM     33  C   UNL A   1      40.841  29.807  29.604  1.00  0.00     0.074 A 
ATOM     34  C   UNL A   1      40.446  27.555  28.629  1.00  0.00     0.049 A 
ATOM     35  N   UNL A   1      42.085  29.715  29.991  1.00  0.00    -0.248 NA
ATOM     36  C   UNL A   1      40.218  31.114  29.879  1.00  0.00     0.031 C 
ATOM     37  C   UNL A   1      39.664  26.484  28.008  1.00  0.00     0.029 A 
ATOM     38  N   UNL A   1      41.685  27.004  28.815  1.00  0.00    -0.354 N 
ATOM     39  C   UNL A   1      42.394  30.949  30.554  1.00  0.00     0.074 A 
ATOM     40  C   UNL A   1      41.221  31.783  30.428  1.00  0.00     0.031 C 
ATOM     41  C   UNL A   1      40.443  25.396  27.878  1.00  0.00     0.029 A 
ATOM     42  C   UNL A   1      41.777  25.704  28.383  1.00  0.00     0.049 A 
ATOM     43  H   UNL A   1      42.437  27.494  29.222  1.00  0.00     0.167 HD
ATOM     44  C   UNL A   1      43.552  31.341  31.134  1.00  0.00     0.031 A 
ATOM     45  C   UNL A   1      42.828  24.862  28.396  1.00  0.00     0.031 A 
ATOM     46  C   UNL A   1      44.713  30.497  31.232  1.00  0.00     0.049 A 
ATOM     47  C   UNL A   1      44.120  25.338  29.003  1.00  0.00     0.074 A 
ATOM     48  C   UNL A   1      45.942  30.780  31.799  1.00  0.00     0.029 A 
ATOM     49  N   UNL A   1      44.784  29.199  30.744  1.00  0.00    -0.354 N 
ATOM     50  N   UNL A   1      44.391  26.498  29.555  1.00  0.00    -0.248 NA
ATOM     51  C   UNL A   1      45.241  24.391  29.002  1.00  0.00     0.031 C 
ATOM     52  C   UNL A   1      46.774  29.673  31.604  1.00  0.00     0.029 A 
ATOM     53  C   UNL A   1      46.044  28.675  30.972  1.00  0.00     0.049 A 
ATOM     54  H   UNL A   1      44.046  28.721  30.300  1.00  0.00     0.167 HD
ATOM     55  C   UNL A   1      45.710  26.414  29.988  1.00  0.00     0.074 A 
ATOM     56  C   UNL A   1      46.171  25.080  29.648  1.00  0.00     0.031 C 
ATOM     57  C   UNL A   1      46.472  27.348  30.610  1.00  0.00     0.031 A 
BRANCH  44  58
ATOM     58  C   UNL A   1      43.624  32.748  31.665  1.00  0.00    -0.014 A 
ATOM     59  C   UNL A   1      43.313  33.041  33.006  1.00  0.00     0.010 A 
ATOM     60  C   UNL A   1      44.024  33.794  30.814  1.00  0.00     0.010 A 
ATOM     61  C   UNL A   1      43.365  34.358  33.475  1.00  0.00     0.020 A 
ATOM     62  C   UNL A   1      44.103  35.108  31.285  1.00  0.00     0.020 A 
ATOM     63  C   UNL A   1      43.756  35.384  32.609  1.00  0.00     0.054 A 
BRANCH  63  64
ATOM     64  S   UNL A   1      43.833  37.082  33.246  1.00  0.00     0.124 S 
ATOM     65  O   UNL A   1      42.613  37.158  34.047  1.00  0.00    -0.237 OA
ATOM     66  O   UNL A   1      45.082  37.083  34.004  1.00  0.00    -0.237 OA
ATOM     67  O   UNL A   1      43.839  37.905  32.040  1.00  0.00    -0.744 OA
ENDBRANCH  63  64
ENDBRANCH  44  58
BRANCH  45  68
ATOM     68  C   UNL A   1      42.692  23.500  27.815  1.00  0.00    -0.014 A 
ATOM     69  C   UNL A   1      42.087  22.459  28.541  1.00  0.00     0.010 A 
ATOM     70  C   UNL A   1      43.149  23.243  26.508  1.00  0.00     0.010 A 
ATOM     71  C   UNL A   1      41.951  21.186  27.976  1.00  0.00     0.020 A 
ATOM     72  C   UNL A   1      42.990  21.981  25.930  1.00  0.00     0.020 A 
ATOM     73  C   UNL A   1      42.400  20.956  26.672  1.00  0.00     0.054 A 
BRANCH  73  74
ATOM     74  S   UNL A   1      42.159  19.316  25.936  1.00  0.00     0.124 S 
ATOM     75  O   UNL A   1      42.958  19.409  24.718  1.00  0.00    -0.237 OA
ATOM     76  O   UNL A   1      42.681  18.426  26.970  1.00  0.00    -0.237 OA
ATOM     77  O   UNL A   1      40.713  19.241  25.733  1.00  0.00    -0.744 OA
ENDBRANCH  73  74
ENDBRANCH  45  68
BRANCH  57  78
ATOM     78  C   UNL A   1      47.874  26.948  30.978  1.00  0.00    -0.014 A 
ATOM     79  C   UNL A   1      48.958  27.232  30.129  1.00  0.00     0.010 A 
ATOM     80  C   UNL A   1      48.112  26.319  32.214  1.00  0.00     0.010 A 
ATOM     81  C   UNL A   1      50.253  26.858  30.493  1.00  0.00     0.020 A 
ATOM     82  C   UNL A   1      49.410  25.970  32.593  1.00  0.00     0.020 A 
ATOM     83  C   UNL A   1      50.469  26.226  31.721  1.00  0.00     0.054 A 
BRANCH  83  84
ATOM     84  S   UNL A   1      52.164  25.776  32.185  1.00  0.00     0.124 S 
ATOM     85  O   UNL A   1      52.894  26.030  30.946  1.00  0.00    -0.237 OA
ATOM     86  O   UNL A   1      52.451  26.696  33.283  1.00  0.00    -0.237 OA
ATOM     87  O   UNL A   1      52.056  24.371  32.569  1.00  0.00    -0.744 OA
ENDBRANCH  83  84
ENDBRANCH  57  78
ENDBRANCH  31  32
ENDBRANCH  24  26
ENDBRANCH  23  24
ENDBRANCH  22  23
ENDBRANCH   1  22
TORSDOF 20
ENDMDL
MODEL 2
REMARK VINA RESULT:      -9.2      2.756      9.545
REMARK SMILES C[C@]([NH3+])(Cc1ccccc1Br)C(=O)OCCOCCOC(=O)c1ccc(-c2c3nc(c(-c4ccc(S(=O)(=O)[O-])cc4)c4ccc([nH]4)c(-c4ccc(S(=O)(=O)[O-])cc4)c4nc(c(-c5ccc(S(=O)(=O)[O-])cc5)c5ccc2[nH]5)C=C4)C=C3)cc1
REMARK SMILES IDX 18 1 17 2 16 3 15 4 14 5 12 6 13 7 2 8 1 9 4 10 5 11 6 12
REMARK SMILES IDX 10 13 7 14 9 15 11 16 8 17 3 18 19 22 20 23 21 24 22 25
REMARK SMILES IDX 23 26 24 27 82 28 25 29 81 30 26 31 27 32 28 33 75 34 29 35
REMARK SMILES IDX 80 36 74 37 76 38 30 39 79 40 73 41 72 42 31 44 61 45 42 46
REMARK SMILES IDX 60 47 43 48 46 49 59 50 77 51 44 52 45 53 58 55 78 56 47 57
REMARK SMILES IDX 32 58 33 59 41 60 34 61 40 62 35 63 36 64 37 65 38 66 39 67
REMARK SMILES IDX 62 68 63 69 71 70 64 71 70 72 65 73 66 74 67 75 68 76 69 77
REMARK SMILES IDX 48 78 49 79 57 80 50 81 56 82 51 83 52 84 53 85 54 86 55 87
REMARK H PARENT 3 19 3 20 3 21 76 43 46 54
REMARK Flexibility Score: inf
ROOT
ATOM      1  C   UNL A   1      36.366  21.548  24.663  1.00  0.00     0.202 C 
ENDROOT
BRANCH   1   2
ATOM      2  O   UNL A   1      35.193  21.518  25.465  1.00  0.00    -0.374 OA
BRANCH   2   3
ATOM      3  C   UNL A   1      34.005  20.980  24.888  1.00  0.00     0.202 C 
BRANCH   3   4
ATOM      4  C   UNL A   1      33.312  21.755  23.760  1.00  0.00     0.261 C 
BRANCH   4   5
ATOM      5  O   UNL A   1      32.766  23.035  24.149  1.00  0.00    -0.459 OA
BRANCH   5   6
ATOM      6  C   UNL A   1      33.482  24.121  23.734  1.00  0.00     0.368 C 
ATOM      7  O   UNL A   1      33.911  24.271  22.592  1.00  0.00    -0.245 OA
BRANCH   6   8
ATOM      8  C   UNL A   1      33.844  25.103  24.882  1.00  0.00     0.194 C 
ATOM      9  C   UNL A   1      32.755  24.886  25.954  1.00  0.00     0.092 C 
BRANCH   8  10
ATOM     10  C   UNL A   1      33.878  26.611  24.512  1.00  0.00     0.117 C 
BRANCH  10  11
ATOM     11  C   UNL A   1      33.387  27.714  25.444  1.00  0.00    -0.027 A 
ATOM     12  C   UNL A   1      34.162  28.213  26.503  1.00  0.00     0.005 A 
ATOM     13  C   UNL A   1      32.131  28.325  25.221  1.00  0.00     0.021 A 
ATOM     14  C   UNL A   1      33.745  29.322  27.254  1.00  0.00     0.000 A 
ATOM     15  C   UNL A   1      31.710  29.425  25.980  1.00  0.00     0.016 A 
ATOM     16  Br  UNL A   1      30.924  27.718  23.878  1.00  0.00    -0.051 Br
ATOM     17  C   UNL A   1      32.528  29.937  26.982  1.00  0.00     0.001 A 
ENDBRANCH  10  11
ENDBRANCH   8  10
BRANCH   8  18
ATOM     18  N   UNL A   1      35.143  24.679  25.481  1.00  0.00    -0.343 N 
ATOM     19  H   UNL A   1      34.980  24.304  26.416  1.00  0.00     0.345 HD
ATOM     20  H   UNL A   1      35.767  25.484  25.542  1.00  0.00     0.345 HD
ATOM     21  H   UNL A   1      35.570  23.962  24.896  1.00  0.00     0.345 HD
ENDBRANCH   8  18
ENDBRANCH   6   8
ENDBRANCH   5   6
ENDBRANCH   4   5
ENDBRANCH   3   4
ENDBRANCH   2   3
ENDBRANCH   1   2
BRANCH   1  22
ATOM     22  C   UNL A   1      37.735  21.575  25.356  1.00  0.00     0.261 C 
BRANCH  22  23
ATOM     23  O   UNL A   1      38.319  22.870  25.464  1.00  0.00    -0.460 OA
BRANCH  23  24
ATOM     24  C   UNL A   1      39.398  22.904  26.272  1.00  0.00     0.338 C 
ATOM     25  O   UNL A   1      40.279  22.058  26.388  1.00  0.00    -0.246 OA
BRANCH  24  26
ATOM     26  C   UNL A   1      39.465  24.213  26.922  1.00  0.00     0.060 A 
ATOM     27  C   UNL A   1      40.176  25.217  26.258  1.00  0.00     0.016 A 
ATOM     28  C   UNL A   1      38.893  24.433  28.178  1.00  0.00     0.016 A 
ATOM     29  C   UNL A   1      40.380  26.435  26.886  1.00  0.00     0.010 A 
ATOM     30  C   UNL A   1      39.100  25.658  28.808  1.00  0.00     0.010 A 
ATOM     31  C   UNL A   1      39.883  26.640  28.181  1.00  0.00    -0.014 A 
BRANCH  31  32
ATOM     32  C   UNL A   1      40.341  27.830  28.923  1.00  0.00     0.031 A 
ATOM     33  C   UNL A   1      41.747  27.846  29.453  1.00  0.00     0.074 A 
ATOM     34  C   UNL A   1      39.535  28.898  29.036  1.00  0.00     0.049 A 
ATOM     35  N   UNL A   1      42.392  28.811  30.051  1.00  0.00    -0.248 NA
ATOM     36  C   UNL A   1      42.533  26.611  29.281  1.00  0.00     0.031 C 
ATOM     37  C   UNL A   1      38.167  28.977  28.519  1.00  0.00     0.029 A 
ATOM     38  N   UNL A   1      39.754  30.124  29.603  1.00  0.00    -0.354 N 
ATOM     39  C   UNL A   1      43.658  28.302  30.326  1.00  0.00     0.074 A 
ATOM     40  C   UNL A   1      43.679  26.935  29.863  1.00  0.00     0.031 C 
ATOM     41  C   UNL A   1      37.672  30.199  28.783  1.00  0.00     0.029 A 
ATOM     42  C   UNL A   1      38.679  30.973  29.504  1.00  0.00     0.049 A 
ATOM     43  H   UNL A   1      40.601  30.373  30.038  1.00  0.00     0.167 HD
ATOM     44  C   UNL A   1      44.708  28.930  30.905  1.00  0.00     0.031 A 
ATOM     45  C   UNL A   1      38.530  32.235  29.951  1.00  0.00     0.031 A 
ATOM     46  C   UNL A   1      44.656  30.288  31.375  1.00  0.00     0.049 A 
ATOM     47  C   UNL A   1      39.697  32.894  30.635  1.00  0.00     0.074 A 
ATOM     48  C   UNL A   1      45.655  31.033  31.976  1.00  0.00     0.029 A 
ATOM     49  N   UNL A   1      43.536  31.105  31.297  1.00  0.00    -0.354 N 
ATOM     50  N   UNL A   1      40.896  32.410  30.865  1.00  0.00    -0.248 NA
ATOM     51  C   UNL A   1      39.499  34.271  31.104  1.00  0.00     0.031 C 
ATOM     52  C   UNL A   1      45.120  32.282  32.310  1.00  0.00     0.029 A 
ATOM     53  C   UNL A   1      43.808  32.338  31.863  1.00  0.00     0.049 A 
ATOM     54  H   UNL A   1      42.674  30.844  30.899  1.00  0.00     0.167 HD
ATOM     55  C   UNL A   1      41.604  33.432  31.490  1.00  0.00     0.074 A 
ATOM     56  C   UNL A   1      40.700  34.564  31.580  1.00  0.00     0.031 C 
ATOM     57  C   UNL A   1      42.881  33.438  31.946  1.00  0.00     0.031 A 
BRANCH  44  58
ATOM     58  C   UNL A   1      45.975  28.138  31.093  1.00  0.00    -0.014 A 
ATOM     59  C   UNL A   1      47.005  28.168  30.135  1.00  0.00     0.010 A 
ATOM     60  C   UNL A   1      46.147  27.364  32.254  1.00  0.00     0.010 A 
ATOM     61  C   UNL A   1      48.166  27.409  30.317  1.00  0.00     0.020 A 
ATOM     62  C   UNL A   1      47.317  26.623  32.453  1.00  0.00     0.020 A 
ATOM     63  C   UNL A   1      48.312  26.638  31.474  1.00  0.00     0.054 A 
BRANCH  63  64
ATOM     64  S   UNL A   1      49.835  25.676  31.696  1.00  0.00     0.124 S 
ATOM     65  O   UNL A   1      49.453  24.748  32.758  1.00  0.00    -0.237 OA
ATOM     66  O   UNL A   1      50.028  25.075  30.377  1.00  0.00    -0.237 OA
ATOM     67  O   UNL A   1      50.827  26.679  32.071  1.00  0.00    -0.744 OA
ENDBRANCH  63  64
ENDBRANCH  44  58
BRANCH  45  68
ATOM     68  C   UNL A   1      37.233  32.938  29.765  1.00  0.00    -0.014 A 
ATOM     69  C   UNL A   1      36.926  33.583  28.554  1.00  0.00     0.010 A 
ATOM     70  C   UNL A   1      36.279  32.942  30.801  1.00  0.00     0.010 A 
ATOM     71  C   UNL A   1      35.694  34.227  28.387  1.00  0.00     0.020 A 
ATOM     72  C   UNL A   1      35.039  33.560  30.628  1.00  0.00     0.020 A 
ATOM     73  C   UNL A   1      34.757  34.208  29.424  1.00  0.00     0.054 A 
BRANCH  73  74
ATOM     74  S   UNL A   1      33.144  34.997  29.165  1.00  0.00     0.124 S 
ATOM     75  O   UNL A   1      33.526  36.326  28.700  1.00  0.00    -0.237 OA
ATOM     76  O   UNL A   1      32.525  34.129  28.167  1.00  0.00    -0.237 OA
ATOM     77  O   UNL A   1      32.524  34.950  30.488  1.00  0.00    -0.744 OA
ENDBRANCH  73  74
ENDBRANCH  45  68
BRANCH  57  78
ATOM     78  C   UNL A   1      43.378  34.717  32.563  1.00  0.00    -0.014 A 
ATOM     79  C   UNL A   1      43.272  34.944  33.946  1.00  0.00     0.010 A 
ATOM     80  C   UNL A   1      43.999  35.682  31.751  1.00  0.00     0.010 A 
ATOM     81  C   UNL A   1      43.745  36.135  34.501  1.00  0.00     0.020 A 
ATOM     82  C   UNL A   1      44.500  36.860  32.306  1.00  0.00     0.020 A 
ATOM     83  C   UNL A   1      44.353  37.087  33.676  1.00  0.00     0.054 A 
BRANCH  83  84
ATOM     84  S   UNL A   1      44.986  38.613  34.424  1.00  0.00     0.124 S 
ATOM     85  O   UNL A   1      44.589  38.453  35.820  1.00  0.00    -0.237 OA
ATOM     86  O   UNL A   1      46.421  38.526  34.165  1.00  0.00    -0.237 OA
ATOM     87  O   UNL A   1      44.291  39.670  33.694  1.00  0.00    -0.744 OA
ENDBRANCH  83  84
ENDBRANCH  57  78
ENDBRANCH  31  32
ENDBRANCH  24  26
ENDBRANCH  23  24
ENDBRANCH  22  23
ENDBRANCH   1  22
TORSDOF 20
ENDMDL
MODEL 3
REMARK VINA RESULT:      -9.1      3.606      6.020
REMARK SMILES C[C@]([NH3+])(Cc1ccccc1Br)C(=O)OCCOCCOC(=O)c1ccc(-c2c3nc(c(-c4ccc(S(=O)(=O)[O-])cc4)c4ccc([nH]4)c(-c4ccc(S(=O)(=O)[O-])cc4)c4nc(c(-c5ccc(S(=O)(=O)[O-])cc5)c5ccc2[nH]5)C=C4)C=C3)cc1
REMARK SMILES IDX 18 1 17 2 16 3 15 4 14 5 12 6 13 7 2 8 1 9 4 10 5 11 6 12
REMARK SMILES IDX 10 13 7 14 9 15 11 16 8 17 3 18 19 22 20 23 21 24 22 25
REMARK SMILES IDX 23 26 24 27 82 28 25 29 81 30 26 31 27 32 28 33 75 34 29 35
REMARK SMILES IDX 80 36 74 37 76 38 30 39 79 40 73 41 72 42 31 44 61 45 42 46
REMARK SMILES IDX 60 47 43 48 46 49 59 50 77 51 44 52 45 53 58 55 78 56 47 57
REMARK SMILES IDX 32 58 33 59 41 60 34 61 40 62 35 63 36 64 37 65 38 66 39 67
REMARK SMILES IDX 62 68 63 69 71 70 64 71 70 72 65 73 66 74 67 75 68 76 69 77
REMARK SMILES IDX 48 78 49 79 57 80 50 81 56 82 51 83 52 84 53 85 54 86 55 87
REMARK H PARENT 3 19 3 20 3 21 76 43 46 54
REMARK Flexibility Score: inf
ROOT
ATOM      1  C   UNL A   1      36.297  33.764  29.924  1.00  0.00     0.202 C 
ENDROOT
BRANCH   1   2
ATOM      2  O   UNL A   1      37.228  32.959  30.635  1.00  0.00    -0.374 OA
BRANCH   2   3
ATOM      3  C   UNL A   1      38.057  33.598  31.604  1.00  0.00     0.202 C 
BRANCH   3   4
ATOM      4  C   UNL A   1      37.439  34.030  32.940  1.00  0.00     0.261 C 
BRANCH   4   5
ATOM      5  O   UNL A   1      36.640  33.021  33.594  1.00  0.00    -0.459 OA
BRANCH   5   6
ATOM      6  C   UNL A   1      37.230  31.795  33.705  1.00  0.00     0.368 C 
ATOM      7  O   UNL A   1      36.922  30.815  33.029  1.00  0.00    -0.245 OA
BRANCH   6   8
ATOM      8  C   UNL A   1      38.243  31.697  34.879  1.00  0.00     0.194 C 
ATOM      9  C   UNL A   1      37.943  32.919  35.771  1.00  0.00     0.092 C 
BRANCH   8  10
ATOM     10  C   UNL A   1      39.748  31.726  34.493  1.00  0.00     0.117 C 
BRANCH  10  11
ATOM     11  C   UNL A   1      40.622  30.479  34.425  1.00  0.00    -0.027 A 
ATOM     12  C   UNL A   1      40.417  29.460  33.481  1.00  0.00     0.005 A 
ATOM     13  C   UNL A   1      41.729  30.340  35.294  1.00  0.00     0.021 A 
ATOM     14  C   UNL A   1      41.320  28.395  33.350  1.00  0.00     0.000 A 
ATOM     15  C   UNL A   1      42.623  29.268  35.170  1.00  0.00     0.016 A 
ATOM     16  Br  UNL A   1      42.101  31.589  36.682  1.00  0.00    -0.051 Br
ATOM     17  C   UNL A   1      42.430  28.307  34.182  1.00  0.00     0.001 A 
ENDBRANCH  10  11
ENDBRANCH   8  10
BRANCH   8  18
ATOM     18  N   UNL A   1      37.930  30.478  35.680  1.00  0.00    -0.343 N 
ATOM     19  H   UNL A   1      38.274  29.652  35.190  1.00  0.00     0.345 HD
ATOM     20  H   UNL A   1      36.920  30.404  35.803  1.00  0.00     0.345 HD
ATOM     21  H   UNL A   1      38.379  30.546  36.592  1.00  0.00     0.345 HD
ENDBRANCH   8  18
ENDBRANCH   6   8
ENDBRANCH   5   6
ENDBRANCH   4   5
ENDBRANCH   3   4
ENDBRANCH   2   3
ENDBRANCH   1   2
BRANCH   1  22
ATOM     22  C   UNL A   1      35.410  33.104  28.860  1.00  0.00     0.261 C 
BRANCH  22  23
ATOM     23  O   UNL A   1      34.701  31.953  29.309  1.00  0.00    -0.460 OA
BRANCH  23  24
ATOM     24  C   UNL A   1      34.688  30.949  28.410  1.00  0.00     0.338 C 
ATOM     25  O   UNL A   1      33.824  30.697  27.575  1.00  0.00    -0.246 OA
BRANCH  24  26
ATOM     26  C   UNL A   1      35.970  30.247  28.461  1.00  0.00     0.060 A 
ATOM     27  C   UNL A   1      36.335  29.677  29.685  1.00  0.00     0.016 A 
ATOM     28  C   UNL A   1      36.819  30.198  27.352  1.00  0.00     0.016 A 
ATOM     29  C   UNL A   1      37.593  29.113  29.825  1.00  0.00     0.010 A 
ATOM     30  C   UNL A   1      38.084  29.631  27.495  1.00  0.00     0.010 A 
ATOM     31  C   UNL A   1      38.485  29.132  28.744  1.00  0.00    -0.014 A 
BRANCH  31  32
ATOM     32  C   UNL A   1      39.894  28.774  28.997  1.00  0.00     0.031 A 
ATOM     33  C   UNL A   1      40.767  29.766  29.714  1.00  0.00     0.074 A 
ATOM     34  C   UNL A   1      40.343  27.553  28.665  1.00  0.00     0.049 A 
ATOM     35  N   UNL A   1      42.001  29.635  30.122  1.00  0.00    -0.248 NA
ATOM     36  C   UNL A   1      40.168  31.079  30.015  1.00  0.00     0.031 C 
ATOM     37  C   UNL A   1      39.550  26.518  27.998  1.00  0.00     0.029 A 
ATOM     38  N   UNL A   1      41.566  26.969  28.860  1.00  0.00    -0.354 N 
ATOM     39  C   UNL A   1      42.325  30.845  30.728  1.00  0.00     0.074 A 
ATOM     40  C   UNL A   1      41.174  31.709  30.603  1.00  0.00     0.031 C 
ATOM     41  C   UNL A   1      40.308  25.418  27.851  1.00  0.00     0.029 A 
ATOM     42  C   UNL A   1      41.638  25.681  28.392  1.00  0.00     0.049 A 
ATOM     43  H   UNL A   1      42.320  27.430  29.295  1.00  0.00     0.167 HD
ATOM     44  C   UNL A   1      43.479  31.194  31.342  1.00  0.00     0.031 A 
ATOM     45  C   UNL A   1      42.670  24.815  28.400  1.00  0.00     0.031 A 
ATOM     46  C   UNL A   1      44.619  30.321  31.438  1.00  0.00     0.049 A 
ATOM     47  C   UNL A   1      43.960  25.244  29.047  1.00  0.00     0.074 A 
ATOM     48  C   UNL A   1      45.843  30.561  32.037  1.00  0.00     0.029 A 
ATOM     49  N   UNL A   1      44.672  29.037  30.913  1.00  0.00    -0.354 N 
ATOM     50  N   UNL A   1      44.244  26.382  29.639  1.00  0.00    -0.248 NA
ATOM     51  C   UNL A   1      45.059  24.272  29.041  1.00  0.00     0.031 C 
ATOM     52  C   UNL A   1      46.654  29.441  31.826  1.00  0.00     0.029 A 
ATOM     53  C   UNL A   1      45.916  28.479  31.151  1.00  0.00     0.049 A 
ATOM     54  H   UNL A   1      43.933  28.589  30.441  1.00  0.00     0.167 HD
ATOM     55  C   UNL A   1      45.552  26.255  30.095  1.00  0.00     0.074 A 
ATOM     56  C   UNL A   1      45.990  24.922  29.725  1.00  0.00     0.031 C 
ATOM     57  C   UNL A   1      46.321  27.153  30.759  1.00  0.00     0.031 A 
BRANCH  44  58
ATOM     58  C   UNL A   1      43.572  32.583  31.915  1.00  0.00    -0.014 A 
ATOM     59  C   UNL A   1      43.827  33.698  31.095  1.00  0.00     0.010 A 
ATOM     60  C   UNL A   1      43.384  32.782  33.295  1.00  0.00     0.010 A 
ATOM     61  C   UNL A   1      43.931  34.978  31.649  1.00  0.00     0.020 A 
ATOM     62  C   UNL A   1      43.460  34.063  33.850  1.00  0.00     0.020 A 
ATOM     63  C   UNL A   1      43.750  35.151  33.025  1.00  0.00     0.054 A 
BRANCH  63  64
ATOM     64  S   UNL A   1      43.872  36.824  33.717  1.00  0.00     0.124 S 
ATOM     65  O   UNL A   1      44.289  37.603  32.553  1.00  0.00    -0.237 OA
ATOM     66  O   UNL A   1      42.511  37.077  34.185  1.00  0.00    -0.237 OA
ATOM     67  O   UNL A   1      44.874  36.692  34.771  1.00  0.00    -0.744 OA
ENDBRANCH  63  64
ENDBRANCH  44  58
BRANCH  45  68
ATOM     68  C   UNL A   1      42.516  23.474  27.777  1.00  0.00    -0.014 A 
ATOM     69  C   UNL A   1      42.849  23.259  26.428  1.00  0.00     0.010 A 
ATOM     70  C   UNL A   1      42.057  22.388  28.547  1.00  0.00     0.010 A 
ATOM     71  C   UNL A   1      42.714  21.987  25.859  1.00  0.00     0.020 A 
ATOM     72  C   UNL A   1      41.947  21.112  27.991  1.00  0.00     0.020 A 
ATOM     73  C   UNL A   1      42.268  20.921  26.645  1.00  0.00     0.054 A 
BRANCH  73  74
ATOM     74  S   UNL A   1      42.159  19.268  25.905  1.00  0.00     0.124 S 
ATOM     75  O   UNL A   1      43.003  19.408  24.723  1.00  0.00    -0.237 OA
ATOM     76  O   UNL A   1      42.686  18.412  26.963  1.00  0.00    -0.237 OA
ATOM     77  O   UNL A   1      40.730  19.106  25.639  1.00  0.00    -0.744 OA
ENDBRANCH  73  74
ENDBRANCH  45  68
BRANCH  57  78
ATOM     78  C   UNL A   1      47.707  26.711  31.143  1.00  0.00    -0.014 A 
ATOM     79  C   UNL A   1      48.808  26.967  30.308  1.00  0.00     0.010 A 
ATOM     80  C   UNL A   1      47.911  26.071  32.379  1.00  0.00     0.010 A 
ATOM     81  C   UNL A   1      50.088  26.554  30.687  1.00  0.00     0.020 A 
ATOM     82  C   UNL A   1      49.193  25.683  32.773  1.00  0.00     0.020 A 
ATOM     83  C   UNL A   1      50.270  25.911  31.915  1.00  0.00     0.054 A 
BRANCH  83  84
ATOM     84  S   UNL A   1      51.945  25.411  32.398  1.00  0.00     0.124 S 
ATOM     85  O   UNL A   1      51.763  23.994  32.699  1.00  0.00    -0.237 OA
ATOM     86  O   UNL A   1      52.726  25.703  31.198  1.00  0.00    -0.237 OA
ATOM     87  O   UNL A   1      52.242  26.261  33.548  1.00  0.00    -0.744 OA
ENDBRANCH  83  84
ENDBRANCH  57  78
ENDBRANCH  31  32
ENDBRANCH  24  26
ENDBRANCH  23  24
ENDBRANCH  22  23
ENDBRANCH   1  22
TORSDOF 20
ENDMDL
