MODEL 1
REMARK VINA RESULT:      -9.2      0.000      0.000
REMARK SMILES O=C(CCSc1nc(-c2cccs2)cc(C(F)(F)F)n1)OCCOCCOC(=O)c1ccc(-c2c3nc(c(-c4ccc(S(=O)(=O)[O-])cc4)c4ccc([nH]4)c(-c4ccc(S(=O)(=O)[O-])cc4)c4nc(c(-c5ccc(S(=O)(=O)[O-])cc5)c5ccc2[nH]5)C=C4)C=C3)cc1
REMARK SMILES IDX 23 1 22 2 21 3 2 4 1 5 3 6 4 7 5 8 6 9 7 10 20 11 8 12 15 13
REMARK SMILES IDX 14 14 9 15 10 16 13 17 11 18 12 19 16 20 17 21 18 22 19 23
REMARK SMILES IDX 24 24 25 25 26 26 27 27 28 28 29 29 30 30 31 31 89 32 32 33
REMARK SMILES IDX 88 34 33 35 34 36 35 37 82 38 36 39 87 40 81 41 83 42 37 43
REMARK SMILES IDX 86 44 80 45 79 46 38 48 68 49 49 50 67 51 50 52 53 53 66 54
REMARK SMILES IDX 84 55 51 56 52 57 65 59 85 60 54 61 39 62 40 63 48 64 41 65
REMARK SMILES IDX 47 66 42 67 43 68 44 69 45 70 46 71 69 72 70 73 78 74 71 75
REMARK SMILES IDX 77 76 72 77 73 78 74 79 75 80 76 81 55 82 56 83 64 84 57 85
REMARK SMILES IDX 63 86 58 87 59 88 60 89 61 90 62 91
REMARK H PARENT 83 47 53 58
REMARK Flexibility Score: inf
ROOT
ATOM      1  C   UNL A   1      35.388  34.116  29.896  1.00  0.00     0.202 C 
ENDROOT
BRANCH   1   2
ATOM      2  C   UNL A   1      36.110  33.649  28.627  1.00  0.00     0.261 C 
BRANCH   2   3
ATOM      3  O   UNL A   1      35.282  32.957  27.685  1.00  0.00    -0.463 OA
BRANCH   3   4
ATOM      4  C   UNL A   1      34.923  31.659  27.792  1.00  0.00     0.306 C 
ATOM      5  O   UNL A   1      35.764  30.800  28.053  1.00  0.00    -0.252 OA
BRANCH   4   6
ATOM      6  C   UNL A   1      33.492  31.274  27.561  1.00  0.00     0.134 C 
BRANCH   6   7
ATOM      7  C   UNL A   1      33.366  30.209  26.479  1.00  0.00     0.090 C 
BRANCH   7   8
ATOM      8  S   UNL A   1      32.345  28.769  26.943  1.00  0.00    -0.086 SA
BRANCH   8   9
ATOM      9  C   UNL A   1      31.596  28.299  25.401  1.00  0.00     0.188 A 
ATOM     10  N   UNL A   1      30.929  29.259  24.765  1.00  0.00    -0.222 NA
ATOM     11  N   UNL A   1      31.595  27.013  25.030  1.00  0.00    -0.218 NA
ATOM     12  C   UNL A   1      30.246  28.892  23.667  1.00  0.00     0.085 A 
ATOM     13  C   UNL A   1      30.863  26.657  23.936  1.00  0.00     0.149 A 
ATOM     14  C   UNL A   1      30.156  27.596  23.215  1.00  0.00     0.063 A 
BRANCH  12  15
ATOM     15  C   UNL A   1      29.570  29.980  22.982  1.00  0.00     0.053 A 
ATOM     16  C   UNL A   1      29.185  30.075  21.661  1.00  0.00     0.022 A 
ATOM     17  S   UNL A   1      29.174  31.388  23.868  1.00  0.00    -0.142 S 
ATOM     18  C   UNL A   1      28.586  31.335  21.370  1.00  0.00     0.012 A 
ATOM     19  C   UNL A   1      28.515  32.141  22.484  1.00  0.00     0.065 A 
ENDBRANCH  12  15
BRANCH  13  20
ATOM     20  C   UNL A   1      30.736  25.186  23.554  1.00  0.00     0.433 C 
ATOM     21  F   UNL A   1      31.617  24.782  22.600  1.00  0.00    -0.165 F 
ATOM     22  F   UNL A   1      30.918  24.358  24.623  1.00  0.00    -0.165 F 
ATOM     23  F   UNL A   1      29.501  24.868  23.064  1.00  0.00    -0.165 F 
ENDBRANCH  13  20
ENDBRANCH   8   9
ENDBRANCH   7   8
ENDBRANCH   6   7
ENDBRANCH   4   6
ENDBRANCH   3   4
ENDBRANCH   2   3
ENDBRANCH   1   2
BRANCH   1  24
ATOM     24  O   UNL A   1      35.745  33.532  31.139  1.00  0.00    -0.374 OA
BRANCH  24  25
ATOM     25  C   UNL A   1      35.134  32.304  31.533  1.00  0.00     0.202 C 
BRANCH  25  26
ATOM     26  C   UNL A   1      35.879  30.974  31.355  1.00  0.00     0.261 C 
BRANCH  26  27
ATOM     27  O   UNL A   1      36.705  30.582  32.464  1.00  0.00    -0.460 OA
BRANCH  27  28
ATOM     28  C   UNL A   1      37.852  31.283  32.605  1.00  0.00     0.338 C 
ATOM     29  O   UNL A   1      38.055  32.227  33.365  1.00  0.00    -0.246 OA
BRANCH  28  30
ATOM     30  C   UNL A   1      38.918  30.710  31.773  1.00  0.00     0.060 A 
ATOM     31  C   UNL A   1      39.898  29.909  32.373  1.00  0.00     0.016 A 
ATOM     32  C   UNL A   1      39.027  31.084  30.432  1.00  0.00     0.016 A 
ATOM     33  C   UNL A   1      41.003  29.489  31.629  1.00  0.00     0.010 A 
ATOM     34  C   UNL A   1      40.141  30.674  29.696  1.00  0.00     0.010 A 
ATOM     35  C   UNL A   1      41.145  29.893  30.294  1.00  0.00    -0.014 A 
BRANCH  35  36
ATOM     36  C   UNL A   1      42.369  29.559  29.525  1.00  0.00     0.031 A 
ATOM     37  C   UNL A   1      42.494  28.211  28.872  1.00  0.00     0.074 A 
ATOM     38  C   UNL A   1      43.388  30.436  29.469  1.00  0.00     0.049 A 
ATOM     39  N   UNL A   1      43.520  27.693  28.245  1.00  0.00    -0.248 NA
ATOM     40  C   UNL A   1      41.323  27.322  28.950  1.00  0.00     0.031 C 
ATOM     41  C   UNL A   1      43.385  31.764  30.082  1.00  0.00     0.029 A 
ATOM     42  N   UNL A   1      44.628  30.335  28.889  1.00  0.00    -0.354 N 
ATOM     43  C   UNL A   1      43.136  26.404  27.893  1.00  0.00     0.074 A 
ATOM     44  C   UNL A   1      41.779  26.224  28.362  1.00  0.00     0.031 C 
ATOM     45  C   UNL A   1      44.571  32.350  29.850  1.00  0.00     0.029 A 
ATOM     46  C   UNL A   1      45.421  31.441  29.088  1.00  0.00     0.049 A 
ATOM     47  H   UNL A   1      44.921  29.546  28.378  1.00  0.00     0.167 HD
ATOM     48  C   UNL A   1      43.860  25.454  27.255  1.00  0.00     0.031 A 
ATOM     49  C   UNL A   1      46.694  31.686  28.716  1.00  0.00     0.031 A 
ATOM     50  C   UNL A   1      45.210  25.637  26.790  1.00  0.00     0.049 A 
ATOM     51  C   UNL A   1      47.465  30.615  27.987  1.00  0.00     0.074 A 
ATOM     52  C   UNL A   1      46.007  24.743  26.096  1.00  0.00     0.029 A 
ATOM     53  N   UNL A   1      45.968  26.781  26.983  1.00  0.00    -0.354 N 
ATOM     54  N   UNL A   1      47.062  29.426  27.606  1.00  0.00    -0.248 NA
ATOM     55  C   UNL A   1      48.866  30.912  27.657  1.00  0.00     0.031 C 
ATOM     56  C   UNL A   1      47.266  25.324  25.921  1.00  0.00     0.029 A 
ATOM     57  C   UNL A   1      47.235  26.602  26.455  1.00  0.00     0.049 A 
ATOM     58  H   UNL A   1      45.651  27.601  27.428  1.00  0.00     0.167 HD
ATOM     59  C   UNL A   1      48.164  28.832  26.999  1.00  0.00     0.074 A 
ATOM     60  C   UNL A   1      49.233  29.809  27.020  1.00  0.00     0.031 C 
ATOM     61  C   UNL A   1      48.290  27.581  26.495  1.00  0.00     0.031 A 
BRANCH  48  62
ATOM     62  C   UNL A   1      43.231  24.102  27.057  1.00  0.00    -0.014 A 
ATOM     63  C   UNL A   1      43.183  23.157  28.096  1.00  0.00     0.010 A 
ATOM     64  C   UNL A   1      42.596  23.812  25.834  1.00  0.00     0.010 A 
ATOM     65  C   UNL A   1      42.520  21.940  27.910  1.00  0.00     0.020 A 
ATOM     66  C   UNL A   1      41.915  22.607  25.653  1.00  0.00     0.020 A 
ATOM     67  C   UNL A   1      41.886  21.675  26.692  1.00  0.00     0.054 A 
BRANCH  67  68
ATOM     68  S   UNL A   1      40.977  20.116  26.504  1.00  0.00     0.124 S 
ATOM     69  O   UNL A   1      41.813  19.394  25.548  1.00  0.00    -0.237 OA
ATOM     70  O   UNL A   1      40.975  19.582  27.864  1.00  0.00    -0.237 OA
ATOM     71  O   UNL A   1      39.672  20.533  26.000  1.00  0.00    -0.744 OA
ENDBRANCH  67  68
ENDBRANCH  48  62
BRANCH  49  72
ATOM     72  C   UNL A   1      47.339  32.990  29.036  1.00  0.00    -0.014 A 
ATOM     73  C   UNL A   1      48.040  33.157  30.244  1.00  0.00     0.010 A 
ATOM     74  C   UNL A   1      47.243  34.077  28.149  1.00  0.00     0.010 A 
ATOM     75  C   UNL A   1      48.609  34.390  30.571  1.00  0.00     0.020 A 
ATOM     76  C   UNL A   1      47.844  35.303  28.454  1.00  0.00     0.020 A 
ATOM     77  C   UNL A   1      48.510  35.455  29.672  1.00  0.00     0.054 A 
BRANCH  77  78
ATOM     78  S   UNL A   1      49.304  37.033  30.089  1.00  0.00     0.124 S 
ATOM     79  O   UNL A   1      49.212  37.042  31.544  1.00  0.00    -0.237 OA
ATOM     80  O   UNL A   1      50.649  36.865  29.542  1.00  0.00    -0.237 OA
ATOM     81  O   UNL A   1      48.478  38.020  29.397  1.00  0.00    -0.744 OA
ENDBRANCH  77  78
ENDBRANCH  49  72
BRANCH  61  82
ATOM     82  C   UNL A   1      49.633  27.192  25.938  1.00  0.00    -0.014 A 
ATOM     83  C   UNL A   1      50.554  26.476  26.725  1.00  0.00     0.010 A 
ATOM     84  C   UNL A   1      49.957  27.490  24.603  1.00  0.00     0.010 A 
ATOM     85  C   UNL A   1      51.785  26.087  26.194  1.00  0.00     0.020 A 
ATOM     86  C   UNL A   1      51.178  27.079  24.060  1.00  0.00     0.020 A 
ATOM     87  C   UNL A   1      52.089  26.390  24.864  1.00  0.00     0.054 A 
BRANCH  87  88
ATOM     88  S   UNL A   1      53.675  25.831  24.183  1.00  0.00     0.124 S 
ATOM     89  O   UNL A   1      54.605  26.814  24.733  1.00  0.00    -0.237 OA
ATOM     90  O   UNL A   1      53.796  24.479  24.723  1.00  0.00    -0.237 OA
ATOM     91  O   UNL A   1      53.475  25.902  22.737  1.00  0.00    -0.744 OA
ENDBRANCH  87  88
ENDBRANCH  61  82
ENDBRANCH  35  36
ENDBRANCH  28  30
ENDBRANCH  27  28
ENDBRANCH  26  27
ENDBRANCH  25  26
ENDBRANCH  24  25
ENDBRANCH   1  24
TORSDOF 22
ENDMDL
MODEL 2
REMARK VINA RESULT:      -8.9      1.309      2.479
REMARK SMILES O=C(CCSc1nc(-c2cccs2)cc(C(F)(F)F)n1)OCCOCCOC(=O)c1ccc(-c2c3nc(c(-c4ccc(S(=O)(=O)[O-])cc4)c4ccc([nH]4)c(-c4ccc(S(=O)(=O)[O-])cc4)c4nc(c(-c5ccc(S(=O)(=O)[O-])cc5)c5ccc2[nH]5)C=C4)C=C3)cc1
REMARK SMILES IDX 23 1 22 2 21 3 2 4 1 5 3 6 4 7 5 8 6 9 7 10 20 11 8 12 15 13
REMARK SMILES IDX 14 14 9 15 10 16 13 17 11 18 12 19 16 20 17 21 18 22 19 23
REMARK SMILES IDX 24 24 25 25 26 26 27 27 28 28 29 29 30 30 31 31 89 32 32 33
REMARK SMILES IDX 88 34 33 35 34 36 35 37 82 38 36 39 87 40 81 41 83 42 37 43
REMARK SMILES IDX 86 44 80 45 79 46 38 48 68 49 49 50 67 51 50 52 53 53 66 54
REMARK SMILES IDX 84 55 51 56 52 57 65 59 85 60 54 61 39 62 40 63 48 64 41 65
REMARK SMILES IDX 47 66 42 67 43 68 44 69 45 70 46 71 69 72 70 73 78 74 71 75
REMARK SMILES IDX 77 76 72 77 73 78 74 79 75 80 76 81 55 82 56 83 64 84 57 85
REMARK SMILES IDX 63 86 58 87 59 88 60 89 61 90 62 91
REMARK H PARENT 83 47 53 58
REMARK Flexibility Score: inf
ROOT
ATOM      1  C   UNL A   1      35.493  33.931  29.437  1.00  0.00     0.202 C 
ENDROOT
BRANCH   1   2
ATOM      2  C   UNL A   1      35.377  33.082  28.166  1.00  0.00     0.261 C 
BRANCH   2   3
ATOM      3  O   UNL A   1      34.285  32.154  28.163  1.00  0.00    -0.463 OA
BRANCH   3   4
ATOM      4  C   UNL A   1      34.338  30.913  27.632  1.00  0.00     0.306 C 
ATOM      5  O   UNL A   1      35.261  30.152  27.918  1.00  0.00    -0.252 OA
BRANCH   4   6
ATOM      6  C   UNL A   1      33.270  30.482  26.670  1.00  0.00     0.134 C 
BRANCH   6   7
ATOM      7  C   UNL A   1      33.669  29.217  25.921  1.00  0.00     0.090 C 
BRANCH   7   8
ATOM      8  S   UNL A   1      33.245  29.217  24.146  1.00  0.00    -0.086 SA
BRANCH   8   9
ATOM      9  C   UNL A   1      31.698  28.340  24.107  1.00  0.00     0.188 A 
ATOM     10  N   UNL A   1      31.774  27.024  24.292  1.00  0.00    -0.222 NA
ATOM     11  N   UNL A   1      30.581  28.985  23.751  1.00  0.00    -0.218 NA
ATOM     12  C   UNL A   1      30.635  26.328  24.135  1.00  0.00     0.085 A 
ATOM     13  C   UNL A   1      29.446  28.253  23.559  1.00  0.00     0.149 A 
ATOM     14  C   UNL A   1      29.440  26.886  23.745  1.00  0.00     0.063 A 
BRANCH  12  15
ATOM     15  C   UNL A   1      30.756  24.903  24.389  1.00  0.00     0.053 A 
ATOM     16  C   UNL A   1      30.873  23.862  23.493  1.00  0.00     0.022 A 
ATOM     17  S   UNL A   1      30.743  24.355  26.010  1.00  0.00    -0.142 S 
ATOM     18  C   UNL A   1      30.922  22.598  24.148  1.00  0.00     0.012 A 
ATOM     19  C   UNL A   1      30.864  22.724  25.518  1.00  0.00     0.065 A 
ENDBRANCH  12  15
BRANCH  13  20
ATOM     20  C   UNL A   1      28.185  28.931  23.035  1.00  0.00     0.433 C 
ATOM     21  F   UNL A   1      27.994  30.191  23.508  1.00  0.00    -0.165 F 
ATOM     22  F   UNL A   1      28.178  29.024  21.673  1.00  0.00    -0.165 F 
ATOM     23  F   UNL A   1      27.044  28.249  23.351  1.00  0.00    -0.165 F 
ENDBRANCH  13  20
ENDBRANCH   8   9
ENDBRANCH   7   8
ENDBRANCH   6   7
ENDBRANCH   4   6
ENDBRANCH   3   4
ENDBRANCH   2   3
ENDBRANCH   1   2
BRANCH   1  24
ATOM     24  O   UNL A   1      36.050  33.344  30.602  1.00  0.00    -0.374 OA
BRANCH  24  25
ATOM     25  C   UNL A   1      35.347  32.288  31.254  1.00  0.00     0.202 C 
BRANCH  25  26
ATOM     26  C   UNL A   1      35.919  30.863  31.262  1.00  0.00     0.261 C 
BRANCH  26  27
ATOM     27  O   UNL A   1      36.692  30.521  32.425  1.00  0.00    -0.460 OA
BRANCH  27  28
ATOM     28  C   UNL A   1      37.846  31.210  32.573  1.00  0.00     0.338 C 
ATOM     29  O   UNL A   1      38.059  32.139  33.349  1.00  0.00    -0.246 OA
BRANCH  28  30
ATOM     30  C   UNL A   1      38.904  30.642  31.729  1.00  0.00     0.060 A 
ATOM     31  C   UNL A   1      39.849  29.782  32.302  1.00  0.00     0.016 A 
ATOM     32  C   UNL A   1      39.045  31.075  30.409  1.00  0.00     0.016 A 
ATOM     33  C   UNL A   1      40.950  29.360  31.554  1.00  0.00     0.010 A 
ATOM     34  C   UNL A   1      40.155  30.664  29.669  1.00  0.00     0.010 A 
ATOM     35  C   UNL A   1      41.125  29.822  30.242  1.00  0.00    -0.014 A 
BRANCH  35  36
ATOM     36  C   UNL A   1      42.349  29.485  29.474  1.00  0.00     0.031 A 
ATOM     37  C   UNL A   1      42.478  28.129  28.838  1.00  0.00     0.074 A 
ATOM     38  C   UNL A   1      43.362  30.366  29.403  1.00  0.00     0.049 A 
ATOM     39  N   UNL A   1      43.505  27.609  28.215  1.00  0.00    -0.248 NA
ATOM     40  C   UNL A   1      41.313  27.235  28.931  1.00  0.00     0.031 C 
ATOM     41  C   UNL A   1      43.355  31.702  29.999  1.00  0.00     0.029 A 
ATOM     42  N   UNL A   1      44.601  30.265  28.821  1.00  0.00    -0.354 N 
ATOM     43  C   UNL A   1      43.127  26.313  27.880  1.00  0.00     0.074 A 
ATOM     44  C   UNL A   1      41.772  26.132  28.356  1.00  0.00     0.031 C 
ATOM     45  C   UNL A   1      44.537  32.291  29.756  1.00  0.00     0.029 A 
ATOM     46  C   UNL A   1      45.390  31.376  29.004  1.00  0.00     0.049 A 
ATOM     47  H   UNL A   1      44.897  29.471  28.320  1.00  0.00     0.167 HD
ATOM     48  C   UNL A   1      43.855  25.359  27.253  1.00  0.00     0.031 A 
ATOM     49  C   UNL A   1      46.660  31.624  28.625  1.00  0.00     0.031 A 
ATOM     50  C   UNL A   1      45.202  25.543  26.782  1.00  0.00     0.049 A 
ATOM     51  C   UNL A   1      47.434  30.548  27.908  1.00  0.00     0.074 A 
ATOM     52  C   UNL A   1      46.002  24.643  26.097  1.00  0.00     0.029 A 
ATOM     53  N   UNL A   1      45.955  26.693  26.957  1.00  0.00    -0.354 N 
ATOM     54  N   UNL A   1      47.037  29.352  27.543  1.00  0.00    -0.248 NA
ATOM     55  C   UNL A   1      48.833  30.847  27.570  1.00  0.00     0.031 C 
ATOM     56  C   UNL A   1      47.257  25.229  25.911  1.00  0.00     0.029 A 
ATOM     57  C   UNL A   1      47.221  26.514  26.429  1.00  0.00     0.049 A 
ATOM     58  H   UNL A   1      45.635  27.516  27.393  1.00  0.00     0.167 HD
ATOM     59  C   UNL A   1      48.140  28.755  26.941  1.00  0.00     0.074 A 
ATOM     60  C   UNL A   1      49.204  29.737  26.946  1.00  0.00     0.031 C 
ATOM     61  C   UNL A   1      48.271  27.498  26.453  1.00  0.00     0.031 A 
BRANCH  48  62
ATOM     62  C   UNL A   1      43.232  24.001  27.074  1.00  0.00    -0.014 A 
ATOM     63  C   UNL A   1      43.218  23.058  28.116  1.00  0.00     0.010 A 
ATOM     64  C   UNL A   1      42.569  23.703  25.869  1.00  0.00     0.010 A 
ATOM     65  C   UNL A   1      42.560  21.836  27.951  1.00  0.00     0.020 A 
ATOM     66  C   UNL A   1      41.893  22.491  25.708  1.00  0.00     0.020 A 
ATOM     67  C   UNL A   1      41.898  21.562  26.749  1.00  0.00     0.054 A 
BRANCH  67  68
ATOM     68  S   UNL A   1      40.998  19.995  26.589  1.00  0.00     0.124 S 
ATOM     69  O   UNL A   1      39.779  20.417  25.902  1.00  0.00    -0.237 OA
ATOM     70  O   UNL A   1      41.915  19.179  25.796  1.00  0.00    -0.237 OA
ATOM     71  O   UNL A   1      40.814  19.556  27.969  1.00  0.00    -0.744 OA
ENDBRANCH  67  68
ENDBRANCH  48  62
BRANCH  49  72
ATOM     72  C   UNL A   1      47.299  32.935  28.926  1.00  0.00    -0.014 A 
ATOM     73  C   UNL A   1      47.993  33.125  30.135  1.00  0.00     0.010 A 
ATOM     74  C   UNL A   1      47.204  34.007  28.021  1.00  0.00     0.010 A 
ATOM     75  C   UNL A   1      48.557  34.365  30.444  1.00  0.00     0.020 A 
ATOM     76  C   UNL A   1      47.800  35.239  28.308  1.00  0.00     0.020 A 
ATOM     77  C   UNL A   1      48.459  35.414  29.526  1.00  0.00     0.054 A 
BRANCH  77  78
ATOM     78  S   UNL A   1      49.245  37.001  29.921  1.00  0.00     0.124 S 
ATOM     79  O   UNL A   1      50.198  37.147  28.827  1.00  0.00    -0.237 OA
ATOM     80  O   UNL A   1      48.115  37.927  29.902  1.00  0.00    -0.237 OA
ATOM     81  O   UNL A   1      49.828  36.770  31.240  1.00  0.00    -0.744 OA
ENDBRANCH  77  78
ENDBRANCH  49  72
BRANCH  61  82
ATOM     82  C   UNL A   1      49.614  27.109  25.898  1.00  0.00    -0.014 A 
ATOM     83  C   UNL A   1      50.539  26.403  26.689  1.00  0.00     0.010 A 
ATOM     84  C   UNL A   1      49.935  27.396  24.559  1.00  0.00     0.010 A 
ATOM     85  C   UNL A   1      51.771  26.014  26.159  1.00  0.00     0.020 A 
ATOM     86  C   UNL A   1      51.157  26.985  24.017  1.00  0.00     0.020 A 
ATOM     87  C   UNL A   1      52.072  26.306  24.826  1.00  0.00     0.054 A 
BRANCH  87  88
ATOM     88  S   UNL A   1      53.658  25.746  24.148  1.00  0.00     0.124 S 
ATOM     89  O   UNL A   1      53.664  24.333  24.518  1.00  0.00    -0.237 OA
ATOM     90  O   UNL A   1      53.512  26.022  22.721  1.00  0.00    -0.237 OA
ATOM     91  O   UNL A   1      54.642  26.576  24.839  1.00  0.00    -0.744 OA
ENDBRANCH  87  88
ENDBRANCH  61  82
ENDBRANCH  35  36
ENDBRANCH  28  30
ENDBRANCH  27  28
ENDBRANCH  26  27
ENDBRANCH  25  26
ENDBRANCH  24  25
ENDBRANCH   1  24
TORSDOF 22
ENDMDL
MODEL 3
REMARK VINA RESULT:      -8.8      6.666     14.310
REMARK SMILES O=C(CCSc1nc(-c2cccs2)cc(C(F)(F)F)n1)OCCOCCOC(=O)c1ccc(-c2c3nc(c(-c4ccc(S(=O)(=O)[O-])cc4)c4ccc([nH]4)c(-c4ccc(S(=O)(=O)[O-])cc4)c4nc(c(-c5ccc(S(=O)(=O)[O-])cc5)c5ccc2[nH]5)C=C4)C=C3)cc1
REMARK SMILES IDX 23 1 22 2 21 3 2 4 1 5 3 6 4 7 5 8 6 9 7 10 20 11 8 12 15 13
REMARK SMILES IDX 14 14 9 15 10 16 13 17 11 18 12 19 16 20 17 21 18 22 19 23
REMARK SMILES IDX 24 24 25 25 26 26 27 27 28 28 29 29 30 30 31 31 89 32 32 33
REMARK SMILES IDX 88 34 33 35 34 36 35 37 82 38 36 39 87 40 81 41 83 42 37 43
REMARK SMILES IDX 86 44 80 45 79 46 38 48 68 49 49 50 67 51 50 52 53 53 66 54
REMARK SMILES IDX 84 55 51 56 52 57 65 59 85 60 54 61 39 62 40 63 48 64 41 65
REMARK SMILES IDX 47 66 42 67 43 68 44 69 45 70 46 71 69 72 70 73 78 74 71 75
REMARK SMILES IDX 77 76 72 77 73 78 74 79 75 80 76 81 55 82 56 83 64 84 57 85
REMARK SMILES IDX 63 86 58 87 59 88 60 89 61 90 62 91
REMARK H PARENT 83 47 53 58
REMARK Flexibility Score: inf
ROOT
ATOM      1  C   UNL A   1      44.894  23.158  25.439  1.00  0.00     0.202 C 
ENDROOT
BRANCH   1   2
ATOM      2  C   UNL A   1      43.655  22.957  26.320  1.00  0.00     0.261 C 
BRANCH   2   3
ATOM      3  O   UNL A   1      43.935  22.544  27.663  1.00  0.00    -0.463 OA
BRANCH   3   4
ATOM      4  C   UNL A   1      43.244  22.954  28.748  1.00  0.00     0.306 C 
ATOM      5  O   UNL A   1      42.060  23.274  28.649  1.00  0.00    -0.252 OA
BRANCH   4   6
ATOM      6  C   UNL A   1      43.944  23.038  30.073  1.00  0.00     0.134 C 
BRANCH   6   7
ATOM      7  C   UNL A   1      44.076  24.481  30.545  1.00  0.00     0.090 C 
BRANCH   7   8
ATOM      8  S   UNL A   1      45.508  24.799  31.631  1.00  0.00    -0.086 SA
BRANCH   8   9
ATOM      9  C   UNL A   1      44.867  24.438  33.250  1.00  0.00     0.188 A 
ATOM     10  N   UNL A   1      45.339  23.335  33.826  1.00  0.00    -0.222 NA
ATOM     11  N   UNL A   1      43.861  25.170  33.742  1.00  0.00    -0.218 NA
ATOM     12  C   UNL A   1      44.771  22.974  34.990  1.00  0.00     0.085 A 
ATOM     13  C   UNL A   1      43.273  24.763  34.904  1.00  0.00     0.149 A 
ATOM     14  C   UNL A   1      43.715  23.638  35.569  1.00  0.00     0.063 A 
BRANCH  12  15
ATOM     15  C   UNL A   1      45.347  21.791  35.604  1.00  0.00     0.053 A 
ATOM     16  C   UNL A   1      45.442  20.507  35.109  1.00  0.00     0.022 A 
ATOM     17  S   UNL A   1      46.012  21.922  37.175  1.00  0.00    -0.142 S 
ATOM     18  C   UNL A   1      46.040  19.617  36.047  1.00  0.00     0.012 A 
ATOM     19  C   UNL A   1      46.400  20.260  37.210  1.00  0.00     0.065 A 
ENDBRANCH  12  15
BRANCH  13  20
ATOM     20  C   UNL A   1      42.046  25.498  35.432  1.00  0.00     0.433 C 
ATOM     21  F   UNL A   1      41.683  26.578  34.691  1.00  0.00    -0.165 F 
ATOM     22  F   UNL A   1      40.949  24.688  35.497  1.00  0.00    -0.165 F 
ATOM     23  F   UNL A   1      42.215  25.970  36.703  1.00  0.00    -0.165 F 
ENDBRANCH  13  20
ENDBRANCH   8   9
ENDBRANCH   7   8
ENDBRANCH   6   7
ENDBRANCH   4   6
ENDBRANCH   3   4
ENDBRANCH   2   3
ENDBRANCH   1   2
BRANCH   1  24
ATOM     24  O   UNL A   1      46.066  23.704  26.023  1.00  0.00    -0.374 OA
BRANCH  24  25
ATOM     25  C   UNL A   1      46.444  25.042  25.706  1.00  0.00     0.202 C 
BRANCH  25  26
ATOM     26  C   UNL A   1      45.694  26.228  26.328  1.00  0.00     0.261 C 
BRANCH  26  27
ATOM     27  O   UNL A   1      44.855  26.965  25.422  1.00  0.00    -0.460 OA
BRANCH  27  28
ATOM     28  C   UNL A   1      43.533  26.698  25.514  1.00  0.00     0.338 C 
ATOM     29  O   UNL A   1      42.877  25.948  24.794  1.00  0.00    -0.246 OA
BRANCH  28  30
ATOM     30  C   UNL A   1      42.947  27.362  26.684  1.00  0.00     0.060 A 
ATOM     31  C   UNL A   1      43.228  28.715  26.916  1.00  0.00     0.016 A 
ATOM     32  C   UNL A   1      42.241  26.612  27.626  1.00  0.00     0.016 A 
ATOM     33  C   UNL A   1      42.810  29.318  28.104  1.00  0.00     0.010 A 
ATOM     34  C   UNL A   1      41.838  27.214  28.820  1.00  0.00     0.010 A 
ATOM     35  C   UNL A   1      42.137  28.564  29.076  1.00  0.00    -0.014 A 
BRANCH  35  36
ATOM     36  C   UNL A   1      41.794  29.154  30.393  1.00  0.00     0.031 A 
ATOM     37  C   UNL A   1      40.561  30.003  30.530  1.00  0.00     0.074 A 
ATOM     38  C   UNL A   1      42.618  28.982  31.441  1.00  0.00     0.049 A 
ATOM     39  N   UNL A   1      40.145  30.687  31.565  1.00  0.00    -0.248 NA
ATOM     40  C   UNL A   1      39.694  30.115  29.345  1.00  0.00     0.031 C 
ATOM     41  C   UNL A   1      43.851  28.196  31.419  1.00  0.00     0.029 A 
ATOM     42  N   UNL A   1      42.556  29.474  32.722  1.00  0.00    -0.354 N 
ATOM     43  C   UNL A   1      38.994  31.345  31.146  1.00  0.00     0.074 A 
ATOM     44  C   UNL A   1      38.769  30.966  29.767  1.00  0.00     0.031 C 
ATOM     45  C   UNL A   1      44.432  28.266  32.628  1.00  0.00     0.029 A 
ATOM     46  C   UNL A   1      43.626  29.109  33.505  1.00  0.00     0.049 A 
ATOM     47  H   UNL A   1      41.816  30.034  33.048  1.00  0.00     0.167 HD
ATOM     48  C   UNL A   1      38.212  32.202  31.844  1.00  0.00     0.031 A 
ATOM     49  C   UNL A   1      43.932  29.431  34.778  1.00  0.00     0.031 A 
ATOM     50  C   UNL A   1      38.440  32.576  33.215  1.00  0.00     0.049 A 
ATOM     51  C   UNL A   1      43.028  30.370  35.535  1.00  0.00     0.074 A 
ATOM     52  C   UNL A   1      37.673  33.406  34.016  1.00  0.00     0.029 A 
ATOM     53  N   UNL A   1      39.515  32.160  33.984  1.00  0.00    -0.354 N 
ATOM     54  N   UNL A   1      41.908  30.930  35.142  1.00  0.00    -0.248 NA
ATOM     55  C   UNL A   1      43.438  30.735  36.898  1.00  0.00     0.031 C 
ATOM     56  C   UNL A   1      38.317  33.538  35.250  1.00  0.00     0.029 A 
ATOM     57  C   UNL A   1      39.454  32.746  35.237  1.00  0.00     0.049 A 
ATOM     58  H   UNL A   1      40.218  31.539  33.683  1.00  0.00     0.167 HD
ATOM     59  C   UNL A   1      41.488  31.720  36.208  1.00  0.00     0.074 A 
ATOM     60  C   UNL A   1      42.444  31.526  37.277  1.00  0.00     0.031 C 
ATOM     61  C   UNL A   1      40.421  32.551  36.285  1.00  0.00     0.031 A 
BRANCH  48  62
ATOM     62  C   UNL A   1      37.052  32.841  31.129  1.00  0.00    -0.014 A 
ATOM     63  C   UNL A   1      37.240  33.920  30.249  1.00  0.00     0.010 A 
ATOM     64  C   UNL A   1      35.766  32.287  31.274  1.00  0.00     0.010 A 
ATOM     65  C   UNL A   1      36.158  34.441  29.534  1.00  0.00     0.020 A 
ATOM     66  C   UNL A   1      34.687  32.792  30.546  1.00  0.00     0.020 A 
ATOM     67  C   UNL A   1      34.889  33.871  29.684  1.00  0.00     0.054 A 
BRANCH  67  68
ATOM     68  S   UNL A   1      33.517  34.527  28.694  1.00  0.00     0.124 S 
ATOM     69  O   UNL A   1      34.169  35.605  27.954  1.00  0.00    -0.237 OA
ATOM     70  O   UNL A   1      33.118  33.370  27.896  1.00  0.00    -0.237 OA
ATOM     71  O   UNL A   1      32.542  34.958  29.692  1.00  0.00    -0.744 OA
ENDBRANCH  67  68
ENDBRANCH  48  62
BRANCH  49  72
ATOM     72  C   UNL A   1      45.157  28.884  35.425  1.00  0.00    -0.014 A 
ATOM     73  C   UNL A   1      46.372  29.590  35.356  1.00  0.00     0.010 A 
ATOM     74  C   UNL A   1      45.126  27.648  36.096  1.00  0.00     0.010 A 
ATOM     75  C   UNL A   1      47.534  29.062  35.922  1.00  0.00     0.020 A 
ATOM     76  C   UNL A   1      46.278  27.133  36.698  1.00  0.00     0.020 A 
ATOM     77  C   UNL A   1      47.479  27.837  36.593  1.00  0.00     0.054 A 
BRANCH  77  78
ATOM     78  S   UNL A   1      48.988  27.193  37.369  1.00  0.00     0.124 S 
ATOM     79  O   UNL A   1      50.030  27.766  36.525  1.00  0.00    -0.237 OA
ATOM     80  O   UNL A   1      48.903  27.736  38.723  1.00  0.00    -0.237 OA
ATOM     81  O   UNL A   1      48.824  25.745  37.277  1.00  0.00    -0.744 OA
ENDBRANCH  77  78
ENDBRANCH  49  72
BRANCH  61  82
ATOM     82  C   UNL A   1      40.241  33.326  37.562  1.00  0.00    -0.014 A 
ATOM     83  C   UNL A   1      40.916  34.544  37.763  1.00  0.00     0.010 A 
ATOM     84  C   UNL A   1      39.345  32.869  38.545  1.00  0.00     0.010 A 
ATOM     85  C   UNL A   1      40.720  35.277  38.935  1.00  0.00     0.020 A 
ATOM     86  C   UNL A   1      39.126  33.613  39.708  1.00  0.00     0.020 A 
ATOM     87  C   UNL A   1      39.825  34.807  39.900  1.00  0.00     0.054 A 
BRANCH  87  88
ATOM     88  S   UNL A   1      39.550  35.803  41.391  1.00  0.00     0.124 S 
ATOM     89  O   UNL A   1      39.315  34.776  42.403  1.00  0.00    -0.237 OA
ATOM     90  O   UNL A   1      40.805  36.538  41.521  1.00  0.00    -0.237 OA
ATOM     91  O   UNL A   1      38.388  36.621  41.051  1.00  0.00    -0.744 OA
ENDBRANCH  87  88
ENDBRANCH  61  82
ENDBRANCH  35  36
ENDBRANCH  28  30
ENDBRANCH  27  28
ENDBRANCH  26  27
ENDBRANCH  25  26
ENDBRANCH  24  25
ENDBRANCH   1  24
TORSDOF 22
ENDMDL
