MODEL 1
REMARK VINA RESULT:     -11.5      0.000      0.000
REMARK SMILES O=C(OCCOCCOC(=O)c1ccc(-c2c3nc(c(-c4ccc(S(=O)(=O)[O-])cc4)c4ccc([nH]4)c(-c4ccc(S(=O)(=O)[O-])cc4)c4nc(c(-c5ccc(S(=O)(=O)[O-])cc5)c5ccc2[nH]5)C=C4)C=C3)cc1)C1=Cc2cc(C(F)(F)F)ccc2O[C@@H]1C(F)(F)F
REMARK SMILES IDX 7 1 6 2 5 3 4 4 3 5 2 6 1 7 72 8 73 9 85 10 74 11 84 12
REMARK SMILES IDX 75 13 83 14 76 15 82 16 81 17 86 18 87 19 88 20 89 21 77 22
REMARK SMILES IDX 78 23 79 24 80 25 8 26 9 27 10 28 11 29 12 30 13 31 71 32
REMARK SMILES IDX 14 33 70 34 15 35 16 36 17 37 64 38 18 39 69 40 63 41 65 42
REMARK SMILES IDX 19 43 68 44 62 45 61 46 20 48 50 49 31 50 49 51 32 52 35 53
REMARK SMILES IDX 48 54 66 55 33 56 34 57 47 59 67 60 36 61 21 62 22 63 30 64
REMARK SMILES IDX 23 65 29 66 24 67 25 68 26 69 27 70 28 71 51 72 52 73 60 74
REMARK SMILES IDX 53 75 59 76 54 77 55 78 56 79 57 80 58 81 37 82 38 83 46 84
REMARK SMILES IDX 39 85 45 86 40 87 41 88 42 89 43 90 44 91
REMARK H PARENT 65 47 35 58
REMARK Flexibility Score: inf
ROOT
ATOM      1  C   UNL A   1      41.010  23.201  27.680  1.00  0.00     0.202 C 
ENDROOT
BRANCH   1   2
ATOM      2  O   UNL A   1      40.142  22.085  27.399  1.00  0.00    -0.374 OA
BRANCH   2   3
ATOM      3  C   UNL A   1      39.179  21.874  26.123  1.00  0.00     0.202 C 
BRANCH   3   4
ATOM      4  C   UNL A   1      37.454  23.022  25.492  1.00  0.00     0.261 C 
BRANCH   4   5
ATOM      5  O   UNL A   1      36.000  22.867  26.039  1.00  0.00    -0.460 OA
BRANCH   5   6
ATOM      6  C   UNL A   1      35.460  21.678  25.768  1.00  0.00     0.338 C 
ATOM      7  O   UNL A   1      35.957  20.649  25.392  1.00  0.00    -0.246 OA
BRANCH   6   8
ATOM      8  C   UNL A   1      34.101  22.145  25.796  1.00  0.00     0.087 C 
ATOM      9  C   UNL A   1      34.056  23.508  26.406  1.00  0.00     0.027 C 
ATOM     10  C   UNL A   1      33.647  21.749  23.946  1.00  0.00     0.316 C 
ATOM     11  C   UNL A   1      33.736  25.024  25.450  1.00  0.00     0.018 A 
ATOM     12  O   UNL A   1      33.355  23.346  22.920  1.00  0.00    -0.475 OA
ATOM     13  C   UNL A   1      33.836  26.245  26.058  1.00  0.00     0.025 A 
ATOM     14  C   UNL A   1      33.432  24.966  23.750  1.00  0.00     0.128 A 
ATOM     15  C   UNL A   1      33.695  27.369  25.207  1.00  0.00     0.056 A 
ATOM     16  C   UNL A   1      33.420  26.086  22.976  1.00  0.00     0.048 A 
ATOM     17  C   UNL A   1      33.540  27.277  23.746  1.00  0.00     0.017 A 
BRANCH  10  18
ATOM     18  C   UNL A   1      32.710  20.492  24.083  1.00  0.00     0.430 C 
ATOM     19  F   UNL A   1      33.322  19.387  24.551  1.00  0.00    -0.167 F 
ATOM     20  F   UNL A   1      31.745  20.792  24.999  1.00  0.00    -0.167 F 
ATOM     21  F   UNL A   1      32.028  20.160  22.964  1.00  0.00    -0.167 F 
ENDBRANCH  10  18
BRANCH  15  22
ATOM     22  C   UNL A   1      33.707  28.731  25.895  1.00  0.00     0.416 C 
ATOM     23  F   UNL A   1      33.374  29.734  25.029  1.00  0.00    -0.166 F 
ATOM     24  F   UNL A   1      32.797  28.808  26.905  1.00  0.00    -0.166 F 
ATOM     25  F   UNL A   1      34.907  29.079  26.426  1.00  0.00    -0.166 F 
ENDBRANCH  15  22
ENDBRANCH   6   8
ENDBRANCH   5   6
ENDBRANCH   4   5
ENDBRANCH   3   4
ENDBRANCH   2   3
ENDBRANCH   1   2
BRANCH   1  26
ATOM     26  C   UNL A   1      41.128  24.193  26.521  1.00  0.00     0.261 C 
BRANCH  26  27
ATOM     27  O   UNL A   1      40.164  25.236  26.634  1.00  0.00    -0.460 OA
BRANCH  27  28
ATOM     28  C   UNL A   1      40.681  26.476  26.466  1.00  0.00     0.338 C 
ATOM     29  O   UNL A   1      41.233  26.919  25.473  1.00  0.00    -0.246 OA
BRANCH  28  30
ATOM     30  C   UNL A   1      40.474  27.257  27.700  1.00  0.00     0.060 A 
ATOM     31  C   UNL A   1      41.076  28.518  27.778  1.00  0.00     0.016 A 
ATOM     32  C   UNL A   1      39.696  26.770  28.760  1.00  0.00     0.016 A 
ATOM     33  C   UNL A   1      40.893  29.300  28.911  1.00  0.00     0.010 A 
ATOM     34  C   UNL A   1      39.528  27.546  29.903  1.00  0.00     0.010 A 
ATOM     35  C   UNL A   1      40.139  28.804  29.982  1.00  0.00    -0.014 A 
BRANCH  35  36
ATOM     36  C   UNL A   1      40.156  29.529  31.262  1.00  0.00     0.031 A 
ATOM     37  C   UNL A   1      41.260  29.212  32.226  1.00  0.00     0.074 A 
ATOM     38  C   UNL A   1      39.224  30.457  31.534  1.00  0.00     0.049 A 
ATOM     39  N   UNL A   1      41.518  29.747  33.387  1.00  0.00    -0.248 NA
ATOM     40  C   UNL A   1      42.202  28.153  31.820  1.00  0.00     0.031 C 
ATOM     41  C   UNL A   1      38.128  30.845  30.646  1.00  0.00     0.029 A 
ATOM     42  N   UNL A   1      39.055  31.243  32.643  1.00  0.00    -0.354 N 
ATOM     43  C   UNL A   1      42.663  29.107  33.843  1.00  0.00     0.074 A 
ATOM     44  C   UNL A   1      43.027  28.116  32.855  1.00  0.00     0.031 C 
ATOM     45  C   UNL A   1      37.397  31.799  31.248  1.00  0.00     0.029 A 
ATOM     46  C   UNL A   1      37.958  32.068  32.570  1.00  0.00     0.049 A 
ATOM     47  H   UNL A   1      39.662  31.220  33.417  1.00  0.00     0.167 HD
ATOM     48  C   UNL A   1      43.352  29.334  34.983  1.00  0.00     0.031 A 
ATOM     49  C   UNL A   1      37.466  32.930  33.482  1.00  0.00     0.031 A 
ATOM     50  C   UNL A   1      42.943  30.286  35.978  1.00  0.00     0.049 A 
ATOM     51  C   UNL A   1      38.202  33.093  34.789  1.00  0.00     0.074 A 
ATOM     52  C   UNL A   1      43.556  30.592  37.179  1.00  0.00     0.029 A 
ATOM     53  N   UNL A   1      41.802  31.071  35.895  1.00  0.00    -0.354 N 
ATOM     54  N   UNL A   1      39.315  32.520  35.188  1.00  0.00    -0.248 NA
ATOM     55  C   UNL A   1      37.624  34.029  35.761  1.00  0.00     0.031 C 
ATOM     56  C   UNL A   1      42.749  31.514  37.853  1.00  0.00     0.029 A 
ATOM     57  C   UNL A   1      41.674  31.839  37.039  1.00  0.00     0.049 A 
ATOM     58  H   UNL A   1      41.177  31.079  35.135  1.00  0.00     0.167 HD
ATOM     59  C   UNL A   1      39.585  33.050  36.445  1.00  0.00     0.074 A 
ATOM     60  C   UNL A   1      38.531  34.003  36.728  1.00  0.00     0.031 C 
ATOM     61  C   UNL A   1      40.610  32.779  37.291  1.00  0.00     0.031 A 
BRANCH  48  62
ATOM     62  C   UNL A   1      44.586  28.510  35.222  1.00  0.00    -0.014 A 
ATOM     63  C   UNL A   1      45.854  28.964  34.813  1.00  0.00     0.010 A 
ATOM     64  C   UNL A   1      44.482  27.276  35.886  1.00  0.00     0.010 A 
ATOM     65  C   UNL A   1      46.992  28.188  35.044  1.00  0.00     0.020 A 
ATOM     66  C   UNL A   1      45.622  26.508  36.144  1.00  0.00     0.020 A 
ATOM     67  C   UNL A   1      46.868  26.965  35.711  1.00  0.00     0.054 A 
BRANCH  67  68
ATOM     68  S   UNL A   1      48.367  25.998  36.033  1.00  0.00     0.124 S 
ATOM     69  O   UNL A   1      48.226  25.686  37.454  1.00  0.00    -0.237 OA
ATOM     70  O   UNL A   1      48.216  24.865  35.124  1.00  0.00    -0.237 OA
ATOM     71  O   UNL A   1      49.453  26.918  35.704  1.00  0.00    -0.744 OA
ENDBRANCH  67  68
ENDBRANCH  48  62
BRANCH  49  72
ATOM     72  C   UNL A   1      36.213  33.686  33.207  1.00  0.00    -0.014 A 
ATOM     73  C   UNL A   1      34.955  33.131  33.500  1.00  0.00     0.010 A 
ATOM     74  C   UNL A   1      36.273  34.964  32.620  1.00  0.00     0.010 A 
ATOM     75  C   UNL A   1      33.782  33.824  33.182  1.00  0.00     0.020 A 
ATOM     76  C   UNL A   1      35.104  35.674  32.332  1.00  0.00     0.020 A 
ATOM     77  C   UNL A   1      33.865  35.092  32.599  1.00  0.00     0.054 A 
BRANCH  77  78
ATOM     78  S   UNL A   1      32.331  35.982  32.217  1.00  0.00     0.124 S 
ATOM     79  O   UNL A   1      32.480  36.245  30.789  1.00  0.00    -0.237 OA
ATOM     80  O   UNL A   1      31.304  35.008  32.579  1.00  0.00    -0.237 OA
ATOM     81  O   UNL A   1      32.395  37.160  33.080  1.00  0.00    -0.744 OA
ENDBRANCH  77  78
ENDBRANCH  49  72
BRANCH  61  82
ATOM     82  C   UNL A   1      40.661  33.548  38.586  1.00  0.00    -0.014 A 
ATOM     83  C   UNL A   1      40.102  33.031  39.769  1.00  0.00     0.010 A 
ATOM     84  C   UNL A   1      41.331  34.786  38.628  1.00  0.00     0.010 A 
ATOM     85  C   UNL A   1      40.178  33.757  40.960  1.00  0.00     0.020 A 
ATOM     86  C   UNL A   1      41.440  35.497  39.823  1.00  0.00     0.020 A 
ATOM     87  C   UNL A   1      40.847  34.985  40.979  1.00  0.00     0.054 A 
BRANCH  87  88
ATOM     88  S   UNL A   1      40.962  35.889  42.546  1.00  0.00     0.124 S 
ATOM     89  O   UNL A   1      42.400  36.114  42.662  1.00  0.00    -0.237 OA
ATOM     90  O   UNL A   1      40.158  37.080  42.288  1.00  0.00    -0.237 OA
ATOM     91  O   UNL A   1      40.396  34.961  43.523  1.00  0.00    -0.744 OA
ENDBRANCH  87  88
ENDBRANCH  61  82
ENDBRANCH  35  36
ENDBRANCH  28  30
ENDBRANCH  27  28
ENDBRANCH  26  27
ENDBRANCH   1  26
TORSDOF 19
ENDMDL
MODEL 2
REMARK VINA RESULT:     -11.4      1.692      2.449
REMARK SMILES O=C(OCCOCCOC(=O)c1ccc(-c2c3nc(c(-c4ccc(S(=O)(=O)[O-])cc4)c4ccc([nH]4)c(-c4ccc(S(=O)(=O)[O-])cc4)c4nc(c(-c5ccc(S(=O)(=O)[O-])cc5)c5ccc2[nH]5)C=C4)C=C3)cc1)C1=Cc2cc(C(F)(F)F)ccc2O[C@@H]1C(F)(F)F
REMARK SMILES IDX 7 1 6 2 5 3 4 4 3 5 2 6 1 7 72 8 73 9 85 10 74 11 84 12
REMARK SMILES IDX 75 13 83 14 76 15 82 16 81 17 86 18 87 19 88 20 89 21 77 22
REMARK SMILES IDX 78 23 79 24 80 25 8 26 9 27 10 28 11 29 12 30 13 31 71 32
REMARK SMILES IDX 14 33 70 34 15 35 16 36 17 37 64 38 18 39 69 40 63 41 65 42
REMARK SMILES IDX 19 43 68 44 62 45 61 46 20 48 50 49 31 50 49 51 32 52 35 53
REMARK SMILES IDX 48 54 66 55 33 56 34 57 47 59 67 60 36 61 21 62 22 63 30 64
REMARK SMILES IDX 23 65 29 66 24 67 25 68 26 69 27 70 28 71 51 72 52 73 60 74
REMARK SMILES IDX 53 75 59 76 54 77 55 78 56 79 57 80 58 81 37 82 38 83 46 84
REMARK SMILES IDX 39 85 45 86 40 87 41 88 42 89 43 90 44 91
REMARK H PARENT 65 47 35 58
REMARK Flexibility Score: inf
ROOT
ATOM      1  C   UNL A   1      42.182  21.287  26.215  1.00  0.00     0.202 C 
ENDROOT
BRANCH   1   2
ATOM      2  O   UNL A   1      40.857  21.593  26.693  1.00  0.00    -0.374 OA
BRANCH   2   3
ATOM      3  C   UNL A   1      39.446  21.096  26.092  1.00  0.00     0.202 C 
BRANCH   3   4
ATOM      4  C   UNL A   1      37.790  22.259  25.318  1.00  0.00     0.261 C 
BRANCH   4   5
ATOM      5  O   UNL A   1      36.465  21.686  24.725  1.00  0.00    -0.460 OA
BRANCH   5   6
ATOM      6  C   UNL A   1      35.791  22.573  23.991  1.00  0.00     0.338 C 
ATOM      7  O   UNL A   1      36.124  23.233  23.041  1.00  0.00    -0.246 OA
BRANCH   6   8
ATOM      8  C   UNL A   1      34.677  22.667  24.896  1.00  0.00     0.087 C 
ATOM      9  C   UNL A   1      34.692  24.003  25.564  1.00  0.00     0.027 C 
ATOM     10  C   UNL A   1      33.291  22.060  23.674  1.00  0.00     0.316 C 
ATOM     11  C   UNL A   1      33.496  25.323  25.190  1.00  0.00     0.018 A 
ATOM     12  O   UNL A   1      32.053  23.461  23.238  1.00  0.00    -0.475 OA
ATOM     13  C   UNL A   1      33.652  26.561  25.752  1.00  0.00     0.025 A 
ATOM     14  C   UNL A   1      32.232  25.089  24.035  1.00  0.00     0.128 A 
ATOM     15  C   UNL A   1      32.749  27.557  25.305  1.00  0.00     0.056 A 
ATOM     16  C   UNL A   1      31.475  26.121  23.570  1.00  0.00     0.048 A 
ATOM     17  C   UNL A   1      31.753  27.343  24.243  1.00  0.00     0.017 A 
BRANCH  10  18
ATOM     18  C   UNL A   1      32.978  20.610  24.202  1.00  0.00     0.430 C 
ATOM     19  F   UNL A   1      32.317  20.572  25.375  1.00  0.00    -0.167 F 
ATOM     20  F   UNL A   1      32.154  20.007  23.296  1.00  0.00    -0.167 F 
ATOM     21  F   UNL A   1      34.048  19.789  24.290  1.00  0.00    -0.167 F 
ENDBRANCH  10  18
BRANCH  15  22
ATOM     22  C   UNL A   1      32.854  28.912  26.000  1.00  0.00     0.416 C 
ATOM     23  F   UNL A   1      33.995  29.007  26.745  1.00  0.00    -0.166 F 
ATOM     24  F   UNL A   1      32.914  29.944  25.113  1.00  0.00    -0.166 F 
ATOM     25  F   UNL A   1      31.830  29.187  26.847  1.00  0.00    -0.166 F 
ENDBRANCH  15  22
ENDBRANCH   6   8
ENDBRANCH   5   6
ENDBRANCH   4   5
ENDBRANCH   3   4
ENDBRANCH   2   3
ENDBRANCH   1   2
BRANCH   1  26
ATOM     26  C   UNL A   1      42.942  22.507  25.690  1.00  0.00     0.261 C 
BRANCH  26  27
ATOM     27  O   UNL A   1      42.154  23.689  25.795  1.00  0.00    -0.460 OA
BRANCH  27  28
ATOM     28  C   UNL A   1      42.882  24.831  25.787  1.00  0.00     0.338 C 
ATOM     29  O   UNL A   1      43.803  25.116  25.041  1.00  0.00    -0.246 OA
BRANCH  28  30
ATOM     30  C   UNL A   1      42.388  25.726  26.850  1.00  0.00     0.060 A 
ATOM     31  C   UNL A   1      42.970  26.994  26.952  1.00  0.00     0.016 A 
ATOM     32  C   UNL A   1      41.364  25.337  27.726  1.00  0.00     0.016 A 
ATOM     33  C   UNL A   1      42.523  27.882  27.923  1.00  0.00     0.010 A 
ATOM     34  C   UNL A   1      40.929  26.219  28.710  1.00  0.00     0.010 A 
ATOM     35  C   UNL A   1      41.520  27.485  28.816  1.00  0.00    -0.014 A 
BRANCH  35  36
ATOM     36  C   UNL A   1      41.230  28.332  29.984  1.00  0.00     0.031 A 
ATOM     37  C   UNL A   1      42.080  28.148  31.204  1.00  0.00     0.074 A 
ATOM     38  C   UNL A   1      40.251  29.250  29.936  1.00  0.00     0.049 A 
ATOM     39  N   UNL A   1      42.055  28.802  32.332  1.00  0.00    -0.248 NA
ATOM     40  C   UNL A   1      43.102  27.086  31.139  1.00  0.00     0.031 C 
ATOM     41  C   UNL A   1      39.390  29.513  28.782  1.00  0.00     0.029 A 
ATOM     42  N   UNL A   1      39.819  30.134  30.888  1.00  0.00    -0.354 N 
ATOM     43  C   UNL A   1      43.067  28.248  33.105  1.00  0.00     0.074 A 
ATOM     44  C   UNL A   1      43.662  27.178  32.335  1.00  0.00     0.031 C 
ATOM     45  C   UNL A   1      38.528  30.496  29.097  1.00  0.00     0.029 A 
ATOM     46  C   UNL A   1      38.762  30.911  30.479  1.00  0.00     0.049 A 
ATOM     47  H   UNL A   1      40.228  30.208  31.780  1.00  0.00     0.167 HD
ATOM     48  C   UNL A   1      43.468  28.608  34.344  1.00  0.00     0.031 A 
ATOM     49  C   UNL A   1      38.062  31.840  31.158  1.00  0.00     0.031 A 
ATOM     50  C   UNL A   1      42.828  29.638  35.114  1.00  0.00     0.049 A 
ATOM     51  C   UNL A   1      38.470  32.155  32.576  1.00  0.00     0.074 A 
ATOM     52  C   UNL A   1      43.140  30.080  36.386  1.00  0.00     0.029 A 
ATOM     53  N   UNL A   1      41.730  30.372  34.689  1.00  0.00    -0.354 N 
ATOM     54  N   UNL A   1      39.463  31.661  33.279  1.00  0.00    -0.248 NA
ATOM     55  C   UNL A   1      37.671  33.161  33.287  1.00  0.00     0.031 C 
ATOM     56  C   UNL A   1      42.188  31.036  36.756  1.00  0.00     0.029 A 
ATOM     57  C   UNL A   1      41.330  31.243  35.686  1.00  0.00     0.049 A 
ATOM     58  H   UNL A   1      41.300  30.286  33.808  1.00  0.00     0.167 HD
ATOM     59  C   UNL A   1      39.427  32.320  34.503  1.00  0.00     0.074 A 
ATOM     60  C   UNL A   1      38.326  33.261  34.435  1.00  0.00     0.031 C 
ATOM     61  C   UNL A   1      40.228  32.168  35.588  1.00  0.00     0.031 A 
BRANCH  48  62
ATOM     62  C   UNL A   1      44.620  27.853  34.946  1.00  0.00    -0.014 A 
ATOM     63  C   UNL A   1      44.407  26.687  35.706  1.00  0.00     0.010 A 
ATOM     64  C   UNL A   1      45.935  28.299  34.728  1.00  0.00     0.010 A 
ATOM     65  C   UNL A   1      45.488  25.996  36.256  1.00  0.00     0.020 A 
ATOM     66  C   UNL A   1      47.021  27.593  35.254  1.00  0.00     0.020 A 
ATOM     67  C   UNL A   1      46.789  26.452  36.025  1.00  0.00     0.054 A 
BRANCH  67  68
ATOM     68  S   UNL A   1      48.175  25.510  36.717  1.00  0.00     0.124 S 
ATOM     69  O   UNL A   1      47.863  24.150  36.284  1.00  0.00    -0.237 OA
ATOM     70  O   UNL A   1      49.331  26.125  36.072  1.00  0.00    -0.237 OA
ATOM     71  O   UNL A   1      48.069  25.743  38.155  1.00  0.00    -0.744 OA
ENDBRANCH  67  68
ENDBRANCH  48  62
BRANCH  49  72
ATOM     72  C   UNL A   1      36.901  32.524  30.524  1.00  0.00    -0.014 A 
ATOM     73  C   UNL A   1      37.087  33.638  29.685  1.00  0.00     0.010 A 
ATOM     74  C   UNL A   1      35.591  32.077  30.780  1.00  0.00     0.010 A 
ATOM     75  C   UNL A   1      35.986  34.310  29.143  1.00  0.00     0.020 A 
ATOM     76  C   UNL A   1      34.490  32.726  30.214  1.00  0.00     0.020 A 
ATOM     77  C   UNL A   1      34.694  33.849  29.412  1.00  0.00     0.054 A 
BRANCH  77  78
ATOM     78  S   UNL A   1      33.283  34.723  28.680  1.00  0.00     0.124 S 
ATOM     79  O   UNL A   1      32.491  35.063  29.857  1.00  0.00    -0.237 OA
ATOM     80  O   UNL A   1      33.926  35.846  28.001  1.00  0.00    -0.237 OA
ATOM     81  O   UNL A   1      32.687  33.726  27.792  1.00  0.00    -0.744 OA
ENDBRANCH  77  78
ENDBRANCH  49  72
BRANCH  61  82
ATOM     82  C   UNL A   1      39.966  33.060  36.773  1.00  0.00    -0.014 A 
ATOM     83  C   UNL A   1      39.085  32.678  37.800  1.00  0.00     0.010 A 
ATOM     84  C   UNL A   1      40.662  34.280  36.884  1.00  0.00     0.010 A 
ATOM     85  C   UNL A   1      38.873  33.517  38.896  1.00  0.00     0.020 A 
ATOM     86  C   UNL A   1      40.480  35.104  37.996  1.00  0.00     0.020 A 
ATOM     87  C   UNL A   1      39.573  34.724  38.987  1.00  0.00     0.054 A 
BRANCH  87  88
ATOM     88  S   UNL A   1      39.307  35.777  40.439  1.00  0.00     0.124 S 
ATOM     89  O   UNL A   1      38.155  35.139  41.069  1.00  0.00    -0.237 OA
ATOM     90  O   UNL A   1      40.571  35.649  41.161  1.00  0.00    -0.237 OA
ATOM     91  O   UNL A   1      39.054  37.098  39.868  1.00  0.00    -0.744 OA
ENDBRANCH  87  88
ENDBRANCH  61  82
ENDBRANCH  35  36
ENDBRANCH  28  30
ENDBRANCH  27  28
ENDBRANCH  26  27
ENDBRANCH   1  26
TORSDOF 19
ENDMDL
MODEL 3
REMARK VINA RESULT:     -11.1      5.569      8.018
REMARK SMILES O=C(OCCOCCOC(=O)c1ccc(-c2c3nc(c(-c4ccc(S(=O)(=O)[O-])cc4)c4ccc([nH]4)c(-c4ccc(S(=O)(=O)[O-])cc4)c4nc(c(-c5ccc(S(=O)(=O)[O-])cc5)c5ccc2[nH]5)C=C4)C=C3)cc1)C1=Cc2cc(C(F)(F)F)ccc2O[C@@H]1C(F)(F)F
REMARK SMILES IDX 7 1 6 2 5 3 4 4 3 5 2 6 1 7 72 8 73 9 85 10 74 11 84 12
REMARK SMILES IDX 75 13 83 14 76 15 82 16 81 17 86 18 87 19 88 20 89 21 77 22
REMARK SMILES IDX 78 23 79 24 80 25 8 26 9 27 10 28 11 29 12 30 13 31 71 32
REMARK SMILES IDX 14 33 70 34 15 35 16 36 17 37 64 38 18 39 69 40 63 41 65 42
REMARK SMILES IDX 19 43 68 44 62 45 61 46 20 48 50 49 31 50 49 51 32 52 35 53
REMARK SMILES IDX 48 54 66 55 33 56 34 57 47 59 67 60 36 61 21 62 22 63 30 64
REMARK SMILES IDX 23 65 29 66 24 67 25 68 26 69 27 70 28 71 51 72 52 73 60 74
REMARK SMILES IDX 53 75 59 76 54 77 55 78 56 79 57 80 58 81 37 82 38 83 46 84
REMARK SMILES IDX 39 85 45 86 40 87 41 88 42 89 43 90 44 91
REMARK H PARENT 65 47 35 58
REMARK Flexibility Score: inf
ROOT
ATOM      1  C   UNL A   1      41.866  20.970  25.791  1.00  0.00     0.202 C 
ENDROOT
BRANCH   1   2
ATOM      2  O   UNL A   1      42.531  19.755  25.392  1.00  0.00    -0.374 OA
BRANCH   2   3
ATOM      3  C   UNL A   1      44.105  19.525  25.132  1.00  0.00     0.202 C 
BRANCH   3   4
ATOM      4  C   UNL A   1      45.650  20.968  24.658  1.00  0.00     0.261 C 
BRANCH   4   5
ATOM      5  O   UNL A   1      46.297  21.980  25.655  1.00  0.00    -0.460 OA
BRANCH   5   6
ATOM      6  C   UNL A   1      46.218  23.247  25.245  1.00  0.00     0.338 C 
ATOM      7  O   UNL A   1      46.289  23.729  24.144  1.00  0.00    -0.246 OA
BRANCH   6   8
ATOM      8  C   UNL A   1      46.319  23.814  26.562  1.00  0.00     0.087 C 
ATOM      9  C   UNL A   1      47.555  24.650  26.649  1.00  0.00     0.027 C 
ATOM     10  C   UNL A   1      44.507  24.508  26.691  1.00  0.00     0.316 C 
ATOM     11  C   UNL A   1      47.531  26.469  26.716  1.00  0.00     0.018 A 
ATOM     12  O   UNL A   1      44.472  26.428  26.714  1.00  0.00    -0.475 OA
ATOM     13  C   UNL A   1      48.707  27.166  26.667  1.00  0.00     0.025 A 
ATOM     14  C   UNL A   1      46.043  27.349  26.709  1.00  0.00     0.128 A 
ATOM     15  C   UNL A   1      48.583  28.576  26.597  1.00  0.00     0.056 A 
ATOM     16  C   UNL A   1      45.999  28.697  26.525  1.00  0.00     0.048 A 
ATOM     17  C   UNL A   1      47.296  29.282  26.488  1.00  0.00     0.017 A 
BRANCH  10  18
ATOM     18  C   UNL A   1      43.826  23.507  27.698  1.00  0.00     0.430 C 
ATOM     19  F   UNL A   1      44.362  23.507  28.934  1.00  0.00    -0.167 F 
ATOM     20  F   UNL A   1      42.529  23.899  27.860  1.00  0.00    -0.167 F 
ATOM     21  F   UNL A   1      43.746  22.228  27.268  1.00  0.00    -0.167 F 
ENDBRANCH  10  18
BRANCH  15  22
ATOM     22  C   UNL A   1      49.890  29.363  26.643  1.00  0.00     0.416 C 
ATOM     23  F   UNL A   1      50.632  29.040  27.743  1.00  0.00    -0.166 F 
ATOM     24  F   UNL A   1      50.691  29.097  25.575  1.00  0.00    -0.166 F 
ATOM     25  F   UNL A   1      49.730  30.710  26.682  1.00  0.00    -0.166 F 
ENDBRANCH  15  22
ENDBRANCH   6   8
ENDBRANCH   5   6
ENDBRANCH   4   5
ENDBRANCH   3   4
ENDBRANCH   2   3
ENDBRANCH   1   2
BRANCH   1  26
ATOM     26  C   UNL A   1      40.496  20.739  26.431  1.00  0.00     0.261 C 
BRANCH  26  27
ATOM     27  O   UNL A   1      40.097  21.861  27.214  1.00  0.00    -0.460 OA
BRANCH  27  28
ATOM     28  C   UNL A   1      39.353  22.763  26.532  1.00  0.00     0.338 C 
ATOM     29  O   UNL A   1      38.631  22.553  25.571  1.00  0.00    -0.246 OA
BRANCH  28  30
ATOM     30  C   UNL A   1      39.536  24.095  27.136  1.00  0.00     0.060 A 
ATOM     31  C   UNL A   1      40.213  25.061  26.383  1.00  0.00     0.016 A 
ATOM     32  C   UNL A   1      39.044  24.401  28.414  1.00  0.00     0.016 A 
ATOM     33  C   UNL A   1      40.392  26.338  26.900  1.00  0.00     0.010 A 
ATOM     34  C   UNL A   1      39.240  25.674  28.939  1.00  0.00     0.010 A 
ATOM     35  C   UNL A   1      39.927  26.636  28.187  1.00  0.00    -0.014 A 
BRANCH  35  36
ATOM     36  C   UNL A   1      40.334  27.903  28.817  1.00  0.00     0.031 A 
ATOM     37  C   UNL A   1      41.723  27.986  29.374  1.00  0.00     0.074 A 
ATOM     38  C   UNL A   1      39.489  28.946  28.862  1.00  0.00     0.049 A 
ATOM     39  N   UNL A   1      42.328  29.000  29.927  1.00  0.00    -0.248 NA
ATOM     40  C   UNL A   1      42.540  26.762  29.288  1.00  0.00     0.031 C 
ATOM     41  C   UNL A   1      38.128  28.960  28.324  1.00  0.00     0.029 A 
ATOM     42  N   UNL A   1      39.658  30.199  29.386  1.00  0.00    -0.354 N 
ATOM     43  C   UNL A   1      43.603  28.546  30.237  1.00  0.00     0.074 A 
ATOM     44  C   UNL A   1      43.673  27.154  29.849  1.00  0.00     0.031 C 
ATOM     45  C   UNL A   1      37.584  30.169  28.550  1.00  0.00     0.029 A 
ATOM     46  C   UNL A   1      38.548  31.000  29.267  1.00  0.00     0.049 A 
ATOM     47  H   UNL A   1      40.496  30.499  29.807  1.00  0.00     0.167 HD
ATOM     48  C   UNL A   1      44.627  29.234  30.791  1.00  0.00     0.031 A 
ATOM     49  C   UNL A   1      38.342  32.258  29.705  1.00  0.00     0.031 A 
ATOM     50  C   UNL A   1      44.521  30.600  31.220  1.00  0.00     0.049 A 
ATOM     51  C   UNL A   1      39.471  32.971  30.407  1.00  0.00     0.074 A 
ATOM     52  C   UNL A   1      45.488  31.396  31.805  1.00  0.00     0.029 A 
ATOM     53  N   UNL A   1      43.367  31.367  31.128  1.00  0.00    -0.354 N 
ATOM     54  N   UNL A   1      40.691  32.548  30.648  1.00  0.00    -0.248 NA
ATOM     55  C   UNL A   1      39.200  34.333  30.883  1.00  0.00     0.031 C 
ATOM     56  C   UNL A   1      44.900  32.622  32.129  1.00  0.00     0.029 A 
ATOM     57  C   UNL A   1      43.588  32.618  31.676  1.00  0.00     0.049 A 
ATOM     58  H   UNL A   1      42.519  31.065  30.732  1.00  0.00     0.167 HD
ATOM     59  C   UNL A   1      41.342  33.605  31.277  1.00  0.00     0.074 A 
ATOM     60  C   UNL A   1      40.385  34.691  31.358  1.00  0.00     0.031 C 
ATOM     61  C   UNL A   1      42.614  33.678  31.743  1.00  0.00     0.031 A 
BRANCH  48  62
ATOM     62  C   UNL A   1      45.923  28.501  30.995  1.00  0.00    -0.014 A 
ATOM     63  C   UNL A   1      46.959  28.579  30.045  1.00  0.00     0.010 A 
ATOM     64  C   UNL A   1      46.120  27.745  32.163  1.00  0.00     0.010 A 
ATOM     65  C   UNL A   1      48.158  27.894  30.250  1.00  0.00     0.020 A 
ATOM     66  C   UNL A   1      47.330  27.080  32.385  1.00  0.00     0.020 A 
ATOM     67  C   UNL A   1      48.337  27.151  31.421  1.00  0.00     0.054 A 
BRANCH  67  68
ATOM     68  S   UNL A   1      49.920  26.305  31.679  1.00  0.00     0.124 S 
ATOM     69  O   UNL A   1      50.026  25.488  30.472  1.00  0.00    -0.237 OA
ATOM     70  O   UNL A   1      50.863  27.417  31.770  1.00  0.00    -0.237 OA
ATOM     71  O   UNL A   1      49.718  25.560  32.919  1.00  0.00    -0.744 OA
ENDBRANCH  67  68
ENDBRANCH  48  62
BRANCH  49  72
ATOM     72  C   UNL A   1      37.020  32.916  29.514  1.00  0.00    -0.014 A 
ATOM     73  C   UNL A   1      36.737  33.643  28.343  1.00  0.00     0.010 A 
ATOM     74  C   UNL A   1      36.040  32.842  30.522  1.00  0.00     0.010 A 
ATOM     75  C   UNL A   1      35.515  34.309  28.199  1.00  0.00     0.020 A 
ATOM     76  C   UNL A   1      34.806  33.478  30.367  1.00  0.00     0.020 A 
ATOM     77  C   UNL A   1      34.557  34.223  29.214  1.00  0.00     0.054 A 
BRANCH  77  78
ATOM     78  S   UNL A   1      32.971  35.075  28.995  1.00  0.00     0.124 S 
ATOM     79  O   UNL A   1      32.309  34.236  28.002  1.00  0.00    -0.237 OA
ATOM     80  O   UNL A   1      32.404  35.034  30.341  1.00  0.00    -0.237 OA
ATOM     81  O   UNL A   1      33.359  36.406  28.531  1.00  0.00    -0.744 OA
ENDBRANCH  77  78
ENDBRANCH  49  72
BRANCH  61  82
ATOM     82  C   UNL A   1      43.054  34.984  32.351  1.00  0.00    -0.014 A 
ATOM     83  C   UNL A   1      43.838  35.902  31.630  1.00  0.00     0.010 A 
ATOM     84  C   UNL A   1      42.624  35.321  33.649  1.00  0.00     0.010 A 
ATOM     85  C   UNL A   1      44.219  37.114  32.211  1.00  0.00     0.020 A 
ATOM     86  C   UNL A   1      42.972  36.546  34.220  1.00  0.00     0.020 A 
ATOM     87  C   UNL A   1      43.783  37.428  33.503  1.00  0.00     0.054 A 
BRANCH  87  88
ATOM     88  S   UNL A   1      44.260  39.023  34.218  1.00  0.00     0.124 S 
ATOM     89  O   UNL A   1      45.346  39.439  33.336  1.00  0.00    -0.237 OA
ATOM     90  O   UNL A   1      43.029  39.802  34.112  1.00  0.00    -0.237 OA
ATOM     91  O   UNL A   1      44.661  38.685  35.583  1.00  0.00    -0.744 OA
ENDBRANCH  87  88
ENDBRANCH  61  82
ENDBRANCH  35  36
ENDBRANCH  28  30
ENDBRANCH  27  28
ENDBRANCH  26  27
ENDBRANCH   1  26
TORSDOF 19
ENDMDL
