MODEL 1
REMARK VINA RESULT:     -11.7      0.000      0.000
REMARK SMILES Cc1ccc(S(=O)(=O)n2cc(C(=O)C(=O)N[C@H](Cc3c[nH]c4ccccc34)C(=O)NCC(=O)OCCOCCOC(=O)c3ccc(-c4c5nc(c(-c6ccc(S(=O)(=O)[O-])cc6)c6ccc([nH]6)c(-c6ccc(S(=O)(=O)[O-])cc6)c6nc(c(-c7ccc(S(=O)(=O)[O-])cc7)c7ccc4[nH]7)C=C6)C=C5)cc3)c3ccccc32)cc1
REMARK SMILES IDX 35 1 34 2 32 3 33 4 31 5 30 6 28 7 29 8 17 10 16 11 14 12
REMARK SMILES IDX 15 13 12 15 13 16 11 17 9 18 10 19 108 20 103 21 107 22
REMARK SMILES IDX 104 23 106 24 105 25 6 26 7 27 8 28 5 29 1 30 2 31 3 32
REMARK SMILES IDX 110 33 4 34 109 35 18 36 19 37 20 38 27 39 21 40 22 41 26 42
REMARK SMILES IDX 23 44 25 45 24 46 36 47 37 48 38 49 39 50 40 51 41 52 42 53
REMARK SMILES IDX 43 54 44 55 102 56 45 57 101 58 46 59 47 60 48 61 95 62
REMARK SMILES IDX 49 63 100 64 94 65 96 66 50 67 99 68 93 69 92 70 51 72 81 73
REMARK SMILES IDX 62 74 80 75 63 76 66 77 79 78 97 79 64 80 65 81 78 83 98 84
REMARK SMILES IDX 67 85 52 86 53 87 61 88 54 89 60 90 55 91 56 92 57 93 58 94
REMARK SMILES IDX 59 95 82 96 83 97 91 98 84 99 90 100 85 101 86 102 87 103
REMARK SMILES IDX 88 104 89 105 68 106 69 107 77 108 70 109 76 110 71 111
REMARK SMILES IDX 72 112 73 113 74 114 75 115
REMARK H PARENT 30 9 16 14 21 43 96 71 66 82
REMARK Flexibility Score: inf
ROOT
ATOM      1  C   UNL A   1      39.401  28.129  28.451  1.00  0.00     0.261 C 
ENDROOT
BRANCH   1   2
ATOM      2  O   UNL A   1      40.652  27.473  28.184  1.00  0.00    -0.462 OA
BRANCH   2   3
ATOM      3  C   UNL A   1      40.660  26.534  27.210  1.00  0.00     0.325 C 
ATOM      4  O   UNL A   1      40.986  26.684  26.039  1.00  0.00    -0.250 OA
BRANCH   3   5
ATOM      5  C   UNL A   1      40.100  25.223  27.715  1.00  0.00     0.238 C 
BRANCH   5   6
ATOM      6  N   UNL A   1      38.800  24.869  27.190  1.00  0.00    -0.343 N 
ATOM      7  C   UNL A   1      38.313  23.746  26.625  1.00  0.00     0.243 C 
ATOM      8  O   UNL A   1      37.097  23.783  26.386  1.00  0.00    -0.273 OA
ATOM      9  H   UNL A   1      38.138  25.594  27.258  1.00  0.00     0.164 HD
BRANCH   7  10
ATOM     10  C   UNL A   1      39.134  22.475  26.273  1.00  0.00     0.176 C 
BRANCH  10  11
ATOM     11  N   UNL A   1      38.366  21.287  25.739  1.00  0.00    -0.337 N 
ATOM     12  C   UNL A   1      37.327  20.972  24.876  1.00  0.00     0.293 C 
ATOM     13  O   UNL A   1      37.081  19.780  24.692  1.00  0.00    -0.265 OA
ATOM     14  H   UNL A   1      38.722  20.461  26.138  1.00  0.00     0.164 HD
BRANCH  12  15
ATOM     15  C   UNL A   1      36.497  22.010  24.131  1.00  0.00     0.252 C 
ATOM     16  O   UNL A   1      37.114  22.651  23.287  1.00  0.00    -0.283 OA
BRANCH  15  17
ATOM     17  C   UNL A   1      35.090  22.356  24.419  1.00  0.00     0.054 A 
ATOM     18  N   UNL A   1      33.034  23.267  24.218  1.00  0.00    -0.240 N 
ATOM     19  C   UNL A   1      34.390  23.566  24.480  1.00  0.00     0.117 A 
ATOM     20  C   UNL A   1      33.044  21.967  23.803  1.00  0.00     0.065 A 
ATOM     21  C   UNL A   1      34.060  21.383  24.544  1.00  0.00     0.012 A 
ATOM     22  C   UNL A   1      32.268  21.242  22.947  1.00  0.00     0.028 A 
ATOM     23  C   UNL A   1      33.937  20.040  24.907  1.00  0.00     0.011 A 
ATOM     24  C   UNL A   1      32.183  19.912  23.312  1.00  0.00     0.002 A 
ATOM     25  C   UNL A   1      32.884  19.333  24.366  1.00  0.00     0.001 A 
BRANCH  18  26
ATOM     26  S   UNL A   1      31.747  23.728  25.342  1.00  0.00     0.268 S 
ATOM     27  O   UNL A   1      32.432  23.735  26.628  1.00  0.00    -0.201 OA
ATOM     28  O   UNL A   1      30.667  22.798  25.077  1.00  0.00    -0.201 OA
BRANCH  26  29
ATOM     29  C   UNL A   1      31.100  25.388  25.069  1.00  0.00     0.088 A 
ATOM     30  C   UNL A   1      30.317  29.416  23.613  1.00  0.00     0.044 C 
ATOM     31  C   UNL A   1      30.490  28.021  24.146  1.00  0.00    -0.051 A 
ATOM     32  C   UNL A   1      31.286  27.819  25.265  1.00  0.00     0.005 A 
ATOM     33  C   UNL A   1      29.958  26.897  23.514  1.00  0.00     0.005 A 
ATOM     34  C   UNL A   1      31.606  26.519  25.703  1.00  0.00     0.022 A 
ATOM     35  C   UNL A   1      30.260  25.597  23.968  1.00  0.00     0.022 A 
ENDBRANCH  26  29
ENDBRANCH  18  26
ENDBRANCH  15  17
ENDBRANCH  12  15
ENDBRANCH  10  11
BRANCH  10  36
ATOM     36  C   UNL A   1      40.448  22.258  27.073  1.00  0.00     0.072 C 
BRANCH  36  37
ATOM     37  C   UNL A   1      41.726  21.977  26.286  1.00  0.00    -0.020 A 
ATOM     38  C   UNL A   1      42.474  22.952  25.650  1.00  0.00     0.087 A 
ATOM     39  C   UNL A   1      42.470  20.752  26.091  1.00  0.00     0.003 A 
ATOM     40  N   UNL A   1      43.507  22.378  24.962  1.00  0.00    -0.361 N 
ATOM     41  C   UNL A   1      43.552  21.036  25.247  1.00  0.00     0.046 A 
ATOM     42  C   UNL A   1      42.334  19.420  26.540  1.00  0.00     0.010 A 
ATOM     43  H   UNL A   1      44.122  22.853  24.356  1.00  0.00     0.166 HD
ATOM     44  C   UNL A   1      44.473  20.069  24.817  1.00  0.00     0.026 A 
ATOM     45  C   UNL A   1      43.253  18.440  26.128  1.00  0.00     0.001 A 
ATOM     46  C   UNL A   1      44.304  18.762  25.273  1.00  0.00     0.002 A 
ENDBRANCH  36  37
ENDBRANCH  10  36
ENDBRANCH   7  10
ENDBRANCH   5   6
ENDBRANCH   3   5
ENDBRANCH   2   3
ENDBRANCH   1   2
BRANCH   1  47
ATOM     47  C   UNL A   1      39.422  29.451  27.712  1.00  0.00     0.202 C 
BRANCH  47  48
ATOM     48  O   UNL A   1      38.077  29.716  27.300  1.00  0.00    -0.374 OA
BRANCH  48  49
ATOM     49  C   UNL A   1      37.057  29.062  28.037  1.00  0.00     0.202 C 
BRANCH  49  50
ATOM     50  C   UNL A   1      35.748  29.855  28.114  1.00  0.00     0.261 C 
BRANCH  50  51
ATOM     51  O   UNL A   1      35.962  31.249  27.814  1.00  0.00    -0.460 OA
BRANCH  51  52
ATOM     52  C   UNL A   1      35.789  32.081  28.881  1.00  0.00     0.338 C 
ATOM     53  O   UNL A   1      34.699  32.403  29.321  1.00  0.00    -0.246 OA
BRANCH  52  54
ATOM     54  C   UNL A   1      37.099  32.518  29.423  1.00  0.00     0.060 A 
ATOM     55  C   UNL A   1      37.844  31.677  30.266  1.00  0.00     0.016 A 
ATOM     56  C   UNL A   1      37.488  33.837  29.232  1.00  0.00     0.016 A 
ATOM     57  C   UNL A   1      38.922  32.192  31.001  1.00  0.00     0.010 A 
ATOM     58  C   UNL A   1      38.457  34.365  30.056  1.00  0.00     0.010 A 
ATOM     59  C   UNL A   1      39.198  33.554  30.934  1.00  0.00    -0.014 A 
BRANCH  59  60
ATOM     60  C   UNL A   1      40.166  34.295  31.753  1.00  0.00     0.031 A 
ATOM     61  C   UNL A   1      39.754  34.659  33.168  1.00  0.00     0.074 A 
ATOM     62  C   UNL A   1      41.460  34.238  31.353  1.00  0.00     0.049 A 
ATOM     63  N   UNL A   1      40.436  35.356  34.024  1.00  0.00    -0.248 NA
ATOM     64  C   UNL A   1      38.439  34.260  33.721  1.00  0.00     0.031 C 
ATOM     65  C   UNL A   1      42.616  34.109  32.218  1.00  0.00     0.029 A 
ATOM     66  N   UNL A   1      42.061  34.302  30.097  1.00  0.00    -0.354 N 
ATOM     67  C   UNL A   1      39.811  35.208  35.257  1.00  0.00     0.074 A 
ATOM     68  C   UNL A   1      38.563  34.544  35.016  1.00  0.00     0.031 C 
ATOM     69  C   UNL A   1      43.755  34.310  31.555  1.00  0.00     0.029 A 
ATOM     70  C   UNL A   1      43.351  34.838  30.286  1.00  0.00     0.049 A 
ATOM     71  H   UNL A   1      41.661  34.025  29.241  1.00  0.00     0.167 HD
ATOM     72  C   UNL A   1      40.425  35.479  36.440  1.00  0.00     0.031 A 
ATOM     73  C   UNL A   1      43.754  36.071  29.871  1.00  0.00     0.031 A 
ATOM     74  C   UNL A   1      41.728  36.134  36.332  1.00  0.00     0.049 A 
ATOM     75  C   UNL A   1      44.125  36.994  31.021  1.00  0.00     0.074 A 
ATOM     76  C   UNL A   1      42.918  35.982  37.015  1.00  0.00     0.029 A 
ATOM     77  N   UNL A   1      42.024  36.995  35.262  1.00  0.00    -0.354 N 
ATOM     78  N   UNL A   1      43.565  37.016  32.211  1.00  0.00    -0.248 NA
ATOM     79  C   UNL A   1      45.251  37.916  30.901  1.00  0.00     0.031 C 
ATOM     80  C   UNL A   1      43.959  36.465  36.182  1.00  0.00     0.029 A 
ATOM     81  C   UNL A   1      43.383  37.191  35.152  1.00  0.00     0.049 A 
ATOM     82  H   UNL A   1      41.351  37.404  34.670  1.00  0.00     0.167 HD
ATOM     83  C   UNL A   1      44.235  37.937  32.995  1.00  0.00     0.074 A 
ATOM     84  C   UNL A   1      45.280  38.459  32.127  1.00  0.00     0.031 C 
ATOM     85  C   UNL A   1      43.994  38.215  34.314  1.00  0.00     0.031 A 
BRANCH  72  86
ATOM     86  C   UNL A   1      39.932  34.711  37.656  1.00  0.00    -0.014 A 
ATOM     87  C   UNL A   1      39.148  35.352  38.643  1.00  0.00     0.010 A 
ATOM     88  C   UNL A   1      40.262  33.372  37.897  1.00  0.00     0.010 A 
ATOM     89  C   UNL A   1      38.595  34.672  39.743  1.00  0.00     0.020 A 
ATOM     90  C   UNL A   1      39.739  32.683  39.013  1.00  0.00     0.020 A 
ATOM     91  C   UNL A   1      38.872  33.323  39.906  1.00  0.00     0.054 A 
BRANCH  91  92
ATOM     92  S   UNL A   1      38.047  32.352  41.208  1.00  0.00     0.124 S 
ATOM     93  O   UNL A   1      36.901  31.749  40.533  1.00  0.00    -0.237 OA
ATOM     94  O   UNL A   1      39.091  31.408  41.601  1.00  0.00    -0.237 OA
ATOM     95  O   UNL A   1      37.719  33.373  42.199  1.00  0.00    -0.744 OA
ENDBRANCH  91  92
ENDBRANCH  72  86
BRANCH  73  96
ATOM     96  C   UNL A   1      43.268  36.441  28.512  1.00  0.00    -0.014 A 
ATOM     97  C   UNL A   1      42.080  37.206  28.522  1.00  0.00     0.010 A 
ATOM     98  C   UNL A   1      44.221  36.666  27.502  1.00  0.00     0.010 A 
ATOM     99  C   UNL A   1      42.019  38.392  27.794  1.00  0.00     0.020 A 
ATOM    100  C   UNL A   1      44.159  37.859  26.766  1.00  0.00     0.020 A 
ATOM    101  C   UNL A   1      43.119  38.761  27.019  1.00  0.00     0.054 A 
BRANCH 101 102
ATOM    102  S   UNL A   1      43.350  40.539  26.697  1.00  0.00     0.124 S 
ATOM    103  O   UNL A   1      43.989  41.010  27.920  1.00  0.00    -0.237 OA
ATOM    104  O   UNL A   1      44.223  40.513  25.523  1.00  0.00    -0.237 OA
ATOM    105  O   UNL A   1      41.994  41.017  26.455  1.00  0.00    -0.744 OA
ENDBRANCH 101 102
ENDBRANCH  73  96
BRANCH  85 106
ATOM    106  C   UNL A   1      44.505  39.453  35.061  1.00  0.00    -0.014 A 
ATOM    107  C   UNL A   1      45.138  39.428  36.311  1.00  0.00     0.010 A 
ATOM    108  C   UNL A   1      44.486  40.715  34.406  1.00  0.00     0.010 A 
ATOM    109  C   UNL A   1      45.636  40.603  36.902  1.00  0.00     0.020 A 
ATOM    110  C   UNL A   1      44.981  41.886  34.974  1.00  0.00     0.020 A 
ATOM    111  C   UNL A   1      45.547  41.824  36.233  1.00  0.00     0.054 A 
BRANCH 111 112
ATOM    112  S   UNL A   1      46.273  43.310  36.959  1.00  0.00     0.124 S 
ATOM    113  O   UNL A   1      47.658  42.897  37.171  1.00  0.00    -0.237 OA
ATOM    114  O   UNL A   1      46.066  44.307  35.913  1.00  0.00    -0.237 OA
ATOM    115  O   UNL A   1      45.493  43.523  38.177  1.00  0.00    -0.744 OA
ENDBRANCH 111 112
ENDBRANCH  85 106
ENDBRANCH  59  60
ENDBRANCH  52  54
ENDBRANCH  51  52
ENDBRANCH  50  51
ENDBRANCH  49  50
ENDBRANCH  48  49
ENDBRANCH  47  48
ENDBRANCH   1  47
TORSDOF 26
ENDMDL
MODEL 2
REMARK VINA RESULT:     -11.0      1.874      2.253
REMARK SMILES Cc1ccc(S(=O)(=O)n2cc(C(=O)C(=O)N[C@H](Cc3c[nH]c4ccccc34)C(=O)NCC(=O)OCCOCCOC(=O)c3ccc(-c4c5nc(c(-c6ccc(S(=O)(=O)[O-])cc6)c6ccc([nH]6)c(-c6ccc(S(=O)(=O)[O-])cc6)c6nc(c(-c7ccc(S(=O)(=O)[O-])cc7)c7ccc4[nH]7)C=C6)C=C5)cc3)c3ccccc32)cc1
REMARK SMILES IDX 35 1 34 2 32 3 33 4 31 5 30 6 28 7 29 8 17 10 16 11 14 12
REMARK SMILES IDX 15 13 12 15 13 16 11 17 9 18 10 19 108 20 103 21 107 22
REMARK SMILES IDX 104 23 106 24 105 25 6 26 7 27 8 28 5 29 1 30 2 31 3 32
REMARK SMILES IDX 110 33 4 34 109 35 18 36 19 37 20 38 27 39 21 40 22 41 26 42
REMARK SMILES IDX 23 44 25 45 24 46 36 47 37 48 38 49 39 50 40 51 41 52 42 53
REMARK SMILES IDX 43 54 44 55 102 56 45 57 101 58 46 59 47 60 48 61 95 62
REMARK SMILES IDX 49 63 100 64 94 65 96 66 50 67 99 68 93 69 92 70 51 72 81 73
REMARK SMILES IDX 62 74 80 75 63 76 66 77 79 78 97 79 64 80 65 81 78 83 98 84
REMARK SMILES IDX 67 85 52 86 53 87 61 88 54 89 60 90 55 91 56 92 57 93 58 94
REMARK SMILES IDX 59 95 82 96 83 97 91 98 84 99 90 100 85 101 86 102 87 103
REMARK SMILES IDX 88 104 89 105 68 106 69 107 77 108 70 109 76 110 71 111
REMARK SMILES IDX 72 112 73 113 74 114 75 115
REMARK H PARENT 30 9 16 14 21 43 96 71 66 82
REMARK Flexibility Score: inf
ROOT
ATOM      1  C   UNL A   1      40.138  27.823  29.304  1.00  0.00     0.261 C 
ENDROOT
BRANCH   1   2
ATOM      2  O   UNL A   1      41.279  27.033  28.929  1.00  0.00    -0.462 OA
BRANCH   2   3
ATOM      3  C   UNL A   1      41.098  26.109  27.959  1.00  0.00     0.325 C 
ATOM      4  O   UNL A   1      41.664  26.052  26.875  1.00  0.00    -0.250 OA
BRANCH   3   5
ATOM      5  C   UNL A   1      39.988  25.149  28.323  1.00  0.00     0.238 C 
BRANCH   5   6
ATOM      6  N   UNL A   1      38.923  25.043  27.350  1.00  0.00    -0.343 N 
ATOM      7  C   UNL A   1      38.491  24.036  26.567  1.00  0.00     0.243 C 
ATOM      8  O   UNL A   1      37.467  24.297  25.921  1.00  0.00    -0.273 OA
ATOM      9  H   UNL A   1      38.410  25.876  27.238  1.00  0.00     0.164 HD
BRANCH   7  10
ATOM     10  C   UNL A   1      39.161  22.640  26.429  1.00  0.00     0.176 C 
BRANCH  10  11
ATOM     11  N   UNL A   1      38.267  21.485  26.042  1.00  0.00    -0.337 N 
ATOM     12  C   UNL A   1      37.232  21.163  25.175  1.00  0.00     0.293 C 
ATOM     13  O   UNL A   1      36.840  19.996  25.166  1.00  0.00    -0.265 OA
ATOM     14  H   UNL A   1      38.494  20.697  26.586  1.00  0.00     0.164 HD
BRANCH  12  15
ATOM     15  C   UNL A   1      36.578  22.158  24.226  1.00  0.00     0.252 C 
ATOM     16  O   UNL A   1      37.284  22.515  23.289  1.00  0.00    -0.283 OA
BRANCH  15  17
ATOM     17  C   UNL A   1      35.250  22.777  24.408  1.00  0.00     0.054 A 
ATOM     18  N   UNL A   1      33.474  24.141  24.118  1.00  0.00    -0.240 N 
ATOM     19  C   UNL A   1      34.816  24.099  24.558  1.00  0.00     0.117 A 
ATOM     20  C   UNL A   1      33.267  22.925  23.535  1.00  0.00     0.065 A 
ATOM     21  C   UNL A   1      34.031  22.052  24.293  1.00  0.00     0.012 A 
ATOM     22  C   UNL A   1      32.475  22.490  22.513  1.00  0.00     0.028 A 
ATOM     23  C   UNL A   1      33.583  20.739  24.458  1.00  0.00     0.011 A 
ATOM     24  C   UNL A   1      32.066  21.181  22.685  1.00  0.00     0.002 A 
ATOM     25  C   UNL A   1      32.486  20.349  23.719  1.00  0.00     0.001 A 
BRANCH  18  26
ATOM     26  S   UNL A   1      32.176  24.754  25.152  1.00  0.00     0.268 S 
ATOM     27  O   UNL A   1      32.081  23.733  26.187  1.00  0.00    -0.201 OA
ATOM     28  O   UNL A   1      31.068  25.010  24.253  1.00  0.00    -0.201 OA
BRANCH  26  29
ATOM     29  C   UNL A   1      32.569  26.311  25.971  1.00  0.00     0.088 A 
ATOM     30  C   UNL A   1      32.823  30.486  27.179  1.00  0.00     0.044 C 
ATOM     31  C   UNL A   1      32.758  29.020  26.859  1.00  0.00    -0.051 A 
ATOM     32  C   UNL A   1      33.730  28.462  26.040  1.00  0.00     0.005 A 
ATOM     33  C   UNL A   1      31.708  28.200  27.273  1.00  0.00     0.005 A 
ATOM     34  C   UNL A   1      33.621  27.135  25.584  1.00  0.00     0.022 A 
ATOM     35  C   UNL A   1      31.613  26.863  26.834  1.00  0.00     0.022 A 
ENDBRANCH  26  29
ENDBRANCH  18  26
ENDBRANCH  15  17
ENDBRANCH  12  15
ENDBRANCH  10  11
BRANCH  10  36
ATOM     36  C   UNL A   1      40.425  22.391  27.298  1.00  0.00     0.072 C 
BRANCH  36  37
ATOM     37  C   UNL A   1      41.533  21.520  26.714  1.00  0.00    -0.020 A 
ATOM     38  C   UNL A   1      41.631  20.154  26.912  1.00  0.00     0.087 A 
ATOM     39  C   UNL A   1      42.619  21.842  25.815  1.00  0.00     0.003 A 
ATOM     40  N   UNL A   1      42.775  19.675  26.337  1.00  0.00    -0.361 N 
ATOM     41  C   UNL A   1      43.379  20.679  25.624  1.00  0.00     0.046 A 
ATOM     42  C   UNL A   1      43.046  23.010  25.143  1.00  0.00     0.010 A 
ATOM     43  H   UNL A   1      43.112  18.753  26.420  1.00  0.00     0.166 HD
ATOM     44  C   UNL A   1      44.535  20.632  24.830  1.00  0.00     0.026 A 
ATOM     45  C   UNL A   1      44.195  22.978  24.336  1.00  0.00     0.001 A 
ATOM     46  C   UNL A   1      44.931  21.805  24.188  1.00  0.00     0.002 A 
ENDBRANCH  36  37
ENDBRANCH  10  36
ENDBRANCH   7  10
ENDBRANCH   5   6
ENDBRANCH   3   5
ENDBRANCH   2   3
ENDBRANCH   1   2
BRANCH   1  47
ATOM     47  C   UNL A   1      40.157  29.073  28.448  1.00  0.00     0.202 C 
BRANCH  47  48
ATOM     48  O   UNL A   1      38.895  29.133  27.777  1.00  0.00    -0.374 OA
BRANCH  48  49
ATOM     49  C   UNL A   1      37.755  28.814  28.557  1.00  0.00     0.202 C 
BRANCH  49  50
ATOM     50  C   UNL A   1      36.530  29.677  28.241  1.00  0.00     0.261 C 
BRANCH  50  51
ATOM     51  O   UNL A   1      36.904  31.048  27.994  1.00  0.00    -0.460 OA
BRANCH  51  52
ATOM     52  C   UNL A   1      36.681  31.884  29.048  1.00  0.00     0.338 C 
ATOM     53  O   UNL A   1      35.572  32.165  29.468  1.00  0.00    -0.246 OA
BRANCH  52  54
ATOM     54  C   UNL A   1      37.963  32.383  29.602  1.00  0.00     0.060 A 
ATOM     55  C   UNL A   1      38.722  31.593  30.481  1.00  0.00     0.016 A 
ATOM     56  C   UNL A   1      38.307  33.711  29.383  1.00  0.00     0.016 A 
ATOM     57  C   UNL A   1      39.766  32.167  31.222  1.00  0.00     0.010 A 
ATOM     58  C   UNL A   1      39.240  34.296  30.211  1.00  0.00     0.010 A 
ATOM     59  C   UNL A   1      39.993  33.536  31.123  1.00  0.00    -0.014 A 
BRANCH  59  60
ATOM     60  C   UNL A   1      40.917  34.334  31.940  1.00  0.00     0.031 A 
ATOM     61  C   UNL A   1      40.434  34.785  33.307  1.00  0.00     0.074 A 
ATOM     62  C   UNL A   1      42.230  34.258  31.610  1.00  0.00     0.049 A 
ATOM     63  N   UNL A   1      41.070  35.540  34.149  1.00  0.00    -0.248 NA
ATOM     64  C   UNL A   1      39.094  34.415  33.818  1.00  0.00     0.031 C 
ATOM     65  C   UNL A   1      43.341  34.192  32.537  1.00  0.00     0.029 A 
ATOM     66  N   UNL A   1      42.892  34.245  30.383  1.00  0.00    -0.354 N 
ATOM     67  C   UNL A   1      40.385  35.468  35.357  1.00  0.00     0.074 A 
ATOM     68  C   UNL A   1      39.152  34.782  35.097  1.00  0.00     0.031 C 
ATOM     69  C   UNL A   1      44.511  34.357  31.920  1.00  0.00     0.029 A 
ATOM     70  C   UNL A   1      44.170  34.800  30.601  1.00  0.00     0.049 A 
ATOM     71  H   UNL A   1      42.536  33.912  29.528  1.00  0.00     0.167 HD
ATOM     72  C   UNL A   1      40.938  35.817  36.548  1.00  0.00     0.031 A 
ATOM     73  C   UNL A   1      44.590  36.006  30.128  1.00  0.00     0.031 A 
ATOM     74  C   UNL A   1      42.243  36.471  36.464  1.00  0.00     0.049 A 
ATOM     75  C   UNL A   1      44.901  37.004  31.233  1.00  0.00     0.074 A 
ATOM     76  C   UNL A   1      43.398  36.371  37.213  1.00  0.00     0.029 A 
ATOM     77  N   UNL A   1      42.591  37.264  35.356  1.00  0.00    -0.354 N 
ATOM     78  N   UNL A   1      44.282  37.099  32.391  1.00  0.00    -0.248 NA
ATOM     79  C   UNL A   1      46.029  37.922  31.111  1.00  0.00     0.031 C 
ATOM     80  C   UNL A   1      44.478  36.805  36.403  1.00  0.00     0.029 A 
ATOM     81  C   UNL A   1      43.953  37.461  35.301  1.00  0.00     0.049 A 
ATOM     82  H   UNL A   1      41.947  37.630  34.707  1.00  0.00     0.167 HD
ATOM     83  C   UNL A   1      44.909  38.072  33.146  1.00  0.00     0.074 A 
ATOM     84  C   UNL A   1      45.995  38.543  32.299  1.00  0.00     0.031 C 
ATOM     85  C   UNL A   1      44.602  38.432  34.430  1.00  0.00     0.031 A 
BRANCH  72  86
ATOM     86  C   UNL A   1      40.388  35.126  37.785  1.00  0.00    -0.014 A 
ATOM     87  C   UNL A   1      39.486  35.798  38.644  1.00  0.00     0.010 A 
ATOM     88  C   UNL A   1      40.772  33.837  38.172  1.00  0.00     0.010 A 
ATOM     89  C   UNL A   1      38.880  35.179  39.753  1.00  0.00     0.020 A 
ATOM     90  C   UNL A   1      40.195  33.214  39.301  1.00  0.00     0.020 A 
ATOM     91  C   UNL A   1      39.219  33.870  40.059  1.00  0.00     0.054 A 
BRANCH  91  92
ATOM     92  S   UNL A   1      38.342  32.963  41.373  1.00  0.00     0.124 S 
ATOM     93  O   UNL A   1      38.468  31.560  40.984  1.00  0.00    -0.237 OA
ATOM     94  O   UNL A   1      39.096  33.337  42.567  1.00  0.00    -0.237 OA
ATOM     95  O   UNL A   1      36.992  33.513  41.286  1.00  0.00    -0.744 OA
ENDBRANCH  91  92
ENDBRANCH  72  86
BRANCH  73  96
ATOM     96  C   UNL A   1      44.171  36.286  28.726  1.00  0.00    -0.014 A 
ATOM     97  C   UNL A   1      45.245  36.597  27.862  1.00  0.00     0.010 A 
ATOM     98  C   UNL A   1      43.055  35.597  28.215  1.00  0.00     0.010 A 
ATOM     99  C   UNL A   1      45.370  35.923  26.650  1.00  0.00     0.020 A 
ATOM    100  C   UNL A   1      43.180  34.920  26.993  1.00  0.00     0.020 A 
ATOM    101  C   UNL A   1      44.389  34.997  26.292  1.00  0.00     0.054 A 
BRANCH 101 102
ATOM    102  S   UNL A   1      44.888  33.650  25.172  1.00  0.00     0.124 S 
ATOM    103  O   UNL A   1      45.942  32.977  25.922  1.00  0.00    -0.237 OA
ATOM    104  O   UNL A   1      43.642  32.891  25.055  1.00  0.00    -0.237 OA
ATOM    105  O   UNL A   1      45.306  34.352  23.964  1.00  0.00    -0.744 OA
ENDBRANCH 101 102
ENDBRANCH  73  96
BRANCH  85 106
ATOM    106  C   UNL A   1      45.072  39.718  35.121  1.00  0.00    -0.014 A 
ATOM    107  C   UNL A   1      44.233  40.776  35.497  1.00  0.00     0.010 A 
ATOM    108  C   UNL A   1      46.420  39.816  35.561  1.00  0.00     0.010 A 
ATOM    109  C   UNL A   1      44.734  41.897  36.185  1.00  0.00     0.020 A 
ATOM    110  C   UNL A   1      46.930  40.913  36.250  1.00  0.00     0.020 A 
ATOM    111  C   UNL A   1      46.079  41.960  36.550  1.00  0.00     0.054 A 
BRANCH 111 112
ATOM    112  S   UNL A   1      46.691  43.359  37.515  1.00  0.00     0.124 S 
ATOM    113  O   UNL A   1      46.199  44.497  36.744  1.00  0.00    -0.237 OA
ATOM    114  O   UNL A   1      46.051  43.152  38.812  1.00  0.00    -0.237 OA
ATOM    115  O   UNL A   1      48.142  43.182  37.509  1.00  0.00    -0.744 OA
ENDBRANCH 111 112
ENDBRANCH  85 106
ENDBRANCH  59  60
ENDBRANCH  52  54
ENDBRANCH  51  52
ENDBRANCH  50  51
ENDBRANCH  49  50
ENDBRANCH  48  49
ENDBRANCH  47  48
ENDBRANCH   1  47
TORSDOF 26
ENDMDL
MODEL 3
REMARK VINA RESULT:     -11.0      3.873      7.531
REMARK SMILES Cc1ccc(S(=O)(=O)n2cc(C(=O)C(=O)N[C@H](Cc3c[nH]c4ccccc34)C(=O)NCC(=O)OCCOCCOC(=O)c3ccc(-c4c5nc(c(-c6ccc(S(=O)(=O)[O-])cc6)c6ccc([nH]6)c(-c6ccc(S(=O)(=O)[O-])cc6)c6nc(c(-c7ccc(S(=O)(=O)[O-])cc7)c7ccc4[nH]7)C=C6)C=C5)cc3)c3ccccc32)cc1
REMARK SMILES IDX 35 1 34 2 32 3 33 4 31 5 30 6 28 7 29 8 17 10 16 11 14 12
REMARK SMILES IDX 15 13 12 15 13 16 11 17 9 18 10 19 108 20 103 21 107 22
REMARK SMILES IDX 104 23 106 24 105 25 6 26 7 27 8 28 5 29 1 30 2 31 3 32
REMARK SMILES IDX 110 33 4 34 109 35 18 36 19 37 20 38 27 39 21 40 22 41 26 42
REMARK SMILES IDX 23 44 25 45 24 46 36 47 37 48 38 49 39 50 40 51 41 52 42 53
REMARK SMILES IDX 43 54 44 55 102 56 45 57 101 58 46 59 47 60 48 61 95 62
REMARK SMILES IDX 49 63 100 64 94 65 96 66 50 67 99 68 93 69 92 70 51 72 81 73
REMARK SMILES IDX 62 74 80 75 63 76 66 77 79 78 97 79 64 80 65 81 78 83 98 84
REMARK SMILES IDX 67 85 52 86 53 87 61 88 54 89 60 90 55 91 56 92 57 93 58 94
REMARK SMILES IDX 59 95 82 96 83 97 91 98 84 99 90 100 85 101 86 102 87 103
REMARK SMILES IDX 88 104 89 105 68 106 69 107 77 108 70 109 76 110 71 111
REMARK SMILES IDX 72 112 73 113 74 114 75 115
REMARK H PARENT 30 9 16 14 21 43 96 71 66 82
REMARK Flexibility Score: inf
ROOT
ATOM      1  C   UNL A   1      40.175  28.082  27.540  1.00  0.00     0.261 C 
ENDROOT
BRANCH   1   2
ATOM      2  O   UNL A   1      41.552  28.128  27.131  1.00  0.00    -0.462 OA
BRANCH   2   3
ATOM      3  C   UNL A   1      41.824  27.811  25.845  1.00  0.00     0.325 C 
ATOM      4  O   UNL A   1      41.921  28.579  24.896  1.00  0.00    -0.250 OA
BRANCH   3   5
ATOM      5  C   UNL A   1      41.907  26.312  25.662  1.00  0.00     0.238 C 
BRANCH   5   6
ATOM      6  N   UNL A   1      40.877  25.554  26.336  1.00  0.00    -0.343 N 
ATOM      7  C   UNL A   1      40.832  24.299  26.825  1.00  0.00     0.243 C 
ATOM      8  O   UNL A   1      39.790  24.028  27.438  1.00  0.00    -0.273 OA
ATOM      9  H   UNL A   1      40.040  26.055  26.463  1.00  0.00     0.164 HD
BRANCH   7  10
ATOM     10  C   UNL A   1      41.946  23.225  26.677  1.00  0.00     0.176 C 
BRANCH  10  11
ATOM     11  N   UNL A   1      42.874  23.031  27.855  1.00  0.00    -0.337 N 
ATOM     12  C   UNL A   1      43.742  23.738  28.674  1.00  0.00     0.293 C 
ATOM     13  O   UNL A   1      44.259  23.132  29.612  1.00  0.00    -0.265 OA
ATOM     14  H   UNL A   1      42.855  22.087  28.134  1.00  0.00     0.164 HD
BRANCH  12  15
ATOM     15  C   UNL A   1      44.069  25.214  28.491  1.00  0.00     0.252 C 
ATOM     16  O   UNL A   1      43.297  25.984  29.052  1.00  0.00    -0.283 OA
BRANCH  15  17
ATOM     17  C   UNL A   1      45.142  25.759  27.636  1.00  0.00     0.054 A 
ATOM     18  N   UNL A   1      46.261  27.125  26.228  1.00  0.00    -0.240 N 
ATOM     19  C   UNL A   1      45.179  26.220  26.315  1.00  0.00     0.117 A 
ATOM     20  C   UNL A   1      46.651  27.317  27.521  1.00  0.00     0.065 A 
ATOM     21  C   UNL A   1      46.437  26.088  28.125  1.00  0.00     0.012 A 
ATOM     22  C   UNL A   1      47.211  28.363  28.193  1.00  0.00     0.028 A 
ATOM     23  C   UNL A   1      47.288  25.692  29.159  1.00  0.00     0.011 A 
ATOM     24  C   UNL A   1      48.028  27.948  29.228  1.00  0.00     0.002 A 
ATOM     25  C   UNL A   1      48.193  26.623  29.624  1.00  0.00     0.001 A 
BRANCH  18  26
ATOM     26  S   UNL A   1      47.551  26.917  25.035  1.00  0.00     0.268 S 
ATOM     27  O   UNL A   1      47.539  28.190  24.325  1.00  0.00    -0.201 OA
ATOM     28  O   UNL A   1      47.236  25.678  24.351  1.00  0.00    -0.201 OA
BRANCH  26  29
ATOM     29  C   UNL A   1      49.190  26.724  25.759  1.00  0.00     0.088 A 
ATOM     30  C   UNL A   1      52.588  26.395  28.462  1.00  0.00     0.044 C 
ATOM     31  C   UNL A   1      51.467  26.450  27.463  1.00  0.00    -0.051 A 
ATOM     32  C   UNL A   1      51.183  27.653  26.830  1.00  0.00     0.005 A 
ATOM     33  C   UNL A   1      50.630  25.364  27.203  1.00  0.00     0.005 A 
ATOM     34  C   UNL A   1      50.046  27.791  26.011  1.00  0.00     0.022 A 
ATOM     35  C   UNL A   1      49.505  25.499  26.362  1.00  0.00     0.022 A 
ENDBRANCH  26  29
ENDBRANCH  18  26
ENDBRANCH  15  17
ENDBRANCH  12  15
ENDBRANCH  10  11
BRANCH  10  36
ATOM     36  C   UNL A   1      42.449  22.945  25.234  1.00  0.00     0.072 C 
BRANCH  36  37
ATOM     37  C   UNL A   1      43.872  22.421  25.061  1.00  0.00    -0.020 A 
ATOM     38  C   UNL A   1      44.977  23.230  24.863  1.00  0.00     0.087 A 
ATOM     39  C   UNL A   1      44.404  21.078  25.141  1.00  0.00     0.003 A 
ATOM     40  N   UNL A   1      46.091  22.463  24.658  1.00  0.00    -0.361 N 
ATOM     41  C   UNL A   1      45.777  21.143  24.863  1.00  0.00     0.046 A 
ATOM     42  C   UNL A   1      43.861  19.804  25.416  1.00  0.00     0.010 A 
ATOM     43  H   UNL A   1      46.979  22.805  24.404  1.00  0.00     0.166 HD
ATOM     44  C   UNL A   1      46.612  20.016  24.821  1.00  0.00     0.026 A 
ATOM     45  C   UNL A   1      44.684  18.666  25.388  1.00  0.00     0.001 A 
ATOM     46  C   UNL A   1      46.040  18.773  25.089  1.00  0.00     0.002 A 
ENDBRANCH  36  37
ENDBRANCH  10  36
ENDBRANCH   7  10
ENDBRANCH   5   6
ENDBRANCH   3   5
ENDBRANCH   2   3
ENDBRANCH   1   2
BRANCH   1  47
ATOM     47  C   UNL A   1      39.718  29.512  27.744  1.00  0.00     0.202 C 
BRANCH  47  48
ATOM     48  O   UNL A   1      38.362  29.580  27.293  1.00  0.00    -0.374 OA
BRANCH  48  49
ATOM     49  C   UNL A   1      37.393  28.967  28.127  1.00  0.00     0.202 C 
BRANCH  49  50
ATOM     50  C   UNL A   1      36.063  29.726  28.189  1.00  0.00     0.261 C 
BRANCH  50  51
ATOM     51  O   UNL A   1      36.235  31.114  27.836  1.00  0.00    -0.460 OA
BRANCH  51  52
ATOM     52  C   UNL A   1      36.040  31.979  28.871  1.00  0.00     0.338 C 
ATOM     53  O   UNL A   1      34.942  32.298  29.292  1.00  0.00    -0.246 OA
BRANCH  52  54
ATOM     54  C   UNL A   1      37.339  32.457  29.407  1.00  0.00     0.060 A 
ATOM     55  C   UNL A   1      38.112  31.643  30.250  1.00  0.00     0.016 A 
ATOM     56  C   UNL A   1      37.688  33.787  29.208  1.00  0.00     0.016 A 
ATOM     57  C   UNL A   1      39.177  32.193  30.979  1.00  0.00     0.010 A 
ATOM     58  C   UNL A   1      38.644  34.347  30.026  1.00  0.00     0.010 A 
ATOM     59  C   UNL A   1      39.412  33.562  30.905  1.00  0.00    -0.014 A 
BRANCH  59  60
ATOM     60  C   UNL A   1      40.361  34.335  31.717  1.00  0.00     0.031 A 
ATOM     61  C   UNL A   1      39.916  34.752  33.108  1.00  0.00     0.074 A 
ATOM     62  C   UNL A   1      41.664  34.265  31.349  1.00  0.00     0.049 A 
ATOM     63  N   UNL A   1      40.578  35.482  33.952  1.00  0.00    -0.248 NA
ATOM     64  C   UNL A   1      38.589  34.372  33.645  1.00  0.00     0.031 C 
ATOM     65  C   UNL A   1      42.800  34.171  32.244  1.00  0.00     0.029 A 
ATOM     66  N   UNL A   1      42.293  34.282  30.105  1.00  0.00    -0.354 N 
ATOM     67  C   UNL A   1      39.925  35.380  35.175  1.00  0.00     0.074 A 
ATOM     68  C   UNL A   1      38.684  34.704  34.931  1.00  0.00     0.031 C 
ATOM     69  C   UNL A   1      43.953  34.349  31.599  1.00  0.00     0.029 A 
ATOM     70  C   UNL A   1      43.578  34.827  30.302  1.00  0.00     0.049 A 
ATOM     71  H   UNL A   1      41.912  33.973  29.251  1.00  0.00     0.167 HD
ATOM     72  C   UNL A   1      40.512  35.696  36.360  1.00  0.00     0.031 A 
ATOM     73  C   UNL A   1      43.989  36.044  29.850  1.00  0.00     0.031 A 
ATOM     74  C   UNL A   1      41.817  36.348  36.257  1.00  0.00     0.049 A 
ATOM     75  C   UNL A   1      44.333  37.012  30.972  1.00  0.00     0.074 A 
ATOM     76  C   UNL A   1      42.991  36.225  36.972  1.00  0.00     0.029 A 
ATOM     77  N   UNL A   1      42.137  37.169  35.162  1.00  0.00    -0.354 N 
ATOM     78  N   UNL A   1      43.746  37.078  32.148  1.00  0.00    -0.248 NA
ATOM     79  C   UNL A   1      45.461  37.930  30.844  1.00  0.00     0.031 C 
ATOM     80  C   UNL A   1      44.051  36.677  36.145  1.00  0.00     0.029 A 
ATOM     81  C   UNL A   1      43.498  37.363  35.075  1.00  0.00     0.049 A 
ATOM     82  H   UNL A   1      41.477  37.554  34.540  1.00  0.00     0.167 HD
ATOM     83  C   UNL A   1      44.398  38.028  32.911  1.00  0.00     0.074 A 
ATOM     84  C   UNL A   1      45.462  38.519  32.048  1.00  0.00     0.031 C 
ATOM     85  C   UNL A   1      44.126  38.356  34.213  1.00  0.00     0.031 A 
BRANCH  72  86
ATOM     86  C   UNL A   1      39.993  34.974  37.593  1.00  0.00    -0.014 A 
ATOM     87  C   UNL A   1      39.425  35.699  38.666  1.00  0.00     0.010 A 
ATOM     88  C   UNL A   1      40.093  33.588  37.763  1.00  0.00     0.010 A 
ATOM     89  C   UNL A   1      38.852  35.079  39.791  1.00  0.00     0.020 A 
ATOM     90  C   UNL A   1      39.550  32.954  38.902  1.00  0.00     0.020 A 
ATOM     91  C   UNL A   1      38.892  33.697  39.888  1.00  0.00     0.054 A 
BRANCH  91  92
ATOM     92  S   UNL A   1      38.018  32.830  41.231  1.00  0.00     0.124 S 
ATOM     93  O   UNL A   1      36.618  32.843  40.814  1.00  0.00    -0.237 OA
ATOM     94  O   UNL A   1      38.648  31.512  41.214  1.00  0.00    -0.237 OA
ATOM     95  O   UNL A   1      38.328  33.659  42.393  1.00  0.00    -0.744 OA
ENDBRANCH  91  92
ENDBRANCH  72  86
BRANCH  73  96
ATOM     96  C   UNL A   1      43.533  36.362  28.468  1.00  0.00    -0.014 A 
ATOM     97  C   UNL A   1      42.220  36.882  28.407  1.00  0.00     0.010 A 
ATOM     98  C   UNL A   1      44.490  36.804  27.536  1.00  0.00     0.010 A 
ATOM     99  C   UNL A   1      41.978  38.059  27.702  1.00  0.00     0.020 A 
ATOM    100  C   UNL A   1      44.247  37.988  26.825  1.00  0.00     0.020 A 
ATOM    101  C   UNL A   1      43.035  38.662  27.020  1.00  0.00     0.054 A 
BRANCH 101 102
ATOM    102  S   UNL A   1      42.934  40.462  26.755  1.00  0.00     0.124 S 
ATOM    103  O   UNL A   1      41.500  40.718  26.814  1.00  0.00    -0.237 OA
ATOM    104  O   UNL A   1      43.692  40.969  27.900  1.00  0.00    -0.237 OA
ATOM    105  O   UNL A   1      43.568  40.648  25.456  1.00  0.00    -0.744 OA
ENDBRANCH 101 102
ENDBRANCH  73  96
BRANCH  85 106
ATOM    106  C   UNL A   1      44.619  39.622  34.924  1.00  0.00    -0.014 A 
ATOM    107  C   UNL A   1      43.967  40.862  34.893  1.00  0.00     0.010 A 
ATOM    108  C   UNL A   1      45.730  39.532  35.807  1.00  0.00     0.010 A 
ATOM    109  C   UNL A   1      44.451  41.961  35.627  1.00  0.00     0.020 A 
ATOM    110  C   UNL A   1      46.217  40.608  36.546  1.00  0.00     0.020 A 
ATOM    111  C   UNL A   1      45.577  41.828  36.441  1.00  0.00     0.054 A 
BRANCH 111 112
ATOM    112  S   UNL A   1      46.134  43.218  37.450  1.00  0.00     0.124 S 
ATOM    113  O   UNL A   1      45.079  43.303  38.457  1.00  0.00    -0.237 OA
ATOM    114  O   UNL A   1      47.432  42.757  37.935  1.00  0.00    -0.237 OA
ATOM    115  O   UNL A   1      46.188  44.335  36.509  1.00  0.00    -0.744 OA
ENDBRANCH 111 112
ENDBRANCH  85 106
ENDBRANCH  59  60
ENDBRANCH  52  54
ENDBRANCH  51  52
ENDBRANCH  50  51
ENDBRANCH  49  50
ENDBRANCH  48  49
ENDBRANCH  47  48
ENDBRANCH   1  47
TORSDOF 26
ENDMDL
