MODEL 1
REMARK VINA RESULT:     -11.2      0.000      0.000
REMARK SMILES COc1ccc(/C=C2/C(=O)N(c3ccccc3)C(=O)N=C2OCCOCCOC(=O)c2ccc(-c3c4nc(c(-c5ccc(S(=O)(=O)[O-])cc5)c5ccc([nH]5)c(-c5ccc(S(=O)(=O)[O-])cc5)c5nc(c(-c6ccc(S(=O)(=O)[O-])cc6)c6ccc3[nH]6)C=C5)C=C4)cc2)cc1C(=O)[O-]
REMARK SMILES IDX 26 1 25 2 24 3 23 4 22 5 21 6 7 7 8 8 9 9 10 10 11 11 20 12
REMARK SMILES IDX 18 13 19 14 6 15 3 16 4 17 92 18 5 19 91 20 2 21 1 22 93 23
REMARK SMILES IDX 94 24 95 25 12 26 13 27 17 28 14 29 16 30 15 31 27 32 28 33
REMARK SMILES IDX 29 34 30 35 31 36 32 37 90 38 33 39 89 40 34 41 35 42 36 43
REMARK SMILES IDX 83 44 37 45 88 46 82 47 84 48 38 49 87 50 81 51 80 52 39 54
REMARK SMILES IDX 69 55 50 56 68 57 51 58 54 59 67 60 85 61 52 62 53 63 66 65
REMARK SMILES IDX 86 66 55 67 40 68 41 69 49 70 42 71 48 72 43 73 44 74 45 75
REMARK SMILES IDX 46 76 47 77 70 78 71 79 79 80 72 81 78 82 73 83 74 84 75 85
REMARK SMILES IDX 76 86 77 87 56 88 57 89 65 90 58 91 64 92 59 93 60 94 61 95
REMARK SMILES IDX 62 96 63 97
REMARK H PARENT 84 53 54 64
REMARK Flexibility Score: inf
ROOT
ATOM      1  C   UNL A   1      35.944  23.324  25.723  1.00  0.00     0.202 C 
ENDROOT
BRANCH   1   2
ATOM      2  O   UNL A   1      35.252  24.572  25.684  1.00  0.00    -0.374 OA
BRANCH   2   3
ATOM      3  C   UNL A   1      34.543  24.864  24.476  1.00  0.00     0.202 C 
BRANCH   3   4
ATOM      4  C   UNL A   1      33.984  26.285  24.423  1.00  0.00     0.260 C 
BRANCH   4   5
ATOM      5  O   UNL A   1      32.756  26.337  25.185  1.00  0.00    -0.475 OA
BRANCH   5   6
ATOM      6  C   UNL A   1      31.789  27.168  24.779  1.00  0.00     0.231 C 
ATOM      7  C   UNL A   1      30.421  25.189  23.852  1.00  0.00     0.027 C 
ATOM      8  C   UNL A   1      30.645  26.503  24.131  1.00  0.00     0.103 C 
ATOM      9  C   UNL A   1      29.619  27.487  23.599  1.00  0.00     0.272 C 
ATOM     10  O   UNL A   1      28.573  27.085  23.085  1.00  0.00    -0.268 OA
ATOM     11  N   UNL A   1      29.980  28.834  23.677  1.00  0.00    -0.226 N 
ATOM     12  N   UNL A   1      31.956  28.420  24.923  1.00  0.00    -0.156 NA
ATOM     13  C   UNL A   1      31.068  29.314  24.420  1.00  0.00     0.358 C 
ATOM     14  O   UNL A   1      31.240  30.501  24.658  1.00  0.00    -0.245 OA
BRANCH   7  15
ATOM     15  C   UNL A   1      31.100  23.862  24.028  1.00  0.00    -0.024 A 
ATOM     16  C   UNL A   1      32.496  21.408  24.621  1.00  0.00     0.127 A 
ATOM     17  C   UNL A   1      32.218  21.797  23.311  1.00  0.00     0.048 A 
ATOM     18  C   UNL A   1      32.119  22.269  25.653  1.00  0.00     0.040 A 
ATOM     19  C   UNL A   1      31.568  23.014  23.025  1.00  0.00     0.012 A 
ATOM     20  C   UNL A   1      31.402  23.456  25.349  1.00  0.00     0.022 A 
BRANCH  16  21
ATOM     21  O   UNL A   1      33.335  20.334  24.738  1.00  0.00    -0.496 OA
ATOM     22  C   UNL A   1      32.692  19.074  24.924  1.00  0.00     0.278 C 
ENDBRANCH  16  21
BRANCH  18  23
ATOM     23  C   UNL A   1      32.581  22.141  27.052  1.00  0.00     0.075 C 
ATOM     24  O   UNL A   1      33.571  21.519  27.399  1.00  0.00    -0.545 OA
ATOM     25  O   UNL A   1      31.876  22.856  27.938  1.00  0.00    -0.545 OA
ENDBRANCH  18  23
ENDBRANCH   7  15
BRANCH  11  26
ATOM     26  C   UNL A   1      29.148  29.845  23.088  1.00  0.00     0.054 A 
ATOM     27  C   UNL A   1      29.325  30.190  21.735  1.00  0.00     0.027 A 
ATOM     28  C   UNL A   1      28.269  30.601  23.870  1.00  0.00     0.027 A 
ATOM     29  C   UNL A   1      28.680  31.299  21.188  1.00  0.00     0.002 A 
ATOM     30  C   UNL A   1      27.645  31.729  23.325  1.00  0.00     0.002 A 
ATOM     31  C   UNL A   1      27.856  32.081  21.991  1.00  0.00     0.000 A 
ENDBRANCH  11  26
ENDBRANCH   5   6
ENDBRANCH   4   5
ENDBRANCH   3   4
ENDBRANCH   2   3
ENDBRANCH   1   2
BRANCH   1  32
ATOM     32  C   UNL A   1      37.428  23.397  25.362  1.00  0.00     0.261 C 
BRANCH  32  33
ATOM     33  O   UNL A   1      38.181  22.431  26.115  1.00  0.00    -0.460 OA
BRANCH  33  34
ATOM     34  C   UNL A   1      39.483  22.754  26.302  1.00  0.00     0.338 C 
ATOM     35  O   UNL A   1      40.455  22.122  25.925  1.00  0.00    -0.246 OA
BRANCH  34  36
ATOM     36  C   UNL A   1      39.585  24.104  26.890  1.00  0.00     0.060 A 
ATOM     37  C   UNL A   1      40.301  25.069  26.167  1.00  0.00     0.016 A 
ATOM     38  C   UNL A   1      39.049  24.409  28.143  1.00  0.00     0.016 A 
ATOM     39  C   UNL A   1      40.548  26.320  26.726  1.00  0.00     0.010 A 
ATOM     40  C   UNL A   1      39.304  25.662  28.703  1.00  0.00     0.010 A 
ATOM     41  C   UNL A   1      40.090  26.606  28.016  1.00  0.00    -0.014 A 
BRANCH  41  42
ATOM     42  C   UNL A   1      40.564  27.819  28.721  1.00  0.00     0.031 A 
ATOM     43  C   UNL A   1      41.904  27.781  29.403  1.00  0.00     0.074 A 
ATOM     44  C   UNL A   1      39.804  28.925  28.780  1.00  0.00     0.049 A 
ATOM     45  N   UNL A   1      42.469  28.681  30.164  1.00  0.00    -0.248 NA
ATOM     46  C   UNL A   1      42.712  26.568  29.197  1.00  0.00     0.031 C 
ATOM     47  C   UNL A   1      38.506  29.099  28.130  1.00  0.00     0.029 A 
ATOM     48  N   UNL A   1      39.994  30.095  29.472  1.00  0.00    -0.354 N 
ATOM     49  C   UNL A   1      43.702  28.147  30.523  1.00  0.00     0.074 A 
ATOM     50  C   UNL A   1      43.780  26.827  29.937  1.00  0.00     0.031 C 
ATOM     51  C   UNL A   1      37.979  30.274  28.517  1.00  0.00     0.029 A 
ATOM     52  C   UNL A   1      38.901  30.927  29.442  1.00  0.00     0.049 A 
ATOM     53  H   UNL A   1      40.831  30.317  29.941  1.00  0.00     0.167 HD
ATOM     54  C   UNL A   1      44.687  28.713  31.259  1.00  0.00     0.031 A 
ATOM     55  C   UNL A   1      38.654  32.066  30.118  1.00  0.00     0.031 A 
ATOM     56  C   UNL A   1      44.597  30.020  31.853  1.00  0.00     0.049 A 
ATOM     57  C   UNL A   1      39.716  32.635  31.018  1.00  0.00     0.074 A 
ATOM     58  C   UNL A   1      45.557  30.706  32.576  1.00  0.00     0.029 A 
ATOM     59  N   UNL A   1      43.475  30.832  31.805  1.00  0.00    -0.354 N 
ATOM     60  N   UNL A   1      40.899  32.147  31.306  1.00  0.00    -0.248 NA
ATOM     61  C   UNL A   1      39.422  33.923  31.661  1.00  0.00     0.031 C 
ATOM     62  C   UNL A   1      44.995  31.911  33.010  1.00  0.00     0.029 A 
ATOM     63  C   UNL A   1      43.705  32.000  32.512  1.00  0.00     0.049 A 
ATOM     64  H   UNL A   1      42.637  30.611  31.337  1.00  0.00     0.167 HD
ATOM     65  C   UNL A   1      41.509  33.089  32.128  1.00  0.00     0.074 A 
ATOM     66  C   UNL A   1      40.559  34.170  32.299  1.00  0.00     0.031 C 
ATOM     67  C   UNL A   1      42.749  33.067  32.674  1.00  0.00     0.031 A 
BRANCH  54  68
ATOM     68  C   UNL A   1      45.937  27.904  31.476  1.00  0.00    -0.014 A 
ATOM     69  C   UNL A   1      46.066  27.051  32.589  1.00  0.00     0.010 A 
ATOM     70  C   UNL A   1      46.993  27.988  30.553  1.00  0.00     0.010 A 
ATOM     71  C   UNL A   1      47.248  26.337  32.800  1.00  0.00     0.020 A 
ATOM     72  C   UNL A   1      48.168  27.255  30.748  1.00  0.00     0.020 A 
ATOM     73  C   UNL A   1      48.296  26.451  31.882  1.00  0.00     0.054 A 
BRANCH  73  74
ATOM     74  S   UNL A   1      49.822  25.519  32.181  1.00  0.00     0.124 S 
ATOM     75  O   UNL A   1      50.708  26.554  32.707  1.00  0.00    -0.237 OA
ATOM     76  O   UNL A   1      49.397  24.506  33.144  1.00  0.00    -0.237 OA
ATOM     77  O   UNL A   1      50.179  25.006  30.860  1.00  0.00    -0.744 OA
ENDBRANCH  73  74
ENDBRANCH  54  68
BRANCH  55  78
ATOM     78  C   UNL A   1      37.333  32.729  29.970  1.00  0.00    -0.014 A 
ATOM     79  C   UNL A   1      36.341  32.583  30.954  1.00  0.00     0.010 A 
ATOM     80  C   UNL A   1      37.079  33.549  28.854  1.00  0.00     0.010 A 
ATOM     81  C   UNL A   1      35.116  33.244  30.824  1.00  0.00     0.020 A 
ATOM     82  C   UNL A   1      35.864  34.226  28.730  1.00  0.00     0.020 A 
ATOM     83  C   UNL A   1      34.887  34.065  29.715  1.00  0.00     0.054 A 
BRANCH  83  84
ATOM     84  S   UNL A   1      33.317  34.969  29.610  1.00  0.00     0.124 S 
ATOM     85  O   UNL A   1      33.745  36.261  29.083  1.00  0.00    -0.237 OA
ATOM     86  O   UNL A   1      32.537  34.138  28.696  1.00  0.00    -0.237 OA
ATOM     87  O   UNL A   1      32.837  34.983  30.989  1.00  0.00    -0.744 OA
ENDBRANCH  83  84
ENDBRANCH  55  78
BRANCH  67  88
ATOM     88  C   UNL A   1      43.181  34.273  33.466  1.00  0.00    -0.014 A 
ATOM     89  C   UNL A   1      43.571  35.465  32.831  1.00  0.00     0.010 A 
ATOM     90  C   UNL A   1      43.137  34.226  34.871  1.00  0.00     0.010 A 
ATOM     91  C   UNL A   1      43.934  36.581  33.591  1.00  0.00     0.020 A 
ATOM     92  C   UNL A   1      43.476  35.346  35.633  1.00  0.00     0.020 A 
ATOM     93  C   UNL A   1      43.886  36.514  34.987  1.00  0.00     0.054 A 
BRANCH  93  94
ATOM     94  S   UNL A   1      44.317  37.988  35.952  1.00  0.00     0.124 S 
ATOM     95  O   UNL A   1      43.439  37.859  37.113  1.00  0.00    -0.237 OA
ATOM     96  O   UNL A   1      45.741  37.795  36.216  1.00  0.00    -0.237 OA
ATOM     97  O   UNL A   1      44.002  39.094  35.052  1.00  0.00    -0.744 OA
ENDBRANCH  93  94
ENDBRANCH  67  88
ENDBRANCH  41  42
ENDBRANCH  34  36
ENDBRANCH  33  34
ENDBRANCH  32  33
ENDBRANCH   1  32
TORSDOF 20
ENDMDL
MODEL 2
REMARK VINA RESULT:     -11.0      4.190     10.160
REMARK SMILES COc1ccc(/C=C2/C(=O)N(c3ccccc3)C(=O)N=C2OCCOCCOC(=O)c2ccc(-c3c4nc(c(-c5ccc(S(=O)(=O)[O-])cc5)c5ccc([nH]5)c(-c5ccc(S(=O)(=O)[O-])cc5)c5nc(c(-c6ccc(S(=O)(=O)[O-])cc6)c6ccc3[nH]6)C=C5)C=C4)cc2)cc1C(=O)[O-]
REMARK SMILES IDX 26 1 25 2 24 3 23 4 22 5 21 6 7 7 8 8 9 9 10 10 11 11 20 12
REMARK SMILES IDX 18 13 19 14 6 15 3 16 4 17 92 18 5 19 91 20 2 21 1 22 93 23
REMARK SMILES IDX 94 24 95 25 12 26 13 27 17 28 14 29 16 30 15 31 27 32 28 33
REMARK SMILES IDX 29 34 30 35 31 36 32 37 90 38 33 39 89 40 34 41 35 42 36 43
REMARK SMILES IDX 83 44 37 45 88 46 82 47 84 48 38 49 87 50 81 51 80 52 39 54
REMARK SMILES IDX 69 55 50 56 68 57 51 58 54 59 67 60 85 61 52 62 53 63 66 65
REMARK SMILES IDX 86 66 55 67 40 68 41 69 49 70 42 71 48 72 43 73 44 74 45 75
REMARK SMILES IDX 46 76 47 77 70 78 71 79 79 80 72 81 78 82 73 83 74 84 75 85
REMARK SMILES IDX 76 86 77 87 56 88 57 89 65 90 58 91 64 92 59 93 60 94 61 95
REMARK SMILES IDX 62 96 63 97
REMARK H PARENT 84 53 54 64
REMARK Flexibility Score: inf
ROOT
ATOM      1  C   UNL A   1      39.249  22.938  26.926  1.00  0.00     0.202 C 
ENDROOT
BRANCH   1   2
ATOM      2  O   UNL A   1      38.515  24.020  26.352  1.00  0.00    -0.374 OA
BRANCH   2   3
ATOM      3  C   UNL A   1      37.576  23.674  25.330  1.00  0.00     0.202 C 
BRANCH   3   4
ATOM      4  C   UNL A   1      36.135  24.052  25.669  1.00  0.00     0.260 C 
BRANCH   4   5
ATOM      5  O   UNL A   1      35.286  23.734  24.543  1.00  0.00    -0.475 OA
BRANCH   5   6
ATOM      6  C   UNL A   1      34.876  22.469  24.391  1.00  0.00     0.231 C 
ATOM      7  C   UNL A   1      32.565  23.272  23.578  1.00  0.00     0.027 C 
ATOM      8  C   UNL A   1      33.499  22.331  23.888  1.00  0.00     0.103 C 
ATOM      9  C   UNL A   1      33.040  20.885  23.823  1.00  0.00     0.272 C 
ATOM     10  O   UNL A   1      31.933  20.598  23.365  1.00  0.00    -0.268 OA
ATOM     11  N   UNL A   1      33.920  19.949  24.373  1.00  0.00    -0.226 N 
ATOM     12  N   UNL A   1      35.655  21.526  24.739  1.00  0.00    -0.156 NA
ATOM     13  C   UNL A   1      35.248  20.233  24.724  1.00  0.00     0.358 C 
ATOM     14  O   UNL A   1      36.065  19.363  24.993  1.00  0.00    -0.245 OA
BRANCH   7  15
ATOM     15  C   UNL A   1      32.427  24.768  23.561  1.00  0.00    -0.024 A 
ATOM     16  C   UNL A   1      32.015  27.615  23.774  1.00  0.00     0.127 A 
ATOM     17  C   UNL A   1      32.259  26.997  22.547  1.00  0.00     0.048 A 
ATOM     18  C   UNL A   1      31.928  26.806  24.907  1.00  0.00     0.040 A 
ATOM     19  C   UNL A   1      32.423  25.602  22.444  1.00  0.00     0.012 A 
ATOM     20  C   UNL A   1      32.167  25.411  24.794  1.00  0.00     0.022 A 
BRANCH  16  21
ATOM     21  O   UNL A   1      31.640  28.928  23.694  1.00  0.00    -0.496 OA
ATOM     22  C   UNL A   1      30.321  29.158  23.202  1.00  0.00     0.278 C 
ENDBRANCH  16  21
BRANCH  18  23
ATOM     23  C   UNL A   1      31.406  27.261  26.215  1.00  0.00     0.075 C 
ATOM     24  O   UNL A   1      30.657  26.611  26.924  1.00  0.00    -0.545 OA
ATOM     25  O   UNL A   1      31.900  28.433  26.633  1.00  0.00    -0.545 OA
ENDBRANCH  18  23
ENDBRANCH   7  15
BRANCH  11  26
ATOM     26  C   UNL A   1      33.538  18.571  24.487  1.00  0.00     0.054 A 
ATOM     27  C   UNL A   1      32.859  18.130  25.638  1.00  0.00     0.027 A 
ATOM     28  C   UNL A   1      33.960  17.625  23.547  1.00  0.00     0.027 A 
ATOM     29  C   UNL A   1      32.653  16.771  25.873  1.00  0.00     0.002 A 
ATOM     30  C   UNL A   1      33.777  16.261  23.799  1.00  0.00     0.002 A 
ATOM     31  C   UNL A   1      33.133  15.835  24.962  1.00  0.00     0.000 A 
ENDBRANCH  11  26
ENDBRANCH   5   6
ENDBRANCH   4   5
ENDBRANCH   3   4
ENDBRANCH   2   3
ENDBRANCH   1   2
BRANCH   1  32
ATOM     32  C   UNL A   1      39.241  21.646  26.107  1.00  0.00     0.261 C 
BRANCH  32  33
ATOM     33  O   UNL A   1      39.866  20.579  26.839  1.00  0.00    -0.460 OA
BRANCH  33  34
ATOM     34  C   UNL A   1      41.094  20.231  26.387  1.00  0.00     0.338 C 
ATOM     35  O   UNL A   1      41.387  19.226  25.763  1.00  0.00    -0.246 OA
BRANCH  34  36
ATOM     36  C   UNL A   1      42.041  21.343  26.603  1.00  0.00     0.060 A 
ATOM     37  C   UNL A   1      42.380  21.654  27.927  1.00  0.00     0.016 A 
ATOM     38  C   UNL A   1      42.540  22.106  25.544  1.00  0.00     0.016 A 
ATOM     39  C   UNL A   1      43.161  22.773  28.204  1.00  0.00     0.010 A 
ATOM     40  C   UNL A   1      43.317  23.231  25.827  1.00  0.00     0.010 A 
ATOM     41  C   UNL A   1      43.594  23.593  27.158  1.00  0.00    -0.014 A 
BRANCH  41  42
ATOM     42  C   UNL A   1      44.194  24.915  27.449  1.00  0.00     0.031 A 
ATOM     43  C   UNL A   1      43.286  26.051  27.837  1.00  0.00     0.074 A 
ATOM     44  C   UNL A   1      45.519  25.113  27.343  1.00  0.00     0.049 A 
ATOM     45  N   UNL A   1      43.575  27.310  28.031  1.00  0.00    -0.248 NA
ATOM     46  C   UNL A   1      41.866  25.719  28.032  1.00  0.00     0.031 C 
ATOM     47  C   UNL A   1      46.505  24.085  27.013  1.00  0.00     0.029 A 
ATOM     48  N   UNL A   1      46.254  26.266  27.446  1.00  0.00    -0.354 N 
ATOM     49  C   UNL A   1      42.376  27.921  28.377  1.00  0.00     0.074 A 
ATOM     50  C   UNL A   1      41.349  26.904  28.319  1.00  0.00     0.031 C 
ATOM     51  C   UNL A   1      47.707  24.669  26.862  1.00  0.00     0.029 A 
ATOM     52  C   UNL A   1      47.569  26.106  27.081  1.00  0.00     0.049 A 
ATOM     53  H   UNL A   1      45.877  27.123  27.751  1.00  0.00     0.167 HD
ATOM     54  C   UNL A   1      42.153  29.209  28.730  1.00  0.00     0.031 A 
ATOM     55  C   UNL A   1      48.541  27.021  26.903  1.00  0.00     0.031 A 
ATOM     56  C   UNL A   1      43.175  30.219  28.771  1.00  0.00     0.049 A 
ATOM     57  C   UNL A   1      48.257  28.468  27.196  1.00  0.00     0.074 A 
ATOM     58  C   UNL A   1      43.065  31.543  29.161  1.00  0.00     0.029 A 
ATOM     59  N   UNL A   1      44.494  30.022  28.393  1.00  0.00    -0.354 N 
ATOM     60  N   UNL A   1      47.130  29.024  27.575  1.00  0.00    -0.248 NA
ATOM     61  C   UNL A   1      49.379  29.407  27.066  1.00  0.00     0.031 C 
ATOM     62  C   UNL A   1      44.306  32.158  28.968  1.00  0.00     0.029 A 
ATOM     63  C   UNL A   1      45.203  31.206  28.510  1.00  0.00     0.049 A 
ATOM     64  H   UNL A   1      44.872  29.167  28.086  1.00  0.00     0.167 HD
ATOM     65  C   UNL A   1      47.420  30.371  27.773  1.00  0.00     0.074 A 
ATOM     66  C   UNL A   1      48.825  30.546  27.461  1.00  0.00     0.031 C 
ATOM     67  C   UNL A   1      46.601  31.365  28.194  1.00  0.00     0.031 A 
BRANCH  54  68
ATOM     68  C   UNL A   1      40.740  29.594  29.078  1.00  0.00    -0.014 A 
ATOM     69  C   UNL A   1      40.397  29.993  30.384  1.00  0.00     0.010 A 
ATOM     70  C   UNL A   1      39.744  29.564  28.087  1.00  0.00     0.010 A 
ATOM     71  C   UNL A   1      39.073  30.308  30.702  1.00  0.00     0.020 A 
ATOM     72  C   UNL A   1      38.424  29.903  28.396  1.00  0.00     0.020 A 
ATOM     73  C   UNL A   1      38.093  30.252  29.707  1.00  0.00     0.054 A 
BRANCH  73  74
ATOM     74  S   UNL A   1      36.381  30.659  30.146  1.00  0.00     0.124 S 
ATOM     75  O   UNL A   1      36.124  29.728  31.242  1.00  0.00    -0.237 OA
ATOM     76  O   UNL A   1      36.472  32.067  30.526  1.00  0.00    -0.237 OA
ATOM     77  O   UNL A   1      35.636  30.395  28.918  1.00  0.00    -0.744 OA
ENDBRANCH  73  74
ENDBRANCH  54  68
BRANCH  55  78
ATOM     78  C   UNL A   1      49.872  26.583  26.407  1.00  0.00    -0.014 A 
ATOM     79  C   UNL A   1      50.207  26.700  25.048  1.00  0.00     0.010 A 
ATOM     80  C   UNL A   1      50.829  26.083  27.311  1.00  0.00     0.010 A 
ATOM     81  C   UNL A   1      51.476  26.322  24.600  1.00  0.00     0.020 A 
ATOM     82  C   UNL A   1      52.104  25.723  26.870  1.00  0.00     0.020 A 
ATOM     83  C   UNL A   1      52.418  25.840  25.515  1.00  0.00     0.054 A 
BRANCH  83  84
ATOM     84  S   UNL A   1      54.081  25.428  24.917  1.00  0.00     0.124 S 
ATOM     85  O   UNL A   1      54.044  23.969  24.899  1.00  0.00    -0.237 OA
ATOM     86  O   UNL A   1      54.114  26.078  23.609  1.00  0.00    -0.237 OA
ATOM     87  O   UNL A   1      54.963  26.020  25.920  1.00  0.00    -0.744 OA
ENDBRANCH  83  84
ENDBRANCH  55  78
BRANCH  67  88
ATOM     88  C   UNL A   1      47.210  32.727  28.398  1.00  0.00    -0.014 A 
ATOM     89  C   UNL A   1      47.228  33.683  27.368  1.00  0.00     0.010 A 
ATOM     90  C   UNL A   1      47.720  33.071  29.663  1.00  0.00     0.010 A 
ATOM     91  C   UNL A   1      47.769  34.953  27.595  1.00  0.00     0.020 A 
ATOM     92  C   UNL A   1      48.239  34.345  29.900  1.00  0.00     0.020 A 
ATOM     93  C   UNL A   1      48.273  35.275  28.859  1.00  0.00     0.054 A 
BRANCH  93  94
ATOM     94  S   UNL A   1      48.928  36.942  29.144  1.00  0.00     0.124 S 
ATOM     95  O   UNL A   1      49.278  36.893  30.560  1.00  0.00    -0.237 OA
ATOM     96  O   UNL A   1      50.057  37.006  28.218  1.00  0.00    -0.237 OA
ATOM     97  O   UNL A   1      47.806  37.816  28.808  1.00  0.00    -0.744 OA
ENDBRANCH  93  94
ENDBRANCH  67  88
ENDBRANCH  41  42
ENDBRANCH  34  36
ENDBRANCH  33  34
ENDBRANCH  32  33
ENDBRANCH   1  32
TORSDOF 20
ENDMDL
MODEL 3
REMARK VINA RESULT:     -11.0      1.330      2.464
REMARK SMILES COc1ccc(/C=C2/C(=O)N(c3ccccc3)C(=O)N=C2OCCOCCOC(=O)c2ccc(-c3c4nc(c(-c5ccc(S(=O)(=O)[O-])cc5)c5ccc([nH]5)c(-c5ccc(S(=O)(=O)[O-])cc5)c5nc(c(-c6ccc(S(=O)(=O)[O-])cc6)c6ccc3[nH]6)C=C5)C=C4)cc2)cc1C(=O)[O-]
REMARK SMILES IDX 26 1 25 2 24 3 23 4 22 5 21 6 7 7 8 8 9 9 10 10 11 11 20 12
REMARK SMILES IDX 18 13 19 14 6 15 3 16 4 17 92 18 5 19 91 20 2 21 1 22 93 23
REMARK SMILES IDX 94 24 95 25 12 26 13 27 17 28 14 29 16 30 15 31 27 32 28 33
REMARK SMILES IDX 29 34 30 35 31 36 32 37 90 38 33 39 89 40 34 41 35 42 36 43
REMARK SMILES IDX 83 44 37 45 88 46 82 47 84 48 38 49 87 50 81 51 80 52 39 54
REMARK SMILES IDX 69 55 50 56 68 57 51 58 54 59 67 60 85 61 52 62 53 63 66 65
REMARK SMILES IDX 86 66 55 67 40 68 41 69 49 70 42 71 48 72 43 73 44 74 45 75
REMARK SMILES IDX 46 76 47 77 70 78 71 79 79 80 72 81 78 82 73 83 74 84 75 85
REMARK SMILES IDX 76 86 77 87 56 88 57 89 65 90 58 91 64 92 59 93 60 94 61 95
REMARK SMILES IDX 62 96 63 97
REMARK H PARENT 84 53 54 64
REMARK Flexibility Score: inf
ROOT
ATOM      1  C   UNL A   1      36.277  21.120  25.319  1.00  0.00     0.202 C 
ENDROOT
BRANCH   1   2
ATOM      2  O   UNL A   1      35.352  22.052  24.758  1.00  0.00    -0.374 OA
BRANCH   2   3
ATOM      3  C   UNL A   1      35.220  23.301  25.444  1.00  0.00     0.202 C 
BRANCH   3   4
ATOM      4  C   UNL A   1      34.708  23.161  26.877  1.00  0.00     0.260 C 
BRANCH   4   5
ATOM      5  O   UNL A   1      33.276  22.957  26.848  1.00  0.00    -0.475 OA
BRANCH   5   6
ATOM      6  C   UNL A   1      32.516  23.863  26.220  1.00  0.00     0.231 C 
ATOM      7  C   UNL A   1      31.697  22.078  24.550  1.00  0.00     0.027 C 
ATOM      8  C   UNL A   1      31.745  23.330  25.084  1.00  0.00     0.103 C 
ATOM      9  C   UNL A   1      30.974  24.407  24.342  1.00  0.00     0.272 C 
ATOM     10  O   UNL A   1      30.231  24.111  23.404  1.00  0.00    -0.268 OA
ATOM     11  N   UNL A   1      31.226  25.718  24.752  1.00  0.00    -0.226 N 
ATOM     12  N   UNL A   1      32.567  25.075  26.601  1.00  0.00    -0.156 NA
ATOM     13  C   UNL A   1      31.916  26.055  25.925  1.00  0.00     0.358 C 
ATOM     14  O   UNL A   1      31.937  27.189  26.383  1.00  0.00    -0.245 OA
BRANCH   7  15
ATOM     15  C   UNL A   1      32.301  20.723  24.783  1.00  0.00    -0.024 A 
ATOM     16  C   UNL A   1      33.349  18.043  24.978  1.00  0.00     0.127 A 
ATOM     17  C   UNL A   1      33.126  18.829  26.108  1.00  0.00     0.048 A 
ATOM     18  C   UNL A   1      33.005  18.574  23.734  1.00  0.00     0.040 A 
ATOM     19  C   UNL A   1      32.580  20.124  26.010  1.00  0.00     0.012 A 
ATOM     20  C   UNL A   1      32.523  19.907  23.649  1.00  0.00     0.022 A 
BRANCH  16  21
ATOM     21  O   UNL A   1      33.652  16.735  25.236  1.00  0.00    -0.496 OA
ATOM     22  C   UNL A   1      32.578  15.946  25.745  1.00  0.00     0.278 C 
ENDBRANCH  16  21
BRANCH  18  23
ATOM     23  C   UNL A   1      32.916  17.781  22.488  1.00  0.00     0.075 C 
ATOM     24  O   UNL A   1      32.111  17.985  21.595  1.00  0.00    -0.545 OA
ATOM     25  O   UNL A   1      33.871  16.852  22.351  1.00  0.00    -0.545 OA
ENDBRANCH  18  23
ENDBRANCH   7  15
BRANCH  11  26
ATOM     26  C   UNL A   1      30.656  26.825  24.038  1.00  0.00     0.054 A 
ATOM     27  C   UNL A   1      29.258  26.985  24.005  1.00  0.00     0.027 A 
ATOM     28  C   UNL A   1      31.451  27.660  23.247  1.00  0.00     0.027 A 
ATOM     29  C   UNL A   1      28.664  27.922  23.160  1.00  0.00     0.002 A 
ATOM     30  C   UNL A   1      30.851  28.580  22.381  1.00  0.00     0.002 A 
ATOM     31  C   UNL A   1      29.462  28.705  22.332  1.00  0.00     0.000 A 
ENDBRANCH  11  26
ENDBRANCH   5   6
ENDBRANCH   4   5
ENDBRANCH   3   4
ENDBRANCH   2   3
ENDBRANCH   1   2
BRANCH   1  32
ATOM     32  C   UNL A   1      37.744  21.542  25.244  1.00  0.00     0.261 C 
BRANCH  32  33
ATOM     33  O   UNL A   1      38.111  22.309  26.403  1.00  0.00    -0.460 OA
BRANCH  33  34
ATOM     34  C   UNL A   1      39.410  22.688  26.439  1.00  0.00     0.338 C 
ATOM     35  O   UNL A   1      40.364  22.080  25.983  1.00  0.00    -0.246 OA
BRANCH  34  36
ATOM     36  C   UNL A   1      39.516  24.063  26.966  1.00  0.00     0.060 A 
ATOM     37  C   UNL A   1      40.170  25.011  26.167  1.00  0.00     0.016 A 
ATOM     38  C   UNL A   1      39.045  24.408  28.235  1.00  0.00     0.016 A 
ATOM     39  C   UNL A   1      40.420  26.289  26.661  1.00  0.00     0.010 A 
ATOM     40  C   UNL A   1      39.304  25.687  28.730  1.00  0.00     0.010 A 
ATOM     41  C   UNL A   1      40.029  26.617  27.963  1.00  0.00    -0.014 A 
BRANCH  41  42
ATOM     42  C   UNL A   1      40.515  27.867  28.592  1.00  0.00     0.031 A 
ATOM     43  C   UNL A   1      41.878  27.872  29.230  1.00  0.00     0.074 A 
ATOM     44  C   UNL A   1      39.749  28.970  28.621  1.00  0.00     0.049 A 
ATOM     45  N   UNL A   1      42.460  28.812  29.927  1.00  0.00    -0.248 NA
ATOM     46  C   UNL A   1      42.688  26.656  29.058  1.00  0.00     0.031 C 
ATOM     47  C   UNL A   1      38.429  29.102  28.006  1.00  0.00     0.029 A 
ATOM     48  N   UNL A   1      39.952  30.173  29.248  1.00  0.00    -0.354 N 
ATOM     49  C   UNL A   1      43.708  28.305  30.271  1.00  0.00     0.074 A 
ATOM     50  C   UNL A   1      43.778  26.958  29.748  1.00  0.00     0.031 C 
ATOM     51  C   UNL A   1      37.905  30.291  28.353  1.00  0.00     0.029 A 
ATOM     52  C   UNL A   1      38.852  30.996  29.213  1.00  0.00     0.049 A 
ATOM     53  H   UNL A   1      40.801  30.424  29.678  1.00  0.00     0.167 HD
ATOM     54  C   UNL A   1      44.712  28.913  30.945  1.00  0.00     0.031 A 
ATOM     55  C   UNL A   1      38.617  32.165  29.840  1.00  0.00     0.031 A 
ATOM     56  C   UNL A   1      44.630  30.247  31.477  1.00  0.00     0.049 A 
ATOM     57  C   UNL A   1      39.702  32.785  30.676  1.00  0.00     0.074 A 
ATOM     58  C   UNL A   1      45.607  30.975  32.134  1.00  0.00     0.029 A 
ATOM     59  N   UNL A   1      43.500  31.048  31.426  1.00  0.00    -0.354 N 
ATOM     60  N   UNL A   1      40.898  32.319  30.949  1.00  0.00    -0.248 NA
ATOM     61  C   UNL A   1      39.419  34.101  31.264  1.00  0.00     0.031 C 
ATOM     62  C   UNL A   1      45.049  32.196  32.527  1.00  0.00     0.029 A 
ATOM     63  C   UNL A   1      43.743  32.251  32.067  1.00  0.00     0.049 A 
ATOM     64  H   UNL A   1      42.650  30.799  30.997  1.00  0.00     0.167 HD
ATOM     65  C   UNL A   1      41.527  33.306  31.703  1.00  0.00     0.074 A 
ATOM     66  C   UNL A   1      40.574  34.387  31.851  1.00  0.00     0.031 C 
ATOM     67  C   UNL A   1      42.785  33.319  32.208  1.00  0.00     0.031 A 
BRANCH  54  68
ATOM     68  C   UNL A   1      45.975  28.124  31.161  1.00  0.00    -0.014 A 
ATOM     69  C   UNL A   1      46.139  27.313  32.300  1.00  0.00     0.010 A 
ATOM     70  C   UNL A   1      47.008  28.185  30.210  1.00  0.00     0.010 A 
ATOM     71  C   UNL A   1      47.333  26.619  32.508  1.00  0.00     0.020 A 
ATOM     72  C   UNL A   1      48.194  27.471  30.402  1.00  0.00     0.020 A 
ATOM     73  C   UNL A   1      48.357  26.710  31.561  1.00  0.00     0.054 A 
BRANCH  73  74
ATOM     74  S   UNL A   1      49.900  25.803  31.856  1.00  0.00     0.124 S 
ATOM     75  O   UNL A   1      50.115  25.150  30.567  1.00  0.00    -0.237 OA
ATOM     76  O   UNL A   1      50.842  26.868  32.186  1.00  0.00    -0.237 OA
ATOM     77  O   UNL A   1      49.568  24.905  32.960  1.00  0.00    -0.744 OA
ENDBRANCH  73  74
ENDBRANCH  54  68
BRANCH  55  78
ATOM     78  C   UNL A   1      37.286  32.810  29.703  1.00  0.00    -0.014 A 
ATOM     79  C   UNL A   1      36.441  32.959  30.816  1.00  0.00     0.010 A 
ATOM     80  C   UNL A   1      36.876  33.320  28.456  1.00  0.00     0.010 A 
ATOM     81  C   UNL A   1      35.209  33.605  30.684  1.00  0.00     0.020 A 
ATOM     82  C   UNL A   1      35.654  33.982  28.325  1.00  0.00     0.020 A 
ATOM     83  C   UNL A   1      34.825  34.117  29.439  1.00  0.00     0.054 A 
BRANCH  83  84
ATOM     84  S   UNL A   1      33.253  35.015  29.314  1.00  0.00     0.124 S 
ATOM     85  O   UNL A   1      33.696  36.349  28.924  1.00  0.00    -0.237 OA
ATOM     86  O   UNL A   1      32.541  34.257  28.287  1.00  0.00    -0.237 OA
ATOM     87  O   UNL A   1      32.690  34.908  30.658  1.00  0.00    -0.744 OA
ENDBRANCH  83  84
ENDBRANCH  55  78
BRANCH  67  88
ATOM     88  C   UNL A   1      43.231  34.566  32.925  1.00  0.00    -0.014 A 
ATOM     89  C   UNL A   1      43.905  35.597  32.250  1.00  0.00     0.010 A 
ATOM     90  C   UNL A   1      42.916  34.727  34.286  1.00  0.00     0.010 A 
ATOM     91  C   UNL A   1      44.279  36.759  32.932  1.00  0.00     0.020 A 
ATOM     92  C   UNL A   1      43.266  35.896  34.966  1.00  0.00     0.020 A 
ATOM     93  C   UNL A   1      43.958  36.900  34.286  1.00  0.00     0.054 A 
BRANCH  93  94
ATOM     94  S   UNL A   1      44.411  38.435  35.140  1.00  0.00     0.124 S 
ATOM     95  O   UNL A   1      44.134  38.100  36.534  1.00  0.00    -0.237 OA
ATOM     96  O   UNL A   1      45.824  38.587  34.799  1.00  0.00    -0.237 OA
ATOM     97  O   UNL A   1      43.524  39.434  34.549  1.00  0.00    -0.744 OA
ENDBRANCH  93  94
ENDBRANCH  67  88
ENDBRANCH  41  42
ENDBRANCH  34  36
ENDBRANCH  33  34
ENDBRANCH  32  33
ENDBRANCH   1  32
TORSDOF 20
ENDMDL
