MODEL 1
REMARK VINA RESULT:      -9.8      0.000      0.000
REMARK SMILES C[C@H](Nc1ccc(F)cc1Br)[C@@H](C)C(=O)OCCOCCOC(=O)c1ccc(-c2c3nc(c(-c4ccc(S(=O)(=O)[O-])cc4)c4ccc([nH]4)c(-c4ccc(S(=O)(=O)[O-])cc4)c4nc(c(-c5ccc(S(=O)(=O)[O-])cc5)c5ccc2[nH]5)C=C4)C=C3)cc1
REMARK SMILES IDX 19 1 18 2 17 3 16 4 14 5 15 6 12 7 13 8 2 9 1 10 3 11 4 13
REMARK SMILES IDX 5 14 10 15 6 16 9 17 11 18 7 19 8 20 20 21 21 22 22 23 23 24
REMARK SMILES IDX 24 25 25 26 26 27 84 28 27 29 83 30 28 31 29 32 30 33 77 34
REMARK SMILES IDX 31 35 82 36 76 37 78 38 32 39 81 40 75 41 74 42 33 44 63 45
REMARK SMILES IDX 44 46 62 47 45 48 48 49 61 50 79 51 46 52 47 53 60 55 80 56
REMARK SMILES IDX 49 57 34 58 35 59 43 60 36 61 42 62 37 63 38 64 39 65 40 66
REMARK SMILES IDX 41 67 64 68 65 69 73 70 66 71 72 72 67 73 68 74 69 75 70 76
REMARK SMILES IDX 71 77 50 78 51 79 59 80 52 81 58 82 53 83 54 84 55 85 56 86
REMARK SMILES IDX 57 87
REMARK H PARENT 3 12 78 43 48 54
REMARK Flexibility Score: inf
ROOT
ATOM      1  O   UNL A   1      33.173  29.475  24.668  1.00  0.00    -0.374 OA
ENDROOT
BRANCH   1   2
ATOM      2  C   UNL A   1      33.038  29.091  23.301  1.00  0.00     0.202 C 
BRANCH   2   3
ATOM      3  C   UNL A   1      33.981  27.993  22.799  1.00  0.00     0.261 C 
BRANCH   3   4
ATOM      4  O   UNL A   1      33.398  26.674  22.781  1.00  0.00    -0.463 OA
BRANCH   4   5
ATOM      5  C   UNL A   1      33.562  25.948  23.919  1.00  0.00     0.310 C 
ATOM      6  O   UNL A   1      34.457  25.128  24.100  1.00  0.00    -0.252 OA
BRANCH   5   7
ATOM      7  C   UNL A   1      32.461  26.162  24.941  1.00  0.00     0.118 C 
ATOM      8  C   UNL A   1      33.152  26.450  26.278  1.00  0.00     0.022 C 
BRANCH   7   9
ATOM      9  C   UNL A   1      31.423  25.028  25.057  1.00  0.00     0.090 C 
ATOM     10  C   UNL A   1      30.110  25.478  25.708  1.00  0.00     0.031 C 
BRANCH   9  11
ATOM     11  N   UNL A   1      31.967  23.963  25.913  1.00  0.00    -0.381 N 
ATOM     12  H   UNL A   1      32.058  24.110  26.882  1.00  0.00     0.160 HD
BRANCH  11  13
ATOM     13  C   UNL A   1      32.357  22.746  25.356  1.00  0.00     0.049 A 
ATOM     14  C   UNL A   1      31.906  22.362  24.085  1.00  0.00     0.030 A 
ATOM     15  C   UNL A   1      33.172  21.840  26.068  1.00  0.00     0.044 A 
ATOM     16  C   UNL A   1      32.255  21.125  23.538  1.00  0.00     0.041 A 
ATOM     17  C   UNL A   1      33.513  20.598  25.532  1.00  0.00     0.057 A 
ATOM     18  Br  UNL A   1      33.816  22.264  27.808  1.00  0.00    -0.048 Br
ATOM     19  C   UNL A   1      33.051  20.255  24.270  1.00  0.00     0.124 A 
ATOM     20  F   UNL A   1      33.381  19.067  23.747  1.00  0.00    -0.207 F 
ENDBRANCH  11  13
ENDBRANCH   9  11
ENDBRANCH   7   9
ENDBRANCH   5   7
ENDBRANCH   4   5
ENDBRANCH   3   4
ENDBRANCH   2   3
ENDBRANCH   1   2
BRANCH   1  21
ATOM     21  C   UNL A   1      32.019  30.022  25.306  1.00  0.00     0.202 C 
BRANCH  21  22
ATOM     22  C   UNL A   1      32.189  30.402  26.782  1.00  0.00     0.261 C 
BRANCH  22  23
ATOM     23  O   UNL A   1      33.509  30.088  27.269  1.00  0.00    -0.460 OA
BRANCH  23  24
ATOM     24  C   UNL A   1      34.227  31.168  27.656  1.00  0.00     0.338 C 
ATOM     25  O   UNL A   1      33.786  32.267  27.965  1.00  0.00    -0.246 OA
BRANCH  24  26
ATOM     26  C   UNL A   1      35.650  30.826  27.840  1.00  0.00     0.060 A 
ATOM     27  C   UNL A   1      35.982  29.467  27.783  1.00  0.00     0.016 A 
ATOM     28  C   UNL A   1      36.604  31.773  28.217  1.00  0.00     0.016 A 
ATOM     29  C   UNL A   1      37.237  29.038  28.203  1.00  0.00     0.010 A 
ATOM     30  C   UNL A   1      37.870  31.338  28.640  1.00  0.00     0.010 A 
ATOM     31  C   UNL A   1      38.165  29.963  28.699  1.00  0.00    -0.014 A 
BRANCH  31  32
ATOM     32  C   UNL A   1      39.319  29.447  29.482  1.00  0.00     0.031 A 
ATOM     33  C   UNL A   1      39.455  29.863  30.927  1.00  0.00     0.074 A 
ATOM     34  C   UNL A   1      40.168  28.539  28.966  1.00  0.00     0.049 A 
ATOM     35  N   UNL A   1      40.314  29.460  31.829  1.00  0.00    -0.248 NA
ATOM     36  C   UNL A   1      38.489  30.859  31.421  1.00  0.00     0.031 C 
ATOM     37  C   UNL A   1      40.121  28.015  27.602  1.00  0.00     0.029 A 
ATOM     38  N   UNL A   1      41.224  27.880  29.545  1.00  0.00    -0.354 N 
ATOM     39  C   UNL A   1      39.991  30.150  32.993  1.00  0.00     0.074 A 
ATOM     40  C   UNL A   1      38.883  31.023  32.675  1.00  0.00     0.031 C 
ATOM     41  C   UNL A   1      41.100  27.106  27.451  1.00  0.00     0.029 A 
ATOM     42  C   UNL A   1      41.852  26.994  28.701  1.00  0.00     0.049 A 
ATOM     43  H   UNL A   1      41.506  28.027  30.477  1.00  0.00     0.167 HD
ATOM     44  C   UNL A   1      40.552  30.059  34.223  1.00  0.00     0.031 A 
ATOM     45  C   UNL A   1      42.909  26.185  28.911  1.00  0.00     0.031 A 
ATOM     46  C   UNL A   1      41.655  29.198  34.548  1.00  0.00     0.049 A 
ATOM     47  C   UNL A   1      43.552  26.137  30.273  1.00  0.00     0.074 A 
ATOM     48  C   UNL A   1      42.292  29.037  35.767  1.00  0.00     0.029 A 
ATOM     49  N   UNL A   1      42.289  28.352  33.651  1.00  0.00    -0.354 N 
ATOM     50  N   UNL A   1      43.220  26.783  31.366  1.00  0.00    -0.248 NA
ATOM     51  C   UNL A   1      44.703  25.236  30.433  1.00  0.00     0.031 C 
ATOM     52  C   UNL A   1      43.338  28.122  35.596  1.00  0.00     0.029 A 
ATOM     53  C   UNL A   1      43.319  27.678  34.283  1.00  0.00     0.049 A 
ATOM     54  H   UNL A   1      42.041  28.246  32.704  1.00  0.00     0.167 HD
ATOM     55  C   UNL A   1      44.102  26.344  32.348  1.00  0.00     0.074 A 
ATOM     56  C   UNL A   1      44.974  25.372  31.724  1.00  0.00     0.031 C 
ATOM     57  C   UNL A   1      44.178  26.710  33.652  1.00  0.00     0.031 A 
BRANCH  44  58
ATOM     58  C   UNL A   1      39.992  30.944  35.303  1.00  0.00    -0.014 A 
ATOM     59  C   UNL A   1      40.633  32.143  35.666  1.00  0.00     0.010 A 
ATOM     60  C   UNL A   1      38.797  30.583  35.950  1.00  0.00     0.010 A 
ATOM     61  C   UNL A   1      40.112  32.943  36.686  1.00  0.00     0.020 A 
ATOM     62  C   UNL A   1      38.259  31.392  36.954  1.00  0.00     0.020 A 
ATOM     63  C   UNL A   1      38.931  32.558  37.328  1.00  0.00     0.054 A 
BRANCH  63  64
ATOM     64  S   UNL A   1      38.266  33.617  38.643  1.00  0.00     0.124 S 
ATOM     65  O   UNL A   1      38.595  34.952  38.148  1.00  0.00    -0.237 OA
ATOM     66  O   UNL A   1      36.845  33.281  38.642  1.00  0.00    -0.237 OA
ATOM     67  O   UNL A   1      39.001  33.195  39.832  1.00  0.00    -0.744 OA
ENDBRANCH  63  64
ENDBRANCH  44  58
BRANCH  45  68
ATOM     68  C   UNL A   1      43.431  25.346  27.798  1.00  0.00    -0.014 A 
ATOM     69  C   UNL A   1      42.978  24.028  27.614  1.00  0.00     0.010 A 
ATOM     70  C   UNL A   1      44.395  25.868  26.917  1.00  0.00     0.010 A 
ATOM     71  C   UNL A   1      43.489  23.243  26.575  1.00  0.00     0.020 A 
ATOM     72  C   UNL A   1      44.891  25.096  25.864  1.00  0.00     0.020 A 
ATOM     73  C   UNL A   1      44.442  23.783  25.706  1.00  0.00     0.054 A 
BRANCH  73  74
ATOM     74  S   UNL A   1      45.052  22.770  24.330  1.00  0.00     0.124 S 
ATOM     75  O   UNL A   1      45.477  21.553  25.014  1.00  0.00    -0.237 OA
ATOM     76  O   UNL A   1      43.871  22.640  23.481  1.00  0.00    -0.237 OA
ATOM     77  O   UNL A   1      46.128  23.580  23.764  1.00  0.00    -0.744 OA
ENDBRANCH  73  74
ENDBRANCH  45  68
BRANCH  57  78
ATOM     78  C   UNL A   1      45.213  26.029  34.508  1.00  0.00    -0.014 A 
ATOM     79  C   UNL A   1      46.463  26.622  34.752  1.00  0.00     0.010 A 
ATOM     80  C   UNL A   1      44.905  24.800  35.119  1.00  0.00     0.010 A 
ATOM     81  C   UNL A   1      47.402  25.980  35.565  1.00  0.00     0.020 A 
ATOM     82  C   UNL A   1      45.830  24.167  35.952  1.00  0.00     0.020 A 
ATOM     83  C   UNL A   1      47.080  24.754  36.158  1.00  0.00     0.054 A 
BRANCH  83  84
ATOM     84  S   UNL A   1      48.299  23.956  37.240  1.00  0.00     0.124 S 
ATOM     85  O   UNL A   1      47.931  22.547  37.123  1.00  0.00    -0.237 OA
ATOM     86  O   UNL A   1      49.570  24.326  36.624  1.00  0.00    -0.237 OA
ATOM     87  O   UNL A   1      48.048  24.560  38.547  1.00  0.00    -0.744 OA
ENDBRANCH  83  84
ENDBRANCH  57  78
ENDBRANCH  31  32
ENDBRANCH  24  26
ENDBRANCH  23  24
ENDBRANCH  22  23
ENDBRANCH  21  22
ENDBRANCH   1  21
TORSDOF 20
ENDMDL
MODEL 2
REMARK VINA RESULT:      -9.7      3.511      9.911
REMARK SMILES C[C@H](Nc1ccc(F)cc1Br)[C@@H](C)C(=O)OCCOCCOC(=O)c1ccc(-c2c3nc(c(-c4ccc(S(=O)(=O)[O-])cc4)c4ccc([nH]4)c(-c4ccc(S(=O)(=O)[O-])cc4)c4nc(c(-c5ccc(S(=O)(=O)[O-])cc5)c5ccc2[nH]5)C=C4)C=C3)cc1
REMARK SMILES IDX 19 1 18 2 17 3 16 4 14 5 15 6 12 7 13 8 2 9 1 10 3 11 4 13
REMARK SMILES IDX 5 14 10 15 6 16 9 17 11 18 7 19 8 20 20 21 21 22 22 23 23 24
REMARK SMILES IDX 24 25 25 26 26 27 84 28 27 29 83 30 28 31 29 32 30 33 77 34
REMARK SMILES IDX 31 35 82 36 76 37 78 38 32 39 81 40 75 41 74 42 33 44 63 45
REMARK SMILES IDX 44 46 62 47 45 48 48 49 61 50 79 51 46 52 47 53 60 55 80 56
REMARK SMILES IDX 49 57 34 58 35 59 43 60 36 61 42 62 37 63 38 64 39 65 40 66
REMARK SMILES IDX 41 67 64 68 65 69 73 70 66 71 72 72 67 73 68 74 69 75 70 76
REMARK SMILES IDX 71 77 50 78 51 79 59 80 52 81 58 82 53 83 54 84 55 85 56 86
REMARK SMILES IDX 57 87
REMARK H PARENT 3 12 78 43 48 54
REMARK Flexibility Score: inf
ROOT
ATOM      1  O   UNL A   1      42.171  22.008  25.731  1.00  0.00    -0.374 OA
ENDROOT
BRANCH   1   2
ATOM      2  C   UNL A   1      41.794  20.859  26.488  1.00  0.00     0.202 C 
BRANCH   2   3
ATOM      3  C   UNL A   1      40.293  20.639  26.702  1.00  0.00     0.261 C 
BRANCH   3   4
ATOM      4  O   UNL A   1      39.489  21.823  26.519  1.00  0.00    -0.463 OA
BRANCH   4   5
ATOM      5  C   UNL A   1      38.444  21.692  25.658  1.00  0.00     0.310 C 
ATOM      6  O   UNL A   1      38.090  20.635  25.147  1.00  0.00    -0.252 OA
BRANCH   5   7
ATOM      7  C   UNL A   1      37.792  23.012  25.289  1.00  0.00     0.118 C 
ATOM      8  C   UNL A   1      38.031  23.965  26.464  1.00  0.00     0.022 C 
BRANCH   7   9
ATOM      9  C   UNL A   1      36.302  22.937  24.897  1.00  0.00     0.090 C 
ATOM     10  C   UNL A   1      36.067  23.096  23.390  1.00  0.00     0.031 C 
BRANCH   9  11
ATOM     11  N   UNL A   1      35.577  24.038  25.549  1.00  0.00    -0.381 N 
ATOM     12  H   UNL A   1      36.012  24.914  25.660  1.00  0.00     0.160 HD
BRANCH  11  13
ATOM     13  C   UNL A   1      34.276  23.845  26.010  1.00  0.00     0.049 A 
ATOM     14  C   UNL A   1      33.860  22.590  26.478  1.00  0.00     0.030 A 
ATOM     15  C   UNL A   1      33.323  24.885  25.976  1.00  0.00     0.044 A 
ATOM     16  C   UNL A   1      32.546  22.377  26.901  1.00  0.00     0.041 A 
ATOM     17  C   UNL A   1      32.006  24.674  26.384  1.00  0.00     0.057 A 
ATOM     18  Br  UNL A   1      33.789  26.617  25.338  1.00  0.00    -0.048 Br
ATOM     19  C   UNL A   1      31.632  23.420  26.845  1.00  0.00     0.124 A 
ATOM     20  F   UNL A   1      30.372  23.213  27.245  1.00  0.00    -0.207 F 
ENDBRANCH  11  13
ENDBRANCH   9  11
ENDBRANCH   7   9
ENDBRANCH   5   7
ENDBRANCH   4   5
ENDBRANCH   3   4
ENDBRANCH   2   3
ENDBRANCH   1   2
BRANCH   1  21
ATOM     21  C   UNL A   1      42.623  23.147  26.461  1.00  0.00     0.202 C 
BRANCH  21  22
ATOM     22  C   UNL A   1      42.400  24.505  25.785  1.00  0.00     0.261 C 
BRANCH  22  23
ATOM     23  O   UNL A   1      41.234  25.177  26.302  1.00  0.00    -0.460 OA
BRANCH  23  24
ATOM     24  C   UNL A   1      41.242  26.518  26.119  1.00  0.00     0.338 C 
ATOM     25  O   UNL A   1      41.593  27.117  25.110  1.00  0.00    -0.246 OA
BRANCH  24  26
ATOM     26  C   UNL A   1      40.597  27.216  27.246  1.00  0.00     0.060 A 
ATOM     27  C   UNL A   1      40.810  28.597  27.336  1.00  0.00     0.016 A 
ATOM     28  C   UNL A   1      39.941  26.532  28.273  1.00  0.00     0.016 A 
ATOM     29  C   UNL A   1      40.464  29.282  28.497  1.00  0.00     0.010 A 
ATOM     30  C   UNL A   1      39.594  27.225  29.443  1.00  0.00     0.010 A 
ATOM     31  C   UNL A   1      39.917  28.588  29.584  1.00  0.00    -0.014 A 
BRANCH  31  32
ATOM     32  C   UNL A   1      39.919  29.254  30.914  1.00  0.00     0.031 A 
ATOM     33  C   UNL A   1      41.056  28.965  31.864  1.00  0.00     0.074 A 
ATOM     34  C   UNL A   1      39.001  30.184  31.234  1.00  0.00     0.049 A 
ATOM     35  N   UNL A   1      41.323  29.505  33.026  1.00  0.00    -0.248 NA
ATOM     36  C   UNL A   1      42.023  27.937  31.444  1.00  0.00     0.031 C 
ATOM     37  C   UNL A   1      37.879  30.594  30.390  1.00  0.00     0.029 A 
ATOM     38  N   UNL A   1      38.884  30.968  32.355  1.00  0.00    -0.354 N 
ATOM     39  C   UNL A   1      42.486  28.885  33.472  1.00  0.00     0.074 A 
ATOM     40  C   UNL A   1      42.853  27.904  32.476  1.00  0.00     0.031 C 
ATOM     41  C   UNL A   1      37.192  31.562  31.020  1.00  0.00     0.029 A 
ATOM     42  C   UNL A   1      37.814  31.832  32.316  1.00  0.00     0.049 A 
ATOM     43  H   UNL A   1      39.506  30.917  33.116  1.00  0.00     0.167 HD
ATOM     44  C   UNL A   1      43.197  29.117  34.602  1.00  0.00     0.031 A 
ATOM     45  C   UNL A   1      37.387  32.737  33.218  1.00  0.00     0.031 A 
ATOM     46  C   UNL A   1      42.839  30.086  35.601  1.00  0.00     0.049 A 
ATOM     47  C   UNL A   1      38.164  32.943  34.493  1.00  0.00     0.074 A 
ATOM     48  C   UNL A   1      43.497  30.393  36.779  1.00  0.00     0.029 A 
ATOM     49  N   UNL A   1      41.723  30.907  35.541  1.00  0.00    -0.354 N 
ATOM     50  N   UNL A   1      39.271  32.360  34.888  1.00  0.00    -0.248 NA
ATOM     51  C   UNL A   1      37.641  33.943  35.436  1.00  0.00     0.031 C 
ATOM     52  C   UNL A   1      42.757  31.371  37.452  1.00  0.00     0.029 A 
ATOM     53  C   UNL A   1      41.665  31.708  36.667  1.00  0.00     0.049 A 
ATOM     54  H   UNL A   1      41.069  30.917  34.804  1.00  0.00     0.167 HD
ATOM     55  C   UNL A   1      39.591  32.944  36.109  1.00  0.00     0.074 A 
ATOM     56  C   UNL A   1      38.568  33.931  36.384  1.00  0.00     0.031 C 
ATOM     57  C   UNL A   1      40.643  32.689  36.927  1.00  0.00     0.031 A 
BRANCH  44  58
ATOM     58  C   UNL A   1      44.425  28.277  34.827  1.00  0.00    -0.014 A 
ATOM     59  C   UNL A   1      44.343  27.024  35.461  1.00  0.00     0.010 A 
ATOM     60  C   UNL A   1      45.676  28.740  34.381  1.00  0.00     0.010 A 
ATOM     61  C   UNL A   1      45.497  26.267  35.681  1.00  0.00     0.020 A 
ATOM     62  C   UNL A   1      46.829  27.975  34.578  1.00  0.00     0.020 A 
ATOM     63  C   UNL A   1      46.734  26.751  35.245  1.00  0.00     0.054 A 
BRANCH  63  64
ATOM     64  S   UNL A   1      48.217  25.746  35.532  1.00  0.00     0.124 S 
ATOM     65  O   UNL A   1      48.270  25.702  36.992  1.00  0.00    -0.237 OA
ATOM     66  O   UNL A   1      47.884  24.483  34.879  1.00  0.00    -0.237 OA
ATOM     67  O   UNL A   1      49.283  26.512  34.893  1.00  0.00    -0.744 OA
ENDBRANCH  63  64
ENDBRANCH  44  58
BRANCH  45  68
ATOM     68  C   UNL A   1      36.153  33.525  32.949  1.00  0.00    -0.014 A 
ATOM     69  C   UNL A   1      34.971  33.283  33.670  1.00  0.00     0.010 A 
ATOM     70  C   UNL A   1      36.159  34.524  31.959  1.00  0.00     0.010 A 
ATOM     71  C   UNL A   1      33.813  34.018  33.397  1.00  0.00     0.020 A 
ATOM     72  C   UNL A   1      35.012  35.276  31.698  1.00  0.00     0.020 A 
ATOM     73  C   UNL A   1      33.841  35.012  32.412  1.00  0.00     0.054 A 
BRANCH  73  74
ATOM     74  S   UNL A   1      32.345  35.993  32.110  1.00  0.00     0.124 S 
ATOM     75  O   UNL A   1      32.472  36.311  30.692  1.00  0.00    -0.237 OA
ATOM     76  O   UNL A   1      31.277  35.060  32.458  1.00  0.00    -0.237 OA
ATOM     77  O   UNL A   1      32.493  37.125  33.023  1.00  0.00    -0.744 OA
ENDBRANCH  73  74
ENDBRANCH  45  68
BRANCH  57  78
ATOM     78  C   UNL A   1      40.768  33.515  38.180  1.00  0.00    -0.014 A 
ATOM     79  C   UNL A   1      41.477  34.729  38.186  1.00  0.00     0.010 A 
ATOM     80  C   UNL A   1      40.119  33.093  39.355  1.00  0.00     0.010 A 
ATOM     81  C   UNL A   1      41.564  35.489  39.357  1.00  0.00     0.020 A 
ATOM     82  C   UNL A   1      40.183  33.862  40.519  1.00  0.00     0.020 A 
ATOM     83  C   UNL A   1      40.919  35.048  40.517  1.00  0.00     0.054 A 
BRANCH  83  84
ATOM     84  S   UNL A   1      41.013  36.068  42.015  1.00  0.00     0.124 S 
ATOM     85  O   UNL A   1      40.911  37.418  41.468  1.00  0.00    -0.237 OA
ATOM     86  O   UNL A   1      39.861  35.615  42.789  1.00  0.00    -0.237 OA
ATOM     87  O   UNL A   1      42.314  35.724  42.586  1.00  0.00    -0.744 OA
ENDBRANCH  83  84
ENDBRANCH  57  78
ENDBRANCH  31  32
ENDBRANCH  24  26
ENDBRANCH  23  24
ENDBRANCH  22  23
ENDBRANCH  21  22
ENDBRANCH   1  21
TORSDOF 20
ENDMDL
MODEL 3
REMARK VINA RESULT:      -9.7      5.212     11.309
REMARK SMILES C[C@H](Nc1ccc(F)cc1Br)[C@@H](C)C(=O)OCCOCCOC(=O)c1ccc(-c2c3nc(c(-c4ccc(S(=O)(=O)[O-])cc4)c4ccc([nH]4)c(-c4ccc(S(=O)(=O)[O-])cc4)c4nc(c(-c5ccc(S(=O)(=O)[O-])cc5)c5ccc2[nH]5)C=C4)C=C3)cc1
REMARK SMILES IDX 19 1 18 2 17 3 16 4 14 5 15 6 12 7 13 8 2 9 1 10 3 11 4 13
REMARK SMILES IDX 5 14 10 15 6 16 9 17 11 18 7 19 8 20 20 21 21 22 22 23 23 24
REMARK SMILES IDX 24 25 25 26 26 27 84 28 27 29 83 30 28 31 29 32 30 33 77 34
REMARK SMILES IDX 31 35 82 36 76 37 78 38 32 39 81 40 75 41 74 42 33 44 63 45
REMARK SMILES IDX 44 46 62 47 45 48 48 49 61 50 79 51 46 52 47 53 60 55 80 56
REMARK SMILES IDX 49 57 34 58 35 59 43 60 36 61 42 62 37 63 38 64 39 65 40 66
REMARK SMILES IDX 41 67 64 68 65 69 73 70 66 71 72 72 67 73 68 74 69 75 70 76
REMARK SMILES IDX 71 77 50 78 51 79 59 80 52 81 58 82 53 83 54 84 55 85 56 86
REMARK SMILES IDX 57 87
REMARK H PARENT 3 12 78 43 48 54
REMARK Flexibility Score: inf
ROOT
ATOM      1  O   UNL A   1      40.423  21.434  26.550  1.00  0.00    -0.374 OA
ENDROOT
BRANCH   1   2
ATOM      2  C   UNL A   1      41.160  20.421  27.231  1.00  0.00     0.202 C 
BRANCH   2   3
ATOM      3  C   UNL A   1      41.842  19.362  26.358  1.00  0.00     0.261 C 
BRANCH   3   4
ATOM      4  O   UNL A   1      42.546  19.899  25.219  1.00  0.00    -0.463 OA
BRANCH   4   5
ATOM      5  C   UNL A   1      43.884  19.656  25.192  1.00  0.00     0.310 C 
ATOM      6  O   UNL A   1      44.404  18.585  25.489  1.00  0.00    -0.252 OA
BRANCH   5   7
ATOM      7  C   UNL A   1      44.717  20.878  24.854  1.00  0.00     0.118 C 
ATOM      8  C   UNL A   1      46.185  20.442  24.925  1.00  0.00     0.022 C 
BRANCH   7   9
ATOM      9  C   UNL A   1      44.444  22.133  25.706  1.00  0.00     0.090 C 
ATOM     10  C   UNL A   1      43.996  23.340  24.873  1.00  0.00     0.031 C 
BRANCH   9  11
ATOM     11  N   UNL A   1      45.684  22.534  26.386  1.00  0.00    -0.381 N 
ATOM     12  H   UNL A   1      46.533  22.090  26.160  1.00  0.00     0.160 HD
BRANCH  11  13
ATOM     13  C   UNL A   1      45.663  23.541  27.349  1.00  0.00     0.049 A 
ATOM     14  C   UNL A   1      44.994  23.354  28.567  1.00  0.00     0.030 A 
ATOM     15  C   UNL A   1      46.268  24.794  27.115  1.00  0.00     0.044 A 
ATOM     16  C   UNL A   1      44.930  24.373  29.520  1.00  0.00     0.041 A 
ATOM     17  C   UNL A   1      46.197  25.820  28.058  1.00  0.00     0.057 A 
ATOM     18  Br  UNL A   1      47.183  25.149  25.484  1.00  0.00    -0.048 Br
ATOM     19  C   UNL A   1      45.528  25.597  29.253  1.00  0.00     0.124 A 
ATOM     20  F   UNL A   1      45.462  26.574  30.165  1.00  0.00    -0.207 F 
ENDBRANCH  11  13
ENDBRANCH   9  11
ENDBRANCH   7   9
ENDBRANCH   5   7
ENDBRANCH   4   5
ENDBRANCH   3   4
ENDBRANCH   2   3
ENDBRANCH   1   2
BRANCH   1  21
ATOM     21  C   UNL A   1      40.227  22.669  27.238  1.00  0.00     0.202 C 
BRANCH  21  22
ATOM     22  C   UNL A   1      41.058  23.854  26.734  1.00  0.00     0.261 C 
BRANCH  22  23
ATOM     23  O   UNL A   1      40.225  24.933  26.266  1.00  0.00    -0.460 OA
BRANCH  23  24
ATOM     24  C   UNL A   1      40.833  26.142  26.265  1.00  0.00     0.338 C 
ATOM     25  O   UNL A   1      41.634  26.557  25.438  1.00  0.00    -0.246 OA
BRANCH  24  26
ATOM     26  C   UNL A   1      40.284  27.018  27.317  1.00  0.00     0.060 A 
ATOM     27  C   UNL A   1      40.874  28.280  27.455  1.00  0.00     0.016 A 
ATOM     28  C   UNL A   1      39.338  26.572  28.243  1.00  0.00     0.016 A 
ATOM     29  C   UNL A   1      40.601  29.058  28.577  1.00  0.00     0.010 A 
ATOM     30  C   UNL A   1      39.065  27.359  29.373  1.00  0.00     0.010 A 
ATOM     31  C   UNL A   1      39.748  28.573  29.576  1.00  0.00    -0.014 A 
BRANCH  31  32
ATOM     32  C   UNL A   1      39.779  29.235  30.907  1.00  0.00     0.031 A 
ATOM     33  C   UNL A   1      40.915  28.912  31.848  1.00  0.00     0.074 A 
ATOM     34  C   UNL A   1      38.891  30.191  31.237  1.00  0.00     0.049 A 
ATOM     35  N   UNL A   1      41.206  29.441  33.009  1.00  0.00    -0.248 NA
ATOM     36  C   UNL A   1      41.849  27.857  31.419  1.00  0.00     0.031 C 
ATOM     37  C   UNL A   1      37.776  30.635  30.402  1.00  0.00     0.029 A 
ATOM     38  N   UNL A   1      38.805  30.976  32.360  1.00  0.00    -0.354 N 
ATOM     39  C   UNL A   1      42.354  28.787  33.445  1.00  0.00     0.074 A 
ATOM     40  C   UNL A   1      42.685  27.798  32.444  1.00  0.00     0.031 C 
ATOM     41  C   UNL A   1      37.121  31.621  31.039  1.00  0.00     0.029 A 
ATOM     42  C   UNL A   1      37.761  31.870  32.331  1.00  0.00     0.049 A 
ATOM     43  H   UNL A   1      39.432  30.905  33.116  1.00  0.00     0.167 HD
ATOM     44  C   UNL A   1      43.080  28.995  34.570  1.00  0.00     0.031 A 
ATOM     45  C   UNL A   1      37.367  32.785  33.238  1.00  0.00     0.031 A 
ATOM     46  C   UNL A   1      42.758  29.972  35.573  1.00  0.00     0.049 A 
ATOM     47  C   UNL A   1      38.159  32.965  34.508  1.00  0.00     0.074 A 
ATOM     48  C   UNL A   1      43.434  30.257  36.747  1.00  0.00     0.029 A 
ATOM     49  N   UNL A   1      41.666  30.825  35.524  1.00  0.00    -0.354 N 
ATOM     50  N   UNL A   1      39.252  32.350  34.892  1.00  0.00    -0.248 NA
ATOM     51  C   UNL A   1      37.672  33.978  35.457  1.00  0.00     0.031 C 
ATOM     52  C   UNL A   1      42.727  31.255  37.428  1.00  0.00     0.029 A 
ATOM     53  C   UNL A   1      41.639  31.625  36.652  1.00  0.00     0.049 A 
ATOM     54  H   UNL A   1      41.007  30.856  34.792  1.00  0.00     0.167 HD
ATOM     55  C   UNL A   1      39.598  32.921  36.113  1.00  0.00     0.074 A 
ATOM     56  C   UNL A   1      38.606  33.937  36.397  1.00  0.00     0.031 C 
ATOM     57  C   UNL A   1      40.648  32.634  36.922  1.00  0.00     0.031 A 
BRANCH  44  58
ATOM     58  C   UNL A   1      44.286  28.120  34.784  1.00  0.00    -0.014 A 
ATOM     59  C   UNL A   1      45.589  28.629  34.637  1.00  0.00     0.010 A 
ATOM     60  C   UNL A   1      44.112  26.775  35.157  1.00  0.00     0.010 A 
ATOM     61  C   UNL A   1      46.697  27.797  34.819  1.00  0.00     0.020 A 
ATOM     62  C   UNL A   1      45.218  25.947  35.364  1.00  0.00     0.020 A 
ATOM     63  C   UNL A   1      46.504  26.459  35.175  1.00  0.00     0.054 A 
BRANCH  63  64
ATOM     64  S   UNL A   1      47.958  25.400  35.416  1.00  0.00     0.124 S 
ATOM     65  O   UNL A   1      48.423  25.213  34.044  1.00  0.00    -0.237 OA
ATOM     66  O   UNL A   1      48.819  26.221  36.263  1.00  0.00    -0.237 OA
ATOM     67  O   UNL A   1      47.413  24.206  36.057  1.00  0.00    -0.744 OA
ENDBRANCH  63  64
ENDBRANCH  44  58
BRANCH  45  68
ATOM     68  C   UNL A   1      36.154  33.609  32.980  1.00  0.00    -0.014 A 
ATOM     69  C   UNL A   1      36.257  34.991  32.748  1.00  0.00     0.010 A 
ATOM     70  C   UNL A   1      34.884  33.006  32.972  1.00  0.00     0.010 A 
ATOM     71  C   UNL A   1      35.109  35.758  32.524  1.00  0.00     0.020 A 
ATOM     72  C   UNL A   1      33.737  33.763  32.726  1.00  0.00     0.020 A 
ATOM     73  C   UNL A   1      33.855  35.138  32.513  1.00  0.00     0.054 A 
BRANCH  73  74
ATOM     74  S   UNL A   1      32.383  36.139  32.165  1.00  0.00     0.124 S 
ATOM     75  O   UNL A   1      31.308  35.272  32.637  1.00  0.00    -0.237 OA
ATOM     76  O   UNL A   1      32.621  37.343  32.957  1.00  0.00    -0.237 OA
ATOM     77  O   UNL A   1      32.442  36.336  30.718  1.00  0.00    -0.744 OA
ENDBRANCH  73  74
ENDBRANCH  45  68
BRANCH  57  78
ATOM     78  C   UNL A   1      40.807  33.454  38.175  1.00  0.00    -0.014 A 
ATOM     79  C   UNL A   1      41.740  34.502  38.249  1.00  0.00     0.010 A 
ATOM     80  C   UNL A   1      39.969  33.201  39.277  1.00  0.00     0.010 A 
ATOM     81  C   UNL A   1      41.856  35.262  39.417  1.00  0.00     0.020 A 
ATOM     82  C   UNL A   1      40.065  33.974  40.437  1.00  0.00     0.020 A 
ATOM     83  C   UNL A   1      41.020  34.990  40.506  1.00  0.00     0.054 A 
BRANCH  83  84
ATOM     84  S   UNL A   1      41.163  36.013  41.998  1.00  0.00     0.124 S 
ATOM     85  O   UNL A   1      41.956  37.140  41.517  1.00  0.00    -0.237 OA
ATOM     86  O   UNL A   1      39.770  36.315  42.317  1.00  0.00    -0.237 OA
ATOM     87  O   UNL A   1      41.838  35.137  42.953  1.00  0.00    -0.744 OA
ENDBRANCH  83  84
ENDBRANCH  57  78
ENDBRANCH  31  32
ENDBRANCH  24  26
ENDBRANCH  23  24
ENDBRANCH  22  23
ENDBRANCH  21  22
ENDBRANCH   1  21
TORSDOF 20
ENDMDL
