MODEL 1
REMARK VINA RESULT:     -10.0      0.000      0.000
REMARK SMILES CCc1n[nH]c2cc(CCC(=O)OCCOCCOC(=O)c3ccc(-c4c5nc(c(-c6ccc(S(=O)(=O)[O-])cc6)c6ccc([nH]6)c(-c6ccc(S(=O)(=O)[O-])cc6)c6nc(c(-c7ccc(S(=O)(=O)[O-])cc7)c7ccc4[nH]7)C=C6)C=C5)cc3)ccc12
REMARK SMILES IDX 16 1 15 2 14 3 13 4 11 5 12 6 10 7 9 8 8 9 3 10 4 11 84 12
REMARK SMILES IDX 5 13 6 14 83 15 7 17 82 18 2 19 1 20 17 21 18 22 19 23 20 24
REMARK SMILES IDX 21 25 22 26 23 27 81 28 24 29 80 30 25 31 26 32 27 33 74 34
REMARK SMILES IDX 28 35 79 36 73 37 75 38 29 39 78 40 72 41 71 42 30 44 60 45
REMARK SMILES IDX 41 46 59 47 42 48 45 49 58 50 76 51 43 52 44 53 57 55 77 56
REMARK SMILES IDX 46 57 31 58 32 59 40 60 33 61 39 62 34 63 35 64 36 65 37 66
REMARK SMILES IDX 38 67 61 68 62 69 70 70 63 71 69 72 64 73 65 74 66 75 67 76
REMARK SMILES IDX 68 77 47 78 48 79 56 80 49 81 55 82 50 83 51 84 52 85 53 86
REMARK SMILES IDX 54 87
REMARK H PARENT 5 16 75 43 45 54
REMARK Flexibility Score: inf
ROOT
ATOM      1  O   UNL A   1      35.402  20.513  24.806  1.00  0.00    -0.374 OA
ENDROOT
BRANCH   1   2
ATOM      2  C   UNL A   1      33.985  20.404  24.964  1.00  0.00     0.202 C 
BRANCH   2   3
ATOM      3  C   UNL A   1      33.371  21.352  26.008  1.00  0.00     0.261 C 
BRANCH   3   4
ATOM      4  O   UNL A   1      32.293  22.143  25.463  1.00  0.00    -0.463 OA
BRANCH   4   5
ATOM      5  C   UNL A   1      31.963  23.301  26.086  1.00  0.00     0.306 C 
ATOM      6  O   UNL A   1      31.727  23.407  27.283  1.00  0.00    -0.252 OA
BRANCH   5   7
ATOM      7  C   UNL A   1      31.926  24.479  25.126  1.00  0.00     0.127 C 
BRANCH   7   8
ATOM      8  C   UNL A   1      30.764  24.509  24.117  1.00  0.00     0.047 C 
BRANCH   8   9
ATOM      9  C   UNL A   1      30.243  25.900  23.825  1.00  0.00    -0.045 A 
ATOM     10  C   UNL A   1      29.130  29.662  22.289  1.00  0.00     0.070 A 
ATOM     11  N   UNL A   1      30.298  30.009  21.732  1.00  0.00    -0.180 NA
ATOM     12  C   UNL A   1      29.223  28.387  22.929  1.00  0.00     0.023 A 
ATOM     13  N   UNL A   1      31.125  29.015  22.038  1.00  0.00    -0.278 N 
ATOM     14  C   UNL A   1      30.555  28.028  22.781  1.00  0.00     0.066 A 
ATOM     15  C   UNL A   1      28.386  27.488  23.618  1.00  0.00     0.012 A 
ATOM     16  H   UNL A   1      32.067  28.994  21.752  1.00  0.00     0.190 HD
ATOM     17  C   UNL A   1      31.103  26.858  23.293  1.00  0.00     0.032 A 
ATOM     18  C   UNL A   1      28.899  26.239  24.023  1.00  0.00     0.004 A 
BRANCH  10  19
ATOM     19  C   UNL A   1      28.010  30.633  22.113  1.00  0.00     0.055 C 
ATOM     20  C   UNL A   1      27.390  31.177  23.381  1.00  0.00     0.011 C 
ENDBRANCH  10  19
ENDBRANCH   8   9
ENDBRANCH   7   8
ENDBRANCH   5   7
ENDBRANCH   4   5
ENDBRANCH   3   4
ENDBRANCH   2   3
ENDBRANCH   1   2
BRANCH   1  21
ATOM     21  C   UNL A   1      36.053  21.480  25.626  1.00  0.00     0.202 C 
BRANCH  21  22
ATOM     22  C   UNL A   1      37.584  21.427  25.616  1.00  0.00     0.261 C 
BRANCH  22  23
ATOM     23  O   UNL A   1      38.159  22.745  25.659  1.00  0.00    -0.460 OA
BRANCH  23  24
ATOM     24  C   UNL A   1      39.367  22.821  26.270  1.00  0.00     0.338 C 
ATOM     25  O   UNL A   1      40.277  22.013  26.193  1.00  0.00    -0.246 OA
BRANCH  24  26
ATOM     26  C   UNL A   1      39.518  24.138  26.923  1.00  0.00     0.060 A 
ATOM     27  C   UNL A   1      40.281  25.105  26.256  1.00  0.00     0.016 A 
ATOM     28  C   UNL A   1      38.957  24.426  28.169  1.00  0.00     0.016 A 
ATOM     29  C   UNL A   1      40.521  26.346  26.849  1.00  0.00     0.010 A 
ATOM     30  C   UNL A   1      39.197  25.675  28.758  1.00  0.00     0.010 A 
ATOM     31  C   UNL A   1      40.004  26.637  28.116  1.00  0.00    -0.014 A 
BRANCH  31  32
ATOM     32  C   UNL A   1      40.416  27.879  28.831  1.00  0.00     0.031 A 
ATOM     33  C   UNL A   1      41.771  27.919  29.489  1.00  0.00     0.074 A 
ATOM     34  C   UNL A   1      39.625  28.970  28.884  1.00  0.00     0.049 A 
ATOM     35  N   UNL A   1      42.337  28.886  30.164  1.00  0.00    -0.248 NA
ATOM     36  C   UNL A   1      42.602  26.710  29.363  1.00  0.00     0.031 C 
ATOM     37  C   UNL A   1      38.308  29.097  28.264  1.00  0.00     0.029 A 
ATOM     38  N   UNL A   1      39.810  30.181  29.511  1.00  0.00    -0.354 N 
ATOM     39  C   UNL A   1      43.586  28.404  30.539  1.00  0.00     0.074 A 
ATOM     40  C   UNL A   1      43.674  27.041  30.065  1.00  0.00     0.031 C 
ATOM     41  C   UNL A   1      37.782  30.293  28.580  1.00  0.00     0.029 A 
ATOM     42  C   UNL A   1      38.724  31.022  29.423  1.00  0.00     0.049 A 
ATOM     43  H   UNL A   1      40.642  30.423  29.979  1.00  0.00     0.167 HD
ATOM     44  C   UNL A   1      44.583  29.043  31.196  1.00  0.00     0.031 A 
ATOM     45  C   UNL A   1      38.501  32.235  29.968  1.00  0.00     0.031 A 
ATOM     46  C   UNL A   1      44.499  30.395  31.676  1.00  0.00     0.049 A 
ATOM     47  C   UNL A   1      39.589  32.895  30.772  1.00  0.00     0.074 A 
ATOM     48  C   UNL A   1      45.473  31.140  32.319  1.00  0.00     0.029 A 
ATOM     49  N   UNL A   1      43.375  31.201  31.584  1.00  0.00    -0.354 N 
ATOM     50  N   UNL A   1      40.789  32.448  31.060  1.00  0.00    -0.248 NA
ATOM     51  C   UNL A   1      39.306  34.238  31.301  1.00  0.00     0.031 C 
ATOM     52  C   UNL A   1      44.918  32.372  32.673  1.00  0.00     0.029 A 
ATOM     53  C   UNL A   1      43.620  32.423  32.188  1.00  0.00     0.049 A 
ATOM     54  H   UNL A   1      42.528  30.944  31.152  1.00  0.00     0.167 HD
ATOM     55  C   UNL A   1      41.417  33.471  31.764  1.00  0.00     0.074 A 
ATOM     56  C   UNL A   1      40.467  34.561  31.854  1.00  0.00     0.031 C 
ATOM     57  C   UNL A   1      42.672  33.506  32.277  1.00  0.00     0.031 A 
BRANCH  44  58
ATOM     58  C   UNL A   1      45.850  28.269  31.447  1.00  0.00    -0.014 A 
ATOM     59  C   UNL A   1      46.959  28.387  30.590  1.00  0.00     0.010 A 
ATOM     60  C   UNL A   1      45.941  27.431  32.573  1.00  0.00     0.010 A 
ATOM     61  C   UNL A   1      48.120  27.647  30.828  1.00  0.00     0.020 A 
ATOM     62  C   UNL A   1      47.111  26.712  32.832  1.00  0.00     0.020 A 
ATOM     63  C   UNL A   1      48.187  26.811  31.947  1.00  0.00     0.054 A 
BRANCH  63  64
ATOM     64  S   UNL A   1      49.710  25.873  32.241  1.00  0.00     0.124 S 
ATOM     65  O   UNL A   1      49.997  25.341  30.910  1.00  0.00    -0.237 OA
ATOM     66  O   UNL A   1      50.632  26.901  32.718  1.00  0.00    -0.237 OA
ATOM     67  O   UNL A   1      49.321  24.879  33.236  1.00  0.00    -0.744 OA
ENDBRANCH  63  64
ENDBRANCH  44  58
BRANCH  45  68
ATOM     68  C   UNL A   1      37.191  32.916  29.762  1.00  0.00    -0.014 A 
ATOM     69  C   UNL A   1      36.301  33.104  30.834  1.00  0.00     0.010 A 
ATOM     70  C   UNL A   1      36.827  33.381  28.484  1.00  0.00     0.010 A 
ATOM     71  C   UNL A   1      35.064  33.725  30.628  1.00  0.00     0.020 A 
ATOM     72  C   UNL A   1      35.603  34.024  28.279  1.00  0.00     0.020 A 
ATOM     73  C   UNL A   1      34.724  34.183  29.352  1.00  0.00     0.054 A 
BRANCH  73  74
ATOM     74  S   UNL A   1      33.134  35.029  29.123  1.00  0.00     0.124 S 
ATOM     75  O   UNL A   1      33.554  36.359  28.692  1.00  0.00    -0.237 OA
ATOM     76  O   UNL A   1      32.486  34.209  28.103  1.00  0.00    -0.237 OA
ATOM     77  O   UNL A   1      32.517  34.967  30.446  1.00  0.00    -0.744 OA
ENDBRANCH  73  74
ENDBRANCH  45  68
BRANCH  57  78
ATOM     78  C   UNL A   1      43.120  34.779  32.948  1.00  0.00    -0.014 A 
ATOM     79  C   UNL A   1      42.982  34.967  34.335  1.00  0.00     0.010 A 
ATOM     80  C   UNL A   1      43.748  35.779  32.182  1.00  0.00     0.010 A 
ATOM     81  C   UNL A   1      43.436  36.144  34.936  1.00  0.00     0.020 A 
ATOM     82  C   UNL A   1      44.231  36.942  32.784  1.00  0.00     0.020 A 
ATOM     83  C   UNL A   1      44.060  37.124  34.159  1.00  0.00     0.054 A 
BRANCH  83  84
ATOM     84  S   UNL A   1      44.682  38.620  34.971  1.00  0.00     0.124 S 
ATOM     85  O   UNL A   1      46.113  38.550  34.687  1.00  0.00    -0.237 OA
ATOM     86  O   UNL A   1      43.956  39.685  34.281  1.00  0.00    -0.237 OA
ATOM     87  O   UNL A   1      44.316  38.434  36.373  1.00  0.00    -0.744 OA
ENDBRANCH  83  84
ENDBRANCH  57  78
ENDBRANCH  31  32
ENDBRANCH  24  26
ENDBRANCH  23  24
ENDBRANCH  22  23
ENDBRANCH  21  22
ENDBRANCH   1  21
TORSDOF 20
ENDMDL
MODEL 2
REMARK VINA RESULT:      -9.8      3.545      9.798
REMARK SMILES CCc1n[nH]c2cc(CCC(=O)OCCOCCOC(=O)c3ccc(-c4c5nc(c(-c6ccc(S(=O)(=O)[O-])cc6)c6ccc([nH]6)c(-c6ccc(S(=O)(=O)[O-])cc6)c6nc(c(-c7ccc(S(=O)(=O)[O-])cc7)c7ccc4[nH]7)C=C6)C=C5)cc3)ccc12
REMARK SMILES IDX 16 1 15 2 14 3 13 4 11 5 12 6 10 7 9 8 8 9 3 10 4 11 84 12
REMARK SMILES IDX 5 13 6 14 83 15 7 17 82 18 2 19 1 20 17 21 18 22 19 23 20 24
REMARK SMILES IDX 21 25 22 26 23 27 81 28 24 29 80 30 25 31 26 32 27 33 74 34
REMARK SMILES IDX 28 35 79 36 73 37 75 38 29 39 78 40 72 41 71 42 30 44 60 45
REMARK SMILES IDX 41 46 59 47 42 48 45 49 58 50 76 51 43 52 44 53 57 55 77 56
REMARK SMILES IDX 46 57 31 58 32 59 40 60 33 61 39 62 34 63 35 64 36 65 37 66
REMARK SMILES IDX 38 67 61 68 62 69 70 70 63 71 69 72 64 73 65 74 66 75 67 76
REMARK SMILES IDX 68 77 47 78 48 79 56 80 49 81 55 82 50 83 51 84 52 85 53 86
REMARK SMILES IDX 54 87
REMARK H PARENT 5 16 75 43 45 54
REMARK Flexibility Score: inf
ROOT
ATOM      1  O   UNL A   1      31.853  29.476  24.247  1.00  0.00    -0.374 OA
ENDROOT
BRANCH   1   2
ATOM      2  C   UNL A   1      30.693  28.751  23.831  1.00  0.00     0.202 C 
BRANCH   2   3
ATOM      3  C   UNL A   1      30.842  27.220  23.844  1.00  0.00     0.261 C 
BRANCH   3   4
ATOM      4  O   UNL A   1      30.546  26.653  25.140  1.00  0.00    -0.463 OA
BRANCH   4   5
ATOM      5  C   UNL A   1      31.558  26.084  25.841  1.00  0.00     0.306 C 
ATOM      6  O   UNL A   1      31.499  25.774  27.024  1.00  0.00    -0.252 OA
BRANCH   5   7
ATOM      7  C   UNL A   1      32.793  25.858  24.985  1.00  0.00     0.127 C 
BRANCH   7   8
ATOM      8  C   UNL A   1      33.985  25.161  25.664  1.00  0.00     0.047 C 
BRANCH   8   9
ATOM      9  C   UNL A   1      34.009  23.661  25.470  1.00  0.00    -0.045 A 
ATOM     10  C   UNL A   1      33.334  19.587  24.633  1.00  0.00     0.070 A 
ATOM     11  N   UNL A   1      32.097  19.477  25.135  1.00  0.00    -0.180 NA
ATOM     12  C   UNL A   1      33.845  20.911  24.807  1.00  0.00     0.023 A 
ATOM     13  N   UNL A   1      31.835  20.674  25.649  1.00  0.00    -0.278 N 
ATOM     14  C   UNL A   1      32.851  21.569  25.516  1.00  0.00     0.066 A 
ATOM     15  C   UNL A   1      34.999  21.648  24.478  1.00  0.00     0.012 A 
ATOM     16  H   UNL A   1      30.982  20.895  26.087  1.00  0.00     0.190 HD
ATOM     17  C   UNL A   1      32.946  22.890  25.937  1.00  0.00     0.032 A 
ATOM     18  C   UNL A   1      35.049  23.024  24.781  1.00  0.00     0.004 A 
BRANCH  10  19
ATOM     19  C   UNL A   1      33.893  18.354  24.004  1.00  0.00     0.055 C 
ATOM     20  C   UNL A   1      35.249  17.903  24.502  1.00  0.00     0.011 C 
ENDBRANCH  10  19
ENDBRANCH   8   9
ENDBRANCH   7   8
ENDBRANCH   5   7
ENDBRANCH   4   5
ENDBRANCH   3   4
ENDBRANCH   2   3
ENDBRANCH   1   2
BRANCH   1  21
ATOM     21  C   UNL A   1      31.930  29.795  25.634  1.00  0.00     0.202 C 
BRANCH  21  22
ATOM     22  C   UNL A   1      33.338  29.766  26.239  1.00  0.00     0.261 C 
BRANCH  22  23
ATOM     23  O   UNL A   1      33.348  30.291  27.579  1.00  0.00    -0.460 OA
BRANCH  23  24
ATOM     24  C   UNL A   1      34.221  31.306  27.787  1.00  0.00     0.338 C 
ATOM     25  O   UNL A   1      33.971  32.500  27.775  1.00  0.00    -0.246 OA
BRANCH  24  26
ATOM     26  C   UNL A   1      35.527  30.765  28.220  1.00  0.00     0.060 A 
ATOM     27  C   UNL A   1      35.513  29.671  29.094  1.00  0.00     0.016 A 
ATOM     28  C   UNL A   1      36.741  31.321  27.813  1.00  0.00     0.016 A 
ATOM     29  C   UNL A   1      36.710  29.154  29.597  1.00  0.00     0.010 A 
ATOM     30  C   UNL A   1      37.940  30.796  28.316  1.00  0.00     0.010 A 
ATOM     31  C   UNL A   1      37.934  29.726  29.234  1.00  0.00    -0.014 A 
BRANCH  31  32
ATOM     32  C   UNL A   1      39.193  29.305  29.914  1.00  0.00     0.031 A 
ATOM     33  C   UNL A   1      39.633  30.050  31.147  1.00  0.00     0.074 A 
ATOM     34  C   UNL A   1      39.931  28.266  29.472  1.00  0.00     0.049 A 
ATOM     35  N   UNL A   1      40.688  29.862  31.898  1.00  0.00    -0.248 NA
ATOM     36  C   UNL A   1      38.763  31.150  31.599  1.00  0.00     0.031 C 
ATOM     37  C   UNL A   1      39.615  27.425  28.320  1.00  0.00     0.029 A 
ATOM     38  N   UNL A   1      41.120  27.752  29.936  1.00  0.00    -0.354 N 
ATOM     39  C   UNL A   1      40.607  30.814  32.907  1.00  0.00     0.074 A 
ATOM     40  C   UNL A   1      39.432  31.614  32.643  1.00  0.00     0.031 C 
ATOM     41  C   UNL A   1      40.604  26.535  28.135  1.00  0.00     0.029 A 
ATOM     42  C   UNL A   1      41.627  26.737  29.157  1.00  0.00     0.049 A 
ATOM     43  H   UNL A   1      41.567  28.079  30.751  1.00  0.00     0.167 HD
ATOM     44  C   UNL A   1      41.421  30.995  33.975  1.00  0.00     0.031 A 
ATOM     45  C   UNL A   1      42.786  26.053  29.242  1.00  0.00     0.031 A 
ATOM     46  C   UNL A   1      42.596  30.209  34.238  1.00  0.00     0.049 A 
ATOM     47  C   UNL A   1      43.724  26.329  30.387  1.00  0.00     0.074 A 
ATOM     48  C   UNL A   1      43.460  30.294  35.316  1.00  0.00     0.029 A 
ATOM     49  N   UNL A   1      43.081  29.207  33.413  1.00  0.00    -0.354 N 
ATOM     50  N   UNL A   1      43.597  27.189  31.369  1.00  0.00    -0.248 NA
ATOM     51  C   UNL A   1      44.949  25.518  30.453  1.00  0.00     0.031 C 
ATOM     52  C   UNL A   1      44.505  29.388  35.110  1.00  0.00     0.029 A 
ATOM     53  C   UNL A   1      44.253  28.689  33.939  1.00  0.00     0.049 A 
ATOM     54  H   UNL A   1      42.656  28.908  32.576  1.00  0.00     0.167 HD
ATOM     55  C   UNL A   1      44.701  26.994  32.191  1.00  0.00     0.074 A 
ATOM     56  C   UNL A   1      45.484  25.930  31.594  1.00  0.00     0.031 C 
ATOM     57  C   UNL A   1      45.029  27.630  33.343  1.00  0.00     0.031 A 
BRANCH  44  58
ATOM     58  C   UNL A   1      41.071  32.106  34.929  1.00  0.00    -0.014 A 
ATOM     59  C   UNL A   1      40.311  31.859  36.088  1.00  0.00     0.010 A 
ATOM     60  C   UNL A   1      41.531  33.411  34.677  1.00  0.00     0.010 A 
ATOM     61  C   UNL A   1      39.980  32.905  36.952  1.00  0.00     0.020 A 
ATOM     62  C   UNL A   1      41.227  34.455  35.555  1.00  0.00     0.020 A 
ATOM     63  C   UNL A   1      40.438  34.198  36.678  1.00  0.00     0.054 A 
BRANCH  63  64
ATOM     64  S   UNL A   1      40.005  35.534  37.825  1.00  0.00     0.124 S 
ATOM     65  O   UNL A   1      38.768  35.032  38.418  1.00  0.00    -0.237 OA
ATOM     66  O   UNL A   1      41.159  35.573  38.719  1.00  0.00    -0.237 OA
ATOM     67  O   UNL A   1      39.851  36.699  36.959  1.00  0.00    -0.744 OA
ENDBRANCH  63  64
ENDBRANCH  44  58
BRANCH  45  68
ATOM     68  C   UNL A   1      43.124  25.027  28.214  1.00  0.00    -0.014 A 
ATOM     69  C   UNL A   1      43.757  25.391  27.013  1.00  0.00     0.010 A 
ATOM     70  C   UNL A   1      42.809  23.672  28.435  1.00  0.00     0.010 A 
ATOM     71  C   UNL A   1      44.050  24.425  26.045  1.00  0.00     0.020 A 
ATOM     72  C   UNL A   1      43.124  22.700  27.481  1.00  0.00     0.020 A 
ATOM     73  C   UNL A   1      43.735  23.086  26.286  1.00  0.00     0.054 A 
BRANCH  73  74
ATOM     74  S   UNL A   1      44.172  21.846  25.034  1.00  0.00     0.124 S 
ATOM     75  O   UNL A   1      43.218  20.778  25.315  1.00  0.00    -0.237 OA
ATOM     76  O   UNL A   1      43.958  22.572  23.785  1.00  0.00    -0.237 OA
ATOM     77  O   UNL A   1      45.567  21.533  25.331  1.00  0.00    -0.744 OA
ENDBRANCH  73  74
ENDBRANCH  45  68
BRANCH  57  78
ATOM     78  C   UNL A   1      46.267  27.171  34.070  1.00  0.00    -0.014 A 
ATOM     79  C   UNL A   1      46.226  26.113  34.995  1.00  0.00     0.010 A 
ATOM     80  C   UNL A   1      47.504  27.772  33.773  1.00  0.00     0.010 A 
ATOM     81  C   UNL A   1      47.395  25.686  35.631  1.00  0.00     0.020 A 
ATOM     82  C   UNL A   1      48.679  27.327  34.382  1.00  0.00     0.020 A 
ATOM     83  C   UNL A   1      48.615  26.293  35.319  1.00  0.00     0.054 A 
BRANCH  83  84
ATOM     84  S   UNL A   1      50.124  25.688  36.123  1.00  0.00     0.124 S 
ATOM     85  O   UNL A   1      49.586  24.892  37.223  1.00  0.00    -0.237 OA
ATOM     86  O   UNL A   1      50.773  24.929  35.057  1.00  0.00    -0.237 OA
ATOM     87  O   UNL A   1      50.820  26.909  36.521  1.00  0.00    -0.744 OA
ENDBRANCH  83  84
ENDBRANCH  57  78
ENDBRANCH  31  32
ENDBRANCH  24  26
ENDBRANCH  23  24
ENDBRANCH  22  23
ENDBRANCH  21  22
ENDBRANCH   1  21
TORSDOF 20
ENDMDL
MODEL 3
REMARK VINA RESULT:      -9.7      4.430     10.575
REMARK SMILES CCc1n[nH]c2cc(CCC(=O)OCCOCCOC(=O)c3ccc(-c4c5nc(c(-c6ccc(S(=O)(=O)[O-])cc6)c6ccc([nH]6)c(-c6ccc(S(=O)(=O)[O-])cc6)c6nc(c(-c7ccc(S(=O)(=O)[O-])cc7)c7ccc4[nH]7)C=C6)C=C5)cc3)ccc12
REMARK SMILES IDX 16 1 15 2 14 3 13 4 11 5 12 6 10 7 9 8 8 9 3 10 4 11 84 12
REMARK SMILES IDX 5 13 6 14 83 15 7 17 82 18 2 19 1 20 17 21 18 22 19 23 20 24
REMARK SMILES IDX 21 25 22 26 23 27 81 28 24 29 80 30 25 31 26 32 27 33 74 34
REMARK SMILES IDX 28 35 79 36 73 37 75 38 29 39 78 40 72 41 71 42 30 44 60 45
REMARK SMILES IDX 41 46 59 47 42 48 45 49 58 50 76 51 43 52 44 53 57 55 77 56
REMARK SMILES IDX 46 57 31 58 32 59 40 60 33 61 39 62 34 63 35 64 36 65 37 66
REMARK SMILES IDX 38 67 61 68 62 69 70 70 63 71 69 72 64 73 65 74 66 75 67 76
REMARK SMILES IDX 68 77 47 78 48 79 56 80 49 81 55 82 50 83 51 84 52 85 53 86
REMARK SMILES IDX 54 87
REMARK H PARENT 5 16 75 43 45 54
REMARK Flexibility Score: inf
ROOT
ATOM      1  O   UNL A   1      34.165  31.813  27.985  1.00  0.00    -0.374 OA
ENDROOT
BRANCH   1   2
ATOM      2  C   UNL A   1      32.964  31.562  27.252  1.00  0.00     0.202 C 
BRANCH   2   3
ATOM      3  C   UNL A   1      32.900  30.191  26.556  1.00  0.00     0.261 C 
BRANCH   3   4
ATOM      4  O   UNL A   1      31.577  29.891  26.060  1.00  0.00    -0.463 OA
BRANCH   4   5
ATOM      5  C   UNL A   1      31.430  29.612  24.741  1.00  0.00     0.306 C 
ATOM      6  O   UNL A   1      30.417  29.832  24.090  1.00  0.00    -0.252 OA
BRANCH   5   7
ATOM      7  C   UNL A   1      32.684  28.995  24.143  1.00  0.00     0.127 C 
BRANCH   7   8
ATOM      8  C   UNL A   1      32.547  27.572  23.572  1.00  0.00     0.047 C 
BRANCH   8   9
ATOM      9  C   UNL A   1      32.784  26.478  24.591  1.00  0.00    -0.045 A 
ATOM     10  C   UNL A   1      32.752  23.126  27.143  1.00  0.00     0.070 A 
ATOM     11  N   UNL A   1      31.471  23.175  27.530  1.00  0.00    -0.180 NA
ATOM     12  C   UNL A   1      33.064  24.202  26.255  1.00  0.00     0.023 A 
ATOM     13  N   UNL A   1      30.984  24.266  26.945  1.00  0.00    -0.278 N 
ATOM     14  C   UNL A   1      31.893  24.944  26.195  1.00  0.00     0.066 A 
ATOM     15  C   UNL A   1      34.160  24.664  25.500  1.00  0.00     0.012 A 
ATOM     16  H   UNL A   1      30.049  24.557  27.046  1.00  0.00     0.190 HD
ATOM     17  C   UNL A   1      31.758  26.117  25.462  1.00  0.00     0.032 A 
ATOM     18  C   UNL A   1      33.992  25.774  24.648  1.00  0.00     0.004 A 
BRANCH  10  19
ATOM     19  C   UNL A   1      33.552  21.988  27.685  1.00  0.00     0.055 C 
ATOM     20  C   UNL A   1      34.628  21.434  26.777  1.00  0.00     0.011 C 
ENDBRANCH  10  19
ENDBRANCH   8   9
ENDBRANCH   7   8
ENDBRANCH   5   7
ENDBRANCH   4   5
ENDBRANCH   3   4
ENDBRANCH   2   3
ENDBRANCH   1   2
BRANCH   1  21
ATOM     21  C   UNL A   1      34.039  32.654  29.129  1.00  0.00     0.202 C 
BRANCH  21  22
ATOM     22  C   UNL A   1      34.990  32.335  30.288  1.00  0.00     0.261 C 
BRANCH  22  23
ATOM     23  O   UNL A   1      36.215  31.744  29.819  1.00  0.00    -0.460 OA
BRANCH  23  24
ATOM     24  C   UNL A   1      36.731  30.785  30.626  1.00  0.00     0.338 C 
ATOM     25  O   UNL A   1      36.126  30.118  31.449  1.00  0.00    -0.246 OA
BRANCH  24  26
ATOM     26  C   UNL A   1      38.134  30.513  30.250  1.00  0.00     0.060 A 
ATOM     27  C   UNL A   1      38.427  30.405  28.885  1.00  0.00     0.016 A 
ATOM     28  C   UNL A   1      39.144  30.338  31.198  1.00  0.00     0.016 A 
ATOM     29  C   UNL A   1      39.718  30.081  28.462  1.00  0.00     0.010 A 
ATOM     30  C   UNL A   1      40.440  30.018  30.770  1.00  0.00     0.010 A 
ATOM     31  C   UNL A   1      40.733  29.859  29.400  1.00  0.00    -0.014 A 
BRANCH  31  32
ATOM     32  C   UNL A   1      42.056  29.327  28.965  1.00  0.00     0.031 A 
ATOM     33  C   UNL A   1      43.223  30.277  28.876  1.00  0.00     0.074 A 
ATOM     34  C   UNL A   1      42.243  28.024  28.673  1.00  0.00     0.049 A 
ATOM     35  N   UNL A   1      44.460  30.040  28.521  1.00  0.00    -0.248 NA
ATOM     36  C   UNL A   1      42.963  31.679  29.244  1.00  0.00     0.031 C 
ATOM     37  C   UNL A   1      41.224  26.979  28.750  1.00  0.00     0.029 A 
ATOM     38  N   UNL A   1      43.362  27.357  28.230  1.00  0.00    -0.354 N 
ATOM     39  C   UNL A   1      45.122  31.258  28.625  1.00  0.00     0.074 A 
ATOM     40  C   UNL A   1      44.140  32.242  29.022  1.00  0.00     0.031 C 
ATOM     41  C   UNL A   1      41.746  25.817  28.322  1.00  0.00     0.029 A 
ATOM     42  C   UNL A   1      43.139  26.030  27.942  1.00  0.00     0.049 A 
ATOM     43  H   UNL A   1      44.241  27.789  28.129  1.00  0.00     0.167 HD
ATOM     44  C   UNL A   1      46.434  31.533  28.434  1.00  0.00     0.031 A 
ATOM     45  C   UNL A   1      43.953  25.091  27.420  1.00  0.00     0.031 A 
ATOM     46  C   UNL A   1      47.414  30.561  28.031  1.00  0.00     0.049 A 
ATOM     47  C   UNL A   1      45.389  25.437  27.128  1.00  0.00     0.074 A 
ATOM     48  C   UNL A   1      48.775  30.739  27.850  1.00  0.00     0.029 A 
ATOM     49  N   UNL A   1      47.140  29.236  27.731  1.00  0.00    -0.354 N 
ATOM     50  N   UNL A   1      46.013  26.579  27.296  1.00  0.00    -0.248 NA
ATOM     51  C   UNL A   1      46.242  24.359  26.605  1.00  0.00     0.031 C 
ATOM     52  C   UNL A   1      49.313  29.538  27.378  1.00  0.00     0.029 A 
ATOM     53  C   UNL A   1      48.300  28.592  27.333  1.00  0.00     0.049 A 
ATOM     54  H   UNL A   1      46.252  28.814  27.793  1.00  0.00     0.167 HD
ATOM     55  C   UNL A   1      47.337  26.345  26.941  1.00  0.00     0.074 A 
ATOM     56  C   UNL A   1      47.426  24.952  26.554  1.00  0.00     0.031 C 
ATOM     57  C   UNL A   1      48.385  27.206  26.948  1.00  0.00     0.031 A 
BRANCH  44  58
ATOM     58  C   UNL A   1      46.879  32.956  28.643  1.00  0.00    -0.014 A 
ATOM     59  C   UNL A   1      46.751  33.917  27.623  1.00  0.00     0.010 A 
ATOM     60  C   UNL A   1      47.408  33.344  29.887  1.00  0.00     0.010 A 
ATOM     61  C   UNL A   1      47.186  35.228  27.828  1.00  0.00     0.020 A 
ATOM     62  C   UNL A   1      47.817  34.663  30.106  1.00  0.00     0.020 A 
ATOM     63  C   UNL A   1      47.719  35.592  29.068  1.00  0.00     0.054 A 
BRANCH  63  64
ATOM     64  S   UNL A   1      48.263  37.304  29.312  1.00  0.00     0.124 S 
ATOM     65  O   UNL A   1      48.014  37.889  27.996  1.00  0.00    -0.237 OA
ATOM     66  O   UNL A   1      47.384  37.770  30.382  1.00  0.00    -0.237 OA
ATOM     67  O   UNL A   1      49.670  37.175  29.677  1.00  0.00    -0.744 OA
ENDBRANCH  63  64
ENDBRANCH  44  58
BRANCH  45  68
ATOM     68  C   UNL A   1      43.434  23.720  27.147  1.00  0.00    -0.014 A 
ATOM     69  C   UNL A   1      43.221  23.279  25.829  1.00  0.00     0.010 A 
ATOM     70  C   UNL A   1      43.146  22.846  28.213  1.00  0.00     0.010 A 
ATOM     71  C   UNL A   1      42.712  21.999  25.582  1.00  0.00     0.020 A 
ATOM     72  C   UNL A   1      42.661  21.557  27.969  1.00  0.00     0.020 A 
ATOM     73  C   UNL A   1      42.439  21.146  26.654  1.00  0.00     0.054 A 
BRANCH  73  74
ATOM     74  S   UNL A   1      41.826  19.473  26.304  1.00  0.00     0.124 S 
ATOM     75  O   UNL A   1      42.548  19.133  25.082  1.00  0.00    -0.237 OA
ATOM     76  O   UNL A   1      42.224  18.735  27.500  1.00  0.00    -0.237 OA
ATOM     77  O   UNL A   1      40.385  19.659  26.148  1.00  0.00    -0.744 OA
ENDBRANCH  73  74
ENDBRANCH  45  68
BRANCH  57  78
ATOM     78  C   UNL A   1      49.739  26.664  26.568  1.00  0.00    -0.014 A 
ATOM     79  C   UNL A   1      50.198  26.696  25.239  1.00  0.00     0.010 A 
ATOM     80  C   UNL A   1      50.593  26.171  27.573  1.00  0.00     0.010 A 
ATOM     81  C   UNL A   1      51.471  26.217  24.919  1.00  0.00     0.020 A 
ATOM     82  C   UNL A   1      51.878  25.721  27.263  1.00  0.00     0.020 A 
ATOM     83  C   UNL A   1      52.305  25.735  25.933  1.00  0.00     0.054 A 
BRANCH  83  84
ATOM     84  S   UNL A   1      53.970  25.163  25.498  1.00  0.00     0.124 S 
ATOM     85  O   UNL A   1      53.688  23.934  24.761  1.00  0.00    -0.237 OA
ATOM     86  O   UNL A   1      54.490  26.270  24.698  1.00  0.00    -0.237 OA
ATOM     87  O   UNL A   1      54.623  24.978  26.791  1.00  0.00    -0.744 OA
ENDBRANCH  83  84
ENDBRANCH  57  78
ENDBRANCH  31  32
ENDBRANCH  24  26
ENDBRANCH  23  24
ENDBRANCH  22  23
ENDBRANCH  21  22
ENDBRANCH   1  21
TORSDOF 20
ENDMDL
