MODEL 1
REMARK VINA RESULT:     -10.0      0.000      0.000
REMARK SMILES NC(=O)c1cccc(NC2(CC(=O)OCCOCCOC(=O)c3ccc(-c4c5nc(c(-c6ccc(S(=O)(=O)[O-])cc6)c6ccc([nH]6)c(-c6ccc(S(=O)(=O)[O-])cc6)c6nc(c(-c7ccc(S(=O)(=O)[O-])cc7)c7ccc4[nH]7)C=C6)C=C5)cc3)CCC2)n1
REMARK SMILES IDX 16 1 15 2 14 3 12 4 13 5 11 6 10 7 83 8 85 9 84 10 9 11 8 13
REMARK SMILES IDX 4 14 5 15 86 16 6 17 7 18 2 19 1 20 3 23 17 24 18 25 19 26
REMARK SMILES IDX 20 27 21 28 22 29 23 30 24 31 82 32 25 33 81 34 26 35 27 36
REMARK SMILES IDX 28 37 75 38 29 39 80 40 74 41 76 42 30 43 79 44 73 45 72 46
REMARK SMILES IDX 31 48 61 49 42 50 60 51 43 52 46 53 59 54 77 55 44 56 45 57
REMARK SMILES IDX 58 59 78 60 47 61 32 62 33 63 41 64 34 65 40 66 35 67 36 68
REMARK SMILES IDX 37 69 38 70 39 71 62 72 63 73 71 74 64 75 70 76 65 77 66 78
REMARK SMILES IDX 67 79 68 80 69 81 48 82 49 83 57 84 50 85 56 86 51 87 52 88
REMARK SMILES IDX 53 89 54 90 55 91
REMARK H PARENT 9 12 1 21 1 22 76 47 46 58
REMARK Flexibility Score: inf
ROOT
ATOM      1  C   UNL A   1      32.895  28.473  27.385  1.00  0.00     0.202 C 
ENDROOT
BRANCH   1   2
ATOM      2  C   UNL A   1      33.782  28.031  26.219  1.00  0.00     0.261 C 
BRANCH   2   3
ATOM      3  O   UNL A   1      33.124  27.099  25.338  1.00  0.00    -0.463 OA
BRANCH   3   4
ATOM      4  C   UNL A   1      33.771  26.800  24.183  1.00  0.00     0.308 C 
ATOM      5  O   UNL A   1      34.091  27.616  23.325  1.00  0.00    -0.252 OA
BRANCH   4   6
ATOM      6  C   UNL A   1      33.986  25.324  23.998  1.00  0.00     0.151 C 
BRANCH   6   7
ATOM      7  C   UNL A   1      32.997  24.515  23.144  1.00  0.00     0.049 C 
ATOM      8  C   UNL A   1      32.137  23.599  24.067  1.00  0.00     0.029 C 
ATOM      9  C   UNL A   1      33.529  23.221  22.461  1.00  0.00     0.029 C 
ATOM     10  C   UNL A   1      33.067  22.429  23.700  1.00  0.00     0.005 C 
BRANCH   7  11
ATOM     11  N   UNL A   1      32.184  25.364  22.292  1.00  0.00    -0.364 N 
ATOM     12  H   UNL A   1      32.454  25.404  21.346  1.00  0.00     0.162 HD
BRANCH  11  13
ATOM     13  C   UNL A   1      31.053  26.141  22.639  1.00  0.00     0.127 A 
ATOM     14  C   UNL A   1      29.811  28.103  22.512  1.00  0.00     0.130 A 
ATOM     15  C   UNL A   1      28.892  27.673  23.455  1.00  0.00     0.034 A 
ATOM     16  N   UNL A   1      30.881  27.367  22.118  1.00  0.00    -0.226 NA
ATOM     17  C   UNL A   1      29.072  26.409  23.998  1.00  0.00     0.006 A 
ATOM     18  C   UNL A   1      30.155  25.634  23.579  1.00  0.00     0.047 A 
BRANCH  14  19
ATOM     19  C   UNL A   1      29.638  29.420  21.824  1.00  0.00     0.267 C 
ATOM     20  N   UNL A   1      30.770  30.165  21.603  1.00  0.00    -0.364 N 
ATOM     21  H   UNL A   1      30.705  31.039  21.154  1.00  0.00     0.160 HD
ATOM     22  H   UNL A   1      31.648  29.826  21.894  1.00  0.00     0.160 HD
ATOM     23  O   UNL A   1      28.543  29.839  21.468  1.00  0.00    -0.268 OA
ENDBRANCH  14  19
ENDBRANCH  11  13
ENDBRANCH   7  11
ENDBRANCH   6   7
ENDBRANCH   4   6
ENDBRANCH   3   4
ENDBRANCH   2   3
ENDBRANCH   1   2
BRANCH   1  24
ATOM     24  O   UNL A   1      32.158  29.676  27.163  1.00  0.00    -0.374 OA
BRANCH  24  25
ATOM     25  C   UNL A   1      32.905  30.786  26.662  1.00  0.00     0.202 C 
BRANCH  25  26
ATOM     26  C   UNL A   1      33.681  31.561  27.726  1.00  0.00     0.261 C 
BRANCH  26  27
ATOM     27  O   UNL A   1      33.789  32.945  27.360  1.00  0.00    -0.460 OA
BRANCH  27  28
ATOM     28  C   UNL A   1      33.641  33.803  28.391  1.00  0.00     0.338 C 
ATOM     29  O   UNL A   1      32.687  34.540  28.602  1.00  0.00    -0.246 OA
BRANCH  28  30
ATOM     30  C   UNL A   1      34.732  33.634  29.364  1.00  0.00     0.060 A 
ATOM     31  C   UNL A   1      35.996  34.088  28.972  1.00  0.00     0.016 A 
ATOM     32  C   UNL A   1      34.561  32.958  30.576  1.00  0.00     0.016 A 
ATOM     33  C   UNL A   1      37.110  33.786  29.745  1.00  0.00     0.010 A 
ATOM     34  C   UNL A   1      35.686  32.654  31.353  1.00  0.00     0.010 A 
ATOM     35  C   UNL A   1      36.969  33.019  30.910  1.00  0.00    -0.014 A 
BRANCH  35  36
ATOM     36  C   UNL A   1      38.198  32.478  31.541  1.00  0.00     0.031 A 
ATOM     37  C   UNL A   1      38.609  32.992  32.895  1.00  0.00     0.074 A 
ATOM     38  C   UNL A   1      38.861  31.457  30.969  1.00  0.00     0.049 A 
ATOM     39  N   UNL A   1      39.554  32.563  33.691  1.00  0.00    -0.248 NA
ATOM     40  C   UNL A   1      37.846  34.132  33.430  1.00  0.00     0.031 C 
ATOM     41  C   UNL A   1      38.529  30.851  29.679  1.00  0.00     0.029 A 
ATOM     42  N   UNL A   1      39.935  30.731  31.415  1.00  0.00    -0.354 N 
ATOM     43  C   UNL A   1      39.492  33.369  34.822  1.00  0.00     0.074 A 
ATOM     44  C   UNL A   1      38.445  34.341  34.593  1.00  0.00     0.031 C 
ATOM     45  C   UNL A   1      39.371  29.830  29.448  1.00  0.00     0.029 A 
ATOM     46  C   UNL A   1      40.308  29.719  30.564  1.00  0.00     0.049 A 
ATOM     47  H   UNL A   1      40.396  30.917  32.265  1.00  0.00     0.167 HD
ATOM     48  C   UNL A   1      40.229  33.299  35.957  1.00  0.00     0.031 A 
ATOM     49  C   UNL A   1      41.290  28.803  30.677  1.00  0.00     0.031 A 
ATOM     50  C   UNL A   1      41.283  32.344  36.174  1.00  0.00     0.049 A 
ATOM     51  C   UNL A   1      42.136  28.785  31.922  1.00  0.00     0.074 A 
ATOM     52  C   UNL A   1      42.097  32.195  37.283  1.00  0.00     0.029 A 
ATOM     53  N   UNL A   1      41.670  31.376  35.259  1.00  0.00    -0.354 N 
ATOM     54  N   UNL A   1      42.050  29.543  32.989  1.00  0.00    -0.248 NA
ATOM     55  C   UNL A   1      43.202  27.774  31.982  1.00  0.00     0.031 C 
ATOM     56  C   UNL A   1      43.007  31.164  37.021  1.00  0.00     0.029 A 
ATOM     57  C   UNL A   1      42.723  30.638  35.770  1.00  0.00     0.049 A 
ATOM     58  H   UNL A   1      41.257  31.235  34.377  1.00  0.00     0.167 HD
ATOM     59  C   UNL A   1      43.034  29.086  33.858  1.00  0.00     0.074 A 
ATOM     60  C   UNL A   1      43.692  27.975  33.198  1.00  0.00     0.031 C 
ATOM     61  C   UNL A   1      43.367  29.540  35.092  1.00  0.00     0.031 A 
BRANCH  48  62
ATOM     62  C   UNL A   1      39.929  34.301  37.041  1.00  0.00    -0.014 A 
ATOM     63  C   UNL A   1      40.418  35.618  36.965  1.00  0.00     0.010 A 
ATOM     64  C   UNL A   1      39.130  33.930  38.137  1.00  0.00     0.010 A 
ATOM     65  C   UNL A   1      40.145  36.535  37.984  1.00  0.00     0.020 A 
ATOM     66  C   UNL A   1      38.835  34.850  39.147  1.00  0.00     0.020 A 
ATOM     67  C   UNL A   1      39.359  36.142  39.073  1.00  0.00     0.054 A 
BRANCH  67  68
ATOM     68  S   UNL A   1      39.010  37.353  40.378  1.00  0.00     0.124 S 
ATOM     69  O   UNL A   1      38.245  38.365  39.653  1.00  0.00    -0.237 OA
ATOM     70  O   UNL A   1      38.252  36.570  41.350  1.00  0.00    -0.237 OA
ATOM     71  O   UNL A   1      40.336  37.776  40.821  1.00  0.00    -0.744 OA
ENDBRANCH  67  68
ENDBRANCH  48  62
BRANCH  49  72
ATOM     72  C   UNL A   1      41.521  27.822  29.582  1.00  0.00    -0.014 A 
ATOM     73  C   UNL A   1      42.771  27.732  28.945  1.00  0.00     0.010 A 
ATOM     74  C   UNL A   1      40.479  26.971  29.167  1.00  0.00     0.010 A 
ATOM     75  C   UNL A   1      42.969  26.823  27.901  1.00  0.00     0.020 A 
ATOM     76  C   UNL A   1      40.682  26.044  28.142  1.00  0.00     0.020 A 
ATOM     77  C   UNL A   1      41.924  25.984  27.506  1.00  0.00     0.054 A 
BRANCH  77  78
ATOM     78  S   UNL A   1      42.214  24.779  26.182  1.00  0.00     0.124 S 
ATOM     79  O   UNL A   1      41.602  23.572  26.730  1.00  0.00    -0.237 OA
ATOM     80  O   UNL A   1      41.519  25.382  25.046  1.00  0.00    -0.237 OA
ATOM     81  O   UNL A   1      43.669  24.746  26.064  1.00  0.00    -0.744 OA
ENDBRANCH  77  78
ENDBRANCH  49  72
BRANCH  61  82
ATOM     82  C   UNL A   1      44.471  28.819  35.815  1.00  0.00    -0.014 A 
ATOM     83  C   UNL A   1      44.199  27.716  36.644  1.00  0.00     0.010 A 
ATOM     84  C   UNL A   1      45.804  29.234  35.638  1.00  0.00     0.010 A 
ATOM     85  C   UNL A   1      45.238  27.067  37.317  1.00  0.00     0.020 A 
ATOM     86  C   UNL A   1      46.847  28.571  36.288  1.00  0.00     0.020 A 
ATOM     87  C   UNL A   1      46.555  27.504  37.139  1.00  0.00     0.054 A 
BRANCH  87  88
ATOM     88  S   UNL A   1      47.889  26.633  38.006  1.00  0.00     0.124 S 
ATOM     89  O   UNL A   1      48.441  27.688  38.851  1.00  0.00    -0.237 OA
ATOM     90  O   UNL A   1      47.178  25.570  38.712  1.00  0.00    -0.237 OA
ATOM     91  O   UNL A   1      48.763  26.178  36.926  1.00  0.00    -0.744 OA
ENDBRANCH  87  88
ENDBRANCH  61  82
ENDBRANCH  35  36
ENDBRANCH  28  30
ENDBRANCH  27  28
ENDBRANCH  26  27
ENDBRANCH  25  26
ENDBRANCH  24  25
ENDBRANCH   1  24
TORSDOF 21
ENDMDL
MODEL 2
REMARK VINA RESULT:      -9.9      5.143      7.304
REMARK SMILES NC(=O)c1cccc(NC2(CC(=O)OCCOCCOC(=O)c3ccc(-c4c5nc(c(-c6ccc(S(=O)(=O)[O-])cc6)c6ccc([nH]6)c(-c6ccc(S(=O)(=O)[O-])cc6)c6nc(c(-c7ccc(S(=O)(=O)[O-])cc7)c7ccc4[nH]7)C=C6)C=C5)cc3)CCC2)n1
REMARK SMILES IDX 16 1 15 2 14 3 12 4 13 5 11 6 10 7 83 8 85 9 84 10 9 11 8 13
REMARK SMILES IDX 4 14 5 15 86 16 6 17 7 18 2 19 1 20 3 23 17 24 18 25 19 26
REMARK SMILES IDX 20 27 21 28 22 29 23 30 24 31 82 32 25 33 81 34 26 35 27 36
REMARK SMILES IDX 28 37 75 38 29 39 80 40 74 41 76 42 30 43 79 44 73 45 72 46
REMARK SMILES IDX 31 48 61 49 42 50 60 51 43 52 46 53 59 54 77 55 44 56 45 57
REMARK SMILES IDX 58 59 78 60 47 61 32 62 33 63 41 64 34 65 40 66 35 67 36 68
REMARK SMILES IDX 37 69 38 70 39 71 62 72 63 73 71 74 64 75 70 76 65 77 66 78
REMARK SMILES IDX 67 79 68 80 69 81 48 82 49 83 57 84 50 85 56 86 51 87 52 88
REMARK SMILES IDX 53 89 54 90 55 91
REMARK H PARENT 9 12 1 21 1 22 76 47 46 58
REMARK Flexibility Score: inf
ROOT
ATOM      1  C   UNL A   1      35.302  32.244  28.050  1.00  0.00     0.202 C 
ENDROOT
BRANCH   1   2
ATOM      2  C   UNL A   1      36.692  32.054  28.663  1.00  0.00     0.261 C 
BRANCH   2   3
ATOM      3  O   UNL A   1      36.753  30.939  29.575  1.00  0.00    -0.463 OA
BRANCH   3   4
ATOM      4  C   UNL A   1      36.815  29.705  29.015  1.00  0.00     0.308 C 
ATOM      5  O   UNL A   1      36.131  29.325  28.071  1.00  0.00    -0.252 OA
BRANCH   4   6
ATOM      6  C   UNL A   1      37.758  28.783  29.737  1.00  0.00     0.151 C 
BRANCH   6   7
ATOM      7  C   UNL A   1      39.265  29.084  29.731  1.00  0.00     0.049 C 
ATOM      8  C   UNL A   1      39.737  29.362  28.271  1.00  0.00     0.029 C 
ATOM      9  C   UNL A   1      40.240  27.871  29.749  1.00  0.00     0.029 C 
ATOM     10  C   UNL A   1      40.253  27.913  28.208  1.00  0.00     0.005 C 
BRANCH   7  11
ATOM     11  N   UNL A   1      39.614  30.161  30.640  1.00  0.00    -0.364 N 
ATOM     12  H   UNL A   1      40.021  30.956  30.224  1.00  0.00     0.162 HD
BRANCH  11  13
ATOM     13  C   UNL A   1      39.448  30.223  32.044  1.00  0.00     0.127 A 
ATOM     14  C   UNL A   1      40.205  29.824  34.206  1.00  0.00     0.130 A 
ATOM     15  C   UNL A   1      39.015  30.241  34.782  1.00  0.00     0.034 A 
ATOM     16  N   UNL A   1      40.420  29.797  32.867  1.00  0.00    -0.226 NA
ATOM     17  C   UNL A   1      38.008  30.675  33.933  1.00  0.00     0.006 A 
ATOM     18  C   UNL A   1      38.230  30.675  32.555  1.00  0.00     0.047 A 
BRANCH  14  19
ATOM     19  C   UNL A   1      41.365  29.419  35.060  1.00  0.00     0.267 C 
ATOM     20  N   UNL A   1      42.595  29.350  34.455  1.00  0.00    -0.364 N 
ATOM     21  H   UNL A   1      43.387  29.087  34.977  1.00  0.00     0.160 HD
ATOM     22  H   UNL A   1      42.686  29.564  33.498  1.00  0.00     0.160 HD
ATOM     23  O   UNL A   1      41.245  29.149  36.249  1.00  0.00    -0.268 OA
ENDBRANCH  14  19
ENDBRANCH  11  13
ENDBRANCH   7  11
ENDBRANCH   6   7
ENDBRANCH   4   6
ENDBRANCH   3   4
ENDBRANCH   2   3
ENDBRANCH   1   2
BRANCH   1  24
ATOM     24  O   UNL A   1      34.992  33.581  27.656  1.00  0.00    -0.374 OA
BRANCH  24  25
ATOM     25  C   UNL A   1      33.606  33.925  27.639  1.00  0.00     0.202 C 
BRANCH  25  26
ATOM     26  C   UNL A   1      33.258  35.195  28.415  1.00  0.00     0.261 C 
BRANCH  26  27
ATOM     27  O   UNL A   1      32.528  34.871  29.608  1.00  0.00    -0.460 OA
BRANCH  27  28
ATOM     28  C   UNL A   1      32.778  35.694  30.649  1.00  0.00     0.338 C 
ATOM     29  O   UNL A   1      32.135  36.685  30.972  1.00  0.00    -0.246 OA
BRANCH  28  30
ATOM     30  C   UNL A   1      33.865  35.156  31.482  1.00  0.00     0.060 A 
ATOM     31  C   UNL A   1      34.387  36.011  32.458  1.00  0.00     0.016 A 
ATOM     32  C   UNL A   1      34.435  33.900  31.255  1.00  0.00     0.016 A 
ATOM     33  C   UNL A   1      35.541  35.654  33.145  1.00  0.00     0.010 A 
ATOM     34  C   UNL A   1      35.598  33.542  31.949  1.00  0.00     0.010 A 
ATOM     35  C   UNL A   1      36.184  34.443  32.855  1.00  0.00    -0.014 A 
BRANCH  35  36
ATOM     36  C   UNL A   1      37.551  34.234  33.391  1.00  0.00     0.031 A 
ATOM     37  C   UNL A   1      37.725  33.989  34.867  1.00  0.00     0.074 A 
ATOM     38  C   UNL A   1      38.601  34.140  32.556  1.00  0.00     0.049 A 
ATOM     39  N   UNL A   1      38.800  33.642  35.527  1.00  0.00    -0.248 NA
ATOM     40  C   UNL A   1      36.528  34.145  35.710  1.00  0.00     0.031 C 
ATOM     41  C   UNL A   1      38.545  34.318  31.105  1.00  0.00     0.029 A 
ATOM     42  N   UNL A   1      39.916  33.843  32.808  1.00  0.00    -0.354 N 
ATOM     43  C   UNL A   1      38.407  33.524  36.855  1.00  0.00     0.074 A 
ATOM     44  C   UNL A   1      37.006  33.879  36.916  1.00  0.00     0.031 C 
ATOM     45  C   UNL A   1      39.768  34.105  30.592  1.00  0.00     0.029 A 
ATOM     46  C   UNL A   1      40.695  33.791  31.678  1.00  0.00     0.049 A 
ATOM     47  H   UNL A   1      40.268  33.682  33.713  1.00  0.00     0.167 HD
ATOM     48  C   UNL A   1      39.141  33.140  37.927  1.00  0.00     0.031 A 
ATOM     49  C   UNL A   1      42.006  33.513  31.534  1.00  0.00     0.031 A 
ATOM     50  C   UNL A   1      40.539  32.808  37.868  1.00  0.00     0.049 A 
ATOM     51  C   UNL A   1      42.815  33.150  32.751  1.00  0.00     0.074 A 
ATOM     52  C   UNL A   1      41.378  32.417  38.897  1.00  0.00     0.029 A 
ATOM     53  N   UNL A   1      41.306  32.829  36.712  1.00  0.00    -0.354 N 
ATOM     54  N   UNL A   1      42.422  33.025  33.997  1.00  0.00    -0.248 NA
ATOM     55  C   UNL A   1      44.243  32.873  32.537  1.00  0.00     0.031 C 
ATOM     56  C   UNL A   1      42.664  32.245  38.370  1.00  0.00     0.029 A 
ATOM     57  C   UNL A   1      42.611  32.476  37.004  1.00  0.00     0.049 A 
ATOM     58  H   UNL A   1      40.970  33.060  35.816  1.00  0.00     0.167 HD
ATOM     59  C   UNL A   1      43.548  32.633  34.711  1.00  0.00     0.074 A 
ATOM     60  C   UNL A   1      44.633  32.524  33.756  1.00  0.00     0.031 C 
ATOM     61  C   UNL A   1      43.677  32.382  36.038  1.00  0.00     0.031 A 
BRANCH  48  62
ATOM     62  C   UNL A   1      38.443  33.084  39.261  1.00  0.00    -0.014 A 
ATOM     63  C   UNL A   1      37.721  31.941  39.652  1.00  0.00     0.010 A 
ATOM     64  C   UNL A   1      38.529  34.174  40.144  1.00  0.00     0.010 A 
ATOM     65  C   UNL A   1      37.065  31.906  40.887  1.00  0.00     0.020 A 
ATOM     66  C   UNL A   1      37.894  34.135  41.389  1.00  0.00     0.020 A 
ATOM     67  C   UNL A   1      37.151  33.007  41.745  1.00  0.00     0.054 A 
BRANCH  67  68
ATOM     68  S   UNL A   1      36.301  32.933  43.346  1.00  0.00     0.124 S 
ATOM     69  O   UNL A   1      37.385  33.235  44.277  1.00  0.00    -0.237 OA
ATOM     70  O   UNL A   1      35.278  33.968  43.216  1.00  0.00    -0.237 OA
ATOM     71  O   UNL A   1      35.793  31.565  43.405  1.00  0.00    -0.744 OA
ENDBRANCH  67  68
ENDBRANCH  48  62
BRANCH  49  72
ATOM     72  C   UNL A   1      42.634  33.562  30.186  1.00  0.00    -0.014 A 
ATOM     73  C   UNL A   1      42.914  32.380  29.478  1.00  0.00     0.010 A 
ATOM     74  C   UNL A   1      42.958  34.801  29.604  1.00  0.00     0.010 A 
ATOM     75  C   UNL A   1      43.526  32.436  28.222  1.00  0.00     0.020 A 
ATOM     76  C   UNL A   1      43.546  34.861  28.338  1.00  0.00     0.020 A 
ATOM     77  C   UNL A   1      43.838  33.677  27.659  1.00  0.00     0.054 A 
BRANCH  77  78
ATOM     78  S   UNL A   1      44.588  33.732  26.008  1.00  0.00     0.124 S 
ATOM     79  O   UNL A   1      45.728  34.618  26.223  1.00  0.00    -0.237 OA
ATOM     80  O   UNL A   1      44.914  32.329  25.761  1.00  0.00    -0.237 OA
ATOM     81  O   UNL A   1      43.523  34.273  25.168  1.00  0.00    -0.744 OA
ENDBRANCH  77  78
ENDBRANCH  49  72
BRANCH  61  82
ATOM     82  C   UNL A   1      45.030  31.941  36.526  1.00  0.00    -0.014 A 
ATOM     83  C   UNL A   1      45.983  32.875  36.969  1.00  0.00     0.010 A 
ATOM     84  C   UNL A   1      45.340  30.569  36.569  1.00  0.00     0.010 A 
ATOM     85  C   UNL A   1      47.239  32.447  37.407  1.00  0.00     0.020 A 
ATOM     86  C   UNL A   1      46.585  30.136  37.030  1.00  0.00     0.020 A 
ATOM     87  C   UNL A   1      47.534  31.079  37.428  1.00  0.00     0.054 A 
BRANCH  87  88
ATOM     88  S   UNL A   1      49.163  30.545  38.021  1.00  0.00     0.124 S 
ATOM     89  O   UNL A   1      49.633  29.720  36.911  1.00  0.00    -0.237 OA
ATOM     90  O   UNL A   1      49.870  31.809  38.208  1.00  0.00    -0.237 OA
ATOM     91  O   UNL A   1      48.861  29.819  39.252  1.00  0.00    -0.744 OA
ENDBRANCH  87  88
ENDBRANCH  61  82
ENDBRANCH  35  36
ENDBRANCH  28  30
ENDBRANCH  27  28
ENDBRANCH  26  27
ENDBRANCH  25  26
ENDBRANCH  24  25
ENDBRANCH   1  24
TORSDOF 21
ENDMDL
MODEL 3
REMARK VINA RESULT:      -9.8      6.492     10.884
REMARK SMILES NC(=O)c1cccc(NC2(CC(=O)OCCOCCOC(=O)c3ccc(-c4c5nc(c(-c6ccc(S(=O)(=O)[O-])cc6)c6ccc([nH]6)c(-c6ccc(S(=O)(=O)[O-])cc6)c6nc(c(-c7ccc(S(=O)(=O)[O-])cc7)c7ccc4[nH]7)C=C6)C=C5)cc3)CCC2)n1
REMARK SMILES IDX 16 1 15 2 14 3 12 4 13 5 11 6 10 7 83 8 85 9 84 10 9 11 8 13
REMARK SMILES IDX 4 14 5 15 86 16 6 17 7 18 2 19 1 20 3 23 17 24 18 25 19 26
REMARK SMILES IDX 20 27 21 28 22 29 23 30 24 31 82 32 25 33 81 34 26 35 27 36
REMARK SMILES IDX 28 37 75 38 29 39 80 40 74 41 76 42 30 43 79 44 73 45 72 46
REMARK SMILES IDX 31 48 61 49 42 50 60 51 43 52 46 53 59 54 77 55 44 56 45 57
REMARK SMILES IDX 58 59 78 60 47 61 32 62 33 63 41 64 34 65 40 66 35 67 36 68
REMARK SMILES IDX 37 69 38 70 39 71 62 72 63 73 71 74 64 75 70 76 65 77 66 78
REMARK SMILES IDX 67 79 68 80 69 81 48 82 49 83 57 84 50 85 56 86 51 87 52 88
REMARK SMILES IDX 53 89 54 90 55 91
REMARK H PARENT 9 12 1 21 1 22 76 47 46 58
REMARK Flexibility Score: inf
ROOT
ATOM      1  C   UNL A   1      31.817  28.105  27.083  1.00  0.00     0.202 C 
ENDROOT
BRANCH   1   2
ATOM      2  C   UNL A   1      31.954  26.974  26.060  1.00  0.00     0.261 C 
BRANCH   2   3
ATOM      3  O   UNL A   1      31.199  25.800  26.421  1.00  0.00    -0.463 OA
BRANCH   3   4
ATOM      4  C   UNL A   1      31.462  24.672  25.714  1.00  0.00     0.308 C 
ATOM      5  O   UNL A   1      30.809  23.636  25.773  1.00  0.00    -0.252 OA
BRANCH   4   6
ATOM      6  C   UNL A   1      32.719  24.776  24.896  1.00  0.00     0.151 C 
BRANCH   6   7
ATOM      7  C   UNL A   1      32.641  24.643  23.367  1.00  0.00     0.049 C 
ATOM      8  C   UNL A   1      33.217  25.931  22.701  1.00  0.00     0.029 C 
ATOM      9  C   UNL A   1      31.281  24.975  22.684  1.00  0.00     0.029 C 
ATOM     10  C   UNL A   1      31.772  26.425  22.508  1.00  0.00     0.005 C 
BRANCH   7  11
ATOM     11  N   UNL A   1      33.287  23.435  22.886  1.00  0.00    -0.364 N 
ATOM     12  H   UNL A   1      33.323  23.332  21.907  1.00  0.00     0.162 HD
BRANCH  11  13
ATOM     13  C   UNL A   1      33.872  22.387  23.635  1.00  0.00     0.127 A 
ATOM     14  C   UNL A   1      33.715  20.382  24.801  1.00  0.00     0.130 A 
ATOM     15  C   UNL A   1      35.037  20.429  25.213  1.00  0.00     0.034 A 
ATOM     16  N   UNL A   1      33.132  21.343  24.042  1.00  0.00    -0.226 NA
ATOM     17  C   UNL A   1      35.801  21.510  24.798  1.00  0.00     0.006 A 
ATOM     18  C   UNL A   1      35.216  22.490  23.994  1.00  0.00     0.047 A 
BRANCH  14  19
ATOM     19  C   UNL A   1      32.852  19.208  25.142  1.00  0.00     0.267 C 
ATOM     20  N   UNL A   1      32.980  18.681  26.404  1.00  0.00    -0.364 N 
ATOM     21  H   UNL A   1      32.433  17.908  26.673  1.00  0.00     0.160 HD
ATOM     22  H   UNL A   1      33.620  19.077  27.041  1.00  0.00     0.160 HD
ATOM     23  O   UNL A   1      32.062  18.717  24.345  1.00  0.00    -0.268 OA
ENDBRANCH  14  19
ENDBRANCH  11  13
ENDBRANCH   7  11
ENDBRANCH   6   7
ENDBRANCH   4   6
ENDBRANCH   3   4
ENDBRANCH   2   3
ENDBRANCH   1   2
BRANCH   1  24
ATOM     24  O   UNL A   1      33.026  28.466  27.751  1.00  0.00    -0.374 OA
BRANCH  24  25
ATOM     25  C   UNL A   1      33.539  29.767  27.463  1.00  0.00     0.202 C 
BRANCH  25  26
ATOM     26  C   UNL A   1      35.041  29.809  27.184  1.00  0.00     0.261 C 
BRANCH  26  27
ATOM     27  O   UNL A   1      35.771  29.227  28.275  1.00  0.00    -0.460 OA
BRANCH  27  28
ATOM     28  C   UNL A   1      36.327  30.129  29.111  1.00  0.00     0.338 C 
ATOM     29  O   UNL A   1      35.761  30.756  29.997  1.00  0.00    -0.246 OA
BRANCH  28  30
ATOM     30  C   UNL A   1      37.787  30.163  28.935  1.00  0.00     0.060 A 
ATOM     31  C   UNL A   1      38.275  29.811  27.673  1.00  0.00     0.016 A 
ATOM     32  C   UNL A   1      38.665  30.425  29.992  1.00  0.00     0.016 A 
ATOM     33  C   UNL A   1      39.639  29.624  27.485  1.00  0.00     0.010 A 
ATOM     34  C   UNL A   1      40.040  30.236  29.800  1.00  0.00     0.010 A 
ATOM     35  C   UNL A   1      40.524  29.781  28.561  1.00  0.00    -0.014 A 
BRANCH  35  36
ATOM     36  C   UNL A   1      41.915  29.296  28.395  1.00  0.00     0.031 A 
ATOM     37  C   UNL A   1      42.147  27.840  28.089  1.00  0.00     0.074 A 
ATOM     38  C   UNL A   1      42.942  30.165  28.393  1.00  0.00     0.049 A 
ATOM     39  N   UNL A   1      43.258  27.229  27.764  1.00  0.00    -0.248 NA
ATOM     40  C   UNL A   1      40.971  26.956  28.145  1.00  0.00     0.031 C 
ATOM     41  C   UNL A   1      42.831  31.604  28.637  1.00  0.00     0.029 A 
ATOM     42  N   UNL A   1      44.276  29.967  28.149  1.00  0.00    -0.354 N 
ATOM     43  C   UNL A   1      42.914  25.898  27.563  1.00  0.00     0.074 A 
ATOM     44  C   UNL A   1      41.499  25.779  27.845  1.00  0.00     0.031 C 
ATOM     45  C   UNL A   1      44.046  32.162  28.508  1.00  0.00     0.029 A 
ATOM     46  C   UNL A   1      45.021  31.121  28.189  1.00  0.00     0.049 A 
ATOM     47  H   UNL A   1      44.665  29.082  27.962  1.00  0.00     0.167 HD
ATOM     48  C   UNL A   1      43.698  24.868  27.165  1.00  0.00     0.031 A 
ATOM     49  C   UNL A   1      46.339  31.316  27.984  1.00  0.00     0.031 A 
ATOM     50  C   UNL A   1      45.108  24.984  26.905  1.00  0.00     0.049 A 
ATOM     51  C   UNL A   1      47.202  30.143  27.602  1.00  0.00     0.074 A 
ATOM     52  C   UNL A   1      45.997  24.001  26.508  1.00  0.00     0.029 A 
ATOM     53  N   UNL A   1      45.836  26.160  27.019  1.00  0.00    -0.354 N 
ATOM     54  N   UNL A   1      46.855  28.894  27.399  1.00  0.00    -0.248 NA
ATOM     55  C   UNL A   1      48.634  30.412  27.407  1.00  0.00     0.031 C 
ATOM     56  C   UNL A   1      47.272  24.573  26.424  1.00  0.00     0.029 A 
ATOM     57  C   UNL A   1      47.166  25.923  26.717  1.00  0.00     0.049 A 
ATOM     58  H   UNL A   1      45.462  27.033  27.276  1.00  0.00     0.167 HD
ATOM     59  C   UNL A   1      48.021  28.233  27.029  1.00  0.00     0.074 A 
ATOM     60  C   UNL A   1      49.079  29.223  27.020  1.00  0.00     0.031 C 
ATOM     61  C   UNL A   1      48.203  26.924  26.722  1.00  0.00     0.031 A 
BRANCH  48  62
ATOM     62  C   UNL A   1      43.046  23.519  27.010  1.00  0.00    -0.014 A 
ATOM     63  C   UNL A   1      42.426  23.148  25.803  1.00  0.00     0.010 A 
ATOM     64  C   UNL A   1      43.073  22.601  28.075  1.00  0.00     0.010 A 
ATOM     65  C   UNL A   1      41.812  21.899  25.677  1.00  0.00     0.020 A 
ATOM     66  C   UNL A   1      42.481  21.341  27.945  1.00  0.00     0.020 A 
ATOM     67  C   UNL A   1      41.838  21.005  26.752  1.00  0.00     0.054 A 
BRANCH  67  68
ATOM     68  S   UNL A   1      41.043  19.385  26.560  1.00  0.00     0.124 S 
ATOM     69  O   UNL A   1      39.945  19.696  25.647  1.00  0.00    -0.237 OA
ATOM     70  O   UNL A   1      42.113  18.565  25.998  1.00  0.00    -0.237 OA
ATOM     71  O   UNL A   1      40.641  19.033  27.919  1.00  0.00    -0.744 OA
ENDBRANCH  67  68
ENDBRANCH  48  62
BRANCH  49  72
ATOM     72  C   UNL A   1      46.920  32.678  28.127  1.00  0.00    -0.014 A 
ATOM     73  C   UNL A   1      47.568  33.065  29.313  1.00  0.00     0.010 A 
ATOM     74  C   UNL A   1      46.822  33.601  27.069  1.00  0.00     0.010 A 
ATOM     75  C   UNL A   1      48.090  34.355  29.446  1.00  0.00     0.020 A 
ATOM     76  C   UNL A   1      47.366  34.882  27.189  1.00  0.00     0.020 A 
ATOM     77  C   UNL A   1      47.986  35.256  28.382  1.00  0.00     0.054 A 
BRANCH  77  78
ATOM     78  S   UNL A   1      48.710  36.910  28.555  1.00  0.00     0.124 S 
ATOM     79  O   UNL A   1      47.541  37.771  28.399  1.00  0.00    -0.237 OA
ATOM     80  O   UNL A   1      49.289  36.865  29.896  1.00  0.00    -0.237 OA
ATOM     81  O   UNL A   1      49.683  36.971  27.468  1.00  0.00    -0.744 OA
ENDBRANCH  77  78
ENDBRANCH  49  72
BRANCH  61  82
ATOM     82  C   UNL A   1      49.591  26.499  26.326  1.00  0.00    -0.014 A 
ATOM     83  C   UNL A   1      50.117  26.818  25.062  1.00  0.00     0.010 A 
ATOM     84  C   UNL A   1      50.390  25.794  27.245  1.00  0.00     0.010 A 
ATOM     85  C   UNL A   1      51.404  26.403  24.708  1.00  0.00     0.020 A 
ATOM     86  C   UNL A   1      51.686  25.400  26.905  1.00  0.00     0.020 A 
ATOM     87  C   UNL A   1      52.177  25.691  25.631  1.00  0.00     0.054 A 
BRANCH  87  88
ATOM     88  S   UNL A   1      53.853  25.181  25.158  1.00  0.00     0.124 S 
ATOM     89  O   UNL A   1      54.594  25.390  26.399  1.00  0.00    -0.237 OA
ATOM     90  O   UNL A   1      53.668  23.787  24.763  1.00  0.00    -0.237 OA
ATOM     91  O   UNL A   1      54.195  26.090  24.067  1.00  0.00    -0.744 OA
ENDBRANCH  87  88
ENDBRANCH  61  82
ENDBRANCH  35  36
ENDBRANCH  28  30
ENDBRANCH  27  28
ENDBRANCH  26  27
ENDBRANCH  25  26
ENDBRANCH  24  25
ENDBRANCH   1  24
TORSDOF 21
ENDMDL
