MODEL 1
REMARK VINA RESULT:     -10.9      0.000      0.000
REMARK SMILES CC(C)n1c([C@H](O)CC(=O)OCCOCCOC(=O)c2ccc(-c3c4nc(c(-c5ccc(S(=O)(=O)[O-])cc5)c5ccc([nH]5)c(-c5ccc(S(=O)(=O)[O-])cc5)c5nc(c(-c6ccc(S(=O)(=O)[O-])cc6)c6ccc3[nH]6)C=C5)C=C4)cc2)nc2cc(Cl)ccc21
REMARK SMILES IDX 14 1 13 2 12 3 11 4 9 5 10 6 8 7 6 8 5 9 4 10 87 11 80 12
REMARK SMILES IDX 81 13 86 14 82 15 85 16 83 17 84 18 2 19 1 20 3 21 7 22
REMARK SMILES IDX 15 24 16 25 17 26 18 27 19 28 20 29 21 30 79 31 22 32 78 33
REMARK SMILES IDX 23 34 24 35 25 36 72 37 26 38 77 39 71 40 73 41 27 42 76 43
REMARK SMILES IDX 70 44 69 45 28 47 58 48 39 49 57 50 40 51 43 52 56 53 74 54
REMARK SMILES IDX 41 55 42 56 55 58 75 59 44 60 29 61 30 62 38 63 31 64 37 65
REMARK SMILES IDX 32 66 33 67 34 68 35 69 36 70 59 71 60 72 68 73 61 74 67 75
REMARK SMILES IDX 62 76 63 77 64 78 65 79 66 80 45 81 46 82 54 83 47 84 53 85
REMARK SMILES IDX 48 86 49 87 50 88 51 89 52 90
REMARK H PARENT 7 23 73 46 43 57
REMARK Flexibility Score: inf
ROOT
ATOM      1  O   UNL A   1      34.975  21.155  25.735  1.00  0.00    -0.374 OA
ENDROOT
BRANCH   1   2
ATOM      2  C   UNL A   1      34.002  20.235  25.244  1.00  0.00     0.202 C 
BRANCH   2   3
ATOM      3  C   UNL A   1      32.647  20.767  24.751  1.00  0.00     0.261 C 
BRANCH   3   4
ATOM      4  O   UNL A   1      32.698  22.168  24.450  1.00  0.00    -0.463 OA
BRANCH   4   5
ATOM      5  C   UNL A   1      32.860  22.482  23.136  1.00  0.00     0.308 C 
ATOM      6  O   UNL A   1      32.238  21.978  22.211  1.00  0.00    -0.252 OA
BRANCH   5   7
ATOM      7  C   UNL A   1      33.743  23.689  22.947  1.00  0.00     0.162 C 
BRANCH   7   8
ATOM      8  C   UNL A   1      33.106  25.024  22.595  1.00  0.00     0.191 C 
BRANCH   8   9
ATOM      9  C   UNL A   1      32.928  25.974  23.749  1.00  0.00     0.139 A 
ATOM     10  N   UNL A   1      31.884  26.056  24.664  1.00  0.00    -0.323 N 
ATOM     11  C   UNL A   1      32.202  27.073  25.558  1.00  0.00     0.069 A 
ATOM     12  N   UNL A   1      33.849  26.890  24.018  1.00  0.00    -0.230 NA
ATOM     13  C   UNL A   1      33.407  27.586  25.101  1.00  0.00     0.090 A 
ATOM     14  C   UNL A   1      31.559  27.586  26.694  1.00  0.00     0.030 A 
ATOM     15  C   UNL A   1      34.005  28.672  25.756  1.00  0.00     0.051 A 
ATOM     16  C   UNL A   1      32.162  28.669  27.341  1.00  0.00     0.023 A 
ATOM     17  C   UNL A   1      33.361  29.206  26.873  1.00  0.00     0.043 A 
ATOM     18  Cl  UNL A   1      34.062  30.552  27.690  1.00  0.00    -0.084 Cl
BRANCH  10  19
ATOM     19  C   UNL A   1      30.669  25.253  24.801  1.00  0.00     0.083 C 
ATOM     20  C   UNL A   1      30.569  24.408  26.069  1.00  0.00     0.031 C 
ATOM     21  C   UNL A   1      29.402  26.040  24.451  1.00  0.00     0.031 C 
ENDBRANCH  10  19
ENDBRANCH   8   9
BRANCH   8  22
ATOM     22  O   UNL A   1      31.909  25.012  21.835  1.00  0.00    -0.385 OA
ATOM     23  H   UNL A   1      31.635  24.094  21.679  1.00  0.00     0.211 HD
ENDBRANCH   8  22
ENDBRANCH   7   8
ENDBRANCH   5   7
ENDBRANCH   4   5
ENDBRANCH   3   4
ENDBRANCH   2   3
ENDBRANCH   1   2
BRANCH   1  24
ATOM     24  C   UNL A   1      36.044  21.555  24.878  1.00  0.00     0.202 C 
BRANCH  24  25
ATOM     25  C   UNL A   1      37.482  21.098  25.171  1.00  0.00     0.261 C 
BRANCH  25  26
ATOM     26  O   UNL A   1      38.366  22.207  25.362  1.00  0.00    -0.460 OA
BRANCH  26  27
ATOM     27  C   UNL A   1      39.447  21.923  26.149  1.00  0.00     0.338 C 
ATOM     28  O   UNL A   1      40.133  20.928  26.124  1.00  0.00    -0.246 OA
BRANCH  27  29
ATOM     29  C   UNL A   1      39.850  23.215  26.741  1.00  0.00     0.060 A 
ATOM     30  C   UNL A   1      41.006  23.317  27.513  1.00  0.00     0.016 A 
ATOM     31  C   UNL A   1      38.892  24.243  26.723  1.00  0.00     0.016 A 
ATOM     32  C   UNL A   1      41.180  24.450  28.300  1.00  0.00     0.010 A 
ATOM     33  C   UNL A   1      39.052  25.358  27.541  1.00  0.00     0.010 A 
ATOM     34  C   UNL A   1      40.195  25.462  28.335  1.00  0.00    -0.014 A 
BRANCH  34  35
ATOM     35  C   UNL A   1      40.584  26.736  28.944  1.00  0.00     0.031 A 
ATOM     36  C   UNL A   1      41.714  27.358  28.212  1.00  0.00     0.074 A 
ATOM     37  C   UNL A   1      40.000  27.450  29.927  1.00  0.00     0.049 A 
ATOM     38  N   UNL A   1      42.933  27.486  28.616  1.00  0.00    -0.248 NA
ATOM     39  C   UNL A   1      41.487  27.741  26.809  1.00  0.00     0.031 C 
ATOM     40  C   UNL A   1      38.690  27.236  30.539  1.00  0.00     0.029 A 
ATOM     41  N   UNL A   1      40.445  28.602  30.529  1.00  0.00    -0.354 N 
ATOM     42  C   UNL A   1      43.581  28.169  27.596  1.00  0.00     0.074 A 
ATOM     43  C   UNL A   1      42.710  28.125  26.448  1.00  0.00     0.031 C 
ATOM     44  C   UNL A   1      38.351  28.338  31.253  1.00  0.00     0.029 A 
ATOM     45  C   UNL A   1      39.479  29.259  31.280  1.00  0.00     0.049 A 
ATOM     46  H   UNL A   1      41.367  28.933  30.437  1.00  0.00     0.167 HD
ATOM     47  C   UNL A   1      44.648  28.967  27.851  1.00  0.00     0.031 A 
ATOM     48  C   UNL A   1      39.581  30.484  31.854  1.00  0.00     0.031 A 
ATOM     49  C   UNL A   1      45.195  28.747  29.162  1.00  0.00     0.049 A 
ATOM     50  C   UNL A   1      41.009  30.792  32.093  1.00  0.00     0.074 A 
ATOM     51  C   UNL A   1      46.009  27.823  29.774  1.00  0.00     0.029 A 
ATOM     52  N   UNL A   1      44.577  29.464  30.148  1.00  0.00    -0.354 N 
ATOM     53  N   UNL A   1      41.759  30.135  32.933  1.00  0.00    -0.248 NA
ATOM     54  C   UNL A   1      41.714  31.732  31.227  1.00  0.00     0.031 C 
ATOM     55  C   UNL A   1      45.755  27.926  31.176  1.00  0.00     0.029 A 
ATOM     56  C   UNL A   1      44.807  28.925  31.387  1.00  0.00     0.049 A 
ATOM     57  H   UNL A   1      44.033  30.269  29.988  1.00  0.00     0.167 HD
ATOM     58  C   UNL A   1      43.035  30.271  32.430  1.00  0.00     0.074 A 
ATOM     59  C   UNL A   1      42.974  31.394  31.508  1.00  0.00     0.031 C 
ATOM     60  C   UNL A   1      43.932  29.247  32.502  1.00  0.00     0.031 A 
BRANCH  47  61
ATOM     61  C   UNL A   1      44.903  30.252  27.099  1.00  0.00    -0.014 A 
ATOM     62  C   UNL A   1      43.912  31.239  26.911  1.00  0.00     0.010 A 
ATOM     63  C   UNL A   1      46.228  30.612  26.785  1.00  0.00     0.010 A 
ATOM     64  C   UNL A   1      44.204  32.492  26.372  1.00  0.00     0.020 A 
ATOM     65  C   UNL A   1      46.540  31.884  26.285  1.00  0.00     0.020 A 
ATOM     66  C   UNL A   1      45.519  32.808  26.063  1.00  0.00     0.054 A 
BRANCH  66  67
ATOM     67  S   UNL A   1      45.865  34.464  25.424  1.00  0.00     0.124 S 
ATOM     68  O   UNL A   1      45.225  35.309  26.430  1.00  0.00    -0.237 OA
ATOM     69  O   UNL A   1      47.324  34.498  25.410  1.00  0.00    -0.237 OA
ATOM     70  O   UNL A   1      45.227  34.466  24.110  1.00  0.00    -0.744 OA
ENDBRANCH  66  67
ENDBRANCH  47  61
BRANCH  48  71
ATOM     71  C   UNL A   1      38.547  31.546  31.972  1.00  0.00    -0.014 A 
ATOM     72  C   UNL A   1      37.590  31.476  33.001  1.00  0.00     0.010 A 
ATOM     73  C   UNL A   1      38.291  32.412  30.888  1.00  0.00     0.010 A 
ATOM     74  C   UNL A   1      36.374  32.162  32.903  1.00  0.00     0.020 A 
ATOM     75  C   UNL A   1      37.070  33.097  30.780  1.00  0.00     0.020 A 
ATOM     76  C   UNL A   1      36.103  32.930  31.771  1.00  0.00     0.054 A 
BRANCH  76  77
ATOM     77  S   UNL A   1      34.431  33.611  31.575  1.00  0.00     0.124 S 
ATOM     78  O   UNL A   1      34.652  35.031  31.833  1.00  0.00    -0.237 OA
ATOM     79  O   UNL A   1      34.112  33.268  30.192  1.00  0.00    -0.237 OA
ATOM     80  O   UNL A   1      33.648  32.905  32.586  1.00  0.00    -0.744 OA
ENDBRANCH  76  77
ENDBRANCH  48  71
BRANCH  60  81
ATOM     81  C   UNL A   1      43.871  28.307  33.675  1.00  0.00    -0.014 A 
ATOM     82  C   UNL A   1      43.050  27.171  33.541  1.00  0.00     0.010 A 
ATOM     83  C   UNL A   1      44.523  28.516  34.904  1.00  0.00     0.010 A 
ATOM     84  C   UNL A   1      42.852  26.290  34.604  1.00  0.00     0.020 A 
ATOM     85  C   UNL A   1      44.351  27.620  35.970  1.00  0.00     0.020 A 
ATOM     86  C   UNL A   1      43.497  26.525  35.819  1.00  0.00     0.054 A 
BRANCH  86  87
ATOM     87  S   UNL A   1      43.185  25.377  37.187  1.00  0.00     0.124 S 
ATOM     88  O   UNL A   1      42.822  26.285  38.274  1.00  0.00    -0.237 OA
ATOM     89  O   UNL A   1      42.095  24.550  36.674  1.00  0.00    -0.237 OA
ATOM     90  O   UNL A   1      44.458  24.682  37.363  1.00  0.00    -0.744 OA
ENDBRANCH  86  87
ENDBRANCH  60  81
ENDBRANCH  34  35
ENDBRANCH  27  29
ENDBRANCH  26  27
ENDBRANCH  25  26
ENDBRANCH  24  25
ENDBRANCH   1  24
TORSDOF 21
ENDMDL
MODEL 2
REMARK VINA RESULT:     -10.5      2.471      3.546
REMARK SMILES CC(C)n1c([C@H](O)CC(=O)OCCOCCOC(=O)c2ccc(-c3c4nc(c(-c5ccc(S(=O)(=O)[O-])cc5)c5ccc([nH]5)c(-c5ccc(S(=O)(=O)[O-])cc5)c5nc(c(-c6ccc(S(=O)(=O)[O-])cc6)c6ccc3[nH]6)C=C5)C=C4)cc2)nc2cc(Cl)ccc21
REMARK SMILES IDX 14 1 13 2 12 3 11 4 9 5 10 6 8 7 6 8 5 9 4 10 87 11 80 12
REMARK SMILES IDX 81 13 86 14 82 15 85 16 83 17 84 18 2 19 1 20 3 21 7 22
REMARK SMILES IDX 15 24 16 25 17 26 18 27 19 28 20 29 21 30 79 31 22 32 78 33
REMARK SMILES IDX 23 34 24 35 25 36 72 37 26 38 77 39 71 40 73 41 27 42 76 43
REMARK SMILES IDX 70 44 69 45 28 47 58 48 39 49 57 50 40 51 43 52 56 53 74 54
REMARK SMILES IDX 41 55 42 56 55 58 75 59 44 60 29 61 30 62 38 63 31 64 37 65
REMARK SMILES IDX 32 66 33 67 34 68 35 69 36 70 59 71 60 72 68 73 61 74 67 75
REMARK SMILES IDX 62 76 63 77 64 78 65 79 66 80 45 81 46 82 54 83 47 84 53 85
REMARK SMILES IDX 48 86 49 87 50 88 51 89 52 90
REMARK H PARENT 7 23 73 46 43 57
REMARK Flexibility Score: inf
ROOT
ATOM      1  O   UNL A   1      36.899  22.596  23.901  1.00  0.00    -0.374 OA
ENDROOT
BRANCH   1   2
ATOM      2  C   UNL A   1      35.536  22.903  23.611  1.00  0.00     0.202 C 
BRANCH   2   3
ATOM      3  C   UNL A   1      34.976  24.277  24.007  1.00  0.00     0.261 C 
BRANCH   3   4
ATOM      4  O   UNL A   1      34.585  25.048  22.862  1.00  0.00    -0.463 OA
BRANCH   4   5
ATOM      5  C   UNL A   1      33.310  24.851  22.429  1.00  0.00     0.308 C 
ATOM      6  O   UNL A   1      33.001  24.424  21.325  1.00  0.00    -0.252 OA
BRANCH   5   7
ATOM      7  C   UNL A   1      32.304  25.013  23.538  1.00  0.00     0.162 C 
BRANCH   7   8
ATOM      8  C   UNL A   1      31.217  23.963  23.710  1.00  0.00     0.191 C 
BRANCH   8   9
ATOM      9  C   UNL A   1      31.711  22.570  23.997  1.00  0.00     0.139 A 
ATOM     10  N   UNL A   1      32.015  21.982  25.220  1.00  0.00    -0.323 N 
ATOM     11  C   UNL A   1      32.395  20.669  24.961  1.00  0.00     0.069 A 
ATOM     12  N   UNL A   1      31.900  21.704  23.010  1.00  0.00    -0.230 NA
ATOM     13  C   UNL A   1      32.344  20.550  23.579  1.00  0.00     0.090 A 
ATOM     14  C   UNL A   1      32.775  19.601  25.785  1.00  0.00     0.030 A 
ATOM     15  C   UNL A   1      32.713  19.346  22.962  1.00  0.00     0.051 A 
ATOM     16  C   UNL A   1      33.141  18.404  25.161  1.00  0.00     0.023 A 
ATOM     17  C   UNL A   1      33.117  18.285  23.772  1.00  0.00     0.043 A 
ATOM     18  Cl  UNL A   1      33.592  16.797  23.042  1.00  0.00    -0.084 Cl
BRANCH  10  19
ATOM     19  C   UNL A   1      31.937  22.514  26.581  1.00  0.00     0.083 C 
ATOM     20  C   UNL A   1      33.048  23.482  26.981  1.00  0.00     0.031 C 
ATOM     21  C   UNL A   1      30.523  22.969  26.954  1.00  0.00     0.031 C 
ENDBRANCH  10  19
ENDBRANCH   8   9
BRANCH   8  22
ATOM     22  O   UNL A   1      30.203  23.885  22.721  1.00  0.00    -0.385 OA
ATOM     23  H   UNL A   1      29.508  23.277  23.019  1.00  0.00     0.211 HD
ENDBRANCH   8  22
ENDBRANCH   7   8
ENDBRANCH   5   7
ENDBRANCH   4   5
ENDBRANCH   3   4
ENDBRANCH   2   3
ENDBRANCH   1   2
BRANCH   1  24
ATOM     24  C   UNL A   1      37.220  21.978  25.147  1.00  0.00     0.202 C 
BRANCH  24  25
ATOM     25  C   UNL A   1      38.583  21.295  25.341  1.00  0.00     0.261 C 
BRANCH  25  26
ATOM     26  O   UNL A   1      39.203  21.681  26.573  1.00  0.00    -0.460 OA
BRANCH  26  27
ATOM     27  C   UNL A   1      40.464  22.184  26.422  1.00  0.00     0.338 C 
ATOM     28  O   UNL A   1      41.302  21.841  25.620  1.00  0.00    -0.246 OA
BRANCH  27  29
ATOM     29  C   UNL A   1      40.460  23.474  27.142  1.00  0.00     0.060 A 
ATOM     30  C   UNL A   1      39.533  24.466  26.825  1.00  0.00     0.016 A 
ATOM     31  C   UNL A   1      41.580  23.752  27.944  1.00  0.00     0.016 A 
ATOM     32  C   UNL A   1      39.757  25.756  27.292  1.00  0.00     0.010 A 
ATOM     33  C   UNL A   1      41.820  25.054  28.377  1.00  0.00     0.010 A 
ATOM     34  C   UNL A   1      40.910  26.059  28.048  1.00  0.00    -0.014 A 
BRANCH  34  35
ATOM     35  C   UNL A   1      40.920  27.349  28.742  1.00  0.00     0.031 A 
ATOM     36  C   UNL A   1      42.069  28.182  28.311  1.00  0.00     0.074 A 
ATOM     37  C   UNL A   1      40.006  27.910  29.559  1.00  0.00     0.049 A 
ATOM     38  N   UNL A   1      43.117  28.487  29.000  1.00  0.00    -0.248 NA
ATOM     39  C   UNL A   1      42.122  28.589  26.898  1.00  0.00     0.031 C 
ATOM     40  C   UNL A   1      38.644  27.457  29.833  1.00  0.00     0.029 A 
ATOM     41  N   UNL A   1      40.092  29.089  30.259  1.00  0.00    -0.354 N 
ATOM     42  C   UNL A   1      43.863  29.315  28.172  1.00  0.00     0.074 A 
ATOM     43  C   UNL A   1      43.312  29.185  26.847  1.00  0.00     0.031 C 
ATOM     44  C   UNL A   1      37.963  28.453  30.451  1.00  0.00     0.029 A 
ATOM     45  C   UNL A   1      38.879  29.543  30.758  1.00  0.00     0.049 A 
ATOM     46  H   UNL A   1      40.940  29.570  30.396  1.00  0.00     0.167 HD
ATOM     47  C   UNL A   1      44.688  30.263  28.684  1.00  0.00     0.031 A 
ATOM     48  C   UNL A   1      38.631  30.740  31.348  1.00  0.00     0.031 A 
ATOM     49  C   UNL A   1      44.936  30.072  30.087  1.00  0.00     0.049 A 
ATOM     50  C   UNL A   1      39.888  31.265  31.929  1.00  0.00     0.074 A 
ATOM     51  C   UNL A   1      45.726  29.265  30.872  1.00  0.00     0.029 A 
ATOM     52  N   UNL A   1      43.988  30.631  30.899  1.00  0.00    -0.354 N 
ATOM     53  N   UNL A   1      40.516  30.699  32.921  1.00  0.00    -0.248 NA
ATOM     54  C   UNL A   1      40.609  32.347  31.266  1.00  0.00     0.031 C 
ATOM     55  C   UNL A   1      45.132  29.258  32.171  1.00  0.00     0.029 A 
ATOM     56  C   UNL A   1      44.005  30.077  32.153  1.00  0.00     0.049 A 
ATOM     57  H   UNL A   1      43.370  31.343  30.617  1.00  0.00     0.167 HD
ATOM     58  C   UNL A   1      41.833  31.065  32.743  1.00  0.00     0.074 A 
ATOM     59  C   UNL A   1      41.804  32.206  31.843  1.00  0.00     0.031 C 
ATOM     60  C   UNL A   1      42.848  30.199  33.024  1.00  0.00     0.031 A 
BRANCH  47  61
ATOM     61  C   UNL A   1      44.893  31.607  28.026  1.00  0.00    -0.014 A 
ATOM     62  C   UNL A   1      44.136  32.749  28.365  1.00  0.00     0.010 A 
ATOM     63  C   UNL A   1      46.034  31.814  27.228  1.00  0.00     0.010 A 
ATOM     64  C   UNL A   1      44.449  34.019  27.881  1.00  0.00     0.020 A 
ATOM     65  C   UNL A   1      46.386  33.093  26.774  1.00  0.00     0.020 A 
ATOM     66  C   UNL A   1      45.576  34.184  27.087  1.00  0.00     0.054 A 
BRANCH  66  67
ATOM     67  S   UNL A   1      45.983  35.855  26.531  1.00  0.00     0.124 S 
ATOM     68  O   UNL A   1      46.790  35.584  25.343  1.00  0.00    -0.237 OA
ATOM     69  O   UNL A   1      44.666  36.431  26.277  1.00  0.00    -0.237 OA
ATOM     70  O   UNL A   1      46.708  36.427  27.662  1.00  0.00    -0.744 OA
ENDBRANCH  66  67
ENDBRANCH  47  61
BRANCH  48  71
ATOM     71  C   UNL A   1      37.435  31.612  31.219  1.00  0.00    -0.014 A 
ATOM     72  C   UNL A   1      37.578  32.926  30.739  1.00  0.00     0.010 A 
ATOM     73  C   UNL A   1      36.237  31.278  31.886  1.00  0.00     0.010 A 
ATOM     74  C   UNL A   1      36.611  33.902  31.008  1.00  0.00     0.020 A 
ATOM     75  C   UNL A   1      35.267  32.254  32.166  1.00  0.00     0.020 A 
ATOM     76  C   UNL A   1      35.484  33.570  31.760  1.00  0.00     0.054 A 
BRANCH  76  77
ATOM     77  S   UNL A   1      34.375  34.909  32.283  1.00  0.00     0.124 S 
ATOM     78  O   UNL A   1      35.267  35.744  33.083  1.00  0.00    -0.237 OA
ATOM     79  O   UNL A   1      33.954  35.485  31.009  1.00  0.00    -0.237 OA
ATOM     80  O   UNL A   1      33.326  34.219  33.029  1.00  0.00    -0.744 OA
ENDBRANCH  76  77
ENDBRANCH  48  71
BRANCH  60  81
ATOM     81  C   UNL A   1      42.670  29.206  34.141  1.00  0.00    -0.014 A 
ATOM     82  C   UNL A   1      42.524  27.854  33.775  1.00  0.00     0.010 A 
ATOM     83  C   UNL A   1      42.579  29.541  35.504  1.00  0.00     0.010 A 
ATOM     84  C   UNL A   1      42.259  26.871  34.728  1.00  0.00     0.020 A 
ATOM     85  C   UNL A   1      42.341  28.554  36.472  1.00  0.00     0.020 A 
ATOM     86  C   UNL A   1      42.158  27.228  36.074  1.00  0.00     0.054 A 
BRANCH  86  87
ATOM     87  S   UNL A   1      41.778  25.926  37.276  1.00  0.00     0.124 S 
ATOM     88  O   UNL A   1      42.770  26.173  38.321  1.00  0.00    -0.237 OA
ATOM     89  O   UNL A   1      40.395  26.221  37.647  1.00  0.00    -0.237 OA
ATOM     90  O   UNL A   1      41.965  24.686  36.527  1.00  0.00    -0.744 OA
ENDBRANCH  86  87
ENDBRANCH  60  81
ENDBRANCH  34  35
ENDBRANCH  27  29
ENDBRANCH  26  27
ENDBRANCH  25  26
ENDBRANCH  24  25
ENDBRANCH   1  24
TORSDOF 21
ENDMDL
MODEL 3
REMARK VINA RESULT:     -10.4      2.343      3.733
REMARK SMILES CC(C)n1c([C@H](O)CC(=O)OCCOCCOC(=O)c2ccc(-c3c4nc(c(-c5ccc(S(=O)(=O)[O-])cc5)c5ccc([nH]5)c(-c5ccc(S(=O)(=O)[O-])cc5)c5nc(c(-c6ccc(S(=O)(=O)[O-])cc6)c6ccc3[nH]6)C=C5)C=C4)cc2)nc2cc(Cl)ccc21
REMARK SMILES IDX 14 1 13 2 12 3 11 4 9 5 10 6 8 7 6 8 5 9 4 10 87 11 80 12
REMARK SMILES IDX 81 13 86 14 82 15 85 16 83 17 84 18 2 19 1 20 3 21 7 22
REMARK SMILES IDX 15 24 16 25 17 26 18 27 19 28 20 29 21 30 79 31 22 32 78 33
REMARK SMILES IDX 23 34 24 35 25 36 72 37 26 38 77 39 71 40 73 41 27 42 76 43
REMARK SMILES IDX 70 44 69 45 28 47 58 48 39 49 57 50 40 51 43 52 56 53 74 54
REMARK SMILES IDX 41 55 42 56 55 58 75 59 44 60 29 61 30 62 38 63 31 64 37 65
REMARK SMILES IDX 32 66 33 67 34 68 35 69 36 70 59 71 60 72 68 73 61 74 67 75
REMARK SMILES IDX 62 76 63 77 64 78 65 79 66 80 45 81 46 82 54 83 47 84 53 85
REMARK SMILES IDX 48 86 49 87 50 88 51 89 52 90
REMARK H PARENT 7 23 73 46 43 57
REMARK Flexibility Score: inf
ROOT
ATOM      1  O   UNL A   1      40.859  19.301  25.855  1.00  0.00    -0.374 OA
ENDROOT
BRANCH   1   2
ATOM      2  C   UNL A   1      39.628  20.016  25.751  1.00  0.00     0.202 C 
BRANCH   2   3
ATOM      3  C   UNL A   1      39.556  21.463  26.259  1.00  0.00     0.261 C 
BRANCH   3   4
ATOM      4  O   UNL A   1      38.632  22.254  25.499  1.00  0.00    -0.463 OA
BRANCH   4   5
ATOM      5  C   UNL A   1      38.138  23.353  26.131  1.00  0.00     0.308 C 
ATOM      6  O   UNL A   1      38.809  24.296  26.530  1.00  0.00    -0.252 OA
BRANCH   5   7
ATOM      7  C   UNL A   1      36.633  23.395  26.099  1.00  0.00     0.162 C 
BRANCH   7   8
ATOM      8  C   UNL A   1      35.905  22.949  24.840  1.00  0.00     0.191 C 
BRANCH   8   9
ATOM      9  C   UNL A   1      34.552  23.574  24.626  1.00  0.00     0.139 A 
ATOM     10  N   UNL A   1      33.311  23.158  25.094  1.00  0.00    -0.323 N 
ATOM     11  C   UNL A   1      32.375  24.089  24.654  1.00  0.00     0.069 A 
ATOM     12  N   UNL A   1      34.428  24.686  23.913  1.00  0.00    -0.230 NA
ATOM     13  C   UNL A   1      33.102  24.997  23.899  1.00  0.00     0.090 A 
ATOM     14  C   UNL A   1      30.991  24.216  24.838  1.00  0.00     0.030 A 
ATOM     15  C   UNL A   1      32.453  26.063  23.259  1.00  0.00     0.051 A 
ATOM     16  C   UNL A   1      30.351  25.282  24.197  1.00  0.00     0.023 A 
ATOM     17  C   UNL A   1      31.072  26.184  23.415  1.00  0.00     0.043 A 
ATOM     18  Cl  UNL A   1      30.242  27.473  22.628  1.00  0.00    -0.084 Cl
BRANCH  10  19
ATOM     19  C   UNL A   1      32.939  22.021  25.936  1.00  0.00     0.083 C 
ATOM     20  C   UNL A   1      32.924  20.659  25.247  1.00  0.00     0.031 C 
ATOM     21  C   UNL A   1      33.640  22.045  27.298  1.00  0.00     0.031 C 
ENDBRANCH  10  19
ENDBRANCH   8   9
BRANCH   8  22
ATOM     22  O   UNL A   1      35.802  21.557  24.589  1.00  0.00    -0.385 OA
ATOM     23  H   UNL A   1      35.788  21.402  23.631  1.00  0.00     0.211 HD
ENDBRANCH   8  22
ENDBRANCH   7   8
ENDBRANCH   5   7
ENDBRANCH   4   5
ENDBRANCH   3   4
ENDBRANCH   2   3
ENDBRANCH   1   2
BRANCH   1  24
ATOM     24  C   UNL A   1      41.957  19.909  26.534  1.00  0.00     0.202 C 
BRANCH  24  25
ATOM     25  C   UNL A   1      43.078  20.591  25.733  1.00  0.00     0.261 C 
BRANCH  25  26
ATOM     26  O   UNL A   1      43.411  21.876  26.270  1.00  0.00    -0.460 OA
BRANCH  26  27
ATOM     27  C   UNL A   1      43.337  22.892  25.359  1.00  0.00     0.338 C 
ATOM     28  O   UNL A   1      43.341  22.799  24.153  1.00  0.00    -0.246 OA
BRANCH  27  29
ATOM     29  C   UNL A   1      42.849  24.062  26.116  1.00  0.00     0.060 A 
ATOM     30  C   UNL A   1      42.032  25.015  25.511  1.00  0.00     0.016 A 
ATOM     31  C   UNL A   1      43.460  24.308  27.358  1.00  0.00     0.016 A 
ATOM     32  C   UNL A   1      41.858  26.239  26.146  1.00  0.00     0.010 A 
ATOM     33  C   UNL A   1      43.314  25.549  27.972  1.00  0.00     0.010 A 
ATOM     34  C   UNL A   1      42.515  26.519  27.364  1.00  0.00    -0.014 A 
BRANCH  34  35
ATOM     35  C   UNL A   1      42.051  27.694  28.106  1.00  0.00     0.031 A 
ATOM     36  C   UNL A   1      43.032  28.804  28.021  1.00  0.00     0.074 A 
ATOM     37  C   UNL A   1      40.866  27.945  28.696  1.00  0.00     0.049 A 
ATOM     38  N   UNL A   1      43.786  29.256  28.965  1.00  0.00    -0.248 NA
ATOM     39  C   UNL A   1      43.309  29.366  26.689  1.00  0.00     0.031 C 
ATOM     40  C   UNL A   1      39.629  27.172  28.596  1.00  0.00     0.029 A 
ATOM     41  N   UNL A   1      40.499  29.029  29.457  1.00  0.00    -0.354 N 
ATOM     42  C   UNL A   1      44.480  30.315  28.396  1.00  0.00     0.074 A 
ATOM     43  C   UNL A   1      44.298  30.213  26.969  1.00  0.00     0.031 C 
ATOM     44  C   UNL A   1      38.602  27.918  29.076  1.00  0.00     0.029 A 
ATOM     45  C   UNL A   1      39.130  29.144  29.659  1.00  0.00     0.049 A 
ATOM     46  H   UNL A   1      41.150  29.668  29.826  1.00  0.00     0.167 HD
ATOM     47  C   UNL A   1      44.909  31.361  29.147  1.00  0.00     0.031 A 
ATOM     48  C   UNL A   1      38.471  30.183  30.230  1.00  0.00     0.031 A 
ATOM     49  C   UNL A   1      44.865  31.076  30.555  1.00  0.00     0.049 A 
ATOM     50  C   UNL A   1      39.393  30.906  31.134  1.00  0.00     0.074 A 
ATOM     51  C   UNL A   1      45.623  30.383  31.470  1.00  0.00     0.029 A 
ATOM     52  N   UNL A   1      43.649  31.317  31.132  1.00  0.00    -0.354 N 
ATOM     53  N   UNL A   1      39.894  30.388  32.221  1.00  0.00    -0.248 NA
ATOM     54  C   UNL A   1      39.963  32.188  30.731  1.00  0.00     0.031 C 
ATOM     55  C   UNL A   1      44.765  30.101  32.576  1.00  0.00     0.029 A 
ATOM     56  C   UNL A   1      43.510  30.646  32.320  1.00  0.00     0.049 A 
ATOM     57  H   UNL A   1      42.958  31.900  30.742  1.00  0.00     0.167 HD
ATOM     58  C   UNL A   1      41.087  31.055  32.398  1.00  0.00     0.074 A 
ATOM     59  C   UNL A   1      40.990  32.254  31.580  1.00  0.00     0.031 C 
ATOM     60  C   UNL A   1      42.188  30.411  32.878  1.00  0.00     0.031 A 
BRANCH  47  61
ATOM     61  C   UNL A   1      44.928  32.780  28.633  1.00  0.00    -0.014 A 
ATOM     62  C   UNL A   1      43.771  33.445  28.173  1.00  0.00     0.010 A 
ATOM     63  C   UNL A   1      46.074  33.571  28.843  1.00  0.00     0.010 A 
ATOM     64  C   UNL A   1      43.766  34.805  27.868  1.00  0.00     0.020 A 
ATOM     65  C   UNL A   1      46.069  34.949  28.583  1.00  0.00     0.020 A 
ATOM     66  C   UNL A   1      44.918  35.551  28.076  1.00  0.00     0.054 A 
BRANCH  66  67
ATOM     67  S   UNL A   1      44.852  37.325  27.726  1.00  0.00     0.124 S 
ATOM     68  O   UNL A   1      43.663  37.417  26.882  1.00  0.00    -0.237 OA
ATOM     69  O   UNL A   1      44.722  37.903  29.060  1.00  0.00    -0.237 OA
ATOM     70  O   UNL A   1      46.120  37.588  27.051  1.00  0.00    -0.744 OA
ENDBRANCH  66  67
ENDBRANCH  47  61
BRANCH  48  71
ATOM     71  C   UNL A   1      37.162  30.776  29.852  1.00  0.00    -0.014 A 
ATOM     72  C   UNL A   1      36.968  31.263  28.546  1.00  0.00     0.010 A 
ATOM     73  C   UNL A   1      36.248  31.176  30.849  1.00  0.00     0.010 A 
ATOM     74  C   UNL A   1      35.965  32.199  28.266  1.00  0.00     0.020 A 
ATOM     75  C   UNL A   1      35.246  32.121  30.577  1.00  0.00     0.020 A 
ATOM     76  C   UNL A   1      35.141  32.656  29.294  1.00  0.00     0.054 A 
BRANCH  76  77
ATOM     77  S   UNL A   1      34.013  34.035  28.941  1.00  0.00     0.124 S 
ATOM     78  O   UNL A   1      33.492  34.346  30.269  1.00  0.00    -0.237 OA
ATOM     79  O   UNL A   1      34.909  35.036  28.370  1.00  0.00    -0.237 OA
ATOM     80  O   UNL A   1      33.046  33.462  28.007  1.00  0.00    -0.744 OA
ENDBRANCH  76  77
ENDBRANCH  48  71
BRANCH  60  81
ATOM     81  C   UNL A   1      42.004  29.286  33.861  1.00  0.00    -0.014 A 
ATOM     82  C   UNL A   1      41.973  29.630  35.226  1.00  0.00     0.010 A 
ATOM     83  C   UNL A   1      41.924  27.926  33.514  1.00  0.00     0.010 A 
ATOM     84  C   UNL A   1      41.901  28.652  36.218  1.00  0.00     0.020 A 
ATOM     85  C   UNL A   1      41.825  26.936  34.505  1.00  0.00     0.020 A 
ATOM     86  C   UNL A   1      41.838  27.307  35.852  1.00  0.00     0.054 A 
BRANCH  86  87
ATOM     87  S   UNL A   1      41.783  26.065  37.171  1.00  0.00     0.124 S 
ATOM     88  O   UNL A   1      42.794  26.561  38.103  1.00  0.00    -0.237 OA
ATOM     89  O   UNL A   1      40.402  26.154  37.643  1.00  0.00    -0.237 OA
ATOM     90  O   UNL A   1      42.125  24.815  36.496  1.00  0.00    -0.744 OA
ENDBRANCH  86  87
ENDBRANCH  60  81
ENDBRANCH  34  35
ENDBRANCH  27  29
ENDBRANCH  26  27
ENDBRANCH  25  26
ENDBRANCH  24  25
ENDBRANCH   1  24
TORSDOF 21
ENDMDL
