MODEL 1
REMARK VINA RESULT:     -12.1      0.000      0.000
REMARK SMILES O=C(C[C@]12CSc3[nH]c(=O)sc3[C@@H]1c1cc(Cl)ccc1OC2=O)OCCOCCOC(=O)c1ccc(-c2c3nc(c(-c4ccc(S(=O)(=O)[O-])cc4)c4ccc([nH]4)c(-c4ccc(S(=O)(=O)[O-])cc4)c4nc(c(-c5ccc(S(=O)(=O)[O-])cc5)c5ccc2[nH]5)C=C4)C=C3)cc1
REMARK SMILES IDX 28 1 27 2 26 3 25 4 24 5 2 6 1 7 3 8 4 9 5 10 13 11 22 12
REMARK SMILES IDX 6 13 12 14 14 15 21 16 23 17 7 18 11 19 15 20 20 21 8 22
REMARK SMILES IDX 9 23 16 24 19 25 10 27 17 28 18 29 29 30 30 31 31 32 32 33
REMARK SMILES IDX 33 34 34 35 92 36 35 37 91 38 36 39 37 40 38 41 85 42 39 43
REMARK SMILES IDX 90 44 84 45 86 46 40 47 89 48 83 49 82 50 41 52 71 53 52 54
REMARK SMILES IDX 70 55 53 56 56 57 69 58 87 59 54 60 55 61 68 63 88 64 57 65
REMARK SMILES IDX 42 66 43 67 51 68 44 69 50 70 45 71 46 72 47 73 48 74 49 75
REMARK SMILES IDX 72 76 73 77 81 78 74 79 80 80 75 81 76 82 77 83 78 84 79 85
REMARK SMILES IDX 58 86 59 87 67 88 60 89 66 90 61 91 62 92 63 93 64 94 65 95
REMARK H PARENT 8 26 86 51 56 62
REMARK Flexibility Score: inf
ROOT
ATOM      1  C   UNL A   1      40.244  21.618  26.968  1.00  0.00     0.202 C 
ENDROOT
BRANCH   1   2
ATOM      2  O   UNL A   1      39.345  22.659  26.566  1.00  0.00    -0.374 OA
BRANCH   2   3
ATOM      3  C   UNL A   1      38.226  22.316  25.755  1.00  0.00     0.202 C 
BRANCH   3   4
ATOM      4  C   UNL A   1      37.067  23.271  25.479  1.00  0.00     0.261 C 
BRANCH   4   5
ATOM      5  O   UNL A   1      35.927  22.673  24.932  1.00  0.00    -0.463 OA
BRANCH   5   6
ATOM      6  C   UNL A   1      35.135  23.320  24.073  1.00  0.00     0.307 C 
ATOM      7  O   UNL A   1      35.287  23.010  22.897  1.00  0.00    -0.252 OA
BRANCH   6   8
ATOM      8  C   UNL A   1      34.142  24.424  24.553  1.00  0.00     0.143 C 
BRANCH   8   9
ATOM      9  C   UNL A   1      32.996  24.001  25.557  1.00  0.00     0.100 C 
ATOM     10  C   UNL A   1      33.771  23.571  26.853  1.00  0.00     0.097 C 
ATOM     11  C   UNL A   1      31.903  23.174  24.768  1.00  0.00     0.085 C 
ATOM     12  C   UNL A   1      31.976  24.924  26.294  1.00  0.00     0.319 C 
ATOM     13  S   UNL A   1      33.192  22.049  27.590  1.00  0.00    -0.106 SA
ATOM     14  C   UNL A   1      32.476  21.713  24.986  1.00  0.00     0.049 A 
ATOM     15  C   UNL A   1      31.549  24.477  23.720  1.00  0.00     0.006 A 
ATOM     16  O   UNL A   1      31.468  25.989  25.643  1.00  0.00    -0.426 OA
ATOM     17  O   UNL A   1      31.521  24.684  27.412  1.00  0.00    -0.251 OA
ATOM     18  C   UNL A   1      33.047  21.232  26.115  1.00  0.00     0.090 A 
ATOM     19  S   UNL A   1      32.717  20.476  23.719  1.00  0.00    -0.077 S 
ATOM     20  C   UNL A   1      31.717  24.483  22.312  1.00  0.00     0.028 A 
ATOM     21  C   UNL A   1      31.513  25.778  24.289  1.00  0.00     0.134 A 
ATOM     22  N   UNL A   1      33.751  20.078  26.001  1.00  0.00    -0.307 N 
ATOM     23  C   UNL A   1      33.781  19.497  24.763  1.00  0.00     0.305 A 
ATOM     24  C   UNL A   1      32.108  25.675  21.636  1.00  0.00     0.041 A 
ATOM     25  C   UNL A   1      31.772  26.972  23.602  1.00  0.00     0.049 A 
ATOM     26  H   UNL A   1      34.218  19.678  26.770  1.00  0.00     0.171 HD
ATOM     27  O   UNL A   1      34.510  18.604  24.395  1.00  0.00    -0.257 OA
ATOM     28  Cl  UNL A   1      32.733  25.604  20.026  1.00  0.00    -0.084 Cl
ATOM     29  C   UNL A   1      32.157  26.910  22.282  1.00  0.00     0.024 A 
ENDBRANCH   8   9
ENDBRANCH   6   8
ENDBRANCH   5   6
ENDBRANCH   4   5
ENDBRANCH   3   4
ENDBRANCH   2   3
ENDBRANCH   1   2
BRANCH   1  30
ATOM     30  C   UNL A   1      41.644  21.543  26.329  1.00  0.00     0.261 C 
BRANCH  30  31
ATOM     31  O   UNL A   1      41.794  22.437  25.211  1.00  0.00    -0.460 OA
BRANCH  31  32
ATOM     32  C   UNL A   1      43.026  23.008  25.061  1.00  0.00     0.338 C 
ATOM     33  O   UNL A   1      43.882  22.677  24.258  1.00  0.00    -0.246 OA
BRANCH  32  34
ATOM     34  C   UNL A   1      42.991  24.345  25.735  1.00  0.00     0.060 A 
ATOM     35  C   UNL A   1      43.662  24.566  26.944  1.00  0.00     0.016 A 
ATOM     36  C   UNL A   1      41.922  25.187  25.362  1.00  0.00     0.016 A 
ATOM     37  C   UNL A   1      43.196  25.565  27.808  1.00  0.00     0.010 A 
ATOM     38  C   UNL A   1      41.438  26.156  26.250  1.00  0.00     0.010 A 
ATOM     39  C   UNL A   1      42.045  26.323  27.496  1.00  0.00    -0.014 A 
BRANCH  39  40
ATOM     40  C   UNL A   1      41.716  27.475  28.359  1.00  0.00     0.031 A 
ATOM     41  C   UNL A   1      42.773  28.518  28.251  1.00  0.00     0.074 A 
ATOM     42  C   UNL A   1      40.585  27.754  29.051  1.00  0.00     0.049 A 
ATOM     43  N   UNL A   1      43.549  28.964  29.181  1.00  0.00    -0.248 NA
ATOM     44  C   UNL A   1      43.114  28.982  26.894  1.00  0.00     0.031 C 
ATOM     45  C   UNL A   1      39.317  27.024  29.059  1.00  0.00     0.029 A 
ATOM     46  N   UNL A   1      40.300  28.844  29.839  1.00  0.00    -0.354 N 
ATOM     47  C   UNL A   1      44.374  29.893  28.557  1.00  0.00     0.074 A 
ATOM     48  C   UNL A   1      44.185  29.733  27.139  1.00  0.00     0.031 C 
ATOM     49  C   UNL A   1      38.349  27.804  29.602  1.00  0.00     0.029 A 
ATOM     50  C   UNL A   1      38.941  29.038  30.095  1.00  0.00     0.049 A 
ATOM     51  H   UNL A   1      40.998  29.441  30.195  1.00  0.00     0.167 HD
ATOM     52  C   UNL A   1      45.010  30.880  29.242  1.00  0.00     0.031 A 
ATOM     53  C   UNL A   1      38.329  30.146  30.606  1.00  0.00     0.031 A 
ATOM     54  C   UNL A   1      45.076  30.612  30.650  1.00  0.00     0.049 A 
ATOM     55  C   UNL A   1      39.359  30.946  31.310  1.00  0.00     0.074 A 
ATOM     56  C   UNL A   1      45.642  29.603  31.403  1.00  0.00     0.029 A 
ATOM     57  N   UNL A   1      44.168  31.235  31.471  1.00  0.00    -0.354 N 
ATOM     58  N   UNL A   1      39.954  30.559  32.401  1.00  0.00    -0.248 NA
ATOM     59  C   UNL A   1      40.045  31.975  30.547  1.00  0.00     0.031 C 
ATOM     60  C   UNL A   1      44.700  29.351  32.437  1.00  0.00     0.029 A 
ATOM     61  C   UNL A   1      43.662  30.280  32.319  1.00  0.00     0.049 A 
ATOM     62  H   UNL A   1      43.925  32.189  31.456  1.00  0.00     0.167 HD
ATOM     63  C   UNL A   1      41.276  30.941  32.230  1.00  0.00     0.074 A 
ATOM     64  C   UNL A   1      41.256  31.869  31.098  1.00  0.00     0.031 C 
ATOM     65  C   UNL A   1      42.302  30.267  32.831  1.00  0.00     0.031 A 
BRANCH  52  66
ATOM     66  C   UNL A   1      45.286  32.226  28.636  1.00  0.00    -0.014 A 
ATOM     67  C   UNL A   1      44.320  32.925  27.880  1.00  0.00     0.010 A 
ATOM     68  C   UNL A   1      46.448  32.928  28.997  1.00  0.00     0.010 A 
ATOM     69  C   UNL A   1      44.517  34.235  27.453  1.00  0.00     0.020 A 
ATOM     70  C   UNL A   1      46.636  34.264  28.615  1.00  0.00     0.020 A 
ATOM     71  C   UNL A   1      45.673  34.902  27.834  1.00  0.00     0.054 A 
BRANCH  71  72
ATOM     72  S   UNL A   1      45.847  36.632  27.338  1.00  0.00     0.124 S 
ATOM     73  O   UNL A   1      46.812  37.127  28.316  1.00  0.00    -0.237 OA
ATOM     74  O   UNL A   1      46.340  36.515  25.969  1.00  0.00    -0.237 OA
ATOM     75  O   UNL A   1      44.494  37.163  27.471  1.00  0.00    -0.744 OA
ENDBRANCH  71  72
ENDBRANCH  52  66
BRANCH  53  76
ATOM     76  C   UNL A   1      37.056  30.782  30.140  1.00  0.00    -0.014 A 
ATOM     77  C   UNL A   1      36.964  31.235  28.811  1.00  0.00     0.010 A 
ATOM     78  C   UNL A   1      36.079  31.245  31.051  1.00  0.00     0.010 A 
ATOM     79  C   UNL A   1      36.004  32.177  28.420  1.00  0.00     0.020 A 
ATOM     80  C   UNL A   1      35.105  32.191  30.663  1.00  0.00     0.020 A 
ATOM     81  C   UNL A   1      35.105  32.682  29.357  1.00  0.00     0.054 A 
BRANCH  81  82
ATOM     82  S   UNL A   1      34.030  34.058  28.850  1.00  0.00     0.124 S 
ATOM     83  O   UNL A   1      33.175  33.422  27.851  1.00  0.00    -0.237 OA
ATOM     84  O   UNL A   1      33.365  34.417  30.101  1.00  0.00    -0.237 OA
ATOM     85  O   UNL A   1      34.960  35.058  28.334  1.00  0.00    -0.744 OA
ENDBRANCH  81  82
ENDBRANCH  53  76
BRANCH  65  86
ATOM     86  C   UNL A   1      42.005  29.237  33.913  1.00  0.00    -0.014 A 
ATOM     87  C   UNL A   1      42.386  29.558  35.232  1.00  0.00     0.010 A 
ATOM     88  C   UNL A   1      41.571  27.920  33.660  1.00  0.00     0.010 A 
ATOM     89  C   UNL A   1      42.419  28.591  36.239  1.00  0.00     0.020 A 
ATOM     90  C   UNL A   1      41.549  26.955  34.683  1.00  0.00     0.020 A 
ATOM     91  C   UNL A   1      42.013  27.289  35.956  1.00  0.00     0.054 A 
BRANCH  91  92
ATOM     92  S   UNL A   1      42.174  26.035  37.258  1.00  0.00     0.124 S 
ATOM     93  O   UNL A   1      40.803  25.890  37.736  1.00  0.00    -0.237 OA
ATOM     94  O   UNL A   1      42.700  24.887  36.521  1.00  0.00    -0.237 OA
ATOM     95  O   UNL A   1      43.102  26.642  38.212  1.00  0.00    -0.744 OA
ENDBRANCH  91  92
ENDBRANCH  65  86
ENDBRANCH  39  40
ENDBRANCH  32  34
ENDBRANCH  31  32
ENDBRANCH  30  31
ENDBRANCH   1  30
TORSDOF 18
ENDMDL
MODEL 2
REMARK VINA RESULT:     -12.0      2.020      3.202
REMARK SMILES O=C(C[C@]12CSc3[nH]c(=O)sc3[C@@H]1c1cc(Cl)ccc1OC2=O)OCCOCCOC(=O)c1ccc(-c2c3nc(c(-c4ccc(S(=O)(=O)[O-])cc4)c4ccc([nH]4)c(-c4ccc(S(=O)(=O)[O-])cc4)c4nc(c(-c5ccc(S(=O)(=O)[O-])cc5)c5ccc2[nH]5)C=C4)C=C3)cc1
REMARK SMILES IDX 28 1 27 2 26 3 25 4 24 5 2 6 1 7 3 8 4 9 5 10 13 11 22 12
REMARK SMILES IDX 6 13 12 14 14 15 21 16 23 17 7 18 11 19 15 20 20 21 8 22
REMARK SMILES IDX 9 23 16 24 19 25 10 27 17 28 18 29 29 30 30 31 31 32 32 33
REMARK SMILES IDX 33 34 34 35 92 36 35 37 91 38 36 39 37 40 38 41 85 42 39 43
REMARK SMILES IDX 90 44 84 45 86 46 40 47 89 48 83 49 82 50 41 52 71 53 52 54
REMARK SMILES IDX 70 55 53 56 56 57 69 58 87 59 54 60 55 61 68 63 88 64 57 65
REMARK SMILES IDX 42 66 43 67 51 68 44 69 50 70 45 71 46 72 47 73 48 74 49 75
REMARK SMILES IDX 72 76 73 77 81 78 74 79 80 80 75 81 76 82 77 83 78 84 79 85
REMARK SMILES IDX 58 86 59 87 67 88 60 89 66 90 61 91 62 92 63 93 64 94 65 95
REMARK H PARENT 8 26 86 51 56 62
REMARK Flexibility Score: inf
ROOT
ATOM      1  C   UNL A   1      40.026  22.483  27.030  1.00  0.00     0.202 C 
ENDROOT
BRANCH   1   2
ATOM      2  O   UNL A   1      39.065  22.931  26.067  1.00  0.00    -0.374 OA
BRANCH   2   3
ATOM      3  C   UNL A   1      38.079  23.873  26.477  1.00  0.00     0.202 C 
BRANCH   3   4
ATOM      4  C   UNL A   1      36.639  23.852  25.971  1.00  0.00     0.261 C 
BRANCH   4   5
ATOM      5  O   UNL A   1      36.503  23.782  24.580  1.00  0.00    -0.463 OA
BRANCH   5   6
ATOM      6  C   UNL A   1      35.364  24.112  23.966  1.00  0.00     0.307 C 
ATOM      7  O   UNL A   1      35.219  23.625  22.851  1.00  0.00    -0.252 OA
BRANCH   6   8
ATOM      8  C   UNL A   1      34.340  25.092  24.620  1.00  0.00     0.143 C 
BRANCH   8   9
ATOM      9  C   UNL A   1      33.201  25.691  23.702  1.00  0.00     0.100 C 
ATOM     10  C   UNL A   1      33.973  26.637  22.714  1.00  0.00     0.097 C 
ATOM     11  C   UNL A   1      31.952  26.051  24.604  1.00  0.00     0.085 C 
ATOM     12  C   UNL A   1      32.377  24.963  22.595  1.00  0.00     0.319 C 
ATOM     13  S   UNL A   1      33.210  28.236  22.474  1.00  0.00    -0.106 SA
ATOM     14  C   UNL A   1      32.306  27.555  24.949  1.00  0.00     0.049 A 
ATOM     15  C   UNL A   1      31.743  24.432  25.110  1.00  0.00     0.006 A 
ATOM     16  O   UNL A   1      32.002  23.685  22.793  1.00  0.00    -0.426 OA
ATOM     17  O   UNL A   1      31.954  25.517  21.581  1.00  0.00    -0.251 OA
ATOM     18  C   UNL A   1      32.860  28.466  24.114  1.00  0.00     0.090 A 
ATOM     19  S   UNL A   1      32.285  28.296  26.576  1.00  0.00    -0.077 S 
ATOM     20  C   UNL A   1      31.831  23.958  26.443  1.00  0.00     0.028 A 
ATOM     21  C   UNL A   1      31.938  23.415  24.136  1.00  0.00     0.134 A 
ATOM     22  N   UNL A   1      33.372  29.586  24.682  1.00  0.00    -0.307 N 
ATOM     23  C   UNL A   1      33.243  29.700  26.039  1.00  0.00     0.305 A 
ATOM     24  C   UNL A   1      32.360  22.664  26.717  1.00  0.00     0.041 A 
ATOM     25  C   UNL A   1      32.337  22.099  24.406  1.00  0.00     0.049 A 
ATOM     26  H   UNL A   1      33.815  30.282  24.146  1.00  0.00     0.171 HD
ATOM     27  O   UNL A   1      33.806  30.493  26.760  1.00  0.00    -0.257 OA
ATOM     28  Cl  UNL A   1      32.876  22.249  28.313  1.00  0.00    -0.084 Cl
ATOM     29  C   UNL A   1      32.633  21.747  25.703  1.00  0.00     0.024 A 
ENDBRANCH   8   9
ENDBRANCH   6   8
ENDBRANCH   5   6
ENDBRANCH   4   5
ENDBRANCH   3   4
ENDBRANCH   2   3
ENDBRANCH   1   2
BRANCH   1  30
ATOM     30  C   UNL A   1      41.387  21.949  26.545  1.00  0.00     0.261 C 
BRANCH  30  31
ATOM     31  O   UNL A   1      41.742  22.436  25.238  1.00  0.00    -0.460 OA
BRANCH  31  32
ATOM     32  C   UNL A   1      42.994  22.972  25.117  1.00  0.00     0.338 C 
ATOM     33  O   UNL A   1      43.862  22.611  24.340  1.00  0.00    -0.246 OA
BRANCH  32  34
ATOM     34  C   UNL A   1      42.979  24.314  25.781  1.00  0.00     0.060 A 
ATOM     35  C   UNL A   1      43.618  24.524  27.009  1.00  0.00     0.016 A 
ATOM     36  C   UNL A   1      41.947  25.185  25.371  1.00  0.00     0.016 A 
ATOM     37  C   UNL A   1      43.157  25.542  27.852  1.00  0.00     0.010 A 
ATOM     38  C   UNL A   1      41.466  26.174  26.236  1.00  0.00     0.010 A 
ATOM     39  C   UNL A   1      42.039  26.332  27.499  1.00  0.00    -0.014 A 
BRANCH  39  40
ATOM     40  C   UNL A   1      41.719  27.499  28.345  1.00  0.00     0.031 A 
ATOM     41  C   UNL A   1      42.775  28.540  28.208  1.00  0.00     0.074 A 
ATOM     42  C   UNL A   1      40.595  27.791  29.042  1.00  0.00     0.049 A 
ATOM     43  N   UNL A   1      43.560  29.002  29.122  1.00  0.00    -0.248 NA
ATOM     44  C   UNL A   1      43.103  28.980  26.839  1.00  0.00     0.031 C 
ATOM     45  C   UNL A   1      39.326  27.063  29.075  1.00  0.00     0.029 A 
ATOM     46  N   UNL A   1      40.317  28.896  29.813  1.00  0.00    -0.354 N 
ATOM     47  C   UNL A   1      44.379  29.920  28.474  1.00  0.00     0.074 A 
ATOM     48  C   UNL A   1      44.176  29.734  27.061  1.00  0.00     0.031 C 
ATOM     49  C   UNL A   1      38.364  27.852  29.614  1.00  0.00     0.029 A 
ATOM     50  C   UNL A   1      38.961  29.095  30.078  1.00  0.00     0.049 A 
ATOM     51  H   UNL A   1      41.018  29.499  30.151  1.00  0.00     0.167 HD
ATOM     52  C   UNL A   1      45.022  30.919  29.135  1.00  0.00     0.031 A 
ATOM     53  C   UNL A   1      38.354  30.213  30.575  1.00  0.00     0.031 A 
ATOM     54  C   UNL A   1      45.101  30.676  30.546  1.00  0.00     0.049 A 
ATOM     55  C   UNL A   1      39.391  31.025  31.255  1.00  0.00     0.074 A 
ATOM     56  C   UNL A   1      45.674  29.681  31.312  1.00  0.00     0.029 A 
ATOM     57  N   UNL A   1      44.201  31.314  31.365  1.00  0.00    -0.354 N 
ATOM     58  N   UNL A   1      39.996  30.657  32.347  1.00  0.00    -0.248 NA
ATOM     59  C   UNL A   1      40.070  32.039  30.467  1.00  0.00     0.031 C 
ATOM     60  C   UNL A   1      44.742  29.448  32.359  1.00  0.00     0.029 A 
ATOM     61  C   UNL A   1      43.703  30.374  32.235  1.00  0.00     0.049 A 
ATOM     62  H   UNL A   1      43.958  32.268  31.335  1.00  0.00     0.167 HD
ATOM     63  C   UNL A   1      41.316  31.035  32.156  1.00  0.00     0.074 A 
ATOM     64  C   UNL A   1      41.286  31.943  31.008  1.00  0.00     0.031 C 
ATOM     65  C   UNL A   1      42.348  30.372  32.760  1.00  0.00     0.031 A 
BRANCH  52  66
ATOM     66  C   UNL A   1      45.292  32.253  28.502  1.00  0.00    -0.014 A 
ATOM     67  C   UNL A   1      44.284  33.228  28.337  1.00  0.00     0.010 A 
ATOM     68  C   UNL A   1      46.617  32.653  28.258  1.00  0.00     0.010 A 
ATOM     69  C   UNL A   1      44.564  34.519  27.899  1.00  0.00     0.020 A 
ATOM     70  C   UNL A   1      46.917  33.965  27.864  1.00  0.00     0.020 A 
ATOM     71  C   UNL A   1      45.885  34.884  27.674  1.00  0.00     0.054 A 
BRANCH  71  72
ATOM     72  S   UNL A   1      46.214  36.595  27.196  1.00  0.00     0.124 S 
ATOM     73  O   UNL A   1      46.789  36.428  25.864  1.00  0.00    -0.237 OA
ATOM     74  O   UNL A   1      44.883  37.193  27.239  1.00  0.00    -0.237 OA
ATOM     75  O   UNL A   1      47.142  37.064  28.222  1.00  0.00    -0.744 OA
ENDBRANCH  71  72
ENDBRANCH  52  66
BRANCH  53  76
ATOM     76  C   UNL A   1      37.077  30.841  30.110  1.00  0.00    -0.014 A 
ATOM     77  C   UNL A   1      37.011  31.377  28.810  1.00  0.00     0.010 A 
ATOM     78  C   UNL A   1      36.059  31.215  31.016  1.00  0.00     0.010 A 
ATOM     79  C   UNL A   1      36.035  32.313  28.450  1.00  0.00     0.020 A 
ATOM     80  C   UNL A   1      35.068  32.156  30.659  1.00  0.00     0.020 A 
ATOM     81  C   UNL A   1      35.093  32.730  29.388  1.00  0.00     0.054 A 
BRANCH  81  82
ATOM     82  S   UNL A   1      33.992  34.105  28.935  1.00  0.00     0.124 S 
ATOM     83  O   UNL A   1      34.937  35.089  28.412  1.00  0.00    -0.237 OA
ATOM     84  O   UNL A   1      33.114  33.493  27.939  1.00  0.00    -0.237 OA
ATOM     85  O   UNL A   1      33.345  34.465  30.193  1.00  0.00    -0.744 OA
ENDBRANCH  81  82
ENDBRANCH  53  76
BRANCH  65  86
ATOM     86  C   UNL A   1      42.061  29.362  33.864  1.00  0.00    -0.014 A 
ATOM     87  C   UNL A   1      42.507  29.680  35.162  1.00  0.00     0.010 A 
ATOM     88  C   UNL A   1      41.571  28.058  33.641  1.00  0.00     0.010 A 
ATOM     89  C   UNL A   1      42.549  28.720  36.176  1.00  0.00     0.020 A 
ATOM     90  C   UNL A   1      41.559  27.103  34.673  1.00  0.00     0.020 A 
ATOM     91  C   UNL A   1      42.087  27.431  35.923  1.00  0.00     0.054 A 
BRANCH  91  92
ATOM     92  S   UNL A   1      42.259  26.183  37.228  1.00  0.00     0.124 S 
ATOM     93  O   UNL A   1      43.189  26.817  38.158  1.00  0.00    -0.237 OA
ATOM     94  O   UNL A   1      40.887  26.050  37.715  1.00  0.00    -0.237 OA
ATOM     95  O   UNL A   1      42.787  25.014  36.525  1.00  0.00    -0.744 OA
ENDBRANCH  91  92
ENDBRANCH  65  86
ENDBRANCH  39  40
ENDBRANCH  32  34
ENDBRANCH  31  32
ENDBRANCH  30  31
ENDBRANCH   1  30
TORSDOF 18
ENDMDL
MODEL 3
REMARK VINA RESULT:     -11.7      3.059      7.490
REMARK SMILES O=C(C[C@]12CSc3[nH]c(=O)sc3[C@@H]1c1cc(Cl)ccc1OC2=O)OCCOCCOC(=O)c1ccc(-c2c3nc(c(-c4ccc(S(=O)(=O)[O-])cc4)c4ccc([nH]4)c(-c4ccc(S(=O)(=O)[O-])cc4)c4nc(c(-c5ccc(S(=O)(=O)[O-])cc5)c5ccc2[nH]5)C=C4)C=C3)cc1
REMARK SMILES IDX 28 1 27 2 26 3 25 4 24 5 2 6 1 7 3 8 4 9 5 10 13 11 22 12
REMARK SMILES IDX 6 13 12 14 14 15 21 16 23 17 7 18 11 19 15 20 20 21 8 22
REMARK SMILES IDX 9 23 16 24 19 25 10 27 17 28 18 29 29 30 30 31 31 32 32 33
REMARK SMILES IDX 33 34 34 35 92 36 35 37 91 38 36 39 37 40 38 41 85 42 39 43
REMARK SMILES IDX 90 44 84 45 86 46 40 47 89 48 83 49 82 50 41 52 71 53 52 54
REMARK SMILES IDX 70 55 53 56 56 57 69 58 87 59 54 60 55 61 68 63 88 64 57 65
REMARK SMILES IDX 42 66 43 67 51 68 44 69 50 70 45 71 46 72 47 73 48 74 49 75
REMARK SMILES IDX 72 76 73 77 81 78 74 79 80 80 75 81 76 82 77 83 78 84 79 85
REMARK SMILES IDX 58 86 59 87 67 88 60 89 66 90 61 91 62 92 63 93 64 94 65 95
REMARK H PARENT 8 26 86 51 56 62
REMARK Flexibility Score: inf
ROOT
ATOM      1  C   UNL A   1      31.803  28.428  27.143  1.00  0.00     0.202 C 
ENDROOT
BRANCH   1   2
ATOM      2  O   UNL A   1      30.965  27.274  27.275  1.00  0.00    -0.374 OA
BRANCH   2   3
ATOM      3  C   UNL A   1      30.661  26.517  26.108  1.00  0.00     0.202 C 
BRANCH   3   4
ATOM      4  C   UNL A   1      29.845  25.227  26.134  1.00  0.00     0.261 C 
BRANCH   4   5
ATOM      5  O   UNL A   1      30.560  24.068  25.815  1.00  0.00    -0.463 OA
BRANCH   5   6
ATOM      6  C   UNL A   1      31.782  23.837  26.303  1.00  0.00     0.307 C 
ATOM      7  O   UNL A   1      31.835  23.707  27.521  1.00  0.00    -0.252 OA
BRANCH   6   8
ATOM      8  C   UNL A   1      33.036  23.800  25.375  1.00  0.00     0.143 C 
BRANCH   8   9
ATOM      9  C   UNL A   1      33.177  22.586  24.372  1.00  0.00     0.100 C 
ATOM     10  C   UNL A   1      33.087  21.320  25.298  1.00  0.00     0.097 C 
ATOM     11  C   UNL A   1      34.299  22.925  23.310  1.00  0.00     0.085 C 
ATOM     12  C   UNL A   1      32.136  22.078  23.327  1.00  0.00     0.319 C 
ATOM     13  S   UNL A   1      34.308  20.062  24.952  1.00  0.00    -0.106 SA
ATOM     14  C   UNL A   1      35.554  22.308  24.053  1.00  0.00     0.049 A 
ATOM     15  C   UNL A   1      33.455  24.294  22.729  1.00  0.00     0.006 A 
ATOM     16  O   UNL A   1      31.393  22.977  22.653  1.00  0.00    -0.426 OA
ATOM     17  O   UNL A   1      32.016  20.898  22.998  1.00  0.00    -0.251 OA
ATOM     18  C   UNL A   1      35.584  21.159  24.768  1.00  0.00     0.090 A 
ATOM     19  S   UNL A   1      37.126  23.118  24.315  1.00  0.00    -0.077 S 
ATOM     20  C   UNL A   1      33.912  25.635  22.773  1.00  0.00     0.028 A 
ATOM     21  C   UNL A   1      32.044  24.183  22.603  1.00  0.00     0.134 A 
ATOM     22  N   UNL A   1      36.654  20.970  25.579  1.00  0.00    -0.307 N 
ATOM     23  C   UNL A   1      37.616  21.944  25.564  1.00  0.00     0.305 A 
ATOM     24  C   UNL A   1      32.994  26.705  22.974  1.00  0.00     0.041 A 
ATOM     25  C   UNL A   1      31.137  25.249  22.672  1.00  0.00     0.049 A 
ATOM     26  H   UNL A   1      36.737  20.173  26.151  1.00  0.00     0.171 HD
ATOM     27  O   UNL A   1      38.525  22.081  26.350  1.00  0.00    -0.257 OA
ATOM     28  Cl  UNL A   1      33.559  28.264  23.460  1.00  0.00    -0.084 Cl
ATOM     29  C   UNL A   1      31.614  26.511  22.946  1.00  0.00     0.024 A 
ENDBRANCH   8   9
ENDBRANCH   6   8
ENDBRANCH   5   6
ENDBRANCH   4   5
ENDBRANCH   3   4
ENDBRANCH   2   3
ENDBRANCH   1   2
BRANCH   1  30
ATOM     30  C   UNL A   1      31.499  29.458  26.038  1.00  0.00     0.261 C 
BRANCH  30  31
ATOM     31  O   UNL A   1      32.555  30.422  25.871  1.00  0.00    -0.460 OA
BRANCH  31  32
ATOM     32  C   UNL A   1      32.436  31.573  26.597  1.00  0.00     0.338 C 
ATOM     33  O   UNL A   1      31.435  32.264  26.697  1.00  0.00    -0.246 OA
BRANCH  32  34
ATOM     34  C   UNL A   1      33.576  31.617  27.566  1.00  0.00     0.060 A 
ATOM     35  C   UNL A   1      34.113  32.836  28.002  1.00  0.00     0.016 A 
ATOM     36  C   UNL A   1      34.352  30.442  27.648  1.00  0.00     0.016 A 
ATOM     37  C   UNL A   1      35.446  32.880  28.424  1.00  0.00     0.010 A 
ATOM     38  C   UNL A   1      35.696  30.503  28.034  1.00  0.00     0.010 A 
ATOM     39  C   UNL A   1      36.265  31.729  28.384  1.00  0.00    -0.014 A 
BRANCH  39  40
ATOM     40  C   UNL A   1      37.600  31.802  29.010  1.00  0.00     0.031 A 
ATOM     41  C   UNL A   1      38.281  30.481  28.927  1.00  0.00     0.074 A 
ATOM     42  C   UNL A   1      38.295  32.873  29.463  1.00  0.00     0.049 A 
ATOM     43  N   UNL A   1      38.664  29.720  29.897  1.00  0.00    -0.248 NA
ATOM     44  C   UNL A   1      38.381  29.866  27.591  1.00  0.00     0.031 C 
ATOM     45  C   UNL A   1      37.948  34.292  29.369  1.00  0.00     0.029 A 
ATOM     46  N   UNL A   1      39.546  32.915  30.032  1.00  0.00    -0.354 N 
ATOM     47  C   UNL A   1      39.206  28.593  29.290  1.00  0.00     0.074 A 
ATOM     48  C   UNL A   1      38.847  28.658  27.897  1.00  0.00     0.031 C 
ATOM     49  C   UNL A   1      39.045  35.044  29.633  1.00  0.00     0.029 A 
ATOM     50  C   UNL A   1      40.142  34.178  30.034  1.00  0.00     0.049 A 
ATOM     51  H   UNL A   1      39.987  32.119  30.407  1.00  0.00     0.167 HD
ATOM     52  C   UNL A   1      40.093  27.780  29.921  1.00  0.00     0.031 A 
ATOM     53  C   UNL A   1      41.449  34.493  30.277  1.00  0.00     0.031 A 
ATOM     54  C   UNL A   1      40.078  27.956  31.344  1.00  0.00     0.049 A 
ATOM     55  C   UNL A   1      42.056  33.361  31.018  1.00  0.00     0.074 A 
ATOM     56  C   UNL A   1      39.108  27.801  32.315  1.00  0.00     0.029 A 
ATOM     57  N   UNL A   1      41.062  28.730  31.912  1.00  0.00    -0.354 N 
ATOM     58  N   UNL A   1      41.728  33.035  32.235  1.00  0.00    -0.248 NA
ATOM     59  C   UNL A   1      42.704  32.322  30.238  1.00  0.00     0.031 C 
ATOM     60  C   UNL A   1      39.312  28.886  33.208  1.00  0.00     0.029 A 
ATOM     61  C   UNL A   1      40.449  29.587  32.793  1.00  0.00     0.049 A 
ATOM     62  H   UNL A   1      42.026  28.680  31.722  1.00  0.00     0.167 HD
ATOM     63  C   UNL A   1      41.701  31.649  32.227  1.00  0.00     0.074 A 
ATOM     64  C   UNL A   1      42.378  31.266  30.986  1.00  0.00     0.031 C 
ATOM     65  C   UNL A   1      40.897  30.941  33.075  1.00  0.00     0.031 A 
BRANCH  52  66
ATOM     66  C   UNL A   1      41.180  27.054  29.183  1.00  0.00    -0.014 A 
ATOM     67  C   UNL A   1      41.001  25.754  28.662  1.00  0.00     0.010 A 
ATOM     68  C   UNL A   1      42.341  27.745  28.795  1.00  0.00     0.010 A 
ATOM     69  C   UNL A   1      41.947  25.144  27.844  1.00  0.00     0.020 A 
ATOM     70  C   UNL A   1      43.278  27.160  27.931  1.00  0.00     0.020 A 
ATOM     71  C   UNL A   1      43.079  25.857  27.474  1.00  0.00     0.054 A 
BRANCH  71  72
ATOM     72  S   UNL A   1      44.237  25.064  26.336  1.00  0.00     0.124 S 
ATOM     73  O   UNL A   1      43.544  23.816  26.025  1.00  0.00    -0.237 OA
ATOM     74  O   UNL A   1      44.315  26.031  25.246  1.00  0.00    -0.237 OA
ATOM     75  O   UNL A   1      45.454  24.921  27.131  1.00  0.00    -0.744 OA
ENDBRANCH  71  72
ENDBRANCH  52  66
BRANCH  53  76
ATOM     76  C   UNL A   1      42.308  35.461  29.527  1.00  0.00    -0.014 A 
ATOM     77  C   UNL A   1      42.282  35.452  28.119  1.00  0.00     0.010 A 
ATOM     78  C   UNL A   1      43.378  36.145  30.149  1.00  0.00     0.010 A 
ATOM     79  C   UNL A   1      43.317  36.014  27.361  1.00  0.00     0.020 A 
ATOM     80  C   UNL A   1      44.422  36.717  29.391  1.00  0.00     0.020 A 
ATOM     81  C   UNL A   1      44.403  36.607  28.000  1.00  0.00     0.054 A 
BRANCH  81  82
ATOM     82  S   UNL A   1      45.817  37.119  26.978  1.00  0.00     0.124 S 
ATOM     83  O   UNL A   1      45.934  36.003  26.043  1.00  0.00    -0.237 OA
ATOM     84  O   UNL A   1      45.346  38.374  26.393  1.00  0.00    -0.237 OA
ATOM     85  O   UNL A   1      46.911  37.254  27.934  1.00  0.00    -0.744 OA
ENDBRANCH  81  82
ENDBRANCH  53  76
BRANCH  65  86
ATOM     86  C   UNL A   1      40.200  31.648  34.231  1.00  0.00    -0.014 A 
ATOM     87  C   UNL A   1      40.705  31.419  35.527  1.00  0.00     0.010 A 
ATOM     88  C   UNL A   1      38.976  32.340  34.118  1.00  0.00     0.010 A 
ATOM     89  C   UNL A   1      39.985  31.783  36.667  1.00  0.00     0.020 A 
ATOM     90  C   UNL A   1      38.273  32.758  35.261  1.00  0.00     0.020 A 
ATOM     91  C   UNL A   1      38.764  32.440  36.528  1.00  0.00     0.054 A 
BRANCH  91  92
ATOM     92  S   UNL A   1      37.806  32.798  38.027  1.00  0.00     0.124 S 
ATOM     93  O   UNL A   1      36.495  33.156  37.492  1.00  0.00    -0.237 OA
ATOM     94  O   UNL A   1      37.857  31.524  38.741  1.00  0.00    -0.237 OA
ATOM     95  O   UNL A   1      38.540  33.896  38.655  1.00  0.00    -0.744 OA
ENDBRANCH  91  92
ENDBRANCH  65  86
ENDBRANCH  39  40
ENDBRANCH  32  34
ENDBRANCH  31  32
ENDBRANCH  30  31
ENDBRANCH   1  30
TORSDOF 18
ENDMDL
