MODEL 1
REMARK VINA RESULT:      -9.7      0.000      0.000
REMARK SMILES COc1cccc(-c2c([C@H]3c4ccccc4C(=O)N3CC(=O)OCCOCCOC(=O)c3ccc(-c4c5nc(c(-c6ccc(S(=O)(=O)[O-])cc6)c6ccc([nH]6)c(-c6ccc(S(=O)(=O)[O-])cc6)c6nc(c(-c7ccc(S(=O)(=O)[O-])cc7)c7ccc4[nH]7)C=C6)C=C5)cc3)c3ccccc3n2C)c1
REMARK SMILES IDX 25 1 24 2 23 3 21 4 22 5 20 6 19 7 10 8 11 9 12 10 16 11
REMARK SMILES IDX 17 12 13 13 15 14 18 15 14 16 9 17 8 18 98 19 92 20 97 21
REMARK SMILES IDX 99 22 93 23 96 24 94 25 95 26 7 27 3 28 4 29 100 30 5 31
REMARK SMILES IDX 6 32 2 33 1 34 26 35 27 36 28 37 29 38 30 39 31 40 32 41
REMARK SMILES IDX 33 42 91 43 34 44 90 45 35 46 36 47 37 48 84 49 38 50 89 51
REMARK SMILES IDX 83 52 85 53 39 54 88 55 82 56 81 57 40 59 70 60 51 61 69 62
REMARK SMILES IDX 52 63 55 64 68 65 86 66 53 67 54 68 67 70 87 71 56 72 41 73
REMARK SMILES IDX 42 74 50 75 43 76 49 77 44 78 45 79 46 80 47 81 48 82 71 83
REMARK SMILES IDX 72 84 80 85 73 86 79 87 74 88 75 89 76 90 77 91 78 92 57 93
REMARK SMILES IDX 58 94 66 95 59 96 65 97 60 98 61 99 62 100 63 101 64 102
REMARK H PARENT 85 58 55 69
REMARK Flexibility Score: inf
ROOT
ATOM      1  C   UNL A   1      46.548  41.698  24.832  1.00  0.00     0.202 C 
ENDROOT
BRANCH   1   2
ATOM      2  C   UNL A   1      46.733  41.251  23.376  1.00  0.00     0.261 C 
BRANCH   2   3
ATOM      3  O   UNL A   1      47.586  42.149  22.650  1.00  0.00    -0.462 OA
BRANCH   3   4
ATOM      4  C   UNL A   1      47.451  42.102  21.305  1.00  0.00     0.325 C 
ATOM      5  O   UNL A   1      48.382  42.064  20.501  1.00  0.00    -0.250 OA
BRANCH   4   6
ATOM      6  C   UNL A   1      46.025  41.838  20.841  1.00  0.00     0.243 C 
BRANCH   6   7
ATOM      7  N   UNL A   1      45.027  42.859  20.481  1.00  0.00    -0.316 N 
ATOM      8  C   UNL A   1      45.502  44.234  20.655  1.00  0.00     0.150 C 
ATOM      9  C   UNL A   1      45.018  44.529  22.046  1.00  0.00    -0.008 A 
ATOM     10  C   UNL A   1      45.651  45.221  23.067  1.00  0.00     0.007 A 
ATOM     11  C   UNL A   1      43.934  43.696  22.332  1.00  0.00     0.045 A 
ATOM     12  C   UNL A   1      43.853  42.703  21.247  1.00  0.00     0.255 C 
ATOM     13  C   UNL A   1      45.159  45.070  24.369  1.00  0.00     0.000 A 
ATOM     14  C   UNL A   1      43.410  43.557  23.604  1.00  0.00     0.014 A 
ATOM     15  O   UNL A   1      43.072  41.769  21.215  1.00  0.00    -0.269 OA
ATOM     16  C   UNL A   1      44.040  44.259  24.632  1.00  0.00     0.001 A 
BRANCH   8  17
ATOM     17  C   UNL A   1      44.913  45.314  19.755  1.00  0.00     0.013 A 
ATOM     18  C   UNL A   1      45.485  46.587  19.584  1.00  0.00     0.055 A 
ATOM     19  N   UNL A   1      44.583  47.367  18.891  1.00  0.00    -0.343 N 
ATOM     20  C   UNL A   1      43.803  45.283  18.837  1.00  0.00     0.006 A 
ATOM     21  C   UNL A   1      43.637  46.563  18.296  1.00  0.00     0.049 A 
ATOM     22  C   UNL A   1      44.627  48.808  18.760  1.00  0.00     0.150 C 
ATOM     23  C   UNL A   1      42.929  44.280  18.381  1.00  0.00     0.011 A 
ATOM     24  C   UNL A   1      42.649  46.860  17.335  1.00  0.00     0.027 A 
ATOM     25  C   UNL A   1      41.955  44.557  17.410  1.00  0.00     0.001 A 
ATOM     26  C   UNL A   1      41.818  45.834  16.895  1.00  0.00     0.002 A 
BRANCH  18  27
ATOM     27  C   UNL A   1      46.824  47.012  20.002  1.00  0.00     0.002 A 
ATOM     28  C   UNL A   1      49.219  46.791  19.627  1.00  0.00     0.119 A 
ATOM     29  C   UNL A   1      49.452  47.455  20.829  1.00  0.00     0.046 A 
ATOM     30  C   UNL A   1      47.908  46.630  19.191  1.00  0.00     0.056 A 
ATOM     31  C   UNL A   1      48.384  47.911  21.608  1.00  0.00     0.005 A 
ATOM     32  C   UNL A   1      47.070  47.669  21.207  1.00  0.00     0.010 A 
BRANCH  28  33
ATOM     33  O   UNL A   1      50.329  46.319  18.981  1.00  0.00    -0.497 OA
ATOM     34  C   UNL A   1      51.329  47.282  18.653  1.00  0.00     0.278 C 
ENDBRANCH  28  33
ENDBRANCH  18  27
ENDBRANCH   8  17
ENDBRANCH   6   7
ENDBRANCH   4   6
ENDBRANCH   3   4
ENDBRANCH   2   3
ENDBRANCH   1   2
BRANCH   1  35
ATOM     35  O   UNL A   1      46.141  40.691  25.762  1.00  0.00    -0.374 OA
BRANCH  35  36
ATOM     36  C   UNL A   1      44.746  40.549  26.032  1.00  0.00     0.202 C 
BRANCH  36  37
ATOM     37  C   UNL A   1      44.246  39.173  26.487  1.00  0.00     0.261 C 
BRANCH  37  38
ATOM     38  O   UNL A   1      42.810  39.111  26.571  1.00  0.00    -0.460 OA
BRANCH  38  39
ATOM     39  C   UNL A   1      42.334  38.694  27.768  1.00  0.00     0.338 C 
ATOM     40  O   UNL A   1      41.570  39.308  28.497  1.00  0.00    -0.246 OA
BRANCH  39  41
ATOM     41  C   UNL A   1      42.734  37.306  28.069  1.00  0.00     0.060 A 
ATOM     42  C   UNL A   1      41.813  36.301  27.756  1.00  0.00     0.016 A 
ATOM     43  C   UNL A   1      43.890  36.996  28.787  1.00  0.00     0.016 A 
ATOM     44  C   UNL A   1      42.006  35.009  28.240  1.00  0.00     0.010 A 
ATOM     45  C   UNL A   1      44.065  35.714  29.304  1.00  0.00     0.010 A 
ATOM     46  C   UNL A   1      43.101  34.731  29.064  1.00  0.00    -0.014 A 
BRANCH  46  47
ATOM     47  C   UNL A   1      43.203  33.414  29.720  1.00  0.00     0.031 A 
ATOM     48  C   UNL A   1      43.914  32.291  29.026  1.00  0.00     0.074 A 
ATOM     49  C   UNL A   1      42.641  33.241  30.926  1.00  0.00     0.049 A 
ATOM     50  N   UNL A   1      44.269  31.126  29.499  1.00  0.00    -0.248 NA
ATOM     51  C   UNL A   1      44.267  32.505  27.614  1.00  0.00     0.031 C 
ATOM     52  C   UNL A   1      41.867  34.253  31.645  1.00  0.00     0.029 A 
ATOM     53  N   UNL A   1      42.631  32.150  31.750  1.00  0.00    -0.354 N 
ATOM     54  C   UNL A   1      44.909  30.473  28.452  1.00  0.00     0.074 A 
ATOM     55  C   UNL A   1      44.856  31.357  27.307  1.00  0.00     0.031 C 
ATOM     56  C   UNL A   1      41.444  33.728  32.807  1.00  0.00     0.029 A 
ATOM     57  C   UNL A   1      41.936  32.358  32.915  1.00  0.00     0.049 A 
ATOM     58  H   UNL A   1      43.077  31.301  31.530  1.00  0.00     0.167 HD
ATOM     59  C   UNL A   1      45.492  29.250  28.458  1.00  0.00     0.031 A 
ATOM     60  C   UNL A   1      41.738  31.535  33.961  1.00  0.00     0.031 A 
ATOM     61  C   UNL A   1      45.482  28.372  29.599  1.00  0.00     0.049 A 
ATOM     62  C   UNL A   1      42.421  30.199  33.966  1.00  0.00     0.074 A 
ATOM     63  C   UNL A   1      46.095  27.141  29.751  1.00  0.00     0.029 A 
ATOM     64  N   UNL A   1      44.797  28.624  30.781  1.00  0.00    -0.354 N 
ATOM     65  N   UNL A   1      43.153  29.646  33.027  1.00  0.00    -0.248 NA
ATOM     66  C   UNL A   1      42.292  29.397  35.187  1.00  0.00     0.031 C 
ATOM     67  C   UNL A   1      45.740  26.628  31.006  1.00  0.00     0.029 A 
ATOM     68  C   UNL A   1      44.949  27.563  31.656  1.00  0.00     0.049 A 
ATOM     69  H   UNL A   1      44.280  29.441  30.969  1.00  0.00     0.167 HD
ATOM     70  C   UNL A   1      43.594  28.438  33.552  1.00  0.00     0.074 A 
ATOM     71  C   UNL A   1      43.055  28.350  34.896  1.00  0.00     0.031 C 
ATOM     72  C   UNL A   1      44.381  27.492  32.981  1.00  0.00     0.031 A 
BRANCH  59  73
ATOM     73  C   UNL A   1      46.168  28.793  27.191  1.00  0.00    -0.014 A 
ATOM     74  C   UNL A   1      45.449  28.114  26.189  1.00  0.00     0.010 A 
ATOM     75  C   UNL A   1      47.531  29.071  26.981  1.00  0.00     0.010 A 
ATOM     76  C   UNL A   1      46.090  27.682  25.024  1.00  0.00     0.020 A 
ATOM     77  C   UNL A   1      48.170  28.659  25.806  1.00  0.00     0.020 A 
ATOM     78  C   UNL A   1      47.450  27.951  24.843  1.00  0.00     0.054 A 
BRANCH  78  79
ATOM     79  S   UNL A   1      48.259  27.386  23.320  1.00  0.00     0.124 S 
ATOM     80  O   UNL A   1      47.519  28.121  22.296  1.00  0.00    -0.237 OA
ATOM     81  O   UNL A   1      49.645  27.806  23.514  1.00  0.00    -0.237 OA
ATOM     82  O   UNL A   1      48.043  25.941  23.327  1.00  0.00    -0.744 OA
ENDBRANCH  78  79
ENDBRANCH  59  73
BRANCH  60  83
ATOM     83  C   UNL A   1      40.912  32.010  35.099  1.00  0.00    -0.014 A 
ATOM     84  C   UNL A   1      39.521  31.815  35.103  1.00  0.00     0.010 A 
ATOM     85  C   UNL A   1      41.532  32.569  36.231  1.00  0.00     0.010 A 
ATOM     86  C   UNL A   1      38.763  32.167  36.225  1.00  0.00     0.020 A 
ATOM     87  C   UNL A   1      40.780  32.903  37.361  1.00  0.00     0.020 A 
ATOM     88  C   UNL A   1      39.400  32.701  37.350  1.00  0.00     0.054 A 
BRANCH  88  89
ATOM     89  S   UNL A   1      38.411  33.053  38.830  1.00  0.00     0.124 S 
ATOM     90  O   UNL A   1      38.489  34.508  38.909  1.00  0.00    -0.237 OA
ATOM     91  O   UNL A   1      37.102  32.507  38.475  1.00  0.00    -0.237 OA
ATOM     92  O   UNL A   1      39.111  32.328  39.889  1.00  0.00    -0.744 OA
ENDBRANCH  88  89
ENDBRANCH  60  83
BRANCH  72  93
ATOM     93  C   UNL A   1      44.712  26.288  33.821  1.00  0.00    -0.014 A 
ATOM     94  C   UNL A   1      45.905  26.225  34.563  1.00  0.00     0.010 A 
ATOM     95  C   UNL A   1      43.806  25.214  33.881  1.00  0.00     0.010 A 
ATOM     96  C   UNL A   1      46.207  25.087  35.314  1.00  0.00     0.020 A 
ATOM     97  C   UNL A   1      44.094  24.085  34.650  1.00  0.00     0.020 A 
ATOM     98  C   UNL A   1      45.304  24.020  35.345  1.00  0.00     0.054 A 
BRANCH  98  99
ATOM     99  S   UNL A   1      45.711  22.555  36.334  1.00  0.00     0.124 S 
ATOM    100  O   UNL A   1      47.151  22.441  36.125  1.00  0.00    -0.237 OA
ATOM    101  O   UNL A   1      45.300  22.948  37.679  1.00  0.00    -0.237 OA
ATOM    102  O   UNL A   1      44.907  21.497  35.728  1.00  0.00    -0.744 OA
ENDBRANCH  98  99
ENDBRANCH  72  93
ENDBRANCH  46  47
ENDBRANCH  39  41
ENDBRANCH  38  39
ENDBRANCH  37  38
ENDBRANCH  36  37
ENDBRANCH  35  36
ENDBRANCH   1  35
TORSDOF 21
ENDMDL
MODEL 2
REMARK VINA RESULT:      -9.5      9.411     13.217
REMARK SMILES COc1cccc(-c2c([C@H]3c4ccccc4C(=O)N3CC(=O)OCCOCCOC(=O)c3ccc(-c4c5nc(c(-c6ccc(S(=O)(=O)[O-])cc6)c6ccc([nH]6)c(-c6ccc(S(=O)(=O)[O-])cc6)c6nc(c(-c7ccc(S(=O)(=O)[O-])cc7)c7ccc4[nH]7)C=C6)C=C5)cc3)c3ccccc3n2C)c1
REMARK SMILES IDX 25 1 24 2 23 3 21 4 22 5 20 6 19 7 10 8 11 9 12 10 16 11
REMARK SMILES IDX 17 12 13 13 15 14 18 15 14 16 9 17 8 18 98 19 92 20 97 21
REMARK SMILES IDX 99 22 93 23 96 24 94 25 95 26 7 27 3 28 4 29 100 30 5 31
REMARK SMILES IDX 6 32 2 33 1 34 26 35 27 36 28 37 29 38 30 39 31 40 32 41
REMARK SMILES IDX 33 42 91 43 34 44 90 45 35 46 36 47 37 48 84 49 38 50 89 51
REMARK SMILES IDX 83 52 85 53 39 54 88 55 82 56 81 57 40 59 70 60 51 61 69 62
REMARK SMILES IDX 52 63 55 64 68 65 86 66 53 67 54 68 67 70 87 71 56 72 41 73
REMARK SMILES IDX 42 74 50 75 43 76 49 77 44 78 45 79 46 80 47 81 48 82 71 83
REMARK SMILES IDX 72 84 80 85 73 86 79 87 74 88 75 89 76 90 77 91 78 92 57 93
REMARK SMILES IDX 58 94 66 95 59 96 65 97 60 98 61 99 62 100 63 101 64 102
REMARK H PARENT 85 58 55 69
REMARK Flexibility Score: inf
ROOT
ATOM      1  C   UNL A   1      46.705  24.570  25.147  1.00  0.00     0.202 C 
ENDROOT
BRANCH   1   2
ATOM      2  C   UNL A   1      47.122  25.975  24.697  1.00  0.00     0.261 C 
BRANCH   2   3
ATOM      3  O   UNL A   1      46.027  26.901  24.763  1.00  0.00    -0.462 OA
BRANCH   3   4
ATOM      4  C   UNL A   1      46.377  28.181  25.024  1.00  0.00     0.325 C 
ATOM      5  O   UNL A   1      46.776  28.991  24.188  1.00  0.00    -0.250 OA
BRANCH   4   6
ATOM      6  C   UNL A   1      45.999  28.646  26.424  1.00  0.00     0.243 C 
BRANCH   6   7
ATOM      7  N   UNL A   1      46.784  29.551  27.279  1.00  0.00    -0.316 N 
ATOM      8  C   UNL A   1      46.506  29.398  28.710  1.00  0.00     0.150 C 
ATOM      9  C   UNL A   1      45.446  30.444  28.908  1.00  0.00    -0.008 A 
ATOM     10  C   UNL A   1      44.295  30.391  29.678  1.00  0.00     0.007 A 
ATOM     11  C   UNL A   1      45.578  31.413  27.911  1.00  0.00     0.045 A 
ATOM     12  C   UNL A   1      46.550  30.898  26.931  1.00  0.00     0.255 C 
ATOM     13  C   UNL A   1      43.296  31.341  29.436  1.00  0.00     0.000 A 
ATOM     14  C   UNL A   1      44.620  32.382  27.676  1.00  0.00     0.014 A 
ATOM     15  O   UNL A   1      46.844  31.451  25.887  1.00  0.00    -0.269 OA
ATOM     16  C   UNL A   1      43.464  32.337  28.455  1.00  0.00     0.001 A 
BRANCH   8  17
ATOM     17  C   UNL A   1      47.623  29.724  29.695  1.00  0.00     0.013 A 
ATOM     18  C   UNL A   1      48.876  29.085  29.694  1.00  0.00     0.055 A 
ATOM     19  N   UNL A   1      49.543  29.462  30.841  1.00  0.00    -0.343 N 
ATOM     20  C   UNL A   1      47.733  30.750  30.700  1.00  0.00     0.006 A 
ATOM     21  C   UNL A   1      48.945  30.580  31.378  1.00  0.00     0.049 A 
ATOM     22  C   UNL A   1      50.720  28.824  31.391  1.00  0.00     0.150 C 
ATOM     23  C   UNL A   1      46.931  31.837  31.090  1.00  0.00     0.011 A 
ATOM     24  C   UNL A   1      49.368  31.446  32.406  1.00  0.00     0.027 A 
ATOM     25  C   UNL A   1      47.350  32.719  32.097  1.00  0.00     0.001 A 
ATOM     26  C   UNL A   1      48.556  32.523  32.748  1.00  0.00     0.002 A 
BRANCH  18  27
ATOM     27  C   UNL A   1      49.421  28.221  28.644  1.00  0.00     0.002 A 
ATOM     28  C   UNL A   1      50.649  28.128  26.544  1.00  0.00     0.119 A 
ATOM     29  C   UNL A   1      50.273  26.794  26.402  1.00  0.00     0.046 A 
ATOM     30  C   UNL A   1      50.274  28.813  27.695  1.00  0.00     0.056 A 
ATOM     31  C   UNL A   1      49.491  26.168  27.378  1.00  0.00     0.005 A 
ATOM     32  C   UNL A   1      49.045  26.888  28.487  1.00  0.00     0.010 A 
BRANCH  28  33
ATOM     33  O   UNL A   1      51.348  28.665  25.498  1.00  0.00    -0.497 OA
ATOM     34  C   UNL A   1      52.514  27.956  25.084  1.00  0.00     0.278 C 
ENDBRANCH  28  33
ENDBRANCH  18  27
ENDBRANCH   8  17
ENDBRANCH   6   7
ENDBRANCH   4   6
ENDBRANCH   3   4
ENDBRANCH   2   3
ENDBRANCH   1   2
BRANCH   1  35
ATOM     35  O   UNL A   1      46.189  23.701  24.136  1.00  0.00    -0.374 OA
BRANCH  35  36
ATOM     36  C   UNL A   1      46.007  22.322  24.462  1.00  0.00     0.202 C 
BRANCH  36  37
ATOM     37  C   UNL A   1      44.671  21.672  24.085  1.00  0.00     0.261 C 
BRANCH  37  38
ATOM     38  O   UNL A   1      43.552  22.550  24.304  1.00  0.00    -0.460 OA
BRANCH  38  39
ATOM     39  C   UNL A   1      42.723  22.166  25.303  1.00  0.00     0.338 C 
ATOM     40  O   UNL A   1      42.313  21.035  25.511  1.00  0.00    -0.246 OA
BRANCH  39  41
ATOM     41  C   UNL A   1      42.450  23.267  26.248  1.00  0.00     0.060 A 
ATOM     42  C   UNL A   1      43.090  24.486  26.000  1.00  0.00     0.016 A 
ATOM     43  C   UNL A   1      41.735  23.082  27.432  1.00  0.00     0.016 A 
ATOM     44  C   UNL A   1      43.088  25.482  26.974  1.00  0.00     0.010 A 
ATOM     45  C   UNL A   1      41.764  24.061  28.423  1.00  0.00     0.010 A 
ATOM     46  C   UNL A   1      42.476  25.244  28.210  1.00  0.00    -0.014 A 
BRANCH  46  47
ATOM     47  C   UNL A   1      42.633  26.224  29.299  1.00  0.00     0.031 A 
ATOM     48  C   UNL A   1      43.833  26.154  30.196  1.00  0.00     0.074 A 
ATOM     49  C   UNL A   1      41.686  27.159  29.478  1.00  0.00     0.049 A 
ATOM     50  N   UNL A   1      44.247  27.017  31.085  1.00  0.00    -0.248 NA
ATOM     51  C   UNL A   1      44.673  24.951  30.082  1.00  0.00     0.031 C 
ATOM     52  C   UNL A   1      40.450  27.261  28.702  1.00  0.00     0.029 A 
ATOM     53  N   UNL A   1      41.617  28.190  30.372  1.00  0.00    -0.354 N 
ATOM     54  C   UNL A   1      45.410  26.477  31.621  1.00  0.00     0.074 A 
ATOM     55  C   UNL A   1      45.611  25.191  30.988  1.00  0.00     0.031 C 
ATOM     56  C   UNL A   1      39.735  28.299  29.164  1.00  0.00     0.029 A 
ATOM     57  C   UNL A   1      40.474  28.938  30.249  1.00  0.00     0.049 A 
ATOM     58  H   UNL A   1      42.318  28.378  31.037  1.00  0.00     0.167 HD
ATOM     59  C   UNL A   1      46.232  27.017  32.553  1.00  0.00     0.031 A 
ATOM     60  C   UNL A   1      40.079  30.031  30.927  1.00  0.00     0.031 A 
ATOM     61  C   UNL A   1      45.977  28.276  33.204  1.00  0.00     0.049 A 
ATOM     62  C   UNL A   1      41.019  30.635  31.929  1.00  0.00     0.074 A 
ATOM     63  C   UNL A   1      46.767  28.958  34.111  1.00  0.00     0.029 A 
ATOM     64  N   UNL A   1      44.823  29.030  33.034  1.00  0.00    -0.354 N 
ATOM     65  N   UNL A   1      42.191  30.196  32.327  1.00  0.00    -0.248 NA
ATOM     66  C   UNL A   1      40.606  31.904  32.539  1.00  0.00     0.031 C 
ATOM     67  C   UNL A   1      46.069  30.100  34.526  1.00  0.00     0.029 A 
ATOM     68  C   UNL A   1      44.867  30.156  33.837  1.00  0.00     0.049 A 
ATOM     69  H   UNL A   1      44.082  28.797  32.428  1.00  0.00     0.167 HD
ATOM     70  C   UNL A   1      42.670  31.149  33.218  1.00  0.00     0.074 A 
ATOM     71  C   UNL A   1      41.664  32.192  33.288  1.00  0.00     0.031 C 
ATOM     72  C   UNL A   1      43.839  31.167  33.906  1.00  0.00     0.031 A 
BRANCH  59  73
ATOM     73  C   UNL A   1      47.467  26.238  32.929  1.00  0.00    -0.014 A 
ATOM     74  C   UNL A   1      48.572  26.166  32.059  1.00  0.00     0.010 A 
ATOM     75  C   UNL A   1      47.540  25.594  34.177  1.00  0.00     0.010 A 
ATOM     76  C   UNL A   1      49.706  25.428  32.411  1.00  0.00     0.020 A 
ATOM     77  C   UNL A   1      48.683  24.873  34.542  1.00  0.00     0.020 A 
ATOM     78  C   UNL A   1      49.751  24.779  33.648  1.00  0.00     0.054 A 
BRANCH  78  79
ATOM     79  S   UNL A   1      51.237  23.832  34.086  1.00  0.00     0.124 S 
ATOM     80  O   UNL A   1      50.783  22.456  33.899  1.00  0.00    -0.237 OA
ATOM     81  O   UNL A   1      52.220  24.305  33.114  1.00  0.00    -0.237 OA
ATOM     82  O   UNL A   1      51.499  24.218  35.470  1.00  0.00    -0.744 OA
ENDBRANCH  78  79
ENDBRANCH  59  73
BRANCH  60  83
ATOM     83  C   UNL A   1      38.763  30.636  30.606  1.00  0.00    -0.014 A 
ATOM     84  C   UNL A   1      37.624  30.315  31.364  1.00  0.00     0.010 A 
ATOM     85  C   UNL A   1      38.667  31.618  29.602  1.00  0.00     0.010 A 
ATOM     86  C   UNL A   1      36.411  30.970  31.125  1.00  0.00     0.020 A 
ATOM     87  C   UNL A   1      37.462  32.287  29.376  1.00  0.00     0.020 A 
ATOM     88  C   UNL A   1      36.341  31.958  30.138  1.00  0.00     0.054 A 
BRANCH  88  89
ATOM     89  S   UNL A   1      34.785  32.865  29.918  1.00  0.00     0.124 S 
ATOM     90  O   UNL A   1      35.253  34.160  29.436  1.00  0.00    -0.237 OA
ATOM     91  O   UNL A   1      34.074  32.045  28.939  1.00  0.00    -0.237 OA
ATOM     92  O   UNL A   1      34.199  32.868  31.257  1.00  0.00    -0.744 OA
ENDBRANCH  88  89
ENDBRANCH  60  83
BRANCH  72  93
ATOM     93  C   UNL A   1      44.089  32.361  34.785  1.00  0.00    -0.014 A 
ATOM     94  C   UNL A   1      44.696  33.524  34.276  1.00  0.00     0.010 A 
ATOM     95  C   UNL A   1      43.695  32.325  36.134  1.00  0.00     0.010 A 
ATOM     96  C   UNL A   1      44.947  34.612  35.115  1.00  0.00     0.020 A 
ATOM     97  C   UNL A   1      43.922  33.421  36.969  1.00  0.00     0.020 A 
ATOM     98  C   UNL A   1      44.566  34.550  36.459  1.00  0.00     0.054 A 
BRANCH  98  99
ATOM     99  S   UNL A   1      44.892  35.977  37.529  1.00  0.00     0.124 S 
ATOM    100  O   UNL A   1      44.270  37.065  36.779  1.00  0.00    -0.237 OA
ATOM    101  O   UNL A   1      44.222  35.608  38.774  1.00  0.00    -0.237 OA
ATOM    102  O   UNL A   1      46.350  36.025  37.604  1.00  0.00    -0.744 OA
ENDBRANCH  98  99
ENDBRANCH  72  93
ENDBRANCH  46  47
ENDBRANCH  39  41
ENDBRANCH  38  39
ENDBRANCH  37  38
ENDBRANCH  36  37
ENDBRANCH  35  36
ENDBRANCH   1  35
TORSDOF 21
ENDMDL
MODEL 3
REMARK VINA RESULT:      -8.9      4.588      9.596
REMARK SMILES COc1cccc(-c2c([C@H]3c4ccccc4C(=O)N3CC(=O)OCCOCCOC(=O)c3ccc(-c4c5nc(c(-c6ccc(S(=O)(=O)[O-])cc6)c6ccc([nH]6)c(-c6ccc(S(=O)(=O)[O-])cc6)c6nc(c(-c7ccc(S(=O)(=O)[O-])cc7)c7ccc4[nH]7)C=C6)C=C5)cc3)c3ccccc3n2C)c1
REMARK SMILES IDX 25 1 24 2 23 3 21 4 22 5 20 6 19 7 10 8 11 9 12 10 16 11
REMARK SMILES IDX 17 12 13 13 15 14 18 15 14 16 9 17 8 18 98 19 92 20 97 21
REMARK SMILES IDX 99 22 93 23 96 24 94 25 95 26 7 27 3 28 4 29 100 30 5 31
REMARK SMILES IDX 6 32 2 33 1 34 26 35 27 36 28 37 29 38 30 39 31 40 32 41
REMARK SMILES IDX 33 42 91 43 34 44 90 45 35 46 36 47 37 48 84 49 38 50 89 51
REMARK SMILES IDX 83 52 85 53 39 54 88 55 82 56 81 57 40 59 70 60 51 61 69 62
REMARK SMILES IDX 52 63 55 64 68 65 86 66 53 67 54 68 67 70 87 71 56 72 41 73
REMARK SMILES IDX 42 74 50 75 43 76 49 77 44 78 45 79 46 80 47 81 48 82 71 83
REMARK SMILES IDX 72 84 80 85 73 86 79 87 74 88 75 89 76 90 77 91 78 92 57 93
REMARK SMILES IDX 58 94 66 95 59 96 65 97 60 98 61 99 62 100 63 101 64 102
REMARK H PARENT 85 58 55 69
REMARK Flexibility Score: inf
ROOT
ATOM      1  C   UNL A   1      51.166  40.056  30.637  1.00  0.00     0.202 C 
ENDROOT
BRANCH   1   2
ATOM      2  C   UNL A   1      50.087  41.146  30.606  1.00  0.00     0.261 C 
BRANCH   2   3
ATOM      3  O   UNL A   1      49.622  41.394  29.271  1.00  0.00    -0.462 OA
BRANCH   3   4
ATOM      4  C   UNL A   1      48.324  41.083  29.052  1.00  0.00     0.325 C 
ATOM      5  O   UNL A   1      47.702  40.192  29.630  1.00  0.00    -0.250 OA
BRANCH   4   6
ATOM      6  C   UNL A   1      47.586  42.100  28.194  1.00  0.00     0.243 C 
BRANCH   6   7
ATOM      7  N   UNL A   1      46.140  42.116  27.916  1.00  0.00    -0.316 N 
ATOM      8  C   UNL A   1      45.798  42.679  26.607  1.00  0.00     0.150 C 
ATOM      9  C   UNL A   1      45.547  44.114  26.970  1.00  0.00    -0.008 A 
ATOM     10  C   UNL A   1      45.894  45.267  26.282  1.00  0.00     0.007 A 
ATOM     11  C   UNL A   1      45.200  44.184  28.321  1.00  0.00     0.045 A 
ATOM     12  C   UNL A   1      45.449  42.852  28.901  1.00  0.00     0.255 C 
ATOM     13  C   UNL A   1      45.865  46.482  26.976  1.00  0.00     0.000 A 
ATOM     14  C   UNL A   1      45.132  45.375  29.018  1.00  0.00     0.014 A 
ATOM     15  O   UNL A   1      45.331  42.574  30.081  1.00  0.00    -0.269 OA
ATOM     16  C   UNL A   1      45.472  46.538  28.326  1.00  0.00     0.001 A 
BRANCH   8  17
ATOM     17  C   UNL A   1      44.531  42.179  25.922  1.00  0.00     0.013 A 
ATOM     18  C   UNL A   1      44.224  42.424  24.572  1.00  0.00     0.055 A 
ATOM     19  N   UNL A   1      42.921  42.026  24.356  1.00  0.00    -0.343 N 
ATOM     20  C   UNL A   1      43.481  41.308  26.387  1.00  0.00     0.006 A 
ATOM     21  C   UNL A   1      42.509  41.210  25.385  1.00  0.00     0.049 A 
ATOM     22  C   UNL A   1      42.105  42.366  23.209  1.00  0.00     0.150 C 
ATOM     23  C   UNL A   1      43.268  40.559  27.558  1.00  0.00     0.011 A 
ATOM     24  C   UNL A   1      41.361  40.403  25.517  1.00  0.00     0.027 A 
ATOM     25  C   UNL A   1      42.141  39.737  27.694  1.00  0.00     0.001 A 
ATOM     26  C   UNL A   1      41.197  39.662  26.683  1.00  0.00     0.002 A 
BRANCH  18  27
ATOM     27  C   UNL A   1      45.129  42.947  23.546  1.00  0.00     0.002 A 
ATOM     28  C   UNL A   1      45.443  44.596  21.783  1.00  0.00     0.119 A 
ATOM     29  C   UNL A   1      46.567  43.897  21.351  1.00  0.00     0.046 A 
ATOM     30  C   UNL A   1      44.769  44.152  22.916  1.00  0.00     0.056 A 
ATOM     31  C   UNL A   1      46.984  42.740  22.016  1.00  0.00     0.005 A 
ATOM     32  C   UNL A   1      46.251  42.251  23.099  1.00  0.00     0.010 A 
BRANCH  28  33
ATOM     33  O   UNL A   1      45.077  45.670  21.017  1.00  0.00    -0.497 OA
ATOM     34  C   UNL A   1      44.744  45.394  19.658  1.00  0.00     0.278 C 
ENDBRANCH  28  33
ENDBRANCH  18  27
ENDBRANCH   8  17
ENDBRANCH   6   7
ENDBRANCH   4   6
ENDBRANCH   3   4
ENDBRANCH   2   3
ENDBRANCH   1   2
BRANCH   1  35
ATOM     35  O   UNL A   1      50.881  38.898  31.426  1.00  0.00    -0.374 OA
BRANCH  35  36
ATOM     36  C   UNL A   1      50.505  37.698  30.747  1.00  0.00     0.202 C 
BRANCH  36  37
ATOM     37  C   UNL A   1      50.208  37.793  29.246  1.00  0.00     0.261 C 
BRANCH  37  38
ATOM     38  O   UNL A   1      49.657  36.573  28.717  1.00  0.00    -0.460 OA
BRANCH  38  39
ATOM     39  C   UNL A   1      48.526  36.734  27.991  1.00  0.00     0.338 C 
ATOM     40  O   UNL A   1      48.257  37.683  27.271  1.00  0.00    -0.246 OA
BRANCH  39  41
ATOM     41  C   UNL A   1      47.661  35.540  28.044  1.00  0.00     0.060 A 
ATOM     42  C   UNL A   1      47.622  34.840  29.254  1.00  0.00     0.016 A 
ATOM     43  C   UNL A   1      47.039  35.012  26.911  1.00  0.00     0.016 A 
ATOM     44  C   UNL A   1      47.041  33.575  29.306  1.00  0.00     0.010 A 
ATOM     45  C   UNL A   1      46.491  33.731  26.951  1.00  0.00     0.010 A 
ATOM     46  C   UNL A   1      46.529  32.996  28.139  1.00  0.00    -0.014 A 
BRANCH  46  47
ATOM     47  C   UNL A   1      46.082  31.592  28.159  1.00  0.00     0.031 A 
ATOM     48  C   UNL A   1      44.684  31.263  28.591  1.00  0.00     0.074 A 
ATOM     49  C   UNL A   1      46.944  30.627  27.802  1.00  0.00     0.049 A 
ATOM     50  N   UNL A   1      44.043  30.127  28.508  1.00  0.00    -0.248 NA
ATOM     51  C   UNL A   1      43.908  32.353  29.203  1.00  0.00     0.031 C 
ATOM     52  C   UNL A   1      48.344  30.845  27.437  1.00  0.00     0.029 A 
ATOM     53  N   UNL A   1      46.767  29.276  27.696  1.00  0.00    -0.354 N 
ATOM     54  C   UNL A   1      42.780  30.368  29.034  1.00  0.00     0.074 A 
ATOM     55  C   UNL A   1      42.759  31.748  29.472  1.00  0.00     0.031 C 
ATOM     56  C   UNL A   1      48.906  29.659  27.156  1.00  0.00     0.029 A 
ATOM     57  C   UNL A   1      47.900  28.611  27.302  1.00  0.00     0.049 A 
ATOM     58  H   UNL A   1      45.912  28.826  27.883  1.00  0.00     0.167 HD
ATOM     59  C   UNL A   1      41.735  29.511  29.131  1.00  0.00     0.031 A 
ATOM     60  C   UNL A   1      48.095  27.301  27.068  1.00  0.00     0.031 A 
ATOM     61  C   UNL A   1      41.803  28.128  28.734  1.00  0.00     0.049 A 
ATOM     62  C   UNL A   1      46.918  26.372  27.145  1.00  0.00     0.074 A 
ATOM     63  C   UNL A   1      40.796  27.180  28.719  1.00  0.00     0.029 A 
ATOM     64  N   UNL A   1      42.959  27.488  28.305  1.00  0.00    -0.354 N 
ATOM     65  N   UNL A   1      45.683  26.638  27.502  1.00  0.00    -0.248 NA
ATOM     66  C   UNL A   1      47.149  24.980  26.743  1.00  0.00     0.031 C 
ATOM     67  C   UNL A   1      41.354  25.956  28.329  1.00  0.00     0.029 A 
ATOM     68  C   UNL A   1      42.698  26.154  28.050  1.00  0.00     0.049 A 
ATOM     69  H   UNL A   1      43.836  27.922  28.198  1.00  0.00     0.167 HD
ATOM     70  C   UNL A   1      44.980  25.450  27.345  1.00  0.00     0.074 A 
ATOM     71  C   UNL A   1      45.927  24.470  26.848  1.00  0.00     0.031 C 
ATOM     72  C   UNL A   1      43.668  25.194  27.578  1.00  0.00     0.031 A 
BRANCH  59  73
ATOM     73  C   UNL A   1      40.445  30.044  29.701  1.00  0.00    -0.014 A 
ATOM     74  C   UNL A   1      39.401  30.471  28.859  1.00  0.00     0.010 A 
ATOM     75  C   UNL A   1      40.260  30.094  31.094  1.00  0.00     0.010 A 
ATOM     76  C   UNL A   1      38.215  30.978  29.399  1.00  0.00     0.020 A 
ATOM     77  C   UNL A   1      39.065  30.580  31.638  1.00  0.00     0.020 A 
ATOM     78  C   UNL A   1      38.058  31.037  30.787  1.00  0.00     0.054 A 
BRANCH  78  79
ATOM     79  S   UNL A   1      36.507  31.693  31.465  1.00  0.00     0.124 S 
ATOM     80  O   UNL A   1      35.586  31.505  30.346  1.00  0.00    -0.237 OA
ATOM     81  O   UNL A   1      36.271  30.833  32.622  1.00  0.00    -0.237 OA
ATOM     82  O   UNL A   1      36.827  33.083  31.780  1.00  0.00    -0.744 OA
ENDBRANCH  78  79
ENDBRANCH  59  73
BRANCH  60  83
ATOM     83  C   UNL A   1      49.448  26.837  26.673  1.00  0.00    -0.014 A 
ATOM     84  C   UNL A   1      49.801  26.732  25.317  1.00  0.00     0.010 A 
ATOM     85  C   UNL A   1      50.423  26.598  27.658  1.00  0.00     0.010 A 
ATOM     86  C   UNL A   1      51.110  26.399  24.953  1.00  0.00     0.020 A 
ATOM     87  C   UNL A   1      51.736  26.285  27.298  1.00  0.00     0.020 A 
ATOM     88  C   UNL A   1      52.071  26.186  25.946  1.00  0.00     0.054 A 
BRANCH  88  89
ATOM     89  S   UNL A   1      53.785  25.858  25.449  1.00  0.00     0.124 S 
ATOM     90  O   UNL A   1      53.885  26.596  24.195  1.00  0.00    -0.237 OA
ATOM     91  O   UNL A   1      54.551  26.404  26.569  1.00  0.00    -0.237 OA
ATOM     92  O   UNL A   1      53.832  24.402  25.326  1.00  0.00    -0.744 OA
ENDBRANCH  88  89
ENDBRANCH  60  83
BRANCH  72  93
ATOM     93  C   UNL A   1      43.187  23.799  27.286  1.00  0.00    -0.014 A 
ATOM     94  C   UNL A   1      43.083  22.837  28.306  1.00  0.00     0.010 A 
ATOM     95  C   UNL A   1      42.816  23.454  25.974  1.00  0.00     0.010 A 
ATOM     96  C   UNL A   1      42.663  21.539  28.009  1.00  0.00     0.020 A 
ATOM     97  C   UNL A   1      42.371  22.164  25.679  1.00  0.00     0.020 A 
ATOM     98  C   UNL A   1      42.317  21.208  26.695  1.00  0.00     0.054 A 
BRANCH  98  99
ATOM     99  S   UNL A   1      41.764  19.519  26.333  1.00  0.00     0.124 S 
ATOM    100  O   UNL A   1      40.318  19.692  26.227  1.00  0.00    -0.237 OA
ATOM    101  O   UNL A   1      42.454  19.214  25.082  1.00  0.00    -0.237 OA
ATOM    102  O   UNL A   1      42.218  18.752  27.490  1.00  0.00    -0.744 OA
ENDBRANCH  98  99
ENDBRANCH  72  93
ENDBRANCH  46  47
ENDBRANCH  39  41
ENDBRANCH  38  39
ENDBRANCH  37  38
ENDBRANCH  36  37
ENDBRANCH  35  36
ENDBRANCH   1  35
TORSDOF 21
ENDMDL
