MODEL 1
REMARK VINA RESULT:     -10.5      0.000      0.000
REMARK SMILES CCc1cc(OC(F)(F)F)cc2c1O[C@H](C(F)(F)F)C(C(=O)OCCOCCOC(=O)c1ccc(-c3c4nc(c(-c5ccc(S(=O)(=O)[O-])cc5)c5ccc([nH]5)c(-c5ccc(S(=O)(=O)[O-])cc5)c5nc(c(-c6ccc(S(=O)(=O)[O-])cc6)c6ccc3[nH]6)C=C5)C=C4)cc1)=C2
REMARK SMILES IDX 27 1 26 2 25 3 24 4 23 5 21 6 22 7 20 8 3 9 4 10 13 11 5 12
REMARK SMILES IDX 12 13 14 14 11 15 92 16 15 17 2 18 1 19 6 20 7 21 8 22 9 23
REMARK SMILES IDX 10 24 16 25 17 26 18 27 19 28 28 29 29 30 30 31 31 32 32 33
REMARK SMILES IDX 33 34 91 35 34 36 90 37 35 38 36 39 37 40 84 41 38 42 89 43
REMARK SMILES IDX 83 44 85 45 39 46 88 47 82 48 81 49 40 51 70 52 51 53 69 54
REMARK SMILES IDX 52 55 55 56 68 57 86 58 53 59 54 60 67 62 87 63 56 64 41 65
REMARK SMILES IDX 42 66 50 67 43 68 49 69 44 70 45 71 46 72 47 73 48 74 71 75
REMARK SMILES IDX 72 76 80 77 73 78 79 79 74 80 75 81 76 82 77 83 78 84 57 85
REMARK SMILES IDX 58 86 66 87 59 88 65 89 60 90 61 91 62 92 63 93 64 94
REMARK H PARENT 85 50 55 61
REMARK Flexibility Score: inf
ROOT
ATOM      1  C   UNL A   1      39.642  21.452  26.386  1.00  0.00     0.202 C 
ENDROOT
BRANCH   1   2
ATOM      2  O   UNL A   1      38.689  21.800  25.383  1.00  0.00    -0.374 OA
BRANCH   2   3
ATOM      3  C   UNL A   1      37.508  22.478  25.805  1.00  0.00     0.202 C 
BRANCH   3   4
ATOM      4  C   UNL A   1      36.337  22.501  24.818  1.00  0.00     0.261 C 
BRANCH   4   5
ATOM      5  O   UNL A   1      35.615  23.746  24.866  1.00  0.00    -0.460 OA
BRANCH   5   6
ATOM      6  C   UNL A   1      34.279  23.627  24.700  1.00  0.00     0.338 C 
ATOM      7  O   UNL A   1      33.676  22.603  24.410  1.00  0.00    -0.246 OA
BRANCH   6   8
ATOM      8  C   UNL A   1      33.561  24.869  25.043  1.00  0.00     0.087 C 
ATOM      9  C   UNL A   1      31.461  28.470  24.822  1.00  0.00    -0.002 A 
ATOM     10  C   UNL A   1      31.814  29.510  25.702  1.00  0.00     0.054 A 
ATOM     11  C   UNL A   1      32.189  27.279  24.904  1.00  0.00     0.131 A 
ATOM     12  C   UNL A   1      32.859  29.370  26.623  1.00  0.00     0.130 A 
ATOM     13  C   UNL A   1      33.262  27.122  25.806  1.00  0.00     0.021 A 
ATOM     14  O   UNL A   1      31.867  26.278  24.031  1.00  0.00    -0.475 OA
ATOM     15  C   UNL A   1      33.577  28.169  26.672  1.00  0.00     0.058 A 
ATOM     16  C   UNL A   1      34.082  25.901  25.729  1.00  0.00     0.027 C 
ATOM     17  C   UNL A   1      32.159  24.948  24.499  1.00  0.00     0.316 C 
BRANCH   9  18
ATOM     18  C   UNL A   1      30.359  28.761  23.819  1.00  0.00     0.036 C 
ATOM     19  C   UNL A   1      30.714  29.161  22.390  1.00  0.00     0.009 C 
ENDBRANCH   9  18
BRANCH  12  20
ATOM     20  O   UNL A   1      33.277  30.328  27.505  1.00  0.00    -0.406 OA
BRANCH  20  21
ATOM     21  C   UNL A   1      34.675  30.515  27.658  1.00  0.00     0.573 C 
ATOM     22  F   UNL A   1      35.128  29.933  28.790  1.00  0.00    -0.132 F 
ATOM     23  F   UNL A   1      35.352  30.018  26.599  1.00  0.00    -0.132 F 
ATOM     24  F   UNL A   1      34.936  31.839  27.735  1.00  0.00    -0.132 F 
ENDBRANCH  20  21
ENDBRANCH  12  20
BRANCH  17  25
ATOM     25  C   UNL A   1      31.097  24.441  25.497  1.00  0.00     0.430 C 
ATOM     26  F   UNL A   1      31.557  24.366  26.770  1.00  0.00    -0.167 F 
ATOM     27  F   UNL A   1      29.998  25.231  25.520  1.00  0.00    -0.167 F 
ATOM     28  F   UNL A   1      30.670  23.200  25.165  1.00  0.00    -0.167 F 
ENDBRANCH  17  25
ENDBRANCH   6   8
ENDBRANCH   5   6
ENDBRANCH   4   5
ENDBRANCH   3   4
ENDBRANCH   2   3
ENDBRANCH   1   2
BRANCH   1  29
ATOM     29  C   UNL A   1      40.918  22.294  26.473  1.00  0.00     0.261 C 
BRANCH  29  30
ATOM     30  O   UNL A   1      40.632  23.701  26.523  1.00  0.00    -0.460 OA
BRANCH  30  31
ATOM     31  C   UNL A   1      41.695  24.472  26.850  1.00  0.00     0.338 C 
ATOM     32  O   UNL A   1      42.833  24.388  26.406  1.00  0.00    -0.246 OA
BRANCH  31  33
ATOM     33  C   UNL A   1      41.261  25.593  27.702  1.00  0.00     0.060 A 
ATOM     34  C   UNL A   1      42.149  26.668  27.840  1.00  0.00     0.016 A 
ATOM     35  C   UNL A   1      40.050  25.576  28.398  1.00  0.00     0.016 A 
ATOM     36  C   UNL A   1      41.859  27.700  28.726  1.00  0.00     0.010 A 
ATOM     37  C   UNL A   1      39.764  26.612  29.294  1.00  0.00     0.010 A 
ATOM     38  C   UNL A   1      40.687  27.655  29.491  1.00  0.00    -0.014 A 
BRANCH  38  39
ATOM     39  C   UNL A   1      40.519  28.622  30.603  1.00  0.00     0.031 A 
ATOM     40  C   UNL A   1      41.422  28.512  31.802  1.00  0.00     0.074 A 
ATOM     41  C   UNL A   1      39.622  29.618  30.516  1.00  0.00     0.049 A 
ATOM     42  N   UNL A   1      41.480  29.273  32.865  1.00  0.00    -0.248 NA
ATOM     43  C   UNL A   1      42.389  27.403  31.804  1.00  0.00     0.031 C 
ATOM     44  C   UNL A   1      38.721  29.849  29.387  1.00  0.00     0.029 A 
ATOM     45  N   UNL A   1      39.326  30.629  31.395  1.00  0.00    -0.354 N 
ATOM     46  C   UNL A   1      42.485  28.735  33.661  1.00  0.00     0.074 A 
ATOM     47  C   UNL A   1      42.987  27.565  32.975  1.00  0.00     0.031 C 
ATOM     48  C   UNL A   1      37.974  30.937  29.642  1.00  0.00     0.029 A 
ATOM     49  C   UNL A   1      38.325  31.463  30.960  1.00  0.00     0.049 A 
ATOM     50  H   UNL A   1      39.789  30.747  32.256  1.00  0.00     0.167 HD
ATOM     51  C   UNL A   1      42.954  29.180  34.851  1.00  0.00     0.031 A 
ATOM     52  C   UNL A   1      37.749  32.521  31.562  1.00  0.00     0.031 A 
ATOM     53  C   UNL A   1      42.443  30.336  35.537  1.00  0.00     0.049 A 
ATOM     54  C   UNL A   1      38.241  32.957  32.916  1.00  0.00     0.074 A 
ATOM     55  C   UNL A   1      42.861  30.878  36.739  1.00  0.00     0.029 A 
ATOM     56  N   UNL A   1      41.396  31.125  35.085  1.00  0.00    -0.354 N 
ATOM     57  N   UNL A   1      39.213  32.456  33.640  1.00  0.00    -0.248 NA
ATOM     58  C   UNL A   1      37.565  34.108  33.530  1.00  0.00     0.031 C 
ATOM     59  C   UNL A   1      42.031  31.962  37.042  1.00  0.00     0.029 A 
ATOM     60  C   UNL A   1      41.133  32.131  36.000  1.00  0.00     0.049 A 
ATOM     61  H   UNL A   1      40.911  30.990  34.240  1.00  0.00     0.167 HD
ATOM     62  C   UNL A   1      39.279  33.244  34.785  1.00  0.00     0.074 A 
ATOM     63  C   UNL A   1      38.260  34.264  34.648  1.00  0.00     0.031 C 
ATOM     64  C   UNL A   1      40.109  33.134  35.852  1.00  0.00     0.031 A 
BRANCH  51  65
ATOM     65  C   UNL A   1      44.056  28.388  35.500  1.00  0.00    -0.014 A 
ATOM     66  C   UNL A   1      45.409  28.680  35.250  1.00  0.00     0.010 A 
ATOM     67  C   UNL A   1      43.734  27.354  36.399  1.00  0.00     0.010 A 
ATOM     68  C   UNL A   1      46.419  27.928  35.857  1.00  0.00     0.020 A 
ATOM     69  C   UNL A   1      44.741  26.616  37.027  1.00  0.00     0.020 A 
ATOM     70  C   UNL A   1      46.079  26.897  36.738  1.00  0.00     0.054 A 
BRANCH  70  71
ATOM     71  S   UNL A   1      47.408  25.948  37.526  1.00  0.00     0.124 S 
ATOM     72  O   UNL A   1      46.718  25.360  38.673  1.00  0.00    -0.237 OA
ATOM     73  O   UNL A   1      47.794  25.007  36.477  1.00  0.00    -0.237 OA
ATOM     74  O   UNL A   1      48.410  26.958  37.853  1.00  0.00    -0.744 OA
ENDBRANCH  70  71
ENDBRANCH  51  65
BRANCH  52  75
ATOM     75  C   UNL A   1      36.628  33.236  30.891  1.00  0.00    -0.014 A 
ATOM     76  C   UNL A   1      36.844  33.962  29.707  1.00  0.00     0.010 A 
ATOM     77  C   UNL A   1      35.333  33.188  31.438  1.00  0.00     0.010 A 
ATOM     78  C   UNL A   1      35.788  34.639  29.089  1.00  0.00     0.020 A 
ATOM     79  C   UNL A   1      34.269  33.840  30.810  1.00  0.00     0.020 A 
ATOM     80  C   UNL A   1      34.505  34.571  29.643  1.00  0.00     0.054 A 
BRANCH  80  81
ATOM     81  S   UNL A   1      33.137  35.408  28.796  1.00  0.00     0.124 S 
ATOM     82  O   UNL A   1      32.352  35.917  29.916  1.00  0.00    -0.237 OA
ATOM     83  O   UNL A   1      33.830  36.416  27.998  1.00  0.00    -0.237 OA
ATOM     84  O   UNL A   1      32.510  34.338  28.024  1.00  0.00    -0.744 OA
ENDBRANCH  80  81
ENDBRANCH  52  75
BRANCH  64  85
ATOM     85  C   UNL A   1      39.966  34.157  36.949  1.00  0.00    -0.014 A 
ATOM     86  C   UNL A   1      40.695  35.359  36.921  1.00  0.00     0.010 A 
ATOM     87  C   UNL A   1      39.053  33.932  37.994  1.00  0.00     0.010 A 
ATOM     88  C   UNL A   1      40.538  36.303  37.941  1.00  0.00     0.020 A 
ATOM     89  C   UNL A   1      38.871  34.885  39.000  1.00  0.00     0.020 A 
ATOM     90  C   UNL A   1      39.628  36.058  38.974  1.00  0.00     0.054 A 
BRANCH  90  91
ATOM     91  S   UNL A   1      39.415  37.315  40.267  1.00  0.00     0.124 S 
ATOM     92  O   UNL A   1      38.682  36.576  41.290  1.00  0.00    -0.237 OA
ATOM     93  O   UNL A   1      40.793  37.662  40.608  1.00  0.00    -0.237 OA
ATOM     94  O   UNL A   1      38.660  38.373  39.599  1.00  0.00    -0.744 OA
ENDBRANCH  90  91
ENDBRANCH  64  85
ENDBRANCH  38  39
ENDBRANCH  31  33
ENDBRANCH  30  31
ENDBRANCH  29  30
ENDBRANCH   1  29
TORSDOF 21
ENDMDL
MODEL 2
REMARK VINA RESULT:     -10.5      1.632      2.162
REMARK SMILES CCc1cc(OC(F)(F)F)cc2c1O[C@H](C(F)(F)F)C(C(=O)OCCOCCOC(=O)c1ccc(-c3c4nc(c(-c5ccc(S(=O)(=O)[O-])cc5)c5ccc([nH]5)c(-c5ccc(S(=O)(=O)[O-])cc5)c5nc(c(-c6ccc(S(=O)(=O)[O-])cc6)c6ccc3[nH]6)C=C5)C=C4)cc1)=C2
REMARK SMILES IDX 27 1 26 2 25 3 24 4 23 5 21 6 22 7 20 8 3 9 4 10 13 11 5 12
REMARK SMILES IDX 12 13 14 14 11 15 92 16 15 17 2 18 1 19 6 20 7 21 8 22 9 23
REMARK SMILES IDX 10 24 16 25 17 26 18 27 19 28 28 29 29 30 30 31 31 32 32 33
REMARK SMILES IDX 33 34 91 35 34 36 90 37 35 38 36 39 37 40 84 41 38 42 89 43
REMARK SMILES IDX 83 44 85 45 39 46 88 47 82 48 81 49 40 51 70 52 51 53 69 54
REMARK SMILES IDX 52 55 55 56 68 57 86 58 53 59 54 60 67 62 87 63 56 64 41 65
REMARK SMILES IDX 42 66 50 67 43 68 49 69 44 70 45 71 46 72 47 73 48 74 71 75
REMARK SMILES IDX 72 76 80 77 73 78 79 79 74 80 75 81 76 82 77 83 78 84 57 85
REMARK SMILES IDX 58 86 66 87 59 88 65 89 60 90 61 91 62 92 63 93 64 94
REMARK H PARENT 85 50 55 61
REMARK Flexibility Score: inf
ROOT
ATOM      1  C   UNL A   1      39.330  22.183  26.265  1.00  0.00     0.202 C 
ENDROOT
BRANCH   1   2
ATOM      2  O   UNL A   1      37.963  22.518  26.031  1.00  0.00    -0.374 OA
BRANCH   2   3
ATOM      3  C   UNL A   1      37.335  21.951  24.884  1.00  0.00     0.202 C 
BRANCH   3   4
ATOM      4  C   UNL A   1      36.941  22.919  23.764  1.00  0.00     0.261 C 
BRANCH   4   5
ATOM      5  O   UNL A   1      35.871  23.796  24.161  1.00  0.00    -0.460 OA
BRANCH   5   6
ATOM      6  C   UNL A   1      34.801  23.787  23.334  1.00  0.00     0.338 C 
ATOM      7  O   UNL A   1      34.607  23.006  22.413  1.00  0.00    -0.246 OA
BRANCH   6   8
ATOM      8  C   UNL A   1      33.774  24.765  23.739  1.00  0.00     0.087 C 
ATOM      9  C   UNL A   1      30.986  27.873  23.742  1.00  0.00    -0.002 A 
ATOM     10  C   UNL A   1      30.940  28.735  24.854  1.00  0.00     0.054 A 
ATOM     11  C   UNL A   1      31.939  26.849  23.757  1.00  0.00     0.131 A 
ATOM     12  C   UNL A   1      31.817  28.587  25.935  1.00  0.00     0.130 A 
ATOM     13  C   UNL A   1      32.850  26.694  24.823  1.00  0.00     0.021 A 
ATOM     14  O   UNL A   1      32.005  26.029  22.666  1.00  0.00    -0.475 OA
ATOM     15  C   UNL A   1      32.769  27.559  25.914  1.00  0.00     0.058 A 
ATOM     16  C   UNL A   1      33.925  25.694  24.699  1.00  0.00     0.027 C 
ATOM     17  C   UNL A   1      32.504  24.705  22.932  1.00  0.00     0.316 C 
BRANCH   9  18
ATOM     18  C   UNL A   1      30.035  28.173  22.599  1.00  0.00     0.036 C 
ATOM     19  C   UNL A   1      29.149  29.415  22.648  1.00  0.00     0.009 C 
ENDBRANCH   9  18
BRANCH  12  20
ATOM     20  O   UNL A   1      31.853  29.381  27.047  1.00  0.00    -0.406 OA
BRANCH  20  21
ATOM     21  C   UNL A   1      32.488  30.644  26.933  1.00  0.00     0.573 C 
ATOM     22  F   UNL A   1      33.279  30.700  25.839  1.00  0.00    -0.132 F 
ATOM     23  F   UNL A   1      31.580  31.643  26.877  1.00  0.00    -0.132 F 
ATOM     24  F   UNL A   1      33.264  30.847  28.020  1.00  0.00    -0.132 F 
ENDBRANCH  20  21
ENDBRANCH  12  20
BRANCH  17  25
ATOM     25  C   UNL A   1      31.430  23.799  23.569  1.00  0.00     0.430 C 
ATOM     26  F   UNL A   1      31.635  23.581  24.891  1.00  0.00    -0.167 F 
ATOM     27  F   UNL A   1      30.185  24.315  23.442  1.00  0.00    -0.167 F 
ATOM     28  F   UNL A   1      31.403  22.583  22.974  1.00  0.00    -0.167 F 
ENDBRANCH  17  25
ENDBRANCH   6   8
ENDBRANCH   5   6
ENDBRANCH   4   5
ENDBRANCH   3   4
ENDBRANCH   2   3
ENDBRANCH   1   2
BRANCH   1  29
ATOM     29  C   UNL A   1      40.285  23.321  26.639  1.00  0.00     0.261 C 
BRANCH  29  30
ATOM     30  O   UNL A   1      39.597  24.420  27.256  1.00  0.00    -0.460 OA
BRANCH  30  31
ATOM     31  C   UNL A   1      40.105  25.636  26.949  1.00  0.00     0.338 C 
ATOM     32  O   UNL A   1      40.574  25.990  25.875  1.00  0.00    -0.246 OA
BRANCH  31  33
ATOM     33  C   UNL A   1      39.849  26.582  28.049  1.00  0.00     0.060 A 
ATOM     34  C   UNL A   1      40.591  27.770  28.053  1.00  0.00     0.016 A 
ATOM     35  C   UNL A   1      38.955  26.297  29.084  1.00  0.00     0.016 A 
ATOM     36  C   UNL A   1      40.491  28.649  29.126  1.00  0.00     0.010 A 
ATOM     37  C   UNL A   1      38.862  27.180  30.166  1.00  0.00     0.010 A 
ATOM     38  C   UNL A   1      39.661  28.337  30.210  1.00  0.00    -0.014 A 
BRANCH  38  39
ATOM     39  C   UNL A   1      39.759  29.150  31.446  1.00  0.00     0.031 A 
ATOM     40  C   UNL A   1      40.907  28.902  32.388  1.00  0.00     0.074 A 
ATOM     41  C   UNL A   1      38.878  30.135  31.691  1.00  0.00     0.049 A 
ATOM     42  N   UNL A   1      41.211  29.521  33.499  1.00  0.00    -0.248 NA
ATOM     43  C   UNL A   1      41.834  27.817  32.030  1.00  0.00     0.031 C 
ATOM     44  C   UNL A   1      37.751  30.494  30.831  1.00  0.00     0.029 A 
ATOM     45  N   UNL A   1      38.801  31.020  32.736  1.00  0.00    -0.354 N 
ATOM     46  C   UNL A   1      42.362  28.902  33.974  1.00  0.00     0.074 A 
ATOM     47  C   UNL A   1      42.682  27.837  33.048  1.00  0.00     0.031 C 
ATOM     48  C   UNL A   1      37.094  31.529  31.385  1.00  0.00     0.029 A 
ATOM     49  C   UNL A   1      37.739  31.886  32.647  1.00  0.00     0.049 A 
ATOM     50  H   UNL A   1      39.446  31.033  33.480  1.00  0.00     0.167 HD
ATOM     51  C   UNL A   1      43.091  29.198  35.076  1.00  0.00     0.031 A 
ATOM     52  C   UNL A   1      37.326  32.849  33.495  1.00  0.00     0.031 A 
ATOM     53  C   UNL A   1      42.763  30.248  36.001  1.00  0.00     0.049 A 
ATOM     54  C   UNL A   1      38.115  33.116  34.748  1.00  0.00     0.074 A 
ATOM     55  C   UNL A   1      43.447  30.637  37.139  1.00  0.00     0.029 A 
ATOM     56  N   UNL A   1      41.652  31.072  35.901  1.00  0.00    -0.354 N 
ATOM     57  N   UNL A   1      39.218  32.541  35.166  1.00  0.00    -0.248 NA
ATOM     58  C   UNL A   1      37.609  34.167  35.641  1.00  0.00     0.031 C 
ATOM     59  C   UNL A   1      42.720  31.660  37.757  1.00  0.00     0.029 A 
ATOM     60  C   UNL A   1      41.614  31.947  36.974  1.00  0.00     0.049 A 
ATOM     61  H   UNL A   1      40.987  31.038  35.176  1.00  0.00     0.167 HD
ATOM     62  C   UNL A   1      39.549  33.177  36.358  1.00  0.00     0.074 A 
ATOM     63  C   UNL A   1      38.539  34.190  36.585  1.00  0.00     0.031 C 
ATOM     64  C   UNL A   1      40.596  32.944  37.189  1.00  0.00     0.031 A 
BRANCH  51  65
ATOM     65  C   UNL A   1      44.301  28.347  35.354  1.00  0.00    -0.014 A 
ATOM     66  C   UNL A   1      45.564  28.681  34.834  1.00  0.00     0.010 A 
ATOM     67  C   UNL A   1      44.178  27.210  36.174  1.00  0.00     0.010 A 
ATOM     68  C   UNL A   1      46.674  27.874  35.098  1.00  0.00     0.020 A 
ATOM     69  C   UNL A   1      45.290  26.414  36.461  1.00  0.00     0.020 A 
ATOM     70  C   UNL A   1      46.530  26.743  35.906  1.00  0.00     0.054 A 
BRANCH  70  71
ATOM     71  S   UNL A   1      47.989  25.721  36.247  1.00  0.00     0.124 S 
ATOM     72  O   UNL A   1      47.563  24.975  37.429  1.00  0.00    -0.237 OA
ATOM     73  O   UNL A   1      48.123  24.935  35.023  1.00  0.00    -0.237 OA
ATOM     74  O   UNL A   1      49.050  26.697  36.476  1.00  0.00    -0.744 OA
ENDBRANCH  70  71
ENDBRANCH  51  65
BRANCH  52  75
ATOM     75  C   UNL A   1      36.093  33.626  33.189  1.00  0.00    -0.014 A 
ATOM     76  C   UNL A   1      34.825  33.128  33.532  1.00  0.00     0.010 A 
ATOM     77  C   UNL A   1      36.188  34.877  32.552  1.00  0.00     0.010 A 
ATOM     78  C   UNL A   1      33.672  33.860  33.232  1.00  0.00     0.020 A 
ATOM     79  C   UNL A   1      35.040  35.624  32.274  1.00  0.00     0.020 A 
ATOM     80  C   UNL A   1      33.788  35.106  32.607  1.00  0.00     0.054 A 
BRANCH  80  81
ATOM     81  S   UNL A   1      32.284  36.066  32.277  1.00  0.00     0.124 S 
ATOM     82  O   UNL A   1      32.475  36.462  30.886  1.00  0.00    -0.237 OA
ATOM     83  O   UNL A   1      31.227  35.088  32.518  1.00  0.00    -0.237 OA
ATOM     84  O   UNL A   1      32.352  37.151  33.254  1.00  0.00    -0.744 OA
ENDBRANCH  80  81
ENDBRANCH  52  75
BRANCH  64  85
ATOM     85  C   UNL A   1      40.716  33.815  38.412  1.00  0.00    -0.014 A 
ATOM     86  C   UNL A   1      40.153  33.426  39.640  1.00  0.00     0.010 A 
ATOM     87  C   UNL A   1      41.443  35.017  38.341  1.00  0.00     0.010 A 
ATOM     88  C   UNL A   1      40.287  34.241  40.768  1.00  0.00     0.020 A 
ATOM     89  C   UNL A   1      41.604  35.821  39.473  1.00  0.00     0.020 A 
ATOM     90  C   UNL A   1      41.009  35.434  40.676  1.00  0.00     0.054 A 
BRANCH  90  91
ATOM     91  S   UNL A   1      41.200  36.458  42.163  1.00  0.00     0.124 S 
ATOM     92  O   UNL A   1      42.634  36.730  42.162  1.00  0.00    -0.237 OA
ATOM     93  O   UNL A   1      40.342  37.605  41.875  1.00  0.00    -0.237 OA
ATOM     94  O   UNL A   1      40.729  35.592  43.242  1.00  0.00    -0.744 OA
ENDBRANCH  90  91
ENDBRANCH  64  85
ENDBRANCH  38  39
ENDBRANCH  31  33
ENDBRANCH  30  31
ENDBRANCH  29  30
ENDBRANCH   1  29
TORSDOF 21
ENDMDL
MODEL 3
REMARK VINA RESULT:     -10.4      2.935      8.577
REMARK SMILES CCc1cc(OC(F)(F)F)cc2c1O[C@H](C(F)(F)F)C(C(=O)OCCOCCOC(=O)c1ccc(-c3c4nc(c(-c5ccc(S(=O)(=O)[O-])cc5)c5ccc([nH]5)c(-c5ccc(S(=O)(=O)[O-])cc5)c5nc(c(-c6ccc(S(=O)(=O)[O-])cc6)c6ccc3[nH]6)C=C5)C=C4)cc1)=C2
REMARK SMILES IDX 27 1 26 2 25 3 24 4 23 5 21 6 22 7 20 8 3 9 4 10 13 11 5 12
REMARK SMILES IDX 12 13 14 14 11 15 92 16 15 17 2 18 1 19 6 20 7 21 8 22 9 23
REMARK SMILES IDX 10 24 16 25 17 26 18 27 19 28 28 29 29 30 30 31 31 32 32 33
REMARK SMILES IDX 33 34 91 35 34 36 90 37 35 38 36 39 37 40 84 41 38 42 89 43
REMARK SMILES IDX 83 44 85 45 39 46 88 47 82 48 81 49 40 51 70 52 51 53 69 54
REMARK SMILES IDX 52 55 55 56 68 57 86 58 53 59 54 60 67 62 87 63 56 64 41 65
REMARK SMILES IDX 42 66 50 67 43 68 49 69 44 70 45 71 46 72 47 73 48 74 71 75
REMARK SMILES IDX 72 76 80 77 73 78 79 79 74 80 75 81 76 82 77 83 78 84 57 85
REMARK SMILES IDX 58 86 66 87 59 88 65 89 60 90 61 91 62 92 63 93 64 94
REMARK H PARENT 85 50 55 61
REMARK Flexibility Score: inf
ROOT
ATOM      1  C   UNL A   1      32.431  28.265  25.975  1.00  0.00     0.202 C 
ENDROOT
BRANCH   1   2
ATOM      2  O   UNL A   1      31.215  28.180  25.233  1.00  0.00    -0.374 OA
BRANCH   2   3
ATOM      3  C   UNL A   1      30.926  26.943  24.585  1.00  0.00     0.202 C 
BRANCH   3   4
ATOM      4  C   UNL A   1      30.088  25.932  25.374  1.00  0.00     0.261 C 
BRANCH   4   5
ATOM      5  O   UNL A   1      30.720  25.558  26.612  1.00  0.00    -0.460 OA
BRANCH   5   6
ATOM      6  C   UNL A   1      30.896  24.226  26.773  1.00  0.00     0.338 C 
ATOM      7  O   UNL A   1      30.083  23.442  27.241  1.00  0.00    -0.246 OA
BRANCH   6   8
ATOM      8  C   UNL A   1      32.165  23.756  26.185  1.00  0.00     0.087 C 
ATOM      9  C   UNL A   1      35.449  21.420  25.095  1.00  0.00    -0.002 A 
ATOM     10  C   UNL A   1      36.725  22.012  25.096  1.00  0.00     0.054 A 
ATOM     11  C   UNL A   1      34.366  22.218  25.478  1.00  0.00     0.131 A 
ATOM     12  C   UNL A   1      36.916  23.345  25.475  1.00  0.00     0.130 A 
ATOM     13  C   UNL A   1      34.535  23.557  25.888  1.00  0.00     0.021 A 
ATOM     14  O   UNL A   1      33.129  21.638  25.506  1.00  0.00    -0.475 OA
ATOM     15  C   UNL A   1      35.814  24.115  25.867  1.00  0.00     0.058 A 
ATOM     16  C   UNL A   1      33.375  24.287  26.427  1.00  0.00     0.027 C 
ATOM     17  C   UNL A   1      32.029  22.544  25.300  1.00  0.00     0.316 C 
BRANCH   9  18
ATOM     18  C   UNL A   1      35.373  19.948  24.734  1.00  0.00     0.036 C 
ATOM     19  C   UNL A   1      36.606  19.062  24.879  1.00  0.00     0.009 C 
ENDBRANCH   9  18
BRANCH  12  20
ATOM     20  O   UNL A   1      38.118  23.998  25.518  1.00  0.00    -0.406 OA
BRANCH  20  21
ATOM     21  C   UNL A   1      38.986  23.705  26.601  1.00  0.00     0.573 C 
ATOM     22  F   UNL A   1      38.517  24.216  27.760  1.00  0.00    -0.132 F 
ATOM     23  F   UNL A   1      39.160  22.372  26.739  1.00  0.00    -0.132 F 
ATOM     24  F   UNL A   1      40.194  24.260  26.359  1.00  0.00    -0.132 F 
ENDBRANCH  20  21
ENDBRANCH  12  20
BRANCH  17  25
ATOM     25  C   UNL A   1      31.847  22.904  23.812  1.00  0.00     0.430 C 
ATOM     26  F   UNL A   1      30.569  23.225  23.495  1.00  0.00    -0.167 F 
ATOM     27  F   UNL A   1      32.621  23.951  23.440  1.00  0.00    -0.167 F 
ATOM     28  F   UNL A   1      32.196  21.867  23.014  1.00  0.00    -0.167 F 
ENDBRANCH  17  25
ENDBRANCH   6   8
ENDBRANCH   5   6
ENDBRANCH   4   5
ENDBRANCH   3   4
ENDBRANCH   2   3
ENDBRANCH   1   2
BRANCH   1  29
ATOM     29  C   UNL A   1      32.666  29.529  26.808  1.00  0.00     0.261 C 
BRANCH  29  30
ATOM     30  O   UNL A   1      33.954  30.110  26.552  1.00  0.00    -0.460 OA
BRANCH  30  31
ATOM     31  C   UNL A   1      34.420  30.891  27.555  1.00  0.00     0.338 C 
ATOM     32  O   UNL A   1      33.848  31.839  28.078  1.00  0.00    -0.246 OA
BRANCH  31  33
ATOM     33  C   UNL A   1      35.669  30.327  28.095  1.00  0.00     0.060 A 
ATOM     34  C   UNL A   1      35.615  29.774  29.380  1.00  0.00     0.016 A 
ATOM     35  C   UNL A   1      36.877  30.388  27.396  1.00  0.00     0.016 A 
ATOM     36  C   UNL A   1      36.781  29.338  30.000  1.00  0.00     0.010 A 
ATOM     37  C   UNL A   1      38.051  29.955  28.025  1.00  0.00     0.010 A 
ATOM     38  C   UNL A   1      38.011  29.469  29.344  1.00  0.00    -0.014 A 
BRANCH  38  39
ATOM     39  C   UNL A   1      39.260  29.238  30.109  1.00  0.00     0.031 A 
ATOM     40  C   UNL A   1      40.214  28.173  29.638  1.00  0.00     0.074 A 
ATOM     41  C   UNL A   1      39.568  30.008  31.167  1.00  0.00     0.049 A 
ATOM     42  N   UNL A   1      41.378  27.833  30.128  1.00  0.00    -0.248 NA
ATOM     43  C   UNL A   1      39.804  27.393  28.460  1.00  0.00     0.031 C 
ATOM     44  C   UNL A   1      38.742  31.095  31.691  1.00  0.00     0.029 A 
ATOM     45  N   UNL A   1      40.668  29.995  31.987  1.00  0.00    -0.354 N 
ATOM     46  C   UNL A   1      41.839  26.799  29.320  1.00  0.00     0.074 A 
ATOM     47  C   UNL A   1      40.815  26.546  28.330  1.00  0.00     0.031 C 
ATOM     48  C   UNL A   1      39.368  31.648  32.745  1.00  0.00     0.029 A 
ATOM     49  C   UNL A   1      40.623  30.937  32.985  1.00  0.00     0.049 A 
ATOM     50  H   UNL A   1      41.419  29.369  31.870  1.00  0.00     0.167 HD
ATOM     51  C   UNL A   1      43.012  26.126  29.391  1.00  0.00     0.031 A 
ATOM     52  C   UNL A   1      41.489  31.190  33.985  1.00  0.00     0.031 A 
ATOM     53  C   UNL A   1      44.023  26.371  30.384  1.00  0.00     0.049 A 
ATOM     54  C   UNL A   1      42.756  30.384  34.084  1.00  0.00     0.074 A 
ATOM     55  C   UNL A   1      45.253  25.754  30.531  1.00  0.00     0.029 A 
ATOM     56  N   UNL A   1      43.918  27.302  31.407  1.00  0.00    -0.354 N 
ATOM     57  N   UNL A   1      43.191  29.431  33.294  1.00  0.00    -0.248 NA
ATOM     58  C   UNL A   1      43.655  30.694  35.204  1.00  0.00     0.031 C 
ATOM     59  C   UNL A   1      45.868  26.274  31.675  1.00  0.00     0.029 A 
ATOM     60  C   UNL A   1      45.047  27.255  32.207  1.00  0.00     0.049 A 
ATOM     61  H   UNL A   1      43.153  27.906  31.544  1.00  0.00     0.167 HD
ATOM     62  C   UNL A   1      44.424  29.043  33.809  1.00  0.00     0.074 A 
ATOM     63  C   UNL A   1      44.672  29.876  34.968  1.00  0.00     0.031 C 
ATOM     64  C   UNL A   1      45.275  28.086  33.362  1.00  0.00     0.031 A 
BRANCH  51  65
ATOM     65  C   UNL A   1      43.248  25.037  28.379  1.00  0.00    -0.014 A 
ATOM     66  C   UNL A   1      42.727  23.743  28.565  1.00  0.00     0.010 A 
ATOM     67  C   UNL A   1      43.977  25.320  27.209  1.00  0.00     0.010 A 
ATOM     68  C   UNL A   1      42.964  22.743  27.618  1.00  0.00     0.020 A 
ATOM     69  C   UNL A   1      44.194  24.329  26.248  1.00  0.00     0.020 A 
ATOM     70  C   UNL A   1      43.699  23.041  26.467  1.00  0.00     0.054 A 
BRANCH  70  71
ATOM     71  S   UNL A   1      43.977  21.729  25.246  1.00  0.00     0.124 S 
ATOM     72  O   UNL A   1      42.913  20.783  25.573  1.00  0.00    -0.237 OA
ATOM     73  O   UNL A   1      43.821  22.435  23.977  1.00  0.00    -0.237 OA
ATOM     74  O   UNL A   1      45.331  21.266  25.535  1.00  0.00    -0.744 OA
ENDBRANCH  70  71
ENDBRANCH  51  65
BRANCH  52  75
ATOM     75  C   UNL A   1      41.178  32.249  34.985  1.00  0.00    -0.014 A 
ATOM     76  C   UNL A   1      40.445  31.950  36.145  1.00  0.00     0.010 A 
ATOM     77  C   UNL A   1      41.623  33.567  34.776  1.00  0.00     0.010 A 
ATOM     78  C   UNL A   1      40.149  32.953  37.073  1.00  0.00     0.020 A 
ATOM     79  C   UNL A   1      41.352  34.567  35.714  1.00  0.00     0.020 A 
ATOM     80  C   UNL A   1      40.607  34.256  36.853  1.00  0.00     0.054 A 
BRANCH  80  81
ATOM     81  S   UNL A   1      40.262  35.531  38.096  1.00  0.00     0.124 S 
ATOM     82  O   UNL A   1      41.535  35.615  38.806  1.00  0.00    -0.237 OA
ATOM     83  O   UNL A   1      39.918  36.688  37.274  1.00  0.00    -0.237 OA
ATOM     84  O   UNL A   1      39.152  34.969  38.861  1.00  0.00    -0.744 OA
ENDBRANCH  80  81
ENDBRANCH  52  75
BRANCH  64  85
ATOM     85  C   UNL A   1      46.565  27.900  34.116  1.00  0.00    -0.014 A 
ATOM     86  C   UNL A   1      47.711  28.647  33.790  1.00  0.00     0.010 A 
ATOM     87  C   UNL A   1      46.617  27.001  35.196  1.00  0.00     0.010 A 
ATOM     88  C   UNL A   1      48.897  28.472  34.511  1.00  0.00     0.020 A 
ATOM     89  C   UNL A   1      47.791  26.843  35.937  1.00  0.00     0.020 A 
ATOM     90  C   UNL A   1      48.929  27.569  35.578  1.00  0.00     0.054 A 
BRANCH  90  91
ATOM     91  S   UNL A   1      50.468  27.385  36.521  1.00  0.00     0.124 S 
ATOM     92  O   UNL A   1      50.477  28.602  37.329  1.00  0.00    -0.237 OA
ATOM     93  O   UNL A   1      50.248  26.143  37.257  1.00  0.00    -0.237 OA
ATOM     94  O   UNL A   1      51.500  27.315  35.488  1.00  0.00    -0.744 OA
ENDBRANCH  90  91
ENDBRANCH  64  85
ENDBRANCH  38  39
ENDBRANCH  31  33
ENDBRANCH  30  31
ENDBRANCH  29  30
ENDBRANCH   1  29
TORSDOF 21
ENDMDL
