MODEL 1
REMARK VINA RESULT:     -11.6      0.000      0.000
REMARK SMILES O=C(OCCOCCOC(=O)[C@@H]1CCCC[C@@H]1NS(=O)(=O)c1ccc2ccccc2c1)c1ccc(-c2c3nc(c(-c4ccc(S(=O)(=O)[O-])cc4)c4ccc([nH]4)c(-c4ccc(S(=O)(=O)[O-])cc4)c4nc(c(-c5ccc(S(=O)(=O)[O-])cc5)c5ccc2[nH]5)C=C4)C=C3)cc1
REMARK SMILES IDX 6 1 5 2 4 3 3 4 2 5 1 6 32 7 33 8 91 9 34 10 90 11 35 12
REMARK SMILES IDX 36 13 37 14 84 15 38 16 89 17 83 18 85 19 39 20 88 21 82 22
REMARK SMILES IDX 81 23 40 25 70 26 51 27 69 28 52 29 55 30 68 31 86 32 53 33
REMARK SMILES IDX 54 34 67 36 87 37 56 38 41 39 42 40 50 41 43 42 49 43 44 44
REMARK SMILES IDX 45 45 46 46 47 47 48 48 71 49 72 50 80 51 73 52 79 53 74 54
REMARK SMILES IDX 75 55 76 56 77 57 78 58 57 59 58 60 66 61 59 62 65 63 60 64
REMARK SMILES IDX 61 65 62 66 63 67 64 68 7 69 8 70 9 71 10 72 11 73 12 74
REMARK SMILES IDX 13 75 17 76 14 77 16 78 15 79 18 80 19 82 20 83 21 84 22 85
REMARK SMILES IDX 23 86 31 87 24 88 30 89 25 90 29 91 26 92 28 93 27 94
REMARK H PARENT 85 24 55 35 18 81
REMARK Flexibility Score: inf
ROOT
ATOM      1  O   UNL A   1      43.844  19.916  24.638  1.00  0.00    -0.374 OA
ENDROOT
BRANCH   1   2
ATOM      2  C   UNL A   1      45.268  19.954  24.533  1.00  0.00     0.202 C 
BRANCH   2   3
ATOM      3  C   UNL A   1      45.747  21.269  25.179  1.00  0.00     0.261 C 
BRANCH   3   4
ATOM      4  O   UNL A   1      44.661  22.198  25.345  1.00  0.00    -0.460 OA
BRANCH   4   5
ATOM      5  C   UNL A   1      44.741  23.408  24.720  1.00  0.00     0.338 C 
ATOM      6  O   UNL A   1      45.664  23.887  24.094  1.00  0.00    -0.246 OA
BRANCH   5   7
ATOM      7  C   UNL A   1      43.568  24.124  25.271  1.00  0.00     0.060 A 
ATOM      8  C   UNL A   1      43.739  25.503  25.310  1.00  0.00     0.016 A 
ATOM      9  C   UNL A   1      42.690  23.505  26.149  1.00  0.00     0.016 A 
ATOM     10  C   UNL A   1      43.371  26.209  26.426  1.00  0.00     0.010 A 
ATOM     11  C   UNL A   1      42.151  24.270  27.190  1.00  0.00     0.010 A 
ATOM     12  C   UNL A   1      42.615  25.585  27.409  1.00  0.00    -0.014 A 
BRANCH  12  13
ATOM     13  C   UNL A   1      42.623  26.181  28.767  1.00  0.00     0.031 A 
ATOM     14  C   UNL A   1      41.435  27.017  29.161  1.00  0.00     0.074 A 
ATOM     15  C   UNL A   1      43.526  25.834  29.704  1.00  0.00     0.049 A 
ATOM     16  N   UNL A   1      41.346  27.936  30.078  1.00  0.00    -0.248 NA
ATOM     17  C   UNL A   1      40.188  26.810  28.397  1.00  0.00     0.031 C 
ATOM     18  C   UNL A   1      44.575  24.821  29.557  1.00  0.00     0.029 A 
ATOM     19  N   UNL A   1      43.659  26.252  31.000  1.00  0.00    -0.354 N 
ATOM     20  C   UNL A   1      40.101  28.528  29.889  1.00  0.00     0.074 A 
ATOM     21  C   UNL A   1      39.437  27.813  28.827  1.00  0.00     0.031 C 
ATOM     22  C   UNL A   1      45.166  24.622  30.744  1.00  0.00     0.029 A 
ATOM     23  C   UNL A   1      44.680  25.628  31.676  1.00  0.00     0.049 A 
ATOM     24  H   UNL A   1      43.079  26.934  31.410  1.00  0.00     0.167 HD
ATOM     25  C   UNL A   1      39.615  29.619  30.525  1.00  0.00     0.031 A 
ATOM     26  C   UNL A   1      45.221  25.911  32.877  1.00  0.00     0.031 A 
ATOM     27  C   UNL A   1      40.307  30.213  31.636  1.00  0.00     0.049 A 
ATOM     28  C   UNL A   1      44.710  27.144  33.570  1.00  0.00     0.074 A 
ATOM     29  C   UNL A   1      40.047  31.388  32.314  1.00  0.00     0.029 A 
ATOM     30  N   UNL A   1      41.397  29.617  32.262  1.00  0.00    -0.354 N 
ATOM     31  N   UNL A   1      43.707  27.923  33.229  1.00  0.00    -0.248 NA
ATOM     32  C   UNL A   1      45.443  27.582  34.761  1.00  0.00     0.031 C 
ATOM     33  C   UNL A   1      41.000  31.510  33.336  1.00  0.00     0.029 A 
ATOM     34  C   UNL A   1      41.820  30.390  33.322  1.00  0.00     0.049 A 
ATOM     35  H   UNL A   1      41.807  28.766  31.987  1.00  0.00     0.167 HD
ATOM     36  C   UNL A   1      43.696  28.956  34.155  1.00  0.00     0.074 A 
ATOM     37  C   UNL A   1      44.772  28.679  35.091  1.00  0.00     0.031 C 
ATOM     38  C   UNL A   1      42.893  30.049  34.222  1.00  0.00     0.031 A 
BRANCH  25  39
ATOM     39  C   UNL A   1      38.410  30.286  29.921  1.00  0.00    -0.014 A 
ATOM     40  C   UNL A   1      38.483  31.486  29.192  1.00  0.00     0.010 A 
ATOM     41  C   UNL A   1      37.144  29.718  30.166  1.00  0.00     0.010 A 
ATOM     42  C   UNL A   1      37.312  32.132  28.773  1.00  0.00     0.020 A 
ATOM     43  C   UNL A   1      35.974  30.346  29.729  1.00  0.00     0.020 A 
ATOM     44  C   UNL A   1      36.065  31.566  29.059  1.00  0.00     0.054 A 
BRANCH  44  45
ATOM     45  S   UNL A   1      34.557  32.439  28.548  1.00  0.00     0.124 S 
ATOM     46  O   UNL A   1      34.073  32.973  29.818  1.00  0.00    -0.237 OA
ATOM     47  O   UNL A   1      35.062  33.430  27.602  1.00  0.00    -0.237 OA
ATOM     48  O   UNL A   1      33.730  31.388  27.959  1.00  0.00    -0.744 OA
ENDBRANCH  44  45
ENDBRANCH  25  39
BRANCH  26  49
ATOM     49  C   UNL A   1      46.376  25.122  33.395  1.00  0.00    -0.014 A 
ATOM     50  C   UNL A   1      47.696  25.457  33.049  1.00  0.00     0.010 A 
ATOM     51  C   UNL A   1      46.164  24.041  34.276  1.00  0.00     0.010 A 
ATOM     52  C   UNL A   1      48.775  24.738  33.581  1.00  0.00     0.020 A 
ATOM     53  C   UNL A   1      47.238  23.347  34.840  1.00  0.00     0.020 A 
ATOM     54  C   UNL A   1      48.539  23.693  34.479  1.00  0.00     0.054 A 
BRANCH  54  55
ATOM     55  S   UNL A   1      49.948  22.822  35.221  1.00  0.00     0.124 S 
ATOM     56  O   UNL A   1      49.634  21.429  34.921  1.00  0.00    -0.237 OA
ATOM     57  O   UNL A   1      51.088  23.384  34.501  1.00  0.00    -0.237 OA
ATOM     58  O   UNL A   1      49.872  23.193  36.632  1.00  0.00    -0.744 OA
ENDBRANCH  54  55
ENDBRANCH  26  49
BRANCH  38  59
ATOM     59  C   UNL A   1      43.133  30.979  35.370  1.00  0.00    -0.014 A 
ATOM     60  C   UNL A   1      44.002  32.076  35.244  1.00  0.00     0.010 A 
ATOM     61  C   UNL A   1      42.437  30.770  36.573  1.00  0.00     0.010 A 
ATOM     62  C   UNL A   1      44.195  32.937  36.324  1.00  0.00     0.020 A 
ATOM     63  C   UNL A   1      42.612  31.642  37.645  1.00  0.00     0.020 A 
ATOM     64  C   UNL A   1      43.502  32.711  37.518  1.00  0.00     0.054 A 
BRANCH  64  65
ATOM     65  S   UNL A   1      43.737  33.863  38.897  1.00  0.00     0.124 S 
ATOM     66  O   UNL A   1      43.857  32.953  40.033  1.00  0.00    -0.237 OA
ATOM     67  O   UNL A   1      44.960  34.569  38.523  1.00  0.00    -0.237 OA
ATOM     68  O   UNL A   1      42.524  34.678  38.874  1.00  0.00    -0.744 OA
ENDBRANCH  64  65
ENDBRANCH  38  59
ENDBRANCH  12  13
ENDBRANCH   5   7
ENDBRANCH   4   5
ENDBRANCH   3   4
ENDBRANCH   2   3
ENDBRANCH   1   2
BRANCH   1  69
ATOM     69  C   UNL A   1      43.183  19.019  25.532  1.00  0.00     0.202 C 
BRANCH  69  70
ATOM     70  C   UNL A   1      41.853  19.452  26.373  1.00  0.00     0.261 C 
BRANCH  70  71
ATOM     71  O   UNL A   1      39.977  19.745  25.689  1.00  0.00    -0.463 OA
BRANCH  71  72
ATOM     72  C   UNL A   1      38.667  20.093  25.330  1.00  0.00     0.310 C 
ATOM     73  O   UNL A   1      37.814  19.293  24.945  1.00  0.00    -0.252 OA
BRANCH  72  74
ATOM     74  C   UNL A   1      38.297  21.604  25.456  1.00  0.00     0.117 C 
ATOM     75  C   UNL A   1      39.008  22.388  26.573  1.00  0.00     0.017 C 
ATOM     76  C   UNL A   1      36.839  22.062  25.177  1.00  0.00     0.084 C 
ATOM     77  C   UNL A   1      38.923  23.897  26.357  1.00  0.00     0.001 C 
ATOM     78  C   UNL A   1      36.821  23.596  24.977  1.00  0.00     0.021 C 
ATOM     79  C   UNL A   1      37.484  24.351  26.136  1.00  0.00     0.002 C 
BRANCH  76  80
ATOM     80  N   UNL A   1      35.828  21.814  26.222  1.00  0.00    -0.207 NA
ATOM     81  H   UNL A   1      35.702  22.699  26.714  1.00  0.00     0.141 HD
BRANCH  80  82
ATOM     82  S   UNL A   1      34.297  21.260  25.855  1.00  0.00     0.240 S 
ATOM     83  O   UNL A   1      34.415  20.341  24.749  1.00  0.00    -0.207 OA
ATOM     84  O   UNL A   1      33.609  20.955  27.084  1.00  0.00    -0.207 OA
BRANCH  82  85
ATOM     85  C   UNL A   1      33.690  22.757  25.225  1.00  0.00     0.083 A 
ATOM     86  C   UNL A   1      33.625  22.900  23.433  1.00  0.00     0.022 A 
ATOM     87  C   UNL A   1      33.724  24.235  26.247  1.00  0.00     0.030 A 
ATOM     88  C   UNL A   1      33.621  24.539  22.673  1.00  0.00     0.010 A 
ATOM     89  C   UNL A   1      33.694  25.881  25.496  1.00  0.00    -0.017 A 
ATOM     90  C   UNL A   1      33.619  26.032  23.699  1.00  0.00    -0.018 A 
ATOM     91  C   UNL A   1      33.673  27.080  26.198  1.00  0.00     0.009 A 
ATOM     92  C   UNL A   1      33.520  27.325  23.207  1.00  0.00     0.009 A 
ATOM     93  C   UNL A   1      33.549  28.297  25.507  1.00  0.00     0.001 A 
ATOM     94  C   UNL A   1      33.471  28.412  24.094  1.00  0.00     0.001 A 
ENDBRANCH  82  85
ENDBRANCH  80  82
ENDBRANCH  76  80
ENDBRANCH  72  74
ENDBRANCH  71  72
ENDBRANCH  70  71
ENDBRANCH  69  70
ENDBRANCH   1  69
TORSDOF 20
ENDMDL
MODEL 2
REMARK VINA RESULT:     -11.2      2.345      3.389
REMARK SMILES O=C(OCCOCCOC(=O)[C@@H]1CCCC[C@@H]1NS(=O)(=O)c1ccc2ccccc2c1)c1ccc(-c2c3nc(c(-c4ccc(S(=O)(=O)[O-])cc4)c4ccc([nH]4)c(-c4ccc(S(=O)(=O)[O-])cc4)c4nc(c(-c5ccc(S(=O)(=O)[O-])cc5)c5ccc2[nH]5)C=C4)C=C3)cc1
REMARK SMILES IDX 6 1 5 2 4 3 3 4 2 5 1 6 32 7 33 8 91 9 34 10 90 11 35 12
REMARK SMILES IDX 36 13 37 14 84 15 38 16 89 17 83 18 85 19 39 20 88 21 82 22
REMARK SMILES IDX 81 23 40 25 70 26 51 27 69 28 52 29 55 30 68 31 86 32 53 33
REMARK SMILES IDX 54 34 67 36 87 37 56 38 41 39 42 40 50 41 43 42 49 43 44 44
REMARK SMILES IDX 45 45 46 46 47 47 48 48 71 49 72 50 80 51 73 52 79 53 74 54
REMARK SMILES IDX 75 55 76 56 77 57 78 58 57 59 58 60 66 61 59 62 65 63 60 64
REMARK SMILES IDX 61 65 62 66 63 67 64 68 7 69 8 70 9 71 10 72 11 73 12 74
REMARK SMILES IDX 13 75 17 76 14 77 16 78 15 79 18 80 19 82 20 83 21 84 22 85
REMARK SMILES IDX 23 86 31 87 24 88 30 89 25 90 29 91 26 92 28 93 27 94
REMARK H PARENT 85 24 55 35 18 81
REMARK Flexibility Score: inf
ROOT
ATOM      1  O   UNL A   1      41.058  21.575  26.116  1.00  0.00    -0.374 OA
ENDROOT
BRANCH   1   2
ATOM      2  C   UNL A   1      42.448  21.646  26.437  1.00  0.00     0.202 C 
BRANCH   2   3
ATOM      3  C   UNL A   1      42.816  23.135  26.585  1.00  0.00     0.261 C 
BRANCH   3   4
ATOM      4  O   UNL A   1      41.869  23.980  25.908  1.00  0.00    -0.460 OA
BRANCH   4   5
ATOM      5  C   UNL A   1      42.300  25.179  25.422  1.00  0.00     0.338 C 
ATOM      6  O   UNL A   1      43.378  25.469  24.945  1.00  0.00    -0.246 OA
BRANCH   5   7
ATOM      7  C   UNL A   1      41.265  26.111  25.922  1.00  0.00     0.060 A 
ATOM      8  C   UNL A   1      41.677  27.438  25.920  1.00  0.00     0.016 A 
ATOM      9  C   UNL A   1      40.275  25.690  26.799  1.00  0.00     0.016 A 
ATOM     10  C   UNL A   1      41.422  28.238  27.003  1.00  0.00     0.010 A 
ATOM     11  C   UNL A   1      39.863  26.576  27.802  1.00  0.00     0.010 A 
ATOM     12  C   UNL A   1      40.550  27.794  27.989  1.00  0.00    -0.014 A 
BRANCH  12  13
ATOM     13  C   UNL A   1      40.641  28.428  29.326  1.00  0.00     0.031 A 
ATOM     14  C   UNL A   1      39.513  29.336  29.738  1.00  0.00     0.074 A 
ATOM     15  C   UNL A   1      41.561  28.062  30.240  1.00  0.00     0.049 A 
ATOM     16  N   UNL A   1      39.507  30.285  30.628  1.00  0.00    -0.248 NA
ATOM     17  C   UNL A   1      38.229  29.172  29.028  1.00  0.00     0.031 C 
ATOM     18  C   UNL A   1      42.550  26.992  30.085  1.00  0.00     0.029 A 
ATOM     19  N   UNL A   1      41.765  28.510  31.516  1.00  0.00    -0.354 N 
ATOM     20  C   UNL A   1      38.288  30.935  30.468  1.00  0.00     0.074 A 
ATOM     21  C   UNL A   1      37.547  30.225  29.454  1.00  0.00     0.031 C 
ATOM     22  C   UNL A   1      43.175  26.796  31.255  1.00  0.00     0.029 A 
ATOM     23  C   UNL A   1      42.778  27.853  32.173  1.00  0.00     0.049 A 
ATOM     24  H   UNL A   1      41.236  29.233  31.926  1.00  0.00     0.167 HD
ATOM     25  C   UNL A   1      37.883  32.068  31.087  1.00  0.00     0.031 A 
ATOM     26  C   UNL A   1      43.378  28.142  33.343  1.00  0.00     0.031 A 
ATOM     27  C   UNL A   1      38.647  32.658  32.153  1.00  0.00     0.049 A 
ATOM     28  C   UNL A   1      42.959  29.420  34.016  1.00  0.00     0.074 A 
ATOM     29  C   UNL A   1      38.474  33.863  32.803  1.00  0.00     0.029 A 
ATOM     30  N   UNL A   1      39.728  32.024  32.756  1.00  0.00    -0.354 N 
ATOM     31  N   UNL A   1      41.984  30.239  33.689  1.00  0.00    -0.248 NA
ATOM     32  C   UNL A   1      43.758  29.853  35.165  1.00  0.00     0.031 C 
ATOM     33  C   UNL A   1      39.471  33.965  33.786  1.00  0.00     0.029 A 
ATOM     34  C   UNL A   1      40.231  32.803  33.775  1.00  0.00     0.049 A 
ATOM     35  H   UNL A   1      40.084  31.144  32.493  1.00  0.00     0.167 HD
ATOM     36  C   UNL A   1      42.062  31.299  34.582  1.00  0.00     0.074 A 
ATOM     37  C   UNL A   1      43.158  30.993  35.486  1.00  0.00     0.031 C 
ATOM     38  C   UNL A   1      41.319  32.433  34.645  1.00  0.00     0.031 A 
BRANCH  25  39
ATOM     39  C   UNL A   1      36.691  32.780  30.508  1.00  0.00    -0.014 A 
ATOM     40  C   UNL A   1      36.731  33.471  29.285  1.00  0.00     0.010 A 
ATOM     41  C   UNL A   1      35.506  32.815  31.269  1.00  0.00     0.010 A 
ATOM     42  C   UNL A   1      35.630  34.230  28.864  1.00  0.00     0.020 A 
ATOM     43  C   UNL A   1      34.397  33.551  30.842  1.00  0.00     0.020 A 
ATOM     44  C   UNL A   1      34.476  34.278  29.655  1.00  0.00     0.054 A 
BRANCH  44  45
ATOM     45  S   UNL A   1      33.077  35.303  29.117  1.00  0.00     0.124 S 
ATOM     46  O   UNL A   1      32.251  35.339  30.321  1.00  0.00    -0.237 OA
ATOM     47  O   UNL A   1      33.719  36.565  28.758  1.00  0.00    -0.237 OA
ATOM     48  O   UNL A   1      32.511  34.555  27.996  1.00  0.00    -0.744 OA
ENDBRANCH  44  45
ENDBRANCH  25  39
BRANCH  26  49
ATOM     49  C   UNL A   1      44.511  27.308  33.842  1.00  0.00    -0.014 A 
ATOM     50  C   UNL A   1      45.837  27.596  33.479  1.00  0.00     0.010 A 
ATOM     51  C   UNL A   1      44.272  26.234  34.724  1.00  0.00     0.010 A 
ATOM     52  C   UNL A   1      46.897  26.836  33.993  1.00  0.00     0.020 A 
ATOM     53  C   UNL A   1      45.327  25.499  35.270  1.00  0.00     0.020 A 
ATOM     54  C   UNL A   1      46.635  25.797  34.891  1.00  0.00     0.054 A 
BRANCH  54  55
ATOM     55  S   UNL A   1      48.022  24.872  35.610  1.00  0.00     0.124 S 
ATOM     56  O   UNL A   1      48.916  25.945  36.029  1.00  0.00    -0.237 OA
ATOM     57  O   UNL A   1      47.382  24.123  36.688  1.00  0.00    -0.237 OA
ATOM     58  O   UNL A   1      48.499  24.055  34.496  1.00  0.00    -0.744 OA
ENDBRANCH  54  55
ENDBRANCH  26  49
BRANCH  38  59
ATOM     59  C   UNL A   1      41.650  33.382  35.754  1.00  0.00    -0.014 A 
ATOM     60  C   UNL A   1      42.556  34.439  35.558  1.00  0.00     0.010 A 
ATOM     61  C   UNL A   1      41.004  33.233  36.994  1.00  0.00     0.010 A 
ATOM     62  C   UNL A   1      42.834  35.319  36.602  1.00  0.00     0.020 A 
ATOM     63  C   UNL A   1      41.266  34.125  38.032  1.00  0.00     0.020 A 
ATOM     64  C   UNL A   1      42.190  35.154  37.833  1.00  0.00     0.054 A 
BRANCH  64  65
ATOM     65  S   UNL A   1      42.536  36.330  39.167  1.00  0.00     0.124 S 
ATOM     66  O   UNL A   1      42.134  35.573  40.349  1.00  0.00    -0.237 OA
ATOM     67  O   UNL A   1      43.972  36.564  39.027  1.00  0.00    -0.237 OA
ATOM     68  O   UNL A   1      41.691  37.477  38.841  1.00  0.00    -0.744 OA
ENDBRANCH  64  65
ENDBRANCH  38  59
ENDBRANCH  12  13
ENDBRANCH   5   7
ENDBRANCH   4   5
ENDBRANCH   3   4
ENDBRANCH   2   3
ENDBRANCH   1   2
BRANCH   1  69
ATOM     69  C   UNL A   1      40.336  20.344  26.179  1.00  0.00     0.202 C 
BRANCH  69  70
ATOM     70  C   UNL A   1      38.935  20.115  25.374  1.00  0.00     0.261 C 
BRANCH  70  71
ATOM     71  O   UNL A   1      37.228  21.184  25.500  1.00  0.00    -0.463 OA
BRANCH  71  72
ATOM     72  C   UNL A   1      35.974  21.785  25.685  1.00  0.00     0.310 C 
ATOM     73  O   UNL A   1      35.805  22.930  26.104  1.00  0.00    -0.252 OA
BRANCH  72  74
ATOM     74  C   UNL A   1      34.734  20.916  25.308  1.00  0.00     0.117 C 
ATOM     75  C   UNL A   1      35.025  19.491  24.807  1.00  0.00     0.017 C 
ATOM     76  C   UNL A   1      33.499  21.590  24.647  1.00  0.00     0.084 C 
ATOM     77  C   UNL A   1      33.792  18.596  24.875  1.00  0.00     0.001 C 
ATOM     78  C   UNL A   1      32.290  20.630  24.740  1.00  0.00     0.021 C 
ATOM     79  C   UNL A   1      32.596  19.236  24.177  1.00  0.00     0.002 C 
BRANCH  76  80
ATOM     80  N   UNL A   1      33.588  21.933  23.214  1.00  0.00    -0.207 NA
ATOM     81  H   UNL A   1      32.669  21.742  22.816  1.00  0.00     0.141 HD
BRANCH  80  82
ATOM     82  S   UNL A   1      34.012  23.462  22.698  1.00  0.00     0.240 S 
ATOM     83  O   UNL A   1      35.445  23.586  22.819  1.00  0.00    -0.207 OA
ATOM     84  O   UNL A   1      33.277  23.765  21.496  1.00  0.00    -0.207 OA
BRANCH  82  85
ATOM     85  C   UNL A   1      33.303  24.323  24.025  1.00  0.00     0.083 A 
ATOM     86  C   UNL A   1      31.507  24.306  24.119  1.00  0.00     0.022 A 
ATOM     87  C   UNL A   1      34.237  25.619  24.849  1.00  0.00     0.030 A 
ATOM     88  C   UNL A   1      30.652  25.616  25.024  1.00  0.00     0.010 A 
ATOM     89  C   UNL A   1      33.391  26.921  25.780  1.00  0.00    -0.017 A 
ATOM     90  C   UNL A   1      31.589  26.905  25.885  1.00  0.00    -0.018 A 
ATOM     91  C   UNL A   1      34.022  27.938  26.484  1.00  0.00     0.009 A 
ATOM     92  C   UNL A   1      31.024  27.890  26.681  1.00  0.00     0.009 A 
ATOM     93  C   UNL A   1      33.263  28.836  27.253  1.00  0.00     0.001 A 
ATOM     94  C   UNL A   1      31.847  28.810  27.351  1.00  0.00     0.001 A 
ENDBRANCH  82  85
ENDBRANCH  80  82
ENDBRANCH  76  80
ENDBRANCH  72  74
ENDBRANCH  71  72
ENDBRANCH  70  71
ENDBRANCH  69  70
ENDBRANCH   1  69
TORSDOF 20
ENDMDL
MODEL 3
REMARK VINA RESULT:     -11.0      2.481      8.822
REMARK SMILES O=C(OCCOCCOC(=O)[C@@H]1CCCC[C@@H]1NS(=O)(=O)c1ccc2ccccc2c1)c1ccc(-c2c3nc(c(-c4ccc(S(=O)(=O)[O-])cc4)c4ccc([nH]4)c(-c4ccc(S(=O)(=O)[O-])cc4)c4nc(c(-c5ccc(S(=O)(=O)[O-])cc5)c5ccc2[nH]5)C=C4)C=C3)cc1
REMARK SMILES IDX 6 1 5 2 4 3 3 4 2 5 1 6 32 7 33 8 91 9 34 10 90 11 35 12
REMARK SMILES IDX 36 13 37 14 84 15 38 16 89 17 83 18 85 19 39 20 88 21 82 22
REMARK SMILES IDX 81 23 40 25 70 26 51 27 69 28 52 29 55 30 68 31 86 32 53 33
REMARK SMILES IDX 54 34 67 36 87 37 56 38 41 39 42 40 50 41 43 42 49 43 44 44
REMARK SMILES IDX 45 45 46 46 47 47 48 48 71 49 72 50 80 51 73 52 79 53 74 54
REMARK SMILES IDX 75 55 76 56 77 57 78 58 57 59 58 60 66 61 59 62 65 63 60 64
REMARK SMILES IDX 61 65 62 66 63 67 64 68 7 69 8 70 9 71 10 72 11 73 12 74
REMARK SMILES IDX 13 75 17 76 14 77 16 78 15 79 18 80 19 82 20 83 21 84 22 85
REMARK SMILES IDX 23 86 31 87 24 88 30 89 25 90 29 91 26 92 28 93 27 94
REMARK H PARENT 85 24 55 35 18 81
REMARK Flexibility Score: inf
ROOT
ATOM      1  O   UNL A   1      40.103  20.995  26.612  1.00  0.00    -0.374 OA
ENDROOT
BRANCH   1   2
ATOM      2  C   UNL A   1      41.410  20.587  26.207  1.00  0.00     0.202 C 
BRANCH   2   3
ATOM      3  C   UNL A   1      42.427  21.343  27.085  1.00  0.00     0.261 C 
BRANCH   3   4
ATOM      4  O   UNL A   1      42.009  22.699  27.322  1.00  0.00    -0.460 OA
BRANCH   4   5
ATOM      5  C   UNL A   1      42.049  23.582  26.283  1.00  0.00     0.338 C 
ATOM      6  O   UNL A   1      42.916  23.743  25.450  1.00  0.00    -0.246 OA
BRANCH   5   7
ATOM      7  C   UNL A   1      40.946  24.510  26.616  1.00  0.00     0.060 A 
ATOM      8  C   UNL A   1      41.112  25.775  26.066  1.00  0.00     0.016 A 
ATOM      9  C   UNL A   1      40.182  24.343  27.763  1.00  0.00     0.016 A 
ATOM     10  C   UNL A   1      40.875  26.891  26.826  1.00  0.00     0.010 A 
ATOM     11  C   UNL A   1      39.765  25.490  28.449  1.00  0.00     0.010 A 
ATOM     12  C   UNL A   1      40.244  26.758  28.056  1.00  0.00    -0.014 A 
BRANCH  12  13
ATOM     13  C   UNL A   1      40.410  27.856  29.039  1.00  0.00     0.031 A 
ATOM     14  C   UNL A   1      41.729  27.947  29.757  1.00  0.00     0.074 A 
ATOM     15  C   UNL A   1      39.527  28.867  29.149  1.00  0.00     0.049 A 
ATOM     16  N   UNL A   1      42.009  28.523  30.890  1.00  0.00    -0.248 NA
ATOM     17  C   UNL A   1      42.882  27.272  29.127  1.00  0.00     0.031 C 
ATOM     18  C   UNL A   1      38.334  29.064  28.320  1.00  0.00     0.029 A 
ATOM     19  N   UNL A   1      39.539  29.965  29.966  1.00  0.00    -0.354 N 
ATOM     20  C   UNL A   1      43.312  28.139  31.188  1.00  0.00     0.074 A 
ATOM     21  C   UNL A   1      43.797  27.350  30.082  1.00  0.00     0.031 C 
ATOM     22  C   UNL A   1      37.797  30.262  28.597  1.00  0.00     0.029 A 
ATOM     23  C   UNL A   1      38.483  30.818  29.753  1.00  0.00     0.049 A 
ATOM     24  H   UNL A   1      40.236  30.128  30.640  1.00  0.00     0.167 HD
ATOM     25  C   UNL A   1      43.991  28.388  32.331  1.00  0.00     0.031 A 
ATOM     26  C   UNL A   1      38.066  31.874  30.478  1.00  0.00     0.031 A 
ATOM     27  C   UNL A   1      43.465  29.262  33.345  1.00  0.00     0.049 A 
ATOM     28  C   UNL A   1      38.793  32.132  31.769  1.00  0.00     0.074 A 
ATOM     29  C   UNL A   1      43.936  29.527  34.615  1.00  0.00     0.029 A 
ATOM     30  N   UNL A   1      42.342  30.060  33.154  1.00  0.00    -0.354 N 
ATOM     31  N   UNL A   1      39.875  31.548  32.233  1.00  0.00    -0.248 NA
ATOM     32  C   UNL A   1      38.209  33.132  32.666  1.00  0.00     0.031 C 
ATOM     33  C   UNL A   1      43.077  30.471  35.199  1.00  0.00     0.029 A 
ATOM     34  C   UNL A   1      42.104  30.825  34.275  1.00  0.00     0.049 A 
ATOM     35  H   UNL A   1      41.795  30.075  32.335  1.00  0.00     0.167 HD
ATOM     36  C   UNL A   1      40.095  32.097  33.488  1.00  0.00     0.074 A 
ATOM     37  C   UNL A   1      39.052  33.088  33.691  1.00  0.00     0.031 C 
ATOM     38  C   UNL A   1      41.051  31.802  34.406  1.00  0.00     0.031 A 
BRANCH  25  39
ATOM     39  C   UNL A   1      45.240  27.586  32.578  1.00  0.00    -0.014 A 
ATOM     40  C   UNL A   1      45.233  26.331  33.210  1.00  0.00     0.010 A 
ATOM     41  C   UNL A   1      46.477  28.161  32.225  1.00  0.00     0.010 A 
ATOM     42  C   UNL A   1      46.439  25.696  33.537  1.00  0.00     0.020 A 
ATOM     43  C   UNL A   1      47.682  27.519  32.527  1.00  0.00     0.020 A 
ATOM     44  C   UNL A   1      47.656  26.303  33.207  1.00  0.00     0.054 A 
BRANCH  44  45
ATOM     45  S   UNL A   1      49.208  25.487  33.677  1.00  0.00     0.124 S 
ATOM     46  O   UNL A   1      49.060  25.370  35.125  1.00  0.00    -0.237 OA
ATOM     47  O   UNL A   1      49.151  24.230  32.936  1.00  0.00    -0.237 OA
ATOM     48  O   UNL A   1      50.239  26.421  33.230  1.00  0.00    -0.744 OA
ENDBRANCH  44  45
ENDBRANCH  25  39
BRANCH  26  49
ATOM     49  C   UNL A   1      36.843  32.632  30.082  1.00  0.00    -0.014 A 
ATOM     50  C   UNL A   1      35.583  32.300  30.608  1.00  0.00     0.010 A 
ATOM     51  C   UNL A   1      36.937  33.727  29.198  1.00  0.00     0.010 A 
ATOM     52  C   UNL A   1      34.449  33.050  30.267  1.00  0.00     0.020 A 
ATOM     53  C   UNL A   1      35.816  34.502  28.886  1.00  0.00     0.020 A 
ATOM     54  C   UNL A   1      34.575  34.151  29.414  1.00  0.00     0.054 A 
BRANCH  54  55
ATOM     55  S   UNL A   1      33.113  35.161  29.043  1.00  0.00     0.124 S 
ATOM     56  O   UNL A   1      33.715  36.383  28.520  1.00  0.00    -0.237 OA
ATOM     57  O   UNL A   1      32.396  34.341  28.070  1.00  0.00    -0.237 OA
ATOM     58  O   UNL A   1      32.453  35.292  30.340  1.00  0.00    -0.744 OA
ENDBRANCH  54  55
ENDBRANCH  26  49
BRANCH  38  59
ATOM     59  C   UNL A   1      41.023  32.598  35.673  1.00  0.00    -0.014 A 
ATOM     60  C   UNL A   1      40.073  32.332  36.674  1.00  0.00     0.010 A 
ATOM     61  C   UNL A   1      41.995  33.593  35.874  1.00  0.00     0.010 A 
ATOM     62  C   UNL A   1      40.079  33.078  37.853  1.00  0.00     0.020 A 
ATOM     63  C   UNL A   1      42.014  34.324  37.060  1.00  0.00     0.020 A 
ATOM     64  C   UNL A   1      41.047  34.071  38.036  1.00  0.00     0.054 A 
BRANCH  64  65
ATOM     65  S   UNL A   1      41.062  35.002  39.589  1.00  0.00     0.124 S 
ATOM     66  O   UNL A   1      42.310  35.753  39.480  1.00  0.00    -0.237 OA
ATOM     67  O   UNL A   1      39.839  35.798  39.501  1.00  0.00    -0.237 OA
ATOM     68  O   UNL A   1      41.045  33.961  40.614  1.00  0.00    -0.744 OA
ENDBRANCH  64  65
ENDBRANCH  38  59
ENDBRANCH  12  13
ENDBRANCH   5   7
ENDBRANCH   4   5
ENDBRANCH   3   4
ENDBRANCH   2   3
ENDBRANCH   1   2
BRANCH   1  69
ATOM     69  C   UNL A   1      39.021  21.074  25.682  1.00  0.00     0.202 C 
BRANCH  69  70
ATOM     70  C   UNL A   1      37.913  22.272  25.737  1.00  0.00     0.261 C 
BRANCH  70  71
ATOM     71  O   UNL A   1      36.044  22.217  26.497  1.00  0.00    -0.463 OA
BRANCH  71  72
ATOM     72  C   UNL A   1      34.689  22.151  26.851  1.00  0.00     0.310 C 
ATOM     73  O   UNL A   1      34.233  22.513  27.936  1.00  0.00    -0.252 OA
BRANCH  72  74
ATOM     74  C   UNL A   1      33.721  21.589  25.763  1.00  0.00     0.117 C 
ATOM     75  C   UNL A   1      34.358  20.717  24.667  1.00  0.00     0.017 C 
ATOM     76  C   UNL A   1      32.526  22.457  25.279  1.00  0.00     0.084 C 
ATOM     77  C   UNL A   1      33.321  19.881  23.924  1.00  0.00     0.001 C 
ATOM     78  C   UNL A   1      31.518  21.555  24.528  1.00  0.00     0.021 C 
ATOM     79  C   UNL A   1      32.176  20.744  23.403  1.00  0.00     0.002 C 
BRANCH  76  80
ATOM     80  N   UNL A   1      32.811  23.556  24.337  1.00  0.00    -0.207 NA
ATOM     81  H   UNL A   1      31.924  23.787  23.889  1.00  0.00     0.141 HD
BRANCH  80  82
ATOM     82  S   UNL A   1      33.469  25.003  24.844  1.00  0.00     0.240 S 
ATOM     83  O   UNL A   1      33.051  25.224  26.207  1.00  0.00    -0.207 OA
ATOM     84  O   UNL A   1      34.840  25.068  24.402  1.00  0.00    -0.207 OA
BRANCH  82  85
ATOM     85  C   UNL A   1      32.502  26.026  23.832  1.00  0.00     0.083 A 
ATOM     86  C   UNL A   1      33.329  27.456  23.119  1.00  0.00     0.022 A 
ATOM     87  C   UNL A   1      30.712  26.008  23.995  1.00  0.00     0.030 A 
ATOM     88  C   UNL A   1      32.348  28.881  22.597  1.00  0.00     0.010 A 
ATOM     89  C   UNL A   1      29.718  27.419  23.450  1.00  0.00    -0.017 A 
ATOM     90  C   UNL A   1      30.541  28.854  22.727  1.00  0.00    -0.018 A 
ATOM     91  C   UNL A   1      28.332  27.485  23.494  1.00  0.00     0.009 A 
ATOM     92  C   UNL A   1      29.704  29.858  22.264  1.00  0.00     0.009 A 
ATOM     93  C   UNL A   1      27.663  28.594  22.951  1.00  0.00     0.001 A 
ATOM     94  C   UNL A   1      28.311  29.713  22.364  1.00  0.00     0.001 A 
ENDBRANCH  82  85
ENDBRANCH  80  82
ENDBRANCH  76  80
ENDBRANCH  72  74
ENDBRANCH  71  72
ENDBRANCH  70  71
ENDBRANCH  69  70
ENDBRANCH   1  69
TORSDOF 20
ENDMDL
