MODEL 1
REMARK VINA RESULT:     -10.9      0.000      0.000
REMARK SMILES Nc1oc2ccc(F)cc2c(=O)c1[C@@H]1[NH2+][C@H](C(=O)OCCOCCOC(=O)c2ccc(-c3c4nc(c(-c5ccc(S(=O)(=O)[O-])cc5)c5ccc([nH]5)c(-c5ccc(S(=O)(=O)[O-])cc5)c5nc(c(-c6ccc(S(=O)(=O)[O-])cc6)c6ccc3[nH]6)C=C5)C=C4)cc2)CS1
REMARK SMILES IDX 23 1 22 2 21 3 20 4 19 5 17 6 18 7 16 8 14 9 15 10 89 11
REMARK SMILES IDX 88 14 13 15 2 16 3 17 4 18 11 19 5 20 10 21 12 22 6 23 9 24
REMARK SMILES IDX 7 25 8 26 1 27 24 30 25 31 26 32 27 33 28 34 29 35 87 36
REMARK SMILES IDX 30 37 86 38 31 39 32 40 33 41 80 42 34 43 85 44 79 45 81 46
REMARK SMILES IDX 35 47 84 48 78 49 77 50 36 52 66 53 47 54 65 55 48 56 51 57
REMARK SMILES IDX 64 58 82 59 49 60 50 61 63 63 83 64 52 65 37 66 38 67 46 68
REMARK SMILES IDX 39 69 45 70 40 71 41 72 42 73 43 74 44 75 67 76 68 77 76 78
REMARK SMILES IDX 69 79 75 80 70 81 71 82 72 83 73 84 74 85 53 86 54 87 62 88
REMARK SMILES IDX 55 89 61 90 56 91 57 92 58 93 59 94 60 95
REMARK H PARENT 15 12 15 13 1 28 1 29 81 51 51 62
REMARK Flexibility Score: inf
ROOT
ATOM      1  C   UNL A   1      36.068  21.118  25.241  1.00  0.00     0.202 C 
ENDROOT
BRANCH   1   2
ATOM      2  O   UNL A   1      35.519  21.442  26.518  1.00  0.00    -0.374 OA
BRANCH   2   3
ATOM      3  C   UNL A   1      34.111  21.675  26.595  1.00  0.00     0.202 C 
BRANCH   3   4
ATOM      4  C   UNL A   1      33.225  20.812  25.696  1.00  0.00     0.261 C 
BRANCH   4   5
ATOM      5  O   UNL A   1      32.886  21.523  24.500  1.00  0.00    -0.459 OA
BRANCH   5   6
ATOM      6  C   UNL A   1      31.773  22.293  24.555  1.00  0.00     0.365 C 
ATOM      7  O   UNL A   1      31.067  22.430  25.550  1.00  0.00    -0.245 OA
BRANCH   6   8
ATOM      8  C   UNL A   1      31.485  23.058  23.259  1.00  0.00     0.304 C 
ATOM      9  C   UNL A   1      31.824  25.463  23.133  1.00  0.00     0.283 C 
ATOM     10  N   UNL A   1      30.870  24.396  23.441  1.00  0.00    -0.319 N 
ATOM     11  S   UNL A   1      33.149  24.805  22.094  1.00  0.00    -0.087 SA
ATOM     12  H   UNL A   1      30.065  24.479  22.820  1.00  0.00     0.348 HD
ATOM     13  H   UNL A   1      30.582  24.490  24.416  1.00  0.00     0.348 HD
ATOM     14  C   UNL A   1      32.739  23.079  22.397  1.00  0.00     0.153 C 
BRANCH   9  15
ATOM     15  C   UNL A   1      32.318  26.242  24.327  1.00  0.00     0.128 A 
ATOM     16  C   UNL A   1      33.381  25.989  25.123  1.00  0.00     0.205 A 
ATOM     17  O   UNL A   1      33.757  26.797  26.182  1.00  0.00    -0.440 OA
ATOM     18  C   UNL A   1      33.241  28.058  26.267  1.00  0.00     0.140 A 
ATOM     19  C   UNL A   1      31.537  27.487  24.608  1.00  0.00     0.205 A 
ATOM     20  C   UNL A   1      33.865  28.950  27.139  1.00  0.00     0.051 A 
ATOM     21  C   UNL A   1      32.122  28.448  25.549  1.00  0.00     0.068 A 
ATOM     22  O   UNL A   1      30.476  27.744  24.048  1.00  0.00    -0.288 OA
ATOM     23  C   UNL A   1      33.341  30.229  27.316  1.00  0.00     0.043 A 
ATOM     24  C   UNL A   1      31.590  29.730  25.715  1.00  0.00     0.055 A 
ATOM     25  C   UNL A   1      32.206  30.607  26.604  1.00  0.00     0.124 A 
ATOM     26  F   UNL A   1      31.692  31.829  26.782  1.00  0.00    -0.207 F 
BRANCH  16  27
ATOM     27  N   UNL A   1      34.240  24.936  24.981  1.00  0.00    -0.369 N 
ATOM     28  H   UNL A   1      33.980  24.159  24.436  1.00  0.00     0.159 HD
ATOM     29  H   UNL A   1      35.119  24.956  25.425  1.00  0.00     0.159 HD
ENDBRANCH  16  27
ENDBRANCH   9  15
ENDBRANCH   6   8
ENDBRANCH   5   6
ENDBRANCH   4   5
ENDBRANCH   3   4
ENDBRANCH   2   3
ENDBRANCH   1   2
BRANCH   1  30
ATOM     30  C   UNL A   1      37.390  21.785  24.833  1.00  0.00     0.261 C 
BRANCH  30  31
ATOM     31  O   UNL A   1      37.766  22.908  25.644  1.00  0.00    -0.460 OA
BRANCH  31  32
ATOM     32  C   UNL A   1      39.020  22.858  26.152  1.00  0.00     0.338 C 
ATOM     33  O   UNL A   1      39.839  21.953  26.022  1.00  0.00    -0.246 OA
BRANCH  32  34
ATOM     34  C   UNL A   1      39.347  24.148  26.781  1.00  0.00     0.060 A 
ATOM     35  C   UNL A   1      38.915  24.426  28.072  1.00  0.00     0.016 A 
ATOM     36  C   UNL A   1      40.158  25.063  26.096  1.00  0.00     0.016 A 
ATOM     37  C   UNL A   1      39.306  25.625  28.671  1.00  0.00     0.010 A 
ATOM     38  C   UNL A   1      40.541  26.267  26.702  1.00  0.00     0.010 A 
ATOM     39  C   UNL A   1      40.121  26.565  28.002  1.00  0.00    -0.014 A 
BRANCH  39  40
ATOM     40  C   UNL A   1      40.594  27.777  28.738  1.00  0.00     0.031 A 
ATOM     41  C   UNL A   1      42.026  27.960  29.172  1.00  0.00     0.074 A 
ATOM     42  C   UNL A   1      39.716  28.779  28.950  1.00  0.00     0.049 A 
ATOM     43  N   UNL A   1      42.612  29.051  29.601  1.00  0.00    -0.248 NA
ATOM     44  C   UNL A   1      42.922  26.795  29.099  1.00  0.00     0.031 C 
ATOM     45  C   UNL A   1      38.295  28.726  28.602  1.00  0.00     0.029 A 
ATOM     46  N   UNL A   1      39.885  30.044  29.460  1.00  0.00    -0.354 N 
ATOM     47  C   UNL A   1      43.945  28.719  29.818  1.00  0.00     0.074 A 
ATOM     48  C   UNL A   1      44.076  27.310  29.512  1.00  0.00     0.031 C 
ATOM     49  C   UNL A   1      37.743  29.925  28.828  1.00  0.00     0.029 A 
ATOM     50  C   UNL A   1      38.747  30.816  29.402  1.00  0.00     0.049 A 
ATOM     51  H   UNL A   1      40.738  30.366  29.831  1.00  0.00     0.167 HD
ATOM     52  C   UNL A   1      44.965  29.517  30.218  1.00  0.00     0.031 A 
ATOM     53  C   UNL A   1      38.518  32.096  29.761  1.00  0.00     0.031 A 
ATOM     54  C   UNL A   1      44.824  30.907  30.580  1.00  0.00     0.049 A 
ATOM     55  C   UNL A   1      39.645  32.928  30.298  1.00  0.00     0.074 A 
ATOM     56  C   UNL A   1      45.817  31.790  30.976  1.00  0.00     0.029 A 
ATOM     57  N   UNL A   1      43.631  31.611  30.623  1.00  0.00    -0.354 N 
ATOM     58  N   UNL A   1      40.913  32.614  30.410  1.00  0.00    -0.248 NA
ATOM     59  C   UNL A   1      39.315  34.284  30.757  1.00  0.00     0.031 C 
ATOM     60  C   UNL A   1      45.213  32.993  31.349  1.00  0.00     0.029 A 
ATOM     61  C   UNL A   1      43.855  32.896  31.098  1.00  0.00     0.049 A 
ATOM     62  H   UNL A   1      42.754  31.253  30.356  1.00  0.00     0.167 HD
ATOM     63  C   UNL A   1      41.533  33.733  30.955  1.00  0.00     0.074 A 
ATOM     64  C   UNL A   1      40.507  34.743  31.117  1.00  0.00     0.031 C 
ATOM     65  C   UNL A   1      42.834  33.898  31.295  1.00  0.00     0.031 A 
BRANCH  52  66
ATOM     66  C   UNL A   1      46.355  28.932  30.292  1.00  0.00    -0.014 A 
ATOM     67  C   UNL A   1      47.158  28.872  29.136  1.00  0.00     0.010 A 
ATOM     68  C   UNL A   1      46.797  28.285  31.461  1.00  0.00     0.010 A 
ATOM     69  C   UNL A   1      48.351  28.146  29.135  1.00  0.00     0.020 A 
ATOM     70  C   UNL A   1      48.003  27.577  31.470  1.00  0.00     0.020 A 
ATOM     71  C   UNL A   1      48.761  27.491  30.300  1.00  0.00     0.054 A 
BRANCH  71  72
ATOM     72  S   UNL A   1      50.288  26.511  30.262  1.00  0.00     0.124 S 
ATOM     73  O   UNL A   1      50.560  26.307  31.681  1.00  0.00    -0.237 OA
ATOM     74  O   UNL A   1      49.883  25.322  29.517  1.00  0.00    -0.237 OA
ATOM     75  O   UNL A   1      51.234  27.380  29.562  1.00  0.00    -0.744 OA
ENDBRANCH  71  72
ENDBRANCH  52  66
BRANCH  53  76
ATOM     76  C   UNL A   1      37.145  32.653  29.593  1.00  0.00    -0.014 A 
ATOM     77  C   UNL A   1      36.727  33.129  28.334  1.00  0.00     0.010 A 
ATOM     78  C   UNL A   1      36.293  32.811  30.699  1.00  0.00     0.010 A 
ATOM     79  C   UNL A   1      35.525  33.825  28.202  1.00  0.00     0.020 A 
ATOM     80  C   UNL A   1      35.069  33.474  30.562  1.00  0.00     0.020 A 
ATOM     81  C   UNL A   1      34.713  34.010  29.322  1.00  0.00     0.054 A 
BRANCH  81  82
ATOM     82  S   UNL A   1      33.195  34.986  29.140  1.00  0.00     0.124 S 
ATOM     83  O   UNL A   1      32.645  34.938  30.492  1.00  0.00    -0.237 OA
ATOM     84  O   UNL A   1      33.701  36.288  28.713  1.00  0.00    -0.237 OA
ATOM     85  O   UNL A   1      32.436  34.254  28.130  1.00  0.00    -0.744 OA
ENDBRANCH  81  82
ENDBRANCH  53  76
BRANCH  65  86
ATOM     86  C   UNL A   1      43.247  35.206  31.923  1.00  0.00    -0.014 A 
ATOM     87  C   UNL A   1      43.081  35.412  33.306  1.00  0.00     0.010 A 
ATOM     88  C   UNL A   1      43.693  36.276  31.125  1.00  0.00     0.010 A 
ATOM     89  C   UNL A   1      43.314  36.669  33.872  1.00  0.00     0.020 A 
ATOM     90  C   UNL A   1      43.960  37.526  31.694  1.00  0.00     0.020 A 
ATOM     91  C   UNL A   1      43.743  37.721  33.060  1.00  0.00     0.054 A 
BRANCH  91  92
ATOM     92  S   UNL A   1      44.011  39.352  33.807  1.00  0.00     0.124 S 
ATOM     93  O   UNL A   1      42.830  40.090  33.367  1.00  0.00    -0.237 OA
ATOM     94  O   UNL A   1      44.065  39.046  35.235  1.00  0.00    -0.237 OA
ATOM     95  O   UNL A   1      45.276  39.794  33.225  1.00  0.00    -0.744 OA
ENDBRANCH  91  92
ENDBRANCH  65  86
ENDBRANCH  39  40
ENDBRANCH  32  34
ENDBRANCH  31  32
ENDBRANCH  30  31
ENDBRANCH   1  30
TORSDOF 19
ENDMDL
MODEL 2
REMARK VINA RESULT:     -10.9      3.102      9.589
REMARK SMILES Nc1oc2ccc(F)cc2c(=O)c1[C@@H]1[NH2+][C@H](C(=O)OCCOCCOC(=O)c2ccc(-c3c4nc(c(-c5ccc(S(=O)(=O)[O-])cc5)c5ccc([nH]5)c(-c5ccc(S(=O)(=O)[O-])cc5)c5nc(c(-c6ccc(S(=O)(=O)[O-])cc6)c6ccc3[nH]6)C=C5)C=C4)cc2)CS1
REMARK SMILES IDX 23 1 22 2 21 3 20 4 19 5 17 6 18 7 16 8 14 9 15 10 89 11
REMARK SMILES IDX 88 14 13 15 2 16 3 17 4 18 11 19 5 20 10 21 12 22 6 23 9 24
REMARK SMILES IDX 7 25 8 26 1 27 24 30 25 31 26 32 27 33 28 34 29 35 87 36
REMARK SMILES IDX 30 37 86 38 31 39 32 40 33 41 80 42 34 43 85 44 79 45 81 46
REMARK SMILES IDX 35 47 84 48 78 49 77 50 36 52 66 53 47 54 65 55 48 56 51 57
REMARK SMILES IDX 64 58 82 59 49 60 50 61 63 63 83 64 52 65 37 66 38 67 46 68
REMARK SMILES IDX 39 69 45 70 40 71 41 72 42 73 43 74 44 75 67 76 68 77 76 78
REMARK SMILES IDX 69 79 75 80 70 81 71 82 72 83 73 84 74 85 53 86 54 87 62 88
REMARK SMILES IDX 55 89 61 90 56 91 57 92 58 93 59 94 60 95
REMARK H PARENT 15 12 15 13 1 28 1 29 81 51 51 62
REMARK Flexibility Score: inf
ROOT
ATOM      1  C   UNL A   1      33.081  29.496  25.181  1.00  0.00     0.202 C 
ENDROOT
BRANCH   1   2
ATOM      2  O   UNL A   1      31.673  29.685  25.315  1.00  0.00    -0.374 OA
BRANCH   2   3
ATOM      3  C   UNL A   1      30.849  29.335  24.201  1.00  0.00     0.202 C 
BRANCH   3   4
ATOM      4  C   UNL A   1      31.539  28.623  23.036  1.00  0.00     0.261 C 
BRANCH   4   5
ATOM      5  O   UNL A   1      31.783  27.251  23.365  1.00  0.00    -0.459 OA
BRANCH   5   6
ATOM      6  C   UNL A   1      31.214  26.329  22.551  1.00  0.00     0.365 C 
ATOM      7  O   UNL A   1      31.341  26.301  21.330  1.00  0.00    -0.245 OA
BRANCH   6   8
ATOM      8  C   UNL A   1      30.425  25.247  23.297  1.00  0.00     0.304 C 
ATOM      9  C   UNL A   1      31.570  23.383  24.360  1.00  0.00     0.283 C 
ATOM     10  N   UNL A   1      30.939  23.866  23.129  1.00  0.00    -0.319 N 
ATOM     11  S   UNL A   1      30.976  24.357  25.763  1.00  0.00    -0.087 SA
ATOM     12  H   UNL A   1      30.163  23.249  22.889  1.00  0.00     0.348 HD
ATOM     13  H   UNL A   1      31.639  23.868  22.386  1.00  0.00     0.348 HD
ATOM     14  C   UNL A   1      30.256  25.660  24.752  1.00  0.00     0.153 C 
BRANCH   9  15
ATOM     15  C   UNL A   1      33.072  23.258  24.300  1.00  0.00     0.128 A 
ATOM     16  C   UNL A   1      34.005  24.236  24.304  1.00  0.00     0.205 A 
ATOM     17  O   UNL A   1      35.369  23.998  24.273  1.00  0.00    -0.440 OA
ATOM     18  C   UNL A   1      35.826  22.743  24.552  1.00  0.00     0.140 A 
ATOM     19  C   UNL A   1      33.566  21.845  24.291  1.00  0.00     0.205 A 
ATOM     20  C   UNL A   1      37.186  22.601  24.829  1.00  0.00     0.051 A 
ATOM     21  C   UNL A   1      34.997  21.633  24.536  1.00  0.00     0.068 A 
ATOM     22  O   UNL A   1      32.819  20.883  24.143  1.00  0.00    -0.288 OA
ATOM     23  C   UNL A   1      37.721  21.334  25.055  1.00  0.00     0.043 A 
ATOM     24  C   UNL A   1      35.521  20.358  24.767  1.00  0.00     0.055 A 
ATOM     25  C   UNL A   1      36.883  20.224  25.020  1.00  0.00     0.124 A 
ATOM     26  F   UNL A   1      37.396  19.004  25.222  1.00  0.00    -0.207 F 
BRANCH  16  27
ATOM     27  N   UNL A   1      33.744  25.576  24.368  1.00  0.00    -0.369 N 
ATOM     28  H   UNL A   1      33.177  25.932  25.090  1.00  0.00     0.159 HD
ATOM     29  H   UNL A   1      34.123  26.184  23.693  1.00  0.00     0.159 HD
ENDBRANCH  16  27
ENDBRANCH   9  15
ENDBRANCH   6   8
ENDBRANCH   5   6
ENDBRANCH   4   5
ENDBRANCH   3   4
ENDBRANCH   2   3
ENDBRANCH   1   2
BRANCH   1  30
ATOM     30  C   UNL A   1      33.773  28.520  26.146  1.00  0.00     0.261 C 
BRANCH  30  31
ATOM     31  O   UNL A   1      33.772  28.938  27.519  1.00  0.00    -0.460 OA
BRANCH  31  32
ATOM     32  C   UNL A   1      34.345  30.142  27.754  1.00  0.00     0.338 C 
ATOM     33  O   UNL A   1      33.791  31.237  27.775  1.00  0.00    -0.246 OA
BRANCH  32  34
ATOM     34  C   UNL A   1      35.751  29.949  28.146  1.00  0.00     0.060 A 
ATOM     35  C   UNL A   1      36.065  29.480  29.416  1.00  0.00     0.016 A 
ATOM     36  C   UNL A   1      36.765  30.174  27.205  1.00  0.00     0.016 A 
ATOM     37  C   UNL A   1      37.401  29.232  29.732  1.00  0.00     0.010 A 
ATOM     38  C   UNL A   1      38.105  29.930  27.533  1.00  0.00     0.010 A 
ATOM     39  C   UNL A   1      38.444  29.453  28.804  1.00  0.00    -0.014 A 
BRANCH  39  40
ATOM     40  C   UNL A   1      39.841  29.065  29.167  1.00  0.00     0.031 A 
ATOM     41  C   UNL A   1      40.723  29.919  30.041  1.00  0.00     0.074 A 
ATOM     42  C   UNL A   1      40.297  27.863  28.756  1.00  0.00     0.049 A 
ATOM     43  N   UNL A   1      41.853  29.593  30.620  1.00  0.00    -0.248 NA
ATOM     44  C   UNL A   1      40.286  31.294  30.328  1.00  0.00     0.031 C 
ATOM     45  C   UNL A   1      39.558  26.947  27.886  1.00  0.00     0.029 A 
ATOM     46  N   UNL A   1      41.458  27.185  29.041  1.00  0.00    -0.354 N 
ATOM     47  C   UNL A   1      42.247  30.702  31.360  1.00  0.00     0.074 A 
ATOM     48  C   UNL A   1      41.254  31.729  31.128  1.00  0.00     0.031 C 
ATOM     49  C   UNL A   1      40.238  25.799  27.779  1.00  0.00     0.029 A 
ATOM     50  C   UNL A   1      41.497  25.916  28.511  1.00  0.00     0.049 A 
ATOM     51  H   UNL A   1      42.190  27.570  29.574  1.00  0.00     0.167 HD
ATOM     52  C   UNL A   1      43.324  30.844  32.170  1.00  0.00     0.031 A 
ATOM     53  C   UNL A   1      42.426  24.941  28.594  1.00  0.00     0.031 A 
ATOM     54  C   UNL A   1      44.347  29.841  32.357  1.00  0.00     0.049 A 
ATOM     55  C   UNL A   1      43.660  25.164  29.417  1.00  0.00     0.074 A 
ATOM     56  C   UNL A   1      45.461  29.903  33.179  1.00  0.00     0.029 A 
ATOM     57  N   UNL A   1      44.407  28.620  31.703  1.00  0.00    -0.354 N 
ATOM     58  N   UNL A   1      43.964  26.189  30.176  1.00  0.00    -0.248 NA
ATOM     59  C   UNL A   1      44.678  24.105  29.396  1.00  0.00     0.031 C 
ATOM     60  C   UNL A   1      46.240  28.766  32.951  1.00  0.00     0.029 A 
ATOM     61  C   UNL A   1      45.569  27.950  32.056  1.00  0.00     0.049 A 
ATOM     62  H   UNL A   1      43.725  28.279  31.080  1.00  0.00     0.167 HD
ATOM     63  C   UNL A   1      45.209  25.898  30.723  1.00  0.00     0.074 A 
ATOM     64  C   UNL A   1      45.586  24.587  30.234  1.00  0.00     0.031 C 
ATOM     65  C   UNL A   1      45.969  26.658  31.549  1.00  0.00     0.031 A 
BRANCH  52  66
ATOM     66  C   UNL A   1      43.484  32.130  32.945  1.00  0.00    -0.014 A 
ATOM     67  C   UNL A   1      42.826  32.295  34.179  1.00  0.00     0.010 A 
ATOM     68  C   UNL A   1      44.138  33.234  32.370  1.00  0.00     0.010 A 
ATOM     69  C   UNL A   1      42.785  33.545  34.803  1.00  0.00     0.020 A 
ATOM     70  C   UNL A   1      44.120  34.481  33.003  1.00  0.00     0.020 A 
ATOM     71  C   UNL A   1      43.422  34.635  34.203  1.00  0.00     0.054 A 
BRANCH  71  72
ATOM     72  S   UNL A   1      43.314  36.261  35.003  1.00  0.00     0.124 S 
ATOM     73  O   UNL A   1      42.880  37.118  33.905  1.00  0.00    -0.237 OA
ATOM     74  O   UNL A   1      42.326  36.031  36.055  1.00  0.00    -0.237 OA
ATOM     75  O   UNL A   1      44.675  36.497  35.482  1.00  0.00    -0.744 OA
ENDBRANCH  71  72
ENDBRANCH  52  66
BRANCH  53  76
ATOM     76  C   UNL A   1      42.185  23.657  27.876  1.00  0.00    -0.014 A 
ATOM     77  C   UNL A   1      41.360  22.672  28.452  1.00  0.00     0.010 A 
ATOM     78  C   UNL A   1      42.857  23.368  26.676  1.00  0.00     0.010 A 
ATOM     79  C   UNL A   1      41.278  21.397  27.890  1.00  0.00     0.020 A 
ATOM     80  C   UNL A   1      42.746  22.104  26.089  1.00  0.00     0.020 A 
ATOM     81  C   UNL A   1      41.988  21.116  26.722  1.00  0.00     0.054 A 
BRANCH  81  82
ATOM     82  S   UNL A   1      41.927  19.430  26.056  1.00  0.00     0.124 S 
ATOM     83  O   UNL A   1      42.796  19.539  24.887  1.00  0.00    -0.237 OA
ATOM     84  O   UNL A   1      42.455  18.631  27.160  1.00  0.00    -0.237 OA
ATOM     85  O   UNL A   1      40.511  19.226  25.766  1.00  0.00    -0.744 OA
ENDBRANCH  81  82
ENDBRANCH  53  76
BRANCH  65  86
ATOM     86  C   UNL A   1      47.320  26.130  31.963  1.00  0.00    -0.014 A 
ATOM     87  C   UNL A   1      48.417  26.224  31.085  1.00  0.00     0.010 A 
ATOM     88  C   UNL A   1      47.478  25.435  33.176  1.00  0.00     0.010 A 
ATOM     89  C   UNL A   1      49.631  25.602  31.393  1.00  0.00     0.020 A 
ATOM     90  C   UNL A   1      48.702  24.841  33.503  1.00  0.00     0.020 A 
ATOM     91  C   UNL A   1      49.762  24.906  32.596  1.00  0.00     0.054 A 
BRANCH  91  92
ATOM     92  S   UNL A   1      51.335  24.080  32.964  1.00  0.00     0.124 S 
ATOM     93  O   UNL A   1      52.210  24.606  31.920  1.00  0.00    -0.237 OA
ATOM     94  O   UNL A   1      51.628  24.537  34.320  1.00  0.00    -0.237 OA
ATOM     95  O   UNL A   1      51.012  22.659  32.851  1.00  0.00    -0.744 OA
ENDBRANCH  91  92
ENDBRANCH  65  86
ENDBRANCH  39  40
ENDBRANCH  32  34
ENDBRANCH  31  32
ENDBRANCH  30  31
ENDBRANCH   1  30
TORSDOF 19
ENDMDL
MODEL 3
REMARK VINA RESULT:     -10.8      1.807      8.350
REMARK SMILES Nc1oc2ccc(F)cc2c(=O)c1[C@@H]1[NH2+][C@H](C(=O)OCCOCCOC(=O)c2ccc(-c3c4nc(c(-c5ccc(S(=O)(=O)[O-])cc5)c5ccc([nH]5)c(-c5ccc(S(=O)(=O)[O-])cc5)c5nc(c(-c6ccc(S(=O)(=O)[O-])cc6)c6ccc3[nH]6)C=C5)C=C4)cc2)CS1
REMARK SMILES IDX 23 1 22 2 21 3 20 4 19 5 17 6 18 7 16 8 14 9 15 10 89 11
REMARK SMILES IDX 88 14 13 15 2 16 3 17 4 18 11 19 5 20 10 21 12 22 6 23 9 24
REMARK SMILES IDX 7 25 8 26 1 27 24 30 25 31 26 32 27 33 28 34 29 35 87 36
REMARK SMILES IDX 30 37 86 38 31 39 32 40 33 41 80 42 34 43 85 44 79 45 81 46
REMARK SMILES IDX 35 47 84 48 78 49 77 50 36 52 66 53 47 54 65 55 48 56 51 57
REMARK SMILES IDX 64 58 82 59 49 60 50 61 63 63 83 64 52 65 37 66 38 67 46 68
REMARK SMILES IDX 39 69 45 70 40 71 41 72 42 73 43 74 44 75 67 76 68 77 76 78
REMARK SMILES IDX 69 79 75 80 70 81 71 82 72 83 73 84 74 85 53 86 54 87 62 88
REMARK SMILES IDX 55 89 61 90 56 91 57 92 58 93 59 94 60 95
REMARK H PARENT 15 12 15 13 1 28 1 29 81 51 51 62
REMARK Flexibility Score: inf
ROOT
ATOM      1  C   UNL A   1      35.863  21.690  25.529  1.00  0.00     0.202 C 
ENDROOT
BRANCH   1   2
ATOM      2  O   UNL A   1      34.511  21.336  25.822  1.00  0.00    -0.374 OA
BRANCH   2   3
ATOM      3  C   UNL A   1      33.876  20.383  24.968  1.00  0.00     0.202 C 
BRANCH   3   4
ATOM      4  C   UNL A   1      32.894  20.937  23.935  1.00  0.00     0.261 C 
BRANCH   4   5
ATOM      5  O   UNL A   1      31.866  21.695  24.581  1.00  0.00    -0.459 OA
BRANCH   5   6
ATOM      6  C   UNL A   1      31.661  22.950  24.111  1.00  0.00     0.365 C 
ATOM      7  O   UNL A   1      30.680  23.301  23.462  1.00  0.00    -0.245 OA
BRANCH   6   8
ATOM      8  C   UNL A   1      32.749  23.949  24.519  1.00  0.00     0.304 C 
ATOM      9  C   UNL A   1      32.354  26.344  24.381  1.00  0.00     0.283 C 
ATOM     10  N   UNL A   1      32.842  25.161  23.669  1.00  0.00    -0.319 N 
ATOM     11  S   UNL A   1      32.395  26.035  26.161  1.00  0.00    -0.087 SA
ATOM     12  H   UNL A   1      33.816  25.309  23.405  1.00  0.00     0.348 HD
ATOM     13  H   UNL A   1      32.263  25.020  22.840  1.00  0.00     0.348 HD
ATOM     14  C   UNL A   1      32.620  24.256  26.004  1.00  0.00     0.153 C 
BRANCH   9  15
ATOM     15  C   UNL A   1      31.036  26.887  23.888  1.00  0.00     0.128 A 
ATOM     16  C   UNL A   1      29.784  26.514  24.234  1.00  0.00     0.205 A 
ATOM     17  O   UNL A   1      28.638  27.109  23.732  1.00  0.00    -0.440 OA
ATOM     18  C   UNL A   1      28.743  28.312  23.097  1.00  0.00     0.140 A 
ATOM     19  C   UNL A   1      31.167  28.029  22.930  1.00  0.00     0.205 A 
ATOM     20  C   UNL A   1      27.568  29.034  22.890  1.00  0.00     0.051 A 
ATOM     21  C   UNL A   1      29.955  28.804  22.639  1.00  0.00     0.068 A 
ATOM     22  O   UNL A   1      32.240  28.361  22.437  1.00  0.00    -0.288 OA
ATOM     23  C   UNL A   1      27.606  30.238  22.188  1.00  0.00     0.043 A 
ATOM     24  C   UNL A   1      30.007  30.012  21.939  1.00  0.00     0.055 A 
ATOM     25  C   UNL A   1      28.825  30.715  21.717  1.00  0.00     0.124 A 
ATOM     26  F   UNL A   1      28.864  31.862  21.031  1.00  0.00    -0.207 F 
BRANCH  16  27
ATOM     27  N   UNL A   1      29.472  25.535  25.134  1.00  0.00    -0.369 N 
ATOM     28  H   UNL A   1      28.634  25.587  25.647  1.00  0.00     0.159 HD
ATOM     29  H   UNL A   1      30.086  24.777  25.268  1.00  0.00     0.159 HD
ENDBRANCH  16  27
ENDBRANCH   9  15
ENDBRANCH   6   8
ENDBRANCH   5   6
ENDBRANCH   4   5
ENDBRANCH   3   4
ENDBRANCH   2   3
ENDBRANCH   1   2
BRANCH   1  30
ATOM     30  C   UNL A   1      36.364  23.066  25.991  1.00  0.00     0.261 C 
BRANCH  30  31
ATOM     31  O   UNL A   1      37.606  23.477  25.400  1.00  0.00    -0.460 OA
BRANCH  31  32
ATOM     32  C   UNL A   1      38.718  23.097  26.073  1.00  0.00     0.338 C 
ATOM     33  O   UNL A   1      39.268  22.001  26.039  1.00  0.00    -0.246 OA
BRANCH  32  34
ATOM     34  C   UNL A   1      39.294  24.261  26.767  1.00  0.00     0.060 A 
ATOM     35  C   UNL A   1      40.081  25.171  26.072  1.00  0.00     0.016 A 
ATOM     36  C   UNL A   1      38.982  24.482  28.116  1.00  0.00     0.016 A 
ATOM     37  C   UNL A   1      40.548  26.305  26.738  1.00  0.00     0.010 A 
ATOM     38  C   UNL A   1      39.461  25.620  28.779  1.00  0.00     0.010 A 
ATOM     39  C   UNL A   1      40.252  26.551  28.097  1.00  0.00    -0.014 A 
BRANCH  39  40
ATOM     40  C   UNL A   1      40.690  27.837  28.721  1.00  0.00     0.031 A 
ATOM     41  C   UNL A   1      39.775  29.026  28.865  1.00  0.00     0.074 A 
ATOM     42  C   UNL A   1      41.932  27.903  29.243  1.00  0.00     0.049 A 
ATOM     43  N   UNL A   1      39.952  30.104  29.590  1.00  0.00    -0.248 NA
ATOM     44  C   UNL A   1      38.497  29.006  28.136  1.00  0.00     0.031 C 
ATOM     45  C   UNL A   1      42.929  26.834  29.153  1.00  0.00     0.029 A 
ATOM     46  N   UNL A   1      42.556  28.876  29.986  1.00  0.00    -0.354 N 
ATOM     47  C   UNL A   1      38.805  30.874  29.432  1.00  0.00     0.074 A 
ATOM     48  C   UNL A   1      37.949  30.158  28.510  1.00  0.00     0.031 C 
ATOM     49  C   UNL A   1      44.000  27.171  29.882  1.00  0.00     0.029 A 
ATOM     50  C   UNL A   1      43.804  28.508  30.436  1.00  0.00     0.049 A 
ATOM     51  H   UNL A   1      42.150  29.752  30.177  1.00  0.00     0.167 HD
ATOM     52  C   UNL A   1      38.488  32.055  30.016  1.00  0.00     0.031 A 
ATOM     53  C   UNL A   1      44.701  29.155  31.208  1.00  0.00     0.031 A 
ATOM     54  C   UNL A   1      39.364  32.799  30.890  1.00  0.00     0.049 A 
ATOM     55  C   UNL A   1      44.363  30.510  31.758  1.00  0.00     0.074 A 
ATOM     56  C   UNL A   1      39.106  33.996  31.538  1.00  0.00     0.029 A 
ATOM     57  N   UNL A   1      40.664  32.446  31.217  1.00  0.00    -0.354 N 
ATOM     58  N   UNL A   1      43.238  31.174  31.664  1.00  0.00    -0.248 NA
ATOM     59  C   UNL A   1      45.414  31.204  32.515  1.00  0.00     0.031 C 
ATOM     60  C   UNL A   1      40.277  34.413  32.176  1.00  0.00     0.029 A 
ATOM     61  C   UNL A   1      41.239  33.432  32.005  1.00  0.00     0.049 A 
ATOM     62  H   UNL A   1      41.113  31.617  30.933  1.00  0.00     0.167 HD
ATOM     63  C   UNL A   1      43.443  32.366  32.349  1.00  0.00     0.074 A 
ATOM     64  C   UNL A   1      44.790  32.316  32.881  1.00  0.00     0.031 C 
ATOM     65  C   UNL A   1      42.591  33.407  32.512  1.00  0.00     0.031 A 
BRANCH  52  66
ATOM     66  C   UNL A   1      37.126  32.652  29.750  1.00  0.00    -0.014 A 
ATOM     67  C   UNL A   1      36.954  33.574  28.699  1.00  0.00     0.010 A 
ATOM     68  C   UNL A   1      36.065  32.437  30.648  1.00  0.00     0.010 A 
ATOM     69  C   UNL A   1      35.764  34.295  28.573  1.00  0.00     0.020 A 
ATOM     70  C   UNL A   1      34.863  33.140  30.511  1.00  0.00     0.020 A 
ATOM     71  C   UNL A   1      34.729  34.084  29.489  1.00  0.00     0.054 A 
BRANCH  71  72
ATOM     72  S   UNL A   1      33.212  35.068  29.339  1.00  0.00     0.124 S 
ATOM     73  O   UNL A   1      33.725  36.363  28.905  1.00  0.00    -0.237 OA
ATOM     74  O   UNL A   1      32.448  34.322  28.341  1.00  0.00    -0.237 OA
ATOM     75  O   UNL A   1      32.650  35.036  30.688  1.00  0.00    -0.744 OA
ENDBRANCH  71  72
ENDBRANCH  52  66
BRANCH  53  76
ATOM     76  C   UNL A   1      46.000  28.490  31.509  1.00  0.00    -0.014 A 
ATOM     77  C   UNL A   1      47.086  28.631  30.623  1.00  0.00     0.010 A 
ATOM     78  C   UNL A   1      46.129  27.631  32.614  1.00  0.00     0.010 A 
ATOM     79  C   UNL A   1      48.241  27.864  30.787  1.00  0.00     0.020 A 
ATOM     80  C   UNL A   1      47.300  26.890  32.804  1.00  0.00     0.020 A 
ATOM     81  C   UNL A   1      48.332  26.984  31.867  1.00  0.00     0.054 A 
BRANCH  81  82
ATOM     82  S   UNL A   1      49.809  25.943  32.013  1.00  0.00     0.124 S 
ATOM     83  O   UNL A   1      49.979  25.470  30.642  1.00  0.00    -0.237 OA
ATOM     84  O   UNL A   1      50.821  26.887  32.483  1.00  0.00    -0.237 OA
ATOM     85  O   UNL A   1      49.416  24.923  32.982  1.00  0.00    -0.744 OA
ENDBRANCH  81  82
ENDBRANCH  53  76
BRANCH  65  86
ATOM     86  C   UNL A   1      43.081  34.621  33.264  1.00  0.00    -0.014 A 
ATOM     87  C   UNL A   1      43.687  35.686  32.571  1.00  0.00     0.010 A 
ATOM     88  C   UNL A   1      43.048  34.655  34.670  1.00  0.00     0.010 A 
ATOM     89  C   UNL A   1      44.282  36.742  33.268  1.00  0.00     0.020 A 
ATOM     90  C   UNL A   1      43.613  35.727  35.370  1.00  0.00     0.020 A 
ATOM     91  C   UNL A   1      44.250  36.750  34.664  1.00  0.00     0.054 A 
BRANCH  91  92
ATOM     92  S   UNL A   1      45.055  38.112  35.551  1.00  0.00     0.124 S 
ATOM     93  O   UNL A   1      46.068  37.412  36.335  1.00  0.00    -0.237 OA
ATOM     94  O   UNL A   1      45.564  38.947  34.465  1.00  0.00    -0.237 OA
ATOM     95  O   UNL A   1      43.967  38.708  36.326  1.00  0.00    -0.744 OA
ENDBRANCH  91  92
ENDBRANCH  65  86
ENDBRANCH  39  40
ENDBRANCH  32  34
ENDBRANCH  31  32
ENDBRANCH  30  31
ENDBRANCH   1  30
TORSDOF 19
ENDMDL
