MODEL 1
REMARK VINA RESULT:      -9.8      0.000      0.000
REMARK SMILES C[C@@H](C(=O)OCCOCCOC(=O)c1ccc(-c2c3nc(c(-c4ccc(S(=O)(=O)[O-])cc4)c4ccc([nH]4)c(-c4ccc(S(=O)(=O)[O-])cc4)c4nc(c(-c5ccc(S(=O)(=O)[O-])cc5)c5ccc2[nH]5)C=C4)C=C3)cc1)c1ccc(C[C@H]2CCC[C@@H]2O)cc1
REMARK SMILES IDX 7 1 6 2 5 3 3 4 4 5 2 6 1 7 74 8 75 9 86 10 76 11 85 12
REMARK SMILES IDX 77 13 78 14 79 15 80 16 83 17 81 18 82 19 84 20 8 22 9 23
REMARK SMILES IDX 10 24 11 25 12 26 13 27 14 28 15 29 73 30 16 31 72 32 17 33
REMARK SMILES IDX 18 34 19 35 66 36 20 37 71 38 65 39 67 40 21 41 70 42 64 43
REMARK SMILES IDX 63 44 22 46 52 47 33 48 51 49 34 50 37 51 50 52 68 53 35 54
REMARK SMILES IDX 36 55 49 57 69 58 38 59 23 60 24 61 32 62 25 63 31 64 26 65
REMARK SMILES IDX 27 66 28 67 29 68 30 69 53 70 54 71 62 72 55 73 61 74 56 75
REMARK SMILES IDX 57 76 58 77 59 78 60 79 39 80 40 81 48 82 41 83 47 84 42 85
REMARK SMILES IDX 43 86 44 87 45 88 46 89
REMARK H PARENT 84 21 67 45 37 56
REMARK Flexibility Score: inf
ROOT
ATOM      1  C   UNL A   1      41.178  21.099  26.264  1.00  0.00     0.202 C 
ENDROOT
BRANCH   1   2
ATOM      2  C   UNL A   1      39.957  21.843  26.814  1.00  0.00     0.261 C 
BRANCH   2   3
ATOM      3  O   UNL A   1      39.011  22.077  25.757  1.00  0.00    -0.463 OA
BRANCH   3   4
ATOM      4  C   UNL A   1      37.931  22.834  26.084  1.00  0.00     0.313 C 
ATOM      5  O   UNL A   1      37.989  24.013  26.419  1.00  0.00    -0.252 OA
BRANCH   4   6
ATOM      6  C   UNL A   1      36.609  22.085  25.877  1.00  0.00     0.126 C 
ATOM      7  C   UNL A   1      36.602  21.078  24.722  1.00  0.00     0.025 C 
BRANCH   6   8
ATOM      8  C   UNL A   1      35.420  23.033  25.768  1.00  0.00    -0.034 A 
ATOM      9  C   UNL A   1      35.328  23.995  24.752  1.00  0.00     0.005 A 
ATOM     10  C   UNL A   1      34.381  22.965  26.706  1.00  0.00     0.005 A 
ATOM     11  C   UNL A   1      34.267  24.895  24.703  1.00  0.00     0.004 A 
ATOM     12  C   UNL A   1      33.344  23.902  26.687  1.00  0.00     0.004 A 
ATOM     13  C   UNL A   1      33.309  24.911  25.716  1.00  0.00    -0.048 A 
BRANCH  13  14
ATOM     14  C   UNL A   1      32.326  26.051  25.813  1.00  0.00     0.041 C 
BRANCH  14  15
ATOM     15  C   UNL A   1      32.855  27.312  26.531  1.00  0.00     0.022 C 
ATOM     16  C   UNL A   1      33.853  28.177  25.738  1.00  0.00     0.007 C 
ATOM     17  C   UNL A   1      31.792  28.308  27.011  1.00  0.00     0.117 C 
ATOM     18  C   UNL A   1      33.541  29.633  26.102  1.00  0.00     0.003 C 
ATOM     19  C   UNL A   1      32.601  29.565  27.295  1.00  0.00     0.032 C 
BRANCH  17  20
ATOM     20  O   UNL A   1      31.109  27.841  28.160  1.00  0.00    -0.393 OA
ATOM     21  H   UNL A   1      30.427  28.483  28.414  1.00  0.00     0.210 HD
ENDBRANCH  17  20
ENDBRANCH  14  15
ENDBRANCH  13  14
ENDBRANCH   6   8
ENDBRANCH   4   6
ENDBRANCH   3   4
ENDBRANCH   2   3
ENDBRANCH   1   2
BRANCH   1  22
ATOM     22  O   UNL A   1      42.073  21.881  25.465  1.00  0.00    -0.374 OA
BRANCH  22  23
ATOM     23  C   UNL A   1      42.268  23.241  25.854  1.00  0.00     0.202 C 
BRANCH  23  24
ATOM     24  C   UNL A   1      43.330  24.037  25.095  1.00  0.00     0.261 C 
BRANCH  24  25
ATOM     25  O   UNL A   1      43.807  25.154  25.860  1.00  0.00    -0.460 OA
BRANCH  25  26
ATOM     26  C   UNL A   1      43.035  26.262  25.772  1.00  0.00     0.338 C 
ATOM     27  O   UNL A   1      42.353  26.610  24.817  1.00  0.00    -0.246 OA
BRANCH  26  28
ATOM     28  C   UNL A   1      42.964  26.932  27.081  1.00  0.00     0.060 A 
ATOM     29  C   UNL A   1      42.122  26.362  28.045  1.00  0.00     0.016 A 
ATOM     30  C   UNL A   1      43.651  28.118  27.350  1.00  0.00     0.016 A 
ATOM     31  C   UNL A   1      41.911  27.010  29.257  1.00  0.00     0.010 A 
ATOM     32  C   UNL A   1      43.432  28.773  28.566  1.00  0.00     0.010 A 
ATOM     33  C   UNL A   1      42.530  28.241  29.504  1.00  0.00    -0.014 A 
BRANCH  33  34
ATOM     34  C   UNL A   1      42.095  29.044  30.672  1.00  0.00     0.031 A 
ATOM     35  C   UNL A   1      42.904  28.971  31.940  1.00  0.00     0.074 A 
ATOM     36  C   UNL A   1      41.030  29.860  30.589  1.00  0.00     0.049 A 
ATOM     37  N   UNL A   1      42.715  29.587  33.077  1.00  0.00    -0.248 NA
ATOM     38  C   UNL A   1      44.084  28.089  31.920  1.00  0.00     0.031 C 
ATOM     39  C   UNL A   1      40.201  30.050  29.399  1.00  0.00     0.029 A 
ATOM     40  N   UNL A   1      40.467  30.686  31.528  1.00  0.00    -0.354 N 
ATOM     41  C   UNL A   1      43.744  29.161  33.911  1.00  0.00     0.074 A 
ATOM     42  C   UNL A   1      44.539  28.217  33.157  1.00  0.00     0.031 C 
ATOM     43  C   UNL A   1      39.232  30.938  29.683  1.00  0.00     0.029 A 
ATOM     44  C   UNL A   1      39.354  31.353  31.078  1.00  0.00     0.049 A 
ATOM     45  H   UNL A   1      40.827  30.790  32.439  1.00  0.00     0.167 HD
ATOM     46  C   UNL A   1      44.005  29.528  35.187  1.00  0.00     0.031 A 
ATOM     47  C   UNL A   1      38.520  32.190  31.725  1.00  0.00     0.031 A 
ATOM     48  C   UNL A   1      43.207  30.462  35.935  1.00  0.00     0.049 A 
ATOM     49  C   UNL A   1      38.791  32.530  33.167  1.00  0.00     0.074 A 
ATOM     50  C   UNL A   1      43.397  30.913  37.230  1.00  0.00     0.029 A 
ATOM     51  N   UNL A   1      42.062  31.083  35.459  1.00  0.00    -0.354 N 
ATOM     52  N   UNL A   1      39.781  32.137  33.935  1.00  0.00    -0.248 NA
ATOM     53  C   UNL A   1      37.836  33.429  33.829  1.00  0.00     0.031 C 
ATOM     54  C   UNL A   1      42.336  31.765  37.555  1.00  0.00     0.029 A 
ATOM     55  C   UNL A   1      41.518  31.891  36.442  1.00  0.00     0.049 A 
ATOM     56  H   UNL A   1      41.691  30.966  34.554  1.00  0.00     0.167 HD
ATOM     57  C   UNL A   1      39.582  32.765  35.161  1.00  0.00     0.074 A 
ATOM     58  C   UNL A   1      38.386  33.570  35.029  1.00  0.00     0.031 C 
ATOM     59  C   UNL A   1      40.325  32.685  36.292  1.00  0.00     0.031 A 
BRANCH  46  60
ATOM     60  C   UNL A   1      45.184  28.888  35.869  1.00  0.00    -0.014 A 
ATOM     61  C   UNL A   1      46.461  29.479  35.830  1.00  0.00     0.010 A 
ATOM     62  C   UNL A   1      45.004  27.693  36.590  1.00  0.00     0.010 A 
ATOM     63  C   UNL A   1      47.541  28.868  36.473  1.00  0.00     0.020 A 
ATOM     64  C   UNL A   1      46.077  27.094  37.255  1.00  0.00     0.020 A 
ATOM     65  C   UNL A   1      47.342  27.677  37.178  1.00  0.00     0.054 A 
BRANCH  65  66
ATOM     66  S   UNL A   1      48.757  26.918  38.024  1.00  0.00     0.124 S 
ATOM     67  O   UNL A   1      49.680  28.044  38.136  1.00  0.00    -0.237 OA
ATOM     68  O   UNL A   1      48.171  26.459  39.281  1.00  0.00    -0.237 OA
ATOM     69  O   UNL A   1      49.178  25.857  37.112  1.00  0.00    -0.744 OA
ENDBRANCH  65  66
ENDBRANCH  46  60
BRANCH  47  70
ATOM     70  C   UNL A   1      37.338  32.755  31.020  1.00  0.00    -0.014 A 
ATOM     71  C   UNL A   1      37.496  33.695  29.987  1.00  0.00     0.010 A 
ATOM     72  C   UNL A   1      36.039  32.354  31.384  1.00  0.00     0.010 A 
ATOM     73  C   UNL A   1      36.379  34.236  29.343  1.00  0.00     0.020 A 
ATOM     74  C   UNL A   1      34.920  32.872  30.727  1.00  0.00     0.020 A 
ATOM     75  C   UNL A   1      35.098  33.819  29.717  1.00  0.00     0.054 A 
BRANCH  75  76
ATOM     76  S   UNL A   1      33.663  34.497  28.837  1.00  0.00     0.124 S 
ATOM     77  O   UNL A   1      34.225  35.695  28.219  1.00  0.00    -0.237 OA
ATOM     78  O   UNL A   1      33.315  33.415  27.920  1.00  0.00    -0.237 OA
ATOM     79  O   UNL A   1      32.692  34.739  29.902  1.00  0.00    -0.744 OA
ENDBRANCH  75  76
ENDBRANCH  47  70
BRANCH  59  80
ATOM     80  C   UNL A   1      39.888  33.515  37.470  1.00  0.00    -0.014 A 
ATOM     81  C   UNL A   1      39.044  32.987  38.462  1.00  0.00     0.010 A 
ATOM     82  C   UNL A   1      40.378  34.827  37.613  1.00  0.00     0.010 A 
ATOM     83  C   UNL A   1      38.673  33.767  39.562  1.00  0.00     0.020 A 
ATOM     84  C   UNL A   1      40.032  35.599  38.724  1.00  0.00     0.020 A 
ATOM     85  C   UNL A   1      39.170  35.069  39.684  1.00  0.00     0.054 A 
BRANCH  85  86
ATOM     86  S   UNL A   1      38.710  36.044  41.143  1.00  0.00     0.124 S 
ATOM     87  O   UNL A   1      38.471  37.363  40.563  1.00  0.00    -0.237 OA
ATOM     88  O   UNL A   1      37.524  35.350  41.635  1.00  0.00    -0.237 OA
ATOM     89  O   UNL A   1      39.884  35.948  42.008  1.00  0.00    -0.744 OA
ENDBRANCH  85  86
ENDBRANCH  59  80
ENDBRANCH  33  34
ENDBRANCH  26  28
ENDBRANCH  25  26
ENDBRANCH  24  25
ENDBRANCH  23  24
ENDBRANCH  22  23
ENDBRANCH   1  22
TORSDOF 21
ENDMDL
MODEL 2
REMARK VINA RESULT:      -9.7      4.436     11.512
REMARK SMILES C[C@@H](C(=O)OCCOCCOC(=O)c1ccc(-c2c3nc(c(-c4ccc(S(=O)(=O)[O-])cc4)c4ccc([nH]4)c(-c4ccc(S(=O)(=O)[O-])cc4)c4nc(c(-c5ccc(S(=O)(=O)[O-])cc5)c5ccc2[nH]5)C=C4)C=C3)cc1)c1ccc(C[C@H]2CCC[C@@H]2O)cc1
REMARK SMILES IDX 7 1 6 2 5 3 3 4 4 5 2 6 1 7 74 8 75 9 86 10 76 11 85 12
REMARK SMILES IDX 77 13 78 14 79 15 80 16 83 17 81 18 82 19 84 20 8 22 9 23
REMARK SMILES IDX 10 24 11 25 12 26 13 27 14 28 15 29 73 30 16 31 72 32 17 33
REMARK SMILES IDX 18 34 19 35 66 36 20 37 71 38 65 39 67 40 21 41 70 42 64 43
REMARK SMILES IDX 63 44 22 46 52 47 33 48 51 49 34 50 37 51 50 52 68 53 35 54
REMARK SMILES IDX 36 55 49 57 69 58 38 59 23 60 24 61 32 62 25 63 31 64 26 65
REMARK SMILES IDX 27 66 28 67 29 68 30 69 53 70 54 71 62 72 55 73 61 74 56 75
REMARK SMILES IDX 57 76 58 77 59 78 60 79 39 80 40 81 48 82 41 83 47 84 42 85
REMARK SMILES IDX 43 86 44 87 45 88 46 89
REMARK H PARENT 84 21 67 45 37 56
REMARK Flexibility Score: inf
ROOT
ATOM      1  C   UNL A   1      37.081  34.027  31.100  1.00  0.00     0.202 C 
ENDROOT
BRANCH   1   2
ATOM      2  C   UNL A   1      37.670  34.217  32.501  1.00  0.00     0.261 C 
BRANCH   2   3
ATOM      3  O   UNL A   1      38.669  33.215  32.750  1.00  0.00    -0.463 OA
BRANCH   3   4
ATOM      4  C   UNL A   1      38.288  32.179  33.543  1.00  0.00     0.313 C 
ATOM      5  O   UNL A   1      37.810  32.307  34.665  1.00  0.00    -0.252 OA
BRANCH   4   6
ATOM      6  C   UNL A   1      38.416  30.825  32.834  1.00  0.00     0.126 C 
ATOM      7  C   UNL A   1      37.187  29.916  32.935  1.00  0.00     0.025 C 
BRANCH   6   8
ATOM      8  C   UNL A   1      39.675  30.073  33.251  1.00  0.00    -0.034 A 
ATOM      9  C   UNL A   1      40.735  30.710  33.913  1.00  0.00     0.005 A 
ATOM     10  C   UNL A   1      39.803  28.707  32.967  1.00  0.00     0.005 A 
ATOM     11  C   UNL A   1      41.904  30.024  34.231  1.00  0.00     0.004 A 
ATOM     12  C   UNL A   1      40.996  28.032  33.239  1.00  0.00     0.004 A 
ATOM     13  C   UNL A   1      42.079  28.701  33.824  1.00  0.00    -0.048 A 
BRANCH  13  14
ATOM     14  C   UNL A   1      43.436  28.050  33.923  1.00  0.00     0.041 C 
BRANCH  14  15
ATOM     15  C   UNL A   1      43.420  26.506  33.936  1.00  0.00     0.022 C 
ATOM     16  C   UNL A   1      44.117  25.809  32.752  1.00  0.00     0.007 C 
ATOM     17  C   UNL A   1      44.028  25.839  35.177  1.00  0.00     0.117 C 
ATOM     18  C   UNL A   1      44.788  24.557  33.327  1.00  0.00     0.003 C 
ATOM     19  C   UNL A   1      44.225  24.398  34.730  1.00  0.00     0.032 C 
BRANCH  17  20
ATOM     20  O   UNL A   1      43.176  25.938  36.303  1.00  0.00    -0.393 OA
ATOM     21  H   UNL A   1      42.458  25.290  36.223  1.00  0.00     0.210 HD
ENDBRANCH  17  20
ENDBRANCH  14  15
ENDBRANCH  13  14
ENDBRANCH   6   8
ENDBRANCH   4   6
ENDBRANCH   3   4
ENDBRANCH   2   3
ENDBRANCH   1   2
BRANCH   1  22
ATOM     22  O   UNL A   1      35.670  34.243  30.986  1.00  0.00    -0.374 OA
BRANCH  22  23
ATOM     23  C   UNL A   1      34.862  33.104  30.692  1.00  0.00     0.202 C 
BRANCH  23  24
ATOM     24  C   UNL A   1      34.900  32.573  29.258  1.00  0.00     0.261 C 
BRANCH  24  25
ATOM     25  O   UNL A   1      34.490  31.200  29.187  1.00  0.00    -0.460 OA
BRANCH  25  26
ATOM     26  C   UNL A   1      34.844  30.570  28.043  1.00  0.00     0.338 C 
ATOM     27  O   UNL A   1      34.244  30.586  26.976  1.00  0.00    -0.246 OA
BRANCH  26  28
ATOM     28  C   UNL A   1      36.190  29.988  28.185  1.00  0.00     0.060 A 
ATOM     29  C   UNL A   1      36.501  29.396  29.416  1.00  0.00     0.016 A 
ATOM     30  C   UNL A   1      37.146  30.066  27.171  1.00  0.00     0.016 A 
ATOM     31  C   UNL A   1      37.791  28.939  29.663  1.00  0.00     0.010 A 
ATOM     32  C   UNL A   1      38.446  29.613  27.423  1.00  0.00     0.010 A 
ATOM     33  C   UNL A   1      38.781  29.087  28.683  1.00  0.00    -0.014 A 
BRANCH  33  34
ATOM     34  C   UNL A   1      40.197  28.845  29.048  1.00  0.00     0.031 A 
ATOM     35  C   UNL A   1      40.816  27.518  28.697  1.00  0.00     0.074 A 
ATOM     36  C   UNL A   1      40.931  29.806  29.635  1.00  0.00     0.049 A 
ATOM     37  N   UNL A   1      42.033  27.091  28.912  1.00  0.00    -0.248 NA
ATOM     38  C   UNL A   1      39.949  26.546  28.009  1.00  0.00     0.031 C 
ATOM     39  C   UNL A   1      40.453  31.145  29.976  1.00  0.00     0.029 A 
ATOM     40  N   UNL A   1      42.240  29.801  30.043  1.00  0.00    -0.354 N 
ATOM     41  C   UNL A   1      42.075  25.800  28.397  1.00  0.00     0.074 A 
ATOM     42  C   UNL A   1      40.757  25.505  27.880  1.00  0.00     0.031 C 
ATOM     43  C   UNL A   1      41.459  31.833  30.545  1.00  0.00     0.029 A 
ATOM     44  C   UNL A   1      42.638  30.974  30.636  1.00  0.00     0.049 A 
ATOM     45  H   UNL A   1      42.839  29.028  29.922  1.00  0.00     0.167 HD
ATOM     46  C   UNL A   1      43.120  24.941  28.353  1.00  0.00     0.031 A 
ATOM     47  C   UNL A   1      43.813  31.309  31.202  1.00  0.00     0.031 A 
ATOM     48  C   UNL A   1      44.427  25.237  28.875  1.00  0.00     0.049 A 
ATOM     49  C   UNL A   1      44.940  30.310  31.203  1.00  0.00     0.074 A 
ATOM     50  C   UNL A   1      45.558  24.439  28.865  1.00  0.00     0.029 A 
ATOM     51  N   UNL A   1      44.777  26.420  29.507  1.00  0.00    -0.354 N 
ATOM     52  N   UNL A   1      44.972  29.102  30.692  1.00  0.00    -0.248 NA
ATOM     53  C   UNL A   1      46.192  30.722  31.855  1.00  0.00     0.031 C 
ATOM     54  C   UNL A   1      46.577  25.119  29.539  1.00  0.00     0.029 A 
ATOM     55  C   UNL A   1      46.098  26.364  29.917  1.00  0.00     0.049 A 
ATOM     56  H   UNL A   1      44.175  27.186  29.644  1.00  0.00     0.167 HD
ATOM     57  C   UNL A   1      46.255  28.621  30.934  1.00  0.00     0.074 A 
ATOM     58  C   UNL A   1      46.971  29.672  31.628  1.00  0.00     0.031 C 
ATOM     59  C   UNL A   1      46.793  27.420  30.608  1.00  0.00     0.031 A 
BRANCH  46  60
ATOM     60  C   UNL A   1      42.880  23.582  27.751  1.00  0.00    -0.014 A 
ATOM     61  C   UNL A   1      43.305  23.275  26.446  1.00  0.00     0.010 A 
ATOM     62  C   UNL A   1      42.249  22.586  28.518  1.00  0.00     0.010 A 
ATOM     63  C   UNL A   1      43.074  22.005  25.908  1.00  0.00     0.020 A 
ATOM     64  C   UNL A   1      42.039  21.308  27.993  1.00  0.00     0.020 A 
ATOM     65  C   UNL A   1      42.439  21.032  26.685  1.00  0.00     0.054 A 
BRANCH  65  66
ATOM     66  S   UNL A   1      42.173  19.384  25.971  1.00  0.00     0.124 S 
ATOM     67  O   UNL A   1      42.716  18.515  27.011  1.00  0.00    -0.237 OA
ATOM     68  O   UNL A   1      40.722  19.336  25.807  1.00  0.00    -0.237 OA
ATOM     69  O   UNL A   1      42.937  19.418  24.726  1.00  0.00    -0.744 OA
ENDBRANCH  65  66
ENDBRANCH  46  60
BRANCH  47  70
ATOM     70  C   UNL A   1      43.982  32.648  31.830  1.00  0.00    -0.014 A 
ATOM     71  C   UNL A   1      44.378  33.758  31.065  1.00  0.00     0.010 A 
ATOM     72  C   UNL A   1      43.747  32.817  33.208  1.00  0.00     0.010 A 
ATOM     73  C   UNL A   1      44.554  35.008  31.667  1.00  0.00     0.020 A 
ATOM     74  C   UNL A   1      43.897  34.069  33.809  1.00  0.00     0.020 A 
ATOM     75  C   UNL A   1      44.311  35.154  33.036  1.00  0.00     0.054 A 
BRANCH  75  76
ATOM     76  S   UNL A   1      44.498  36.795  33.789  1.00  0.00     0.124 S 
ATOM     77  O   UNL A   1      43.357  37.516  33.232  1.00  0.00    -0.237 OA
ATOM     78  O   UNL A   1      44.424  36.498  35.216  1.00  0.00    -0.237 OA
ATOM     79  O   UNL A   1      45.809  37.239  33.319  1.00  0.00    -0.744 OA
ENDBRANCH  75  76
ENDBRANCH  47  70
BRANCH  59  80
ATOM     80  C   UNL A   1      48.237  27.186  30.967  1.00  0.00    -0.014 A 
ATOM     81  C   UNL A   1      48.595  26.448  32.109  1.00  0.00     0.010 A 
ATOM     82  C   UNL A   1      49.248  27.664  30.113  1.00  0.00     0.010 A 
ATOM     83  C   UNL A   1      49.942  26.219  32.407  1.00  0.00     0.020 A 
ATOM     84  C   UNL A   1      50.594  27.413  30.393  1.00  0.00     0.020 A 
ATOM     85  C   UNL A   1      50.932  26.705  31.546  1.00  0.00     0.054 A 
BRANCH  85  86
ATOM     86  S   UNL A   1      52.670  26.356  31.931  1.00  0.00     0.124 S 
ATOM     87  O   UNL A   1      53.128  27.639  32.457  1.00  0.00    -0.237 OA
ATOM     88  O   UNL A   1      52.573  25.274  32.908  1.00  0.00    -0.237 OA
ATOM     89  O   UNL A   1      53.240  25.972  30.642  1.00  0.00    -0.744 OA
ENDBRANCH  85  86
ENDBRANCH  59  80
ENDBRANCH  33  34
ENDBRANCH  26  28
ENDBRANCH  25  26
ENDBRANCH  24  25
ENDBRANCH  23  24
ENDBRANCH  22  23
ENDBRANCH   1  22
TORSDOF 21
ENDMDL
MODEL 3
REMARK VINA RESULT:      -9.3      6.673     12.265
REMARK SMILES C[C@@H](C(=O)OCCOCCOC(=O)c1ccc(-c2c3nc(c(-c4ccc(S(=O)(=O)[O-])cc4)c4ccc([nH]4)c(-c4ccc(S(=O)(=O)[O-])cc4)c4nc(c(-c5ccc(S(=O)(=O)[O-])cc5)c5ccc2[nH]5)C=C4)C=C3)cc1)c1ccc(C[C@H]2CCC[C@@H]2O)cc1
REMARK SMILES IDX 7 1 6 2 5 3 3 4 4 5 2 6 1 7 74 8 75 9 86 10 76 11 85 12
REMARK SMILES IDX 77 13 78 14 79 15 80 16 83 17 81 18 82 19 84 20 8 22 9 23
REMARK SMILES IDX 10 24 11 25 12 26 13 27 14 28 15 29 73 30 16 31 72 32 17 33
REMARK SMILES IDX 18 34 19 35 66 36 20 37 71 38 65 39 67 40 21 41 70 42 64 43
REMARK SMILES IDX 63 44 22 46 52 47 33 48 51 49 34 50 37 51 50 52 68 53 35 54
REMARK SMILES IDX 36 55 49 57 69 58 38 59 23 60 24 61 32 62 25 63 31 64 26 65
REMARK SMILES IDX 27 66 28 67 29 68 30 69 53 70 54 71 62 72 55 73 61 74 56 75
REMARK SMILES IDX 57 76 58 77 59 78 60 79 39 80 40 81 48 82 41 83 47 84 42 85
REMARK SMILES IDX 43 86 44 87 45 88 46 89
REMARK H PARENT 84 21 67 45 37 56
REMARK Flexibility Score: inf
ROOT
ATOM      1  C   UNL A   1      33.309  30.751  26.549  1.00  0.00     0.202 C 
ENDROOT
BRANCH   1   2
ATOM      2  C   UNL A   1      31.801  30.483  26.540  1.00  0.00     0.261 C 
BRANCH   2   3
ATOM      3  O   UNL A   1      31.407  29.947  25.266  1.00  0.00    -0.463 OA
BRANCH   3   4
ATOM      4  C   UNL A   1      31.401  28.591  25.168  1.00  0.00     0.313 C 
ATOM      5  O   UNL A   1      31.604  27.830  26.108  1.00  0.00    -0.252 OA
BRANCH   4   6
ATOM      6  C   UNL A   1      30.999  28.110  23.769  1.00  0.00     0.126 C 
ATOM      7  C   UNL A   1      29.491  27.983  23.530  1.00  0.00     0.025 C 
BRANCH   6   8
ATOM      8  C   UNL A   1      31.715  26.822  23.375  1.00  0.00    -0.034 A 
ATOM      9  C   UNL A   1      31.085  25.571  23.449  1.00  0.00     0.005 A 
ATOM     10  C   UNL A   1      33.043  26.865  22.932  1.00  0.00     0.005 A 
ATOM     11  C   UNL A   1      31.772  24.398  23.146  1.00  0.00     0.004 A 
ATOM     12  C   UNL A   1      33.747  25.685  22.679  1.00  0.00     0.004 A 
ATOM     13  C   UNL A   1      33.131  24.437  22.838  1.00  0.00    -0.048 A 
BRANCH  13  14
ATOM     14  C   UNL A   1      33.933  23.160  22.781  1.00  0.00     0.041 C 
BRANCH  14  15
ATOM     15  C   UNL A   1      34.202  22.496  24.149  1.00  0.00     0.022 C 
ATOM     16  C   UNL A   1      34.919  23.366  25.198  1.00  0.00     0.007 C 
ATOM     17  C   UNL A   1      32.969  21.956  24.887  1.00  0.00     0.117 C 
ATOM     18  C   UNL A   1      34.302  23.001  26.553  1.00  0.00     0.003 C 
ATOM     19  C   UNL A   1      33.482  21.745  26.304  1.00  0.00     0.032 C 
BRANCH  17  20
ATOM     20  O   UNL A   1      32.488  20.757  24.308  1.00  0.00    -0.393 OA
ATOM     21  H   UNL A   1      33.228  20.272  23.909  1.00  0.00     0.210 HD
ENDBRANCH  17  20
ENDBRANCH  14  15
ENDBRANCH  13  14
ENDBRANCH   6   8
ENDBRANCH   4   6
ENDBRANCH   3   4
ENDBRANCH   2   3
ENDBRANCH   1   2
BRANCH   1  22
ATOM     22  O   UNL A   1      33.775  31.637  27.572  1.00  0.00    -0.374 OA
BRANCH  22  23
ATOM     23  C   UNL A   1      35.176  31.632  27.845  1.00  0.00     0.202 C 
BRANCH  23  24
ATOM     24  C   UNL A   1      35.662  30.732  28.982  1.00  0.00     0.261 C 
BRANCH  24  25
ATOM     25  O   UNL A   1      36.721  29.862  28.559  1.00  0.00    -0.460 OA
BRANCH  25  26
ATOM     26  C   UNL A   1      37.493  29.390  29.566  1.00  0.00     0.338 C 
ATOM     27  O   UNL A   1      37.139  29.147  30.712  1.00  0.00    -0.246 OA
BRANCH  26  28
ATOM     28  C   UNL A   1      38.820  29.014  29.049  1.00  0.00     0.060 A 
ATOM     29  C   UNL A   1      39.770  28.588  29.986  1.00  0.00     0.016 A 
ATOM     30  C   UNL A   1      39.153  29.129  27.698  1.00  0.00     0.016 A 
ATOM     31  C   UNL A   1      41.078  28.337  29.585  1.00  0.00     0.010 A 
ATOM     32  C   UNL A   1      40.471  28.884  27.298  1.00  0.00     0.010 A 
ATOM     33  C   UNL A   1      41.446  28.528  28.248  1.00  0.00    -0.014 A 
BRANCH  33  34
ATOM     34  C   UNL A   1      42.883  28.518  27.887  1.00  0.00     0.031 A 
ATOM     35  C   UNL A   1      43.465  27.271  27.276  1.00  0.00     0.074 A 
ATOM     36  C   UNL A   1      43.643  29.614  28.053  1.00  0.00     0.049 A 
ATOM     37  N   UNL A   1      44.689  27.038  26.879  1.00  0.00    -0.248 NA
ATOM     38  C   UNL A   1      42.544  26.137  27.085  1.00  0.00     0.031 C 
ATOM     39  C   UNL A   1      43.177  30.893  28.588  1.00  0.00     0.029 A 
ATOM     40  N   UNL A   1      44.971  29.825  27.783  1.00  0.00    -0.354 N 
ATOM     41  C   UNL A   1      44.688  25.732  26.401  1.00  0.00     0.074 A 
ATOM     42  C   UNL A   1      43.349  25.215  26.580  1.00  0.00     0.031 C 
ATOM     43  C   UNL A   1      44.207  31.757  28.608  1.00  0.00     0.029 A 
ATOM     44  C   UNL A   1      45.408  31.084  28.118  1.00  0.00     0.049 A 
ATOM     45  H   UNL A   1      45.556  29.139  27.386  1.00  0.00     0.167 HD
ATOM     46  C   UNL A   1      45.709  25.030  25.858  1.00  0.00     0.031 A 
ATOM     47  C   UNL A   1      46.640  31.624  28.051  1.00  0.00     0.031 A 
ATOM     48  C   UNL A   1      47.041  25.547  25.689  1.00  0.00     0.049 A 
ATOM     49  C   UNL A   1      47.777  30.798  27.507  1.00  0.00     0.074 A 
ATOM     50  C   UNL A   1      48.143  24.919  25.134  1.00  0.00     0.029 A 
ATOM     51  N   UNL A   1      47.454  26.811  26.081  1.00  0.00    -0.354 N 
ATOM     52  N   UNL A   1      47.755  29.573  27.038  1.00  0.00    -0.248 NA
ATOM     53  C   UNL A   1      49.103  31.430  27.479  1.00  0.00     0.031 C 
ATOM     54  C   UNL A   1      49.236  25.786  25.240  1.00  0.00     0.029 A 
ATOM     55  C   UNL A   1      48.801  26.974  25.807  1.00  0.00     0.049 A 
ATOM     56  H   UNL A   1      46.875  27.491  26.494  1.00  0.00     0.167 HD
ATOM     57  C   UNL A   1      49.057  29.299  26.633  1.00  0.00     0.074 A 
ATOM     58  C   UNL A   1      49.838  30.489  26.902  1.00  0.00     0.031 C 
ATOM     59  C   UNL A   1      49.561  28.166  26.084  1.00  0.00     0.031 A 
BRANCH  46  60
ATOM     60  C   UNL A   1      45.433  23.611  25.440  1.00  0.00    -0.014 A 
ATOM     61  C   UNL A   1      45.172  23.282  24.096  1.00  0.00     0.010 A 
ATOM     62  C   UNL A   1      45.471  22.584  26.401  1.00  0.00     0.010 A 
ATOM     63  C   UNL A   1      44.922  21.956  23.730  1.00  0.00     0.020 A 
ATOM     64  C   UNL A   1      45.246  21.255  26.034  1.00  0.00     0.020 A 
ATOM     65  C   UNL A   1      44.957  20.952  24.703  1.00  0.00     0.054 A 
BRANCH  65  66
ATOM     66  S   UNL A   1      44.652  19.236  24.196  1.00  0.00     0.124 S 
ATOM     67  O   UNL A   1      43.502  18.879  25.022  1.00  0.00    -0.237 OA
ATOM     68  O   UNL A   1      44.382  19.367  22.766  1.00  0.00    -0.237 OA
ATOM     69  O   UNL A   1      45.896  18.549  24.531  1.00  0.00    -0.744 OA
ENDBRANCH  65  66
ENDBRANCH  46  60
BRANCH  47  70
ATOM     70  C   UNL A   1      46.870  33.015  28.527  1.00  0.00    -0.014 A 
ATOM     71  C   UNL A   1      46.754  34.105  27.648  1.00  0.00     0.010 A 
ATOM     72  C   UNL A   1      47.210  33.255  29.871  1.00  0.00     0.010 A 
ATOM     73  C   UNL A   1      46.991  35.408  28.099  1.00  0.00     0.020 A 
ATOM     74  C   UNL A   1      47.423  34.556  30.333  1.00  0.00     0.020 A 
ATOM     75  C   UNL A   1      47.323  35.624  29.439  1.00  0.00     0.054 A 
BRANCH  75  76
ATOM     76  S   UNL A   1      47.580  37.326  30.015  1.00  0.00     0.124 S 
ATOM     77  O   UNL A   1      46.844  37.333  31.276  1.00  0.00    -0.237 OA
ATOM     78  O   UNL A   1      49.033  37.405  30.130  1.00  0.00    -0.237 OA
ATOM     79  O   UNL A   1      47.000  38.139  28.947  1.00  0.00    -0.744 OA
ENDBRANCH  75  76
ENDBRANCH  47  70
BRANCH  59  80
ATOM     80  C   UNL A   1      51.018  28.167  25.704  1.00  0.00    -0.014 A 
ATOM     81  C   UNL A   1      52.011  27.768  26.617  1.00  0.00     0.010 A 
ATOM     82  C   UNL A   1      51.392  28.518  24.394  1.00  0.00     0.010 A 
ATOM     83  C   UNL A   1      53.355  27.750  26.233  1.00  0.00     0.020 A 
ATOM     84  C   UNL A   1      52.732  28.475  23.999  1.00  0.00     0.020 A 
ATOM     85  C   UNL A   1      53.706  28.104  24.927  1.00  0.00     0.054 A 
BRANCH  85  86
ATOM     86  S   UNL A   1      55.452  28.030  24.441  1.00  0.00     0.124 S 
ATOM     87  O   UNL A   1      56.129  28.073  25.735  1.00  0.00    -0.237 OA
ATOM     88  O   UNL A   1      55.536  26.756  23.731  1.00  0.00    -0.237 OA
ATOM     89  O   UNL A   1      55.631  29.215  23.605  1.00  0.00    -0.744 OA
ENDBRANCH  85  86
ENDBRANCH  59  80
ENDBRANCH  33  34
ENDBRANCH  26  28
ENDBRANCH  25  26
ENDBRANCH  24  25
ENDBRANCH  23  24
ENDBRANCH  22  23
ENDBRANCH   1  22
TORSDOF 21
ENDMDL
