MODEL 1
REMARK VINA RESULT:     -11.4      0.000      0.000
REMARK SMILES O=C(OCCOCCOC(=O)[C@H]1[C@@H]2C[C@H]3C[C@@H](C2)C[C@]1(n1ncc(N2CCN(c4ccc(F)cc4)CC2)c(Cl)c1=O)C3)c1ccc(-c2c3nc(c(-c4ccc(S(=O)(=O)[O-])cc4)c4ccc([nH]4)c(-c4ccc(S(=O)(=O)[O-])cc4)c4nc(c(-c5ccc(S(=O)(=O)[O-])cc5)c5ccc2[nH]5)C=C4)C=C3)cc1
REMARK SMILES IDX 6 1 5 2 4 3 3 4 2 5 1 6 43 7 44 8 102 9 45 10 101 11 46 12
REMARK SMILES IDX 47 13 48 14 95 15 49 16 100 17 94 18 96 19 50 20 99 21 93 22
REMARK SMILES IDX 92 23 51 25 81 26 62 27 80 28 63 29 66 30 79 31 97 32 64 33
REMARK SMILES IDX 65 34 78 36 98 37 67 38 52 39 53 40 61 41 54 42 60 43 55 44
REMARK SMILES IDX 56 45 57 46 58 47 59 48 82 49 83 50 91 51 84 52 90 53 85 54
REMARK SMILES IDX 86 55 87 56 88 57 89 58 68 59 69 60 77 61 70 62 76 63 71 64
REMARK SMILES IDX 72 65 73 66 74 67 75 68 7 69 8 70 9 71 10 72 11 73 12 74
REMARK SMILES IDX 13 75 20 76 18 77 14 78 42 79 19 80 17 81 15 82 16 83 21 84
REMARK SMILES IDX 22 85 40 86 23 87 38 88 41 89 24 90 39 91 25 92 26 93 37 94
REMARK SMILES IDX 27 95 36 96 28 97 29 98 30 99 35 100 31 101 34 102 32 103
REMARK SMILES IDX 33 104
REMARK H PARENT 96 24 66 35
REMARK Flexibility Score: inf
ROOT
ATOM      1  O   UNL A   1      39.000  22.136  26.255  1.00  0.00    -0.374 OA
ENDROOT
BRANCH   1   2
ATOM      2  C   UNL A   1      39.510  23.219  27.024  1.00  0.00     0.202 C 
BRANCH   2   3
ATOM      3  C   UNL A   1      40.870  23.676  26.504  1.00  0.00     0.261 C 
BRANCH   3   4
ATOM      4  O   UNL A   1      40.794  24.968  25.874  1.00  0.00    -0.460 OA
BRANCH   4   5
ATOM      5  C   UNL A   1      41.441  26.126  26.138  1.00  0.00     0.338 C 
ATOM      6  O   UNL A   1      42.213  26.543  25.270  1.00  0.00    -0.246 OA
BRANCH   5   7
ATOM      7  C   UNL A   1      41.353  26.924  27.413  1.00  0.00     0.060 A 
ATOM      8  C   UNL A   1      42.192  28.056  27.503  1.00  0.00     0.016 A 
ATOM      9  C   UNL A   1      40.581  26.616  28.534  1.00  0.00     0.016 A 
ATOM     10  C   UNL A   1      42.275  28.820  28.675  1.00  0.00     0.010 A 
ATOM     11  C   UNL A   1      40.711  27.323  29.727  1.00  0.00     0.010 A 
ATOM     12  C   UNL A   1      41.537  28.442  29.797  1.00  0.00    -0.014 A 
BRANCH  12  13
ATOM     13  C   UNL A   1      41.382  29.311  30.975  1.00  0.00     0.031 A 
ATOM     14  C   UNL A   1      42.111  29.049  32.250  1.00  0.00     0.074 A 
ATOM     15  C   UNL A   1      40.391  30.219  30.899  1.00  0.00     0.049 A 
ATOM     16  N   UNL A   1      42.033  29.702  33.378  1.00  0.00    -0.248 NA
ATOM     17  C   UNL A   1      43.031  27.901  32.279  1.00  0.00     0.031 C 
ATOM     18  C   UNL A   1      39.573  30.450  29.704  1.00  0.00     0.029 A 
ATOM     19  N   UNL A   1      39.862  31.060  31.836  1.00  0.00    -0.354 N 
ATOM     20  C   UNL A   1      42.905  29.063  34.250  1.00  0.00     0.074 A 
ATOM     21  C   UNL A   1      43.472  27.942  33.532  1.00  0.00     0.031 C 
ATOM     22  C   UNL A   1      38.616  31.339  29.993  1.00  0.00     0.029 A 
ATOM     23  C   UNL A   1      38.762  31.748  31.385  1.00  0.00     0.049 A 
ATOM     24  H   UNL A   1      40.230  31.162  32.744  1.00  0.00     0.167 HD
ATOM     25  C   UNL A   1      43.194  29.408  35.528  1.00  0.00     0.031 A 
ATOM     26  C   UNL A   1      37.957  32.621  32.019  1.00  0.00     0.031 A 
ATOM     27  C   UNL A   1      42.561  30.517  36.201  1.00  0.00     0.049 A 
ATOM     28  C   UNL A   1      38.301  32.999  33.423  1.00  0.00     0.074 A 
ATOM     29  C   UNL A   1      42.861  31.050  37.441  1.00  0.00     0.029 A 
ATOM     30  N   UNL A   1      41.483  31.239  35.704  1.00  0.00    -0.354 N 
ATOM     31  N   UNL A   1      39.259  32.519  34.180  1.00  0.00    -0.248 NA
ATOM     32  C   UNL A   1      37.496  34.050  34.052  1.00  0.00     0.031 C 
ATOM     33  C   UNL A   1      41.910  32.032  37.730  1.00  0.00     0.029 A 
ATOM     34  C   UNL A   1      41.066  32.172  36.637  1.00  0.00     0.049 A 
ATOM     35  H   UNL A   1      41.074  31.106  34.818  1.00  0.00     0.167 HD
ATOM     36  C   UNL A   1      39.185  33.216  35.375  1.00  0.00     0.074 A 
ATOM     37  C   UNL A   1      38.093  34.164  35.234  1.00  0.00     0.031 C 
ATOM     38  C   UNL A   1      39.954  33.084  36.484  1.00  0.00     0.031 A 
BRANCH  25  39
ATOM     39  C   UNL A   1      44.235  28.617  36.284  1.00  0.00    -0.014 A 
ATOM     40  C   UNL A   1      45.600  28.924  36.136  1.00  0.00     0.010 A 
ATOM     41  C   UNL A   1      43.877  27.480  37.033  1.00  0.00     0.010 A 
ATOM     42  C   UNL A   1      46.586  28.102  36.695  1.00  0.00     0.020 A 
ATOM     43  C   UNL A   1      44.857  26.670  37.618  1.00  0.00     0.020 A 
ATOM     44  C   UNL A   1      46.207  26.974  37.426  1.00  0.00     0.054 A 
BRANCH  44  45
ATOM     45  S   UNL A   1      47.495  25.906  38.132  1.00  0.00     0.124 S 
ATOM     46  O   UNL A   1      46.735  24.726  38.531  1.00  0.00    -0.237 OA
ATOM     47  O   UNL A   1      48.409  25.721  37.008  1.00  0.00    -0.237 OA
ATOM     48  O   UNL A   1      48.034  26.704  39.232  1.00  0.00    -0.744 OA
ENDBRANCH  44  45
ENDBRANCH  25  39
BRANCH  26  49
ATOM     49  C   UNL A   1      36.855  33.236  31.234  1.00  0.00    -0.014 A 
ATOM     50  C   UNL A   1      35.515  32.875  31.486  1.00  0.00     0.010 A 
ATOM     51  C   UNL A   1      37.162  33.970  30.076  1.00  0.00     0.010 A 
ATOM     52  C   UNL A   1      34.520  33.159  30.545  1.00  0.00     0.020 A 
ATOM     53  C   UNL A   1      36.165  34.272  29.145  1.00  0.00     0.020 A 
ATOM     54  C   UNL A   1      34.860  33.827  29.366  1.00  0.00     0.054 A 
BRANCH  54  55
ATOM     55  S   UNL A   1      33.594  34.033  28.081  1.00  0.00     0.124 S 
ATOM     56  O   UNL A   1      34.312  34.819  27.078  1.00  0.00    -0.237 OA
ATOM     57  O   UNL A   1      33.302  32.650  27.699  1.00  0.00    -0.237 OA
ATOM     58  O   UNL A   1      32.516  34.728  28.766  1.00  0.00    -0.744 OA
ENDBRANCH  54  55
ENDBRANCH  26  49
BRANCH  38  59
ATOM     59  C   UNL A   1      39.624  33.947  37.670  1.00  0.00    -0.014 A 
ATOM     60  C   UNL A   1      40.210  35.220  37.797  1.00  0.00     0.010 A 
ATOM     61  C   UNL A   1      38.872  33.424  38.736  1.00  0.00     0.010 A 
ATOM     62  C   UNL A   1      40.104  35.927  38.994  1.00  0.00     0.020 A 
ATOM     63  C   UNL A   1      38.738  34.144  39.925  1.00  0.00     0.020 A 
ATOM     64  C   UNL A   1      39.384  35.375  40.057  1.00  0.00     0.054 A 
BRANCH  64  65
ATOM     65  S   UNL A   1      39.335  36.269  41.633  1.00  0.00     0.124 S 
ATOM     66  O   UNL A   1      38.111  35.754  42.240  1.00  0.00    -0.237 OA
ATOM     67  O   UNL A   1      40.579  35.853  42.275  1.00  0.00    -0.237 OA
ATOM     68  O   UNL A   1      39.290  37.673  41.232  1.00  0.00    -0.744 OA
ENDBRANCH  64  65
ENDBRANCH  38  59
ENDBRANCH  12  13
ENDBRANCH   5   7
ENDBRANCH   4   5
ENDBRANCH   3   4
ENDBRANCH   2   3
ENDBRANCH   1   2
BRANCH   1  69
ATOM     69  C   UNL A   1      37.890  22.450  25.419  1.00  0.00     0.202 C 
BRANCH  69  70
ATOM     70  C   UNL A   1      37.307  23.788  25.822  1.00  0.00     0.261 C 
BRANCH  70  71
ATOM     71  O   UNL A   1      35.955  23.905  25.357  1.00  0.00    -0.463 OA
BRANCH  71  72
ATOM     72  C   UNL A   1      35.040  23.219  26.064  1.00  0.00     0.311 C 
ATOM     73  O   UNL A   1      34.791  23.395  27.258  1.00  0.00    -0.252 OA
BRANCH  72  74
ATOM     74  C   UNL A   1      34.378  22.109  25.304  1.00  0.00     0.130 C 
ATOM     75  C   UNL A   1      34.686  20.673  25.792  1.00  0.00     0.006 C 
ATOM     76  C   UNL A   1      32.936  22.222  24.734  1.00  0.00     0.081 C 
ATOM     77  C   UNL A   1      33.558  20.041  26.632  1.00  0.00     0.008 C 
ATOM     78  C   UNL A   1      34.822  19.831  24.508  1.00  0.00     0.008 C 
ATOM     79  C   UNL A   1      33.072  21.390  23.394  1.00  0.00     0.035 C 
ATOM     80  C   UNL A   1      31.870  21.460  25.577  1.00  0.00     0.035 C 
ATOM     81  C   UNL A   1      32.246  20.006  25.834  1.00  0.00    -0.008 C 
ATOM     82  C   UNL A   1      33.512  19.923  23.683  1.00  0.00    -0.008 C 
ATOM     83  C   UNL A   1      32.405  19.262  24.504  1.00  0.00     0.007 C 
BRANCH  76  84
ATOM     84  N   UNL A   1      32.505  23.640  24.477  1.00  0.00    -0.222 N 
ATOM     85  N   UNL A   1      32.819  24.132  23.230  1.00  0.00    -0.175 NA
ATOM     86  C   UNL A   1      31.972  24.467  25.486  1.00  0.00     0.288 A 
ATOM     87  C   UNL A   1      32.518  25.362  22.972  1.00  0.00     0.161 A 
ATOM     88  C   UNL A   1      31.670  25.877  25.116  1.00  0.00     0.132 A 
ATOM     89  O   UNL A   1      31.727  24.108  26.638  1.00  0.00    -0.266 OA
ATOM     90  C   UNL A   1      31.864  26.339  23.877  1.00  0.00     0.082 A 
ATOM     91  Cl  UNL A   1      30.928  26.842  26.352  1.00  0.00    -0.076 Cl
BRANCH  90  92
ATOM     92  N   UNL A   1      31.460  27.544  23.314  1.00  0.00    -0.365 N 
ATOM     93  C   UNL A   1      30.283  27.573  22.421  1.00  0.00     0.138 C 
ATOM     94  C   UNL A   1      31.892  28.886  23.772  1.00  0.00     0.138 C 
ATOM     95  C   UNL A   1      29.105  28.280  23.119  1.00  0.00     0.138 C 
ATOM     96  C   UNL A   1      30.726  29.756  24.309  1.00  0.00     0.138 C 
ATOM     97  N   UNL A   1      29.501  29.645  23.496  1.00  0.00    -0.368 N 
BRANCH  97  98
ATOM     98  C   UNL A   1      28.982  30.702  22.779  1.00  0.00     0.037 A 
ATOM     99  C   UNL A   1      28.901  31.999  23.301  1.00  0.00     0.029 A 
ATOM    100  C   UNL A   1      28.525  30.494  21.466  1.00  0.00     0.029 A 
ATOM    101  C   UNL A   1      28.392  33.055  22.537  1.00  0.00     0.041 A 
ATOM    102  C   UNL A   1      28.003  31.539  20.701  1.00  0.00     0.041 A 
ATOM    103  C   UNL A   1      27.945  32.813  21.245  1.00  0.00     0.123 A 
ATOM    104  F   UNL A   1      27.453  33.820  20.511  1.00  0.00    -0.207 F 
ENDBRANCH  97  98
ENDBRANCH  90  92
ENDBRANCH  76  84
ENDBRANCH  72  74
ENDBRANCH  71  72
ENDBRANCH  70  71
ENDBRANCH  69  70
ENDBRANCH   1  69
TORSDOF 20
ENDMDL
MODEL 2
REMARK VINA RESULT:     -11.4      2.343      7.867
REMARK SMILES O=C(OCCOCCOC(=O)[C@H]1[C@@H]2C[C@H]3C[C@@H](C2)C[C@]1(n1ncc(N2CCN(c4ccc(F)cc4)CC2)c(Cl)c1=O)C3)c1ccc(-c2c3nc(c(-c4ccc(S(=O)(=O)[O-])cc4)c4ccc([nH]4)c(-c4ccc(S(=O)(=O)[O-])cc4)c4nc(c(-c5ccc(S(=O)(=O)[O-])cc5)c5ccc2[nH]5)C=C4)C=C3)cc1
REMARK SMILES IDX 6 1 5 2 4 3 3 4 2 5 1 6 43 7 44 8 102 9 45 10 101 11 46 12
REMARK SMILES IDX 47 13 48 14 95 15 49 16 100 17 94 18 96 19 50 20 99 21 93 22
REMARK SMILES IDX 92 23 51 25 81 26 62 27 80 28 63 29 66 30 79 31 97 32 64 33
REMARK SMILES IDX 65 34 78 36 98 37 67 38 52 39 53 40 61 41 54 42 60 43 55 44
REMARK SMILES IDX 56 45 57 46 58 47 59 48 82 49 83 50 91 51 84 52 90 53 85 54
REMARK SMILES IDX 86 55 87 56 88 57 89 58 68 59 69 60 77 61 70 62 76 63 71 64
REMARK SMILES IDX 72 65 73 66 74 67 75 68 7 69 8 70 9 71 10 72 11 73 12 74
REMARK SMILES IDX 13 75 20 76 18 77 14 78 42 79 19 80 17 81 15 82 16 83 21 84
REMARK SMILES IDX 22 85 40 86 23 87 38 88 41 89 24 90 39 91 25 92 26 93 37 94
REMARK SMILES IDX 27 95 36 96 28 97 29 98 30 99 35 100 31 101 34 102 32 103
REMARK SMILES IDX 33 104
REMARK H PARENT 96 24 66 35
REMARK Flexibility Score: inf
ROOT
ATOM      1  O   UNL A   1      39.683  21.732  26.230  1.00  0.00    -0.374 OA
ENDROOT
BRANCH   1   2
ATOM      2  C   UNL A   1      40.347  22.940  26.582  1.00  0.00     0.202 C 
BRANCH   2   3
ATOM      3  C   UNL A   1      39.414  23.889  27.329  1.00  0.00     0.261 C 
BRANCH   3   4
ATOM      4  O   UNL A   1      39.384  25.194  26.724  1.00  0.00    -0.460 OA
BRANCH   4   5
ATOM      5  C   UNL A   1      40.026  26.341  27.049  1.00  0.00     0.338 C 
ATOM      6  O   UNL A   1      40.755  26.833  26.184  1.00  0.00    -0.246 OA
BRANCH   5   7
ATOM      7  C   UNL A   1      39.980  27.039  28.382  1.00  0.00     0.060 A 
ATOM      8  C   UNL A   1      40.975  28.014  28.613  1.00  0.00     0.016 A 
ATOM      9  C   UNL A   1      39.100  26.771  29.431  1.00  0.00     0.016 A 
ATOM     10  C   UNL A   1      41.099  28.662  29.850  1.00  0.00     0.010 A 
ATOM     11  C   UNL A   1      39.260  27.353  30.686  1.00  0.00     0.010 A 
ATOM     12  C   UNL A   1      40.242  28.319  30.895  1.00  0.00    -0.014 A 
BRANCH  12  13
ATOM     13  C   UNL A   1      40.147  29.106  32.136  1.00  0.00     0.031 A 
ATOM     14  C   UNL A   1      39.132  30.186  32.309  1.00  0.00     0.074 A 
ATOM     15  C   UNL A   1      41.158  28.937  33.008  1.00  0.00     0.049 A 
ATOM     16  N   UNL A   1      38.967  30.987  33.327  1.00  0.00    -0.248 NA
ATOM     17  C   UNL A   1      38.193  30.415  31.201  1.00  0.00     0.031 C 
ATOM     18  C   UNL A   1      42.240  27.961  32.838  1.00  0.00     0.029 A 
ATOM     19  N   UNL A   1      41.483  29.602  34.156  1.00  0.00    -0.354 N 
ATOM     20  C   UNL A   1      37.895  31.806  32.997  1.00  0.00     0.074 A 
ATOM     21  C   UNL A   1      37.473  31.432  31.664  1.00  0.00     0.031 C 
ATOM     22  C   UNL A   1      43.132  28.121  33.822  1.00  0.00     0.029 A 
ATOM     23  C   UNL A   1      42.680  29.197  34.695  1.00  0.00     0.049 A 
ATOM     24  H   UNL A   1      40.917  30.300  34.557  1.00  0.00     0.167 HD
ATOM     25  C   UNL A   1      37.328  32.771  33.761  1.00  0.00     0.031 A 
ATOM     26  C   UNL A   1      43.344  29.640  35.779  1.00  0.00     0.031 A 
ATOM     27  C   UNL A   1      37.823  33.124  35.070  1.00  0.00     0.049 A 
ATOM     28  C   UNL A   1      42.695  30.694  36.616  1.00  0.00     0.074 A 
ATOM     29  C   UNL A   1      37.261  33.984  35.995  1.00  0.00     0.029 A 
ATOM     30  N   UNL A   1      39.012  32.662  35.622  1.00  0.00    -0.354 N 
ATOM     31  N   UNL A   1      41.571  31.332  36.389  1.00  0.00    -0.248 NA
ATOM     32  C   UNL A   1      43.366  31.068  37.865  1.00  0.00     0.031 C 
ATOM     33  C   UNL A   1      38.151  34.109  37.065  1.00  0.00     0.029 A 
ATOM     34  C   UNL A   1      39.231  33.264  36.849  1.00  0.00     0.049 A 
ATOM     35  H   UNL A   1      39.610  32.002  35.203  1.00  0.00     0.167 HD
ATOM     36  C   UNL A   1      41.388  32.178  37.471  1.00  0.00     0.074 A 
ATOM     37  C   UNL A   1      42.514  31.959  38.362  1.00  0.00     0.031 C 
ATOM     38  C   UNL A   1      40.378  33.051  37.704  1.00  0.00     0.031 A 
BRANCH  25  39
ATOM     39  C   UNL A   1      36.114  33.501  33.239  1.00  0.00    -0.014 A 
ATOM     40  C   UNL A   1      36.266  34.699  32.515  1.00  0.00     0.010 A 
ATOM     41  C   UNL A   1      34.814  33.083  33.583  1.00  0.00     0.010 A 
ATOM     42  C   UNL A   1      35.154  35.475  32.168  1.00  0.00     0.020 A 
ATOM     43  C   UNL A   1      33.697  33.841  33.215  1.00  0.00     0.020 A 
ATOM     44  C   UNL A   1      33.875  35.044  32.528  1.00  0.00     0.054 A 
BRANCH  44  45
ATOM     45  S   UNL A   1      32.442  36.067  32.087  1.00  0.00     0.124 S 
ATOM     46  O   UNL A   1      32.611  36.233  30.647  1.00  0.00    -0.237 OA
ATOM     47  O   UNL A   1      31.315  35.236  32.501  1.00  0.00    -0.237 OA
ATOM     48  O   UNL A   1      32.630  37.279  32.883  1.00  0.00    -0.744 OA
ENDBRANCH  44  45
ENDBRANCH  25  39
BRANCH  26  49
ATOM     49  C   UNL A   1      44.619  28.962  36.130  1.00  0.00    -0.014 A 
ATOM     50  C   UNL A   1      45.819  29.325  35.485  1.00  0.00     0.010 A 
ATOM     51  C   UNL A   1      44.582  27.790  36.904  1.00  0.00     0.010 A 
ATOM     52  C   UNL A   1      46.930  28.478  35.535  1.00  0.00     0.020 A 
ATOM     53  C   UNL A   1      45.699  26.952  36.972  1.00  0.00     0.020 A 
ATOM     54  C   UNL A   1      46.850  27.281  36.252  1.00  0.00     0.054 A 
BRANCH  54  55
ATOM     55  S   UNL A   1      48.238  26.114  36.164  1.00  0.00     0.124 S 
ATOM     56  O   UNL A   1      47.587  24.917  35.632  1.00  0.00    -0.237 OA
ATOM     57  O   UNL A   1      49.159  26.786  35.246  1.00  0.00    -0.237 OA
ATOM     58  O   UNL A   1      48.696  26.016  37.541  1.00  0.00    -0.744 OA
ENDBRANCH  54  55
ENDBRANCH  26  49
BRANCH  38  59
ATOM     59  C   UNL A   1      40.451  33.888  38.951  1.00  0.00    -0.014 A 
ATOM     60  C   UNL A   1      39.961  33.378  40.168  1.00  0.00     0.010 A 
ATOM     61  C   UNL A   1      40.845  35.235  38.876  1.00  0.00     0.010 A 
ATOM     62  C   UNL A   1      39.803  34.219  41.270  1.00  0.00     0.020 A 
ATOM     63  C   UNL A   1      40.718  36.070  39.986  1.00  0.00     0.020 A 
ATOM     64  C   UNL A   1      40.165  35.564  41.165  1.00  0.00     0.054 A 
BRANCH  64  65
ATOM     65  S   UNL A   1      39.867  36.659  42.579  1.00  0.00     0.124 S 
ATOM     66  O   UNL A   1      41.107  36.525  43.338  1.00  0.00    -0.237 OA
ATOM     67  O   UNL A   1      39.657  37.956  41.940  1.00  0.00    -0.237 OA
ATOM     68  O   UNL A   1      38.682  36.087  43.213  1.00  0.00    -0.744 OA
ENDBRANCH  64  65
ENDBRANCH  38  59
ENDBRANCH  12  13
ENDBRANCH   5   7
ENDBRANCH   4   5
ENDBRANCH   3   4
ENDBRANCH   2   3
ENDBRANCH   1   2
BRANCH   1  69
ATOM     69  C   UNL A   1      38.384  21.891  25.669  1.00  0.00     0.202 C 
BRANCH  69  70
ATOM     70  C   UNL A   1      37.885  20.561  25.146  1.00  0.00     0.261 C 
BRANCH  70  71
ATOM     71  O   UNL A   1      36.670  20.740  24.403  1.00  0.00    -0.463 OA
BRANCH  71  72
ATOM     72  C   UNL A   1      35.535  20.616  25.112  1.00  0.00     0.311 C 
ATOM     73  O   UNL A   1      35.325  21.137  26.208  1.00  0.00    -0.252 OA
BRANCH  72  74
ATOM     74  C   UNL A   1      34.530  19.681  24.508  1.00  0.00     0.130 C 
ATOM     75  C   UNL A   1      34.837  18.170  24.647  1.00  0.00     0.006 C 
ATOM     76  C   UNL A   1      33.001  19.957  24.534  1.00  0.00     0.081 C 
ATOM     77  C   UNL A   1      34.025  17.464  25.751  1.00  0.00     0.008 C 
ATOM     78  C   UNL A   1      34.414  17.547  23.302  1.00  0.00     0.008 C 
ATOM     79  C   UNL A   1      32.558  19.353  23.139  1.00  0.00     0.035 C 
ATOM     80  C   UNL A   1      32.233  19.119  25.600  1.00  0.00     0.035 C 
ATOM     81  C   UNL A   1      32.519  17.626  25.499  1.00  0.00    -0.008 C 
ATOM     82  C   UNL A   1      32.913  17.839  23.043  1.00  0.00    -0.008 C 
ATOM     83  C   UNL A   1      32.110  17.106  24.117  1.00  0.00     0.007 C 
BRANCH  76  84
ATOM     84  N   UNL A   1      32.660  21.418  24.651  1.00  0.00    -0.222 N 
ATOM     85  N   UNL A   1      32.231  21.822  25.895  1.00  0.00    -0.175 NA
ATOM     86  C   UNL A   1      32.614  22.279  23.536  1.00  0.00     0.288 A 
ATOM     87  C   UNL A   1      31.875  23.056  26.040  1.00  0.00     0.161 A 
ATOM     88  C   UNL A   1      32.174  23.680  23.781  1.00  0.00     0.132 A 
ATOM     89  O   UNL A   1      32.922  21.964  22.386  1.00  0.00    -0.266 OA
ATOM     90  C   UNL A   1      31.864  24.118  25.004  1.00  0.00     0.082 A 
ATOM     91  Cl  UNL A   1      32.220  24.739  22.408  1.00  0.00    -0.076 Cl
BRANCH  90  92
ATOM     92  N   UNL A   1      31.632  25.418  25.441  1.00  0.00    -0.365 N 
ATOM     93  C   UNL A   1      32.594  26.062  26.357  1.00  0.00     0.138 C 
ATOM     94  C   UNL A   1      30.673  26.365  24.823  1.00  0.00     0.138 C 
ATOM     95  C   UNL A   1      33.372  27.169  25.618  1.00  0.00     0.138 C 
ATOM     96  C   UNL A   1      31.354  27.625  24.226  1.00  0.00     0.138 C 
ATOM     97  N   UNL A   1      32.429  28.160  25.081  1.00  0.00    -0.368 N 
BRANCH  97  98
ATOM     98  C   UNL A   1      32.354  29.395  25.689  1.00  0.00     0.037 A 
ATOM     99  C   UNL A   1      31.289  30.278  25.473  1.00  0.00     0.029 A 
ATOM    100  C   UNL A   1      33.369  29.796  26.576  1.00  0.00     0.029 A 
ATOM    101  C   UNL A   1      31.232  31.514  26.127  1.00  0.00     0.041 A 
ATOM    102  C   UNL A   1      33.326  31.033  27.222  1.00  0.00     0.041 A 
ATOM    103  C   UNL A   1      32.253  31.880  26.993  1.00  0.00     0.123 A 
ATOM    104  F   UNL A   1      32.205  33.064  27.617  1.00  0.00    -0.207 F 
ENDBRANCH  97  98
ENDBRANCH  90  92
ENDBRANCH  76  84
ENDBRANCH  72  74
ENDBRANCH  71  72
ENDBRANCH  70  71
ENDBRANCH  69  70
ENDBRANCH   1  69
TORSDOF 20
ENDMDL
MODEL 3
REMARK VINA RESULT:     -11.2      5.882     10.099
REMARK SMILES O=C(OCCOCCOC(=O)[C@H]1[C@@H]2C[C@H]3C[C@@H](C2)C[C@]1(n1ncc(N2CCN(c4ccc(F)cc4)CC2)c(Cl)c1=O)C3)c1ccc(-c2c3nc(c(-c4ccc(S(=O)(=O)[O-])cc4)c4ccc([nH]4)c(-c4ccc(S(=O)(=O)[O-])cc4)c4nc(c(-c5ccc(S(=O)(=O)[O-])cc5)c5ccc2[nH]5)C=C4)C=C3)cc1
REMARK SMILES IDX 6 1 5 2 4 3 3 4 2 5 1 6 43 7 44 8 102 9 45 10 101 11 46 12
REMARK SMILES IDX 47 13 48 14 95 15 49 16 100 17 94 18 96 19 50 20 99 21 93 22
REMARK SMILES IDX 92 23 51 25 81 26 62 27 80 28 63 29 66 30 79 31 97 32 64 33
REMARK SMILES IDX 65 34 78 36 98 37 67 38 52 39 53 40 61 41 54 42 60 43 55 44
REMARK SMILES IDX 56 45 57 46 58 47 59 48 82 49 83 50 91 51 84 52 90 53 85 54
REMARK SMILES IDX 86 55 87 56 88 57 89 58 68 59 69 60 77 61 70 62 76 63 71 64
REMARK SMILES IDX 72 65 73 66 74 67 75 68 7 69 8 70 9 71 10 72 11 73 12 74
REMARK SMILES IDX 13 75 20 76 18 77 14 78 42 79 19 80 17 81 15 82 16 83 21 84
REMARK SMILES IDX 22 85 40 86 23 87 38 88 41 89 24 90 39 91 25 92 26 93 37 94
REMARK SMILES IDX 27 95 36 96 28 97 29 98 30 99 35 100 31 101 34 102 32 103
REMARK SMILES IDX 33 104
REMARK H PARENT 96 24 66 35
REMARK Flexibility Score: inf
ROOT
ATOM      1  O   UNL A   1      37.984  21.567  25.801  1.00  0.00    -0.374 OA
ENDROOT
BRANCH   1   2
ATOM      2  C   UNL A   1      39.348  21.164  25.785  1.00  0.00     0.202 C 
BRANCH   2   3
ATOM      3  C   UNL A   1      39.480  19.650  25.930  1.00  0.00     0.261 C 
BRANCH   3   4
ATOM      4  O   UNL A   1      40.821  19.203  25.658  1.00  0.00    -0.460 OA
BRANCH   4   5
ATOM      5  C   UNL A   1      41.993  19.477  26.278  1.00  0.00     0.338 C 
ATOM      6  O   UNL A   1      42.683  18.510  26.613  1.00  0.00    -0.246 OA
BRANCH   5   7
ATOM      7  C   UNL A   1      42.506  20.843  26.648  1.00  0.00     0.060 A 
ATOM      8  C   UNL A   1      43.213  21.541  25.645  1.00  0.00     0.016 A 
ATOM      9  C   UNL A   1      42.411  21.455  27.899  1.00  0.00     0.016 A 
ATOM     10  C   UNL A   1      43.824  22.776  25.897  1.00  0.00     0.010 A 
ATOM     11  C   UNL A   1      43.077  22.645  28.182  1.00  0.00     0.010 A 
ATOM     12  C   UNL A   1      43.764  23.325  27.179  1.00  0.00    -0.014 A 
BRANCH  12  13
ATOM     13  C   UNL A   1      44.167  24.711  27.469  1.00  0.00     0.031 A 
ATOM     14  C   UNL A   1      43.165  25.785  27.734  1.00  0.00     0.074 A 
ATOM     15  C   UNL A   1      45.469  24.989  27.272  1.00  0.00     0.049 A 
ATOM     16  N   UNL A   1      43.377  27.053  27.956  1.00  0.00    -0.248 NA
ATOM     17  C   UNL A   1      41.746  25.400  27.733  1.00  0.00     0.031 C 
ATOM     18  C   UNL A   1      46.481  23.990  26.909  1.00  0.00     0.029 A 
ATOM     19  N   UNL A   1      46.152  26.172  27.281  1.00  0.00    -0.354 N 
ATOM     20  C   UNL A   1      42.124  27.622  28.142  1.00  0.00     0.074 A 
ATOM     21  C   UNL A   1      41.151  26.565  27.965  1.00  0.00     0.031 C 
ATOM     22  C   UNL A   1      47.646  24.609  26.687  1.00  0.00     0.029 A 
ATOM     23  C   UNL A   1      47.466  26.040  26.903  1.00  0.00     0.049 A 
ATOM     24  H   UNL A   1      45.744  27.032  27.532  1.00  0.00     0.167 HD
ATOM     25  C   UNL A   1      41.839  28.913  28.441  1.00  0.00     0.031 A 
ATOM     26  C   UNL A   1      48.428  26.968  26.751  1.00  0.00     0.031 A 
ATOM     27  C   UNL A   1      42.856  29.929  28.565  1.00  0.00     0.049 A 
ATOM     28  C   UNL A   1      48.099  28.383  27.099  1.00  0.00     0.074 A 
ATOM     29  C   UNL A   1      42.713  31.236  28.994  1.00  0.00     0.029 A 
ATOM     30  N   UNL A   1      44.194  29.761  28.230  1.00  0.00    -0.354 N 
ATOM     31  N   UNL A   1      46.940  28.879  27.464  1.00  0.00    -0.248 NA
ATOM     32  C   UNL A   1      49.193  29.358  27.058  1.00  0.00     0.031 C 
ATOM     33  C   UNL A   1      43.942  31.880  28.833  1.00  0.00     0.029 A 
ATOM     34  C   UNL A   1      44.876  30.956  28.384  1.00  0.00     0.049 A 
ATOM     35  H   UNL A   1      44.598  28.916  27.927  1.00  0.00     0.167 HD
ATOM     36  C   UNL A   1      47.162  30.225  27.709  1.00  0.00     0.074 A 
ATOM     37  C   UNL A   1      48.574  30.462  27.464  1.00  0.00     0.031 C 
ATOM     38  C   UNL A   1      46.277  31.173  28.103  1.00  0.00     0.031 A 
BRANCH  25  39
ATOM     39  C   UNL A   1      40.402  29.312  28.677  1.00  0.00    -0.014 A 
ATOM     40  C   UNL A   1      39.480  29.296  27.612  1.00  0.00     0.010 A 
ATOM     41  C   UNL A   1      39.990  29.839  29.916  1.00  0.00     0.010 A 
ATOM     42  C   UNL A   1      38.191  29.818  27.770  1.00  0.00     0.020 A 
ATOM     43  C   UNL A   1      38.694  30.337  30.087  1.00  0.00     0.020 A 
ATOM     44  C   UNL A   1      37.809  30.344  29.006  1.00  0.00     0.054 A 
BRANCH  44  45
ATOM     45  S   UNL A   1      36.140  31.033  29.194  1.00  0.00     0.124 S 
ATOM     46  O   UNL A   1      35.900  30.881  30.625  1.00  0.00    -0.237 OA
ATOM     47  O   UNL A   1      36.305  32.406  28.722  1.00  0.00    -0.237 OA
ATOM     48  O   UNL A   1      35.321  30.186  28.328  1.00  0.00    -0.744 OA
ENDBRANCH  44  45
ENDBRANCH  25  39
BRANCH  26  49
ATOM     49  C   UNL A   1      49.784  26.498  26.362  1.00  0.00    -0.014 A 
ATOM     50  C   UNL A   1      50.733  26.167  27.350  1.00  0.00     0.010 A 
ATOM     51  C   UNL A   1      50.201  26.634  25.027  1.00  0.00     0.010 A 
ATOM     52  C   UNL A   1      52.089  26.074  27.022  1.00  0.00     0.020 A 
ATOM     53  C   UNL A   1      51.554  26.521  24.694  1.00  0.00     0.020 A 
ATOM     54  C   UNL A   1      52.492  26.284  25.701  1.00  0.00     0.054 A 
BRANCH  54  55
ATOM     55  S   UNL A   1      54.268  26.331  25.325  1.00  0.00     0.124 S 
ATOM     56  O   UNL A   1      54.558  27.761  25.434  1.00  0.00    -0.237 OA
ATOM     57  O   UNL A   1      54.838  25.496  26.383  1.00  0.00    -0.237 OA
ATOM     58  O   UNL A   1      54.352  25.778  23.983  1.00  0.00    -0.744 OA
ENDBRANCH  54  55
ENDBRANCH  26  49
BRANCH  38  59
ATOM     59  C   UNL A   1      46.783  32.582  28.254  1.00  0.00    -0.014 A 
ATOM     60  C   UNL A   1      46.754  33.459  27.154  1.00  0.00     0.010 A 
ATOM     61  C   UNL A   1      47.439  32.974  29.433  1.00  0.00     0.010 A 
ATOM     62  C   UNL A   1      47.430  34.677  27.208  1.00  0.00     0.020 A 
ATOM     63  C   UNL A   1      48.091  34.207  29.501  1.00  0.00     0.020 A 
ATOM     64  C   UNL A   1      48.110  35.034  28.375  1.00  0.00     0.054 A 
BRANCH  64  65
ATOM     65  S   UNL A   1      49.058  36.580  28.394  1.00  0.00     0.124 S 
ATOM     66  O   UNL A   1      50.378  36.136  27.956  1.00  0.00    -0.237 OA
ATOM     67  O   UNL A   1      48.327  37.413  27.443  1.00  0.00    -0.237 OA
ATOM     68  O   UNL A   1      48.975  37.017  29.785  1.00  0.00    -0.744 OA
ENDBRANCH  64  65
ENDBRANCH  38  59
ENDBRANCH  12  13
ENDBRANCH   5   7
ENDBRANCH   4   5
ENDBRANCH   3   4
ENDBRANCH   2   3
ENDBRANCH   1   2
BRANCH   1  69
ATOM     69  C   UNL A   1      37.662  22.663  24.950  1.00  0.00     0.202 C 
BRANCH  69  70
ATOM     70  C   UNL A   1      37.179  23.833  25.781  1.00  0.00     0.261 C 
BRANCH  70  71
ATOM     71  O   UNL A   1      35.784  24.074  25.542  1.00  0.00    -0.463 OA
BRANCH  71  72
ATOM     72  C   UNL A   1      34.937  23.277  26.217  1.00  0.00     0.311 C 
ATOM     73  O   UNL A   1      34.718  23.341  27.427  1.00  0.00    -0.252 OA
BRANCH  72  74
ATOM     74  C   UNL A   1      34.319  22.192  25.386  1.00  0.00     0.130 C 
ATOM     75  C   UNL A   1      34.599  20.741  25.846  1.00  0.00     0.006 C 
ATOM     76  C   UNL A   1      32.911  22.324  24.740  1.00  0.00     0.081 C 
ATOM     77  C   UNL A   1      33.426  20.085  26.602  1.00  0.00     0.008 C 
ATOM     78  C   UNL A   1      34.807  19.939  24.546  1.00  0.00     0.008 C 
ATOM     79  C   UNL A   1      33.122  21.534  23.385  1.00  0.00     0.035 C 
ATOM     80  C   UNL A   1      31.800  21.538  25.498  1.00  0.00     0.035 C 
ATOM     81  C   UNL A   1      32.161  20.077  25.731  1.00  0.00    -0.008 C 
ATOM     82  C   UNL A   1      33.545  20.059  23.653  1.00  0.00    -0.008 C 
ATOM     83  C   UNL A   1      32.394  19.374  24.389  1.00  0.00     0.007 C 
BRANCH  76  84
ATOM     84  N   UNL A   1      32.494  23.751  24.504  1.00  0.00    -0.222 N 
ATOM     85  N   UNL A   1      32.790  24.248  23.254  1.00  0.00    -0.175 NA
ATOM     86  C   UNL A   1      31.994  24.577  25.530  1.00  0.00     0.288 A 
ATOM     87  C   UNL A   1      32.501  25.484  23.013  1.00  0.00     0.161 A 
ATOM     88  C   UNL A   1      31.704  25.993  25.178  1.00  0.00     0.132 A 
ATOM     89  O   UNL A   1      31.767  24.211  26.684  1.00  0.00    -0.266 OA
ATOM     90  C   UNL A   1      31.879  26.463  23.939  1.00  0.00     0.082 A 
ATOM     91  Cl  UNL A   1      31.001  26.958  26.436  1.00  0.00    -0.076 Cl
BRANCH  90  92
ATOM     92  N   UNL A   1      31.480  27.678  23.394  1.00  0.00    -0.365 N 
ATOM     93  C   UNL A   1      30.475  27.697  22.312  1.00  0.00     0.138 C 
ATOM     94  C   UNL A   1      31.718  29.006  24.008  1.00  0.00     0.138 C 
ATOM     95  C   UNL A   1      29.141  28.264  22.836  1.00  0.00     0.138 C 
ATOM     96  C   UNL A   1      30.410  29.749  24.387  1.00  0.00     0.138 C 
ATOM     97  N   UNL A   1      29.355  29.618  23.366  1.00  0.00    -0.368 N 
BRANCH  97  98
ATOM     98  C   UNL A   1      28.882  30.691  22.640  1.00  0.00     0.037 A 
ATOM     99  C   UNL A   1      29.029  32.016  23.069  1.00  0.00     0.029 A 
ATOM    100  C   UNL A   1      28.236  30.468  21.410  1.00  0.00     0.029 A 
ATOM    101  C   UNL A   1      28.559  33.082  22.295  1.00  0.00     0.041 A 
ATOM    102  C   UNL A   1      27.753  31.526  20.638  1.00  0.00     0.041 A 
ATOM    103  C   UNL A   1      27.923  32.826  21.089  1.00  0.00     0.123 A 
ATOM    104  F   UNL A   1      27.467  33.844  20.346  1.00  0.00    -0.207 F 
ENDBRANCH  97  98
ENDBRANCH  90  92
ENDBRANCH  76  84
ENDBRANCH  72  74
ENDBRANCH  71  72
ENDBRANCH  70  71
ENDBRANCH  69  70
ENDBRANCH   1  69
TORSDOF 20
ENDMDL
