MODEL 1
REMARK VINA RESULT:     -10.9      0.000      0.000
REMARK SMILES CS(=O)(=O)c1ccc(N2N=C(C(=O)OCCOCCOC(=O)c3ccc(-c4c5nc(c(-c6ccc(S(=O)(=O)[O-])cc6)c6ccc([nH]6)c(-c6ccc(S(=O)(=O)[O-])cc6)c6nc(c(-c7ccc(S(=O)(=O)[O-])cc7)c7ccc4[nH]7)C=C6)C=C5)cc3)C[C@H]2c2cccs2)cc1
REMARK SMILES IDX 18 1 17 2 16 3 15 4 14 5 12 6 13 7 11 8 9 9 10 10 84 11
REMARK SMILES IDX 83 12 8 13 5 14 6 15 91 16 7 17 90 18 2 19 1 20 3 21 4 22
REMARK SMILES IDX 85 23 86 24 89 25 87 26 88 27 19 28 20 29 21 30 22 31 23 32
REMARK SMILES IDX 24 33 82 34 25 35 81 36 26 37 27 38 28 39 75 40 29 41 80 42
REMARK SMILES IDX 74 43 76 44 30 45 79 46 73 47 72 48 31 50 61 51 42 52 60 53
REMARK SMILES IDX 43 54 46 55 59 56 77 57 44 58 45 59 58 61 78 62 47 63 32 64
REMARK SMILES IDX 33 65 41 66 34 67 40 68 35 69 36 70 37 71 38 72 39 73 62 74
REMARK SMILES IDX 63 75 71 76 64 77 70 78 65 79 66 80 67 81 68 82 69 83 48 84
REMARK SMILES IDX 49 85 57 86 50 87 56 88 51 89 52 90 53 91 54 92 55 93
REMARK H PARENT 76 49 46 60
REMARK Flexibility Score: inf
ROOT
ATOM      1  C   UNL A   1      36.405  21.505  24.703  1.00  0.00     0.202 C 
ENDROOT
BRANCH   1   2
ATOM      2  O   UNL A   1      35.353  20.959  25.502  1.00  0.00    -0.374 OA
BRANCH   2   3
ATOM      3  C   UNL A   1      34.827  21.800  26.535  1.00  0.00     0.202 C 
BRANCH   3   4
ATOM      4  C   UNL A   1      33.340  21.582  26.817  1.00  0.00     0.261 C 
BRANCH   4   5
ATOM      5  O   UNL A   1      32.572  22.437  25.954  1.00  0.00    -0.459 OA
BRANCH   5   6
ATOM      6  C   UNL A   1      31.904  23.427  26.573  1.00  0.00     0.354 C 
ATOM      7  O   UNL A   1      31.328  23.393  27.643  1.00  0.00    -0.245 OA
BRANCH   6   8
ATOM      8  C   UNL A   1      32.069  24.695  25.776  1.00  0.00     0.148 C 
ATOM      9  N   UNL A   1      31.604  26.446  24.694  1.00  0.00    -0.256 N 
ATOM     10  N   UNL A   1      31.083  25.508  25.533  1.00  0.00    -0.169 NA
ATOM     11  C   UNL A   1      32.925  26.070  24.167  1.00  0.00     0.154 C 
ATOM     12  C   UNL A   1      33.413  25.138  25.285  1.00  0.00     0.099 C 
BRANCH   9  13
ATOM     13  C   UNL A   1      30.803  27.470  24.222  1.00  0.00     0.060 A 
ATOM     14  C   UNL A   1      29.109  29.519  23.300  1.00  0.00     0.067 A 
ATOM     15  C   UNL A   1      28.685  28.192  23.236  1.00  0.00     0.022 A 
ATOM     16  C   UNL A   1      30.380  29.829  23.788  1.00  0.00     0.022 A 
ATOM     17  C   UNL A   1      29.540  27.178  23.687  1.00  0.00     0.029 A 
ATOM     18  C   UNL A   1      31.215  28.805  24.245  1.00  0.00     0.029 A 
BRANCH  14  19
ATOM     19  S   UNL A   1      28.069  30.851  22.757  1.00  0.00     0.175 S 
ATOM     20  C   UNL A   1      28.981  32.347  23.006  1.00  0.00     0.163 C 
ATOM     21  O   UNL A   1      26.932  30.901  23.660  1.00  0.00    -0.224 OA
ATOM     22  O   UNL A   1      27.879  30.674  21.329  1.00  0.00    -0.224 OA
ENDBRANCH  14  19
ENDBRANCH   9  13
BRANCH  11  23
ATOM     23  C   UNL A   1      32.951  25.424  22.789  1.00  0.00     0.030 A 
ATOM     24  C   UNL A   1      32.659  26.028  21.578  1.00  0.00     0.017 A 
ATOM     25  S   UNL A   1      33.335  23.762  22.557  1.00  0.00    -0.147 S 
ATOM     26  C   UNL A   1      32.771  25.135  20.473  1.00  0.00     0.012 A 
ATOM     27  C   UNL A   1      33.167  23.878  20.865  1.00  0.00     0.065 A 
ENDBRANCH  11  23
ENDBRANCH   6   8
ENDBRANCH   5   6
ENDBRANCH   4   5
ENDBRANCH   3   4
ENDBRANCH   2   3
ENDBRANCH   1   2
BRANCH   1  28
ATOM     28  C   UNL A   1      37.804  21.422  25.322  1.00  0.00     0.261 C 
BRANCH  28  29
ATOM     29  O   UNL A   1      38.436  22.713  25.375  1.00  0.00    -0.460 OA
BRANCH  29  30
ATOM     30  C   UNL A   1      39.465  22.794  26.255  1.00  0.00     0.338 C 
ATOM     31  O   UNL A   1      40.337  21.960  26.438  1.00  0.00    -0.246 OA
BRANCH  30  32
ATOM     32  C   UNL A   1      39.504  24.129  26.889  1.00  0.00     0.060 A 
ATOM     33  C   UNL A   1      40.191  25.135  26.199  1.00  0.00     0.016 A 
ATOM     34  C   UNL A   1      38.954  24.387  28.147  1.00  0.00     0.016 A 
ATOM     35  C   UNL A   1      40.389  26.378  26.793  1.00  0.00     0.010 A 
ATOM     36  C   UNL A   1      39.154  25.639  28.744  1.00  0.00     0.010 A 
ATOM     37  C   UNL A   1      39.910  26.625  28.086  1.00  0.00    -0.014 A 
BRANCH  37  38
ATOM     38  C   UNL A   1      40.336  27.869  28.772  1.00  0.00     0.031 A 
ATOM     39  C   UNL A   1      41.750  27.990  29.269  1.00  0.00     0.074 A 
ATOM     40  C   UNL A   1      39.494  28.913  28.883  1.00  0.00     0.049 A 
ATOM     41  N   UNL A   1      42.368  29.037  29.755  1.00  0.00    -0.248 NA
ATOM     42  C   UNL A   1      42.574  26.773  29.212  1.00  0.00     0.031 C 
ATOM     43  C   UNL A   1      38.099  28.924  28.449  1.00  0.00     0.029 A 
ATOM     44  N   UNL A   1      39.703  30.171  29.390  1.00  0.00    -0.354 N 
ATOM     45  C   UNL A   1      43.656  28.608  30.055  1.00  0.00     0.074 A 
ATOM     46  C   UNL A   1      43.716  27.198  29.734  1.00  0.00     0.031 C 
ATOM     47  C   UNL A   1      37.573  30.133  28.709  1.00  0.00     0.029 A 
ATOM     48  C   UNL A   1      38.595  30.978  29.326  1.00  0.00     0.049 A 
ATOM     49  H   UNL A   1      40.564  30.465  29.765  1.00  0.00     0.167 HD
ATOM     50  C   UNL A   1      44.698  29.323  30.545  1.00  0.00     0.031 A 
ATOM     51  C   UNL A   1      38.422  32.259  29.711  1.00  0.00     0.031 A 
ATOM     52  C   UNL A   1      44.637  30.718  30.885  1.00  0.00     0.049 A 
ATOM     53  C   UNL A   1      39.588  33.038  30.252  1.00  0.00     0.074 A 
ATOM     54  C   UNL A   1      45.650  31.538  31.353  1.00  0.00     0.029 A 
ATOM     55  N   UNL A   1      43.495  31.501  30.808  1.00  0.00    -0.354 N 
ATOM     56  N   UNL A   1      40.822  32.638  30.456  1.00  0.00    -0.248 NA
ATOM     57  C   UNL A   1      39.346  34.448  30.588  1.00  0.00     0.031 C 
ATOM     58  C   UNL A   1      45.108  32.805  31.599  1.00  0.00     0.029 A 
ATOM     59  C   UNL A   1      43.770  32.787  31.242  1.00  0.00     0.049 A 
ATOM     60  H   UNL A   1      42.617  31.188  30.490  1.00  0.00     0.167 HD
ATOM     61  C   UNL A   1      41.507  33.752  30.927  1.00  0.00     0.074 A 
ATOM     62  C   UNL A   1      40.555  34.844  30.964  1.00  0.00     0.031 C 
ATOM     63  C   UNL A   1      42.811  33.861  31.290  1.00  0.00     0.031 A 
BRANCH  50  64
ATOM     64  C   UNL A   1      45.986  28.578  30.768  1.00  0.00    -0.014 A 
ATOM     65  C   UNL A   1      46.271  27.974  32.007  1.00  0.00     0.010 A 
ATOM     66  C   UNL A   1      46.931  28.494  29.730  1.00  0.00     0.010 A 
ATOM     67  C   UNL A   1      47.503  27.349  32.222  1.00  0.00     0.020 A 
ATOM     68  C   UNL A   1      48.154  27.851  29.934  1.00  0.00     0.020 A 
ATOM     69  C   UNL A   1      48.442  27.306  31.187  1.00  0.00     0.054 A 
BRANCH  69  70
ATOM     70  S   UNL A   1      50.046  26.515  31.494  1.00  0.00     0.124 S 
ATOM     71  O   UNL A   1      50.515  27.238  32.675  1.00  0.00    -0.237 OA
ATOM     72  O   UNL A   1      49.683  25.118  31.716  1.00  0.00    -0.237 OA
ATOM     73  O   UNL A   1      50.797  26.772  30.268  1.00  0.00    -0.744 OA
ENDBRANCH  69  70
ENDBRANCH  50  64
BRANCH  51  74
ATOM     74  C   UNL A   1      37.079  32.880  29.572  1.00  0.00    -0.014 A 
ATOM     75  C   UNL A   1      36.336  33.253  30.704  1.00  0.00     0.010 A 
ATOM     76  C   UNL A   1      36.566  33.154  28.291  1.00  0.00     0.010 A 
ATOM     77  C   UNL A   1      35.104  33.896  30.558  1.00  0.00     0.020 A 
ATOM     78  C   UNL A   1      35.344  33.814  28.141  1.00  0.00     0.020 A 
ATOM     79  C   UNL A   1      34.619  34.180  29.277  1.00  0.00     0.054 A 
BRANCH  79  80
ATOM     80  S   UNL A   1      33.070  35.110  29.107  1.00  0.00     0.124 S 
ATOM     81  O   UNL A   1      32.397  34.386  28.034  1.00  0.00    -0.237 OA
ATOM     82  O   UNL A   1      32.473  34.977  30.434  1.00  0.00    -0.237 OA
ATOM     83  O   UNL A   1      33.520  36.459  28.770  1.00  0.00    -0.744 OA
ENDBRANCH  79  80
ENDBRANCH  51  74
BRANCH  63  84
ATOM     84  C   UNL A   1      43.288  35.214  31.748  1.00  0.00    -0.014 A 
ATOM     85  C   UNL A   1      43.828  36.140  30.838  1.00  0.00     0.010 A 
ATOM     86  C   UNL A   1      43.163  35.574  33.101  1.00  0.00     0.010 A 
ATOM     87  C   UNL A   1      44.271  37.390  31.281  1.00  0.00     0.020 A 
ATOM     88  C   UNL A   1      43.584  36.832  33.544  1.00  0.00     0.020 A 
ATOM     89  C   UNL A   1      44.153  37.724  32.634  1.00  0.00     0.054 A 
BRANCH  89  90
ATOM     90  S   UNL A   1      44.714  39.359  33.186  1.00  0.00     0.124 S 
ATOM     91  O   UNL A   1      45.690  39.011  34.216  1.00  0.00    -0.237 OA
ATOM     92  O   UNL A   1      45.267  39.943  31.968  1.00  0.00    -0.237 OA
ATOM     93  O   UNL A   1      43.492  39.994  33.675  1.00  0.00    -0.744 OA
ENDBRANCH  89  90
ENDBRANCH  63  84
ENDBRANCH  37  38
ENDBRANCH  30  32
ENDBRANCH  29  30
ENDBRANCH  28  29
ENDBRANCH   1  28
TORSDOF 20
ENDMDL
MODEL 2
REMARK VINA RESULT:     -10.8      3.962      5.145
REMARK SMILES CS(=O)(=O)c1ccc(N2N=C(C(=O)OCCOCCOC(=O)c3ccc(-c4c5nc(c(-c6ccc(S(=O)(=O)[O-])cc6)c6ccc([nH]6)c(-c6ccc(S(=O)(=O)[O-])cc6)c6nc(c(-c7ccc(S(=O)(=O)[O-])cc7)c7ccc4[nH]7)C=C6)C=C5)cc3)C[C@H]2c2cccs2)cc1
REMARK SMILES IDX 18 1 17 2 16 3 15 4 14 5 12 6 13 7 11 8 9 9 10 10 84 11
REMARK SMILES IDX 83 12 8 13 5 14 6 15 91 16 7 17 90 18 2 19 1 20 3 21 4 22
REMARK SMILES IDX 85 23 86 24 89 25 87 26 88 27 19 28 20 29 21 30 22 31 23 32
REMARK SMILES IDX 24 33 82 34 25 35 81 36 26 37 27 38 28 39 75 40 29 41 80 42
REMARK SMILES IDX 74 43 76 44 30 45 79 46 73 47 72 48 31 50 61 51 42 52 60 53
REMARK SMILES IDX 43 54 46 55 59 56 77 57 44 58 45 59 58 61 78 62 47 63 32 64
REMARK SMILES IDX 33 65 41 66 34 67 40 68 35 69 36 70 37 71 38 72 39 73 62 74
REMARK SMILES IDX 63 75 71 76 64 77 70 78 65 79 66 80 67 81 68 82 69 83 48 84
REMARK SMILES IDX 49 85 57 86 50 87 56 88 51 89 52 90 53 91 54 92 55 93
REMARK H PARENT 76 49 46 60
REMARK Flexibility Score: inf
ROOT
ATOM      1  C   UNL A   1      42.834  22.134  26.303  1.00  0.00     0.202 C 
ENDROOT
BRANCH   1   2
ATOM      2  O   UNL A   1      41.818  21.131  26.247  1.00  0.00    -0.374 OA
BRANCH   2   3
ATOM      3  C   UNL A   1      40.517  21.507  26.711  1.00  0.00     0.202 C 
BRANCH   3   4
ATOM      4  C   UNL A   1      39.416  21.366  25.658  1.00  0.00     0.261 C 
BRANCH   4   5
ATOM      5  O   UNL A   1      38.189  21.885  26.195  1.00  0.00    -0.459 OA
BRANCH   5   6
ATOM      6  C   UNL A   1      37.996  23.204  26.017  1.00  0.00     0.354 C 
ATOM      7  O   UNL A   1      38.649  24.128  26.463  1.00  0.00    -0.245 OA
BRANCH   6   8
ATOM      8  C   UNL A   1      36.868  23.402  25.039  1.00  0.00     0.148 C 
ATOM      9  N   UNL A   1      35.098  24.138  24.156  1.00  0.00    -0.256 N 
ATOM     10  N   UNL A   1      36.016  24.381  25.133  1.00  0.00    -0.169 NA
ATOM     11  C   UNL A   1      35.227  22.795  23.572  1.00  0.00     0.154 C 
ATOM     12  C   UNL A   1      36.714  22.520  23.837  1.00  0.00     0.099 C 
BRANCH   9  13
ATOM     13  C   UNL A   1      34.027  24.997  23.989  1.00  0.00     0.060 A 
ATOM     14  C   UNL A   1      31.816  26.694  23.596  1.00  0.00     0.067 A 
ATOM     15  C   UNL A   1      32.415  26.075  22.499  1.00  0.00     0.022 A 
ATOM     16  C   UNL A   1      32.330  26.500  24.881  1.00  0.00     0.022 A 
ATOM     17  C   UNL A   1      33.522  25.241  22.704  1.00  0.00     0.029 A 
ATOM     18  C   UNL A   1      33.428  25.655  25.067  1.00  0.00     0.029 A 
BRANCH  14  19
ATOM     19  S   UNL A   1      30.403  27.751  23.407  1.00  0.00     0.175 S 
ATOM     20  C   UNL A   1      30.746  29.231  24.313  1.00  0.00     0.163 C 
ATOM     21  O   UNL A   1      29.289  27.100  24.076  1.00  0.00    -0.224 OA
ATOM     22  O   UNL A   1      30.328  28.094  21.999  1.00  0.00    -0.224 OA
ENDBRANCH  14  19
ENDBRANCH   9  13
BRANCH  11  23
ATOM     23  C   UNL A   1      34.307  21.718  24.127  1.00  0.00     0.030 A 
ATOM     24  C   UNL A   1      34.624  20.755  25.070  1.00  0.00     0.017 A 
ATOM     25  S   UNL A   1      32.680  21.531  23.597  1.00  0.00    -0.147 S 
ATOM     26  C   UNL A   1      33.531  19.889  25.365  1.00  0.00     0.012 A 
ATOM     27  C   UNL A   1      32.402  20.225  24.657  1.00  0.00     0.065 A 
ENDBRANCH  11  23
ENDBRANCH   6   8
ENDBRANCH   5   6
ENDBRANCH   4   5
ENDBRANCH   3   4
ENDBRANCH   2   3
ENDBRANCH   1   2
BRANCH   1  28
ATOM     28  C   UNL A   1      42.586  23.363  25.423  1.00  0.00     0.261 C 
BRANCH  28  29
ATOM     29  O   UNL A   1      43.133  24.555  26.015  1.00  0.00    -0.460 OA
BRANCH  29  30
ATOM     30  C   UNL A   1      42.322  25.640  25.934  1.00  0.00     0.338 C 
ATOM     31  O   UNL A   1      41.628  25.964  24.984  1.00  0.00    -0.246 OA
BRANCH  30  32
ATOM     32  C   UNL A   1      42.249  26.334  27.237  1.00  0.00     0.060 A 
ATOM     33  C   UNL A   1      41.245  25.918  28.119  1.00  0.00     0.016 A 
ATOM     34  C   UNL A   1      43.082  27.405  27.572  1.00  0.00     0.016 A 
ATOM     35  C   UNL A   1      41.025  26.612  29.305  1.00  0.00     0.010 A 
ATOM     36  C   UNL A   1      42.860  28.103  28.767  1.00  0.00     0.010 A 
ATOM     37  C   UNL A   1      41.802  27.735  29.617  1.00  0.00    -0.014 A 
BRANCH  37  38
ATOM     38  C   UNL A   1      41.393  28.580  30.765  1.00  0.00     0.031 A 
ATOM     39  C   UNL A   1      42.177  28.513  32.047  1.00  0.00     0.074 A 
ATOM     40  C   UNL A   1      40.379  29.457  30.644  1.00  0.00     0.049 A 
ATOM     41  N   UNL A   1      42.085  29.269  33.112  1.00  0.00    -0.248 NA
ATOM     42  C   UNL A   1      43.195  27.456  32.141  1.00  0.00     0.031 C 
ATOM     43  C   UNL A   1      39.537  29.617  29.461  1.00  0.00     0.029 A 
ATOM     44  N   UNL A   1      39.898  30.384  31.533  1.00  0.00    -0.354 N 
ATOM     45  C   UNL A   1      43.038  28.784  34.000  1.00  0.00     0.074 A 
ATOM     46  C   UNL A   1      43.667  27.647  33.365  1.00  0.00     0.031 C 
ATOM     47  C   UNL A   1      38.638  30.588  29.696  1.00  0.00     0.029 A 
ATOM     48  C   UNL A   1      38.843  31.115  31.045  1.00  0.00     0.049 A 
ATOM     49  H   UNL A   1      40.271  30.512  32.434  1.00  0.00     0.167 HD
ATOM     50  C   UNL A   1      43.368  29.249  35.230  1.00  0.00     0.031 A 
ATOM     51  C   UNL A   1      38.128  32.106  31.614  1.00  0.00     0.031 A 
ATOM     52  C   UNL A   1      42.732  30.365  35.874  1.00  0.00     0.049 A 
ATOM     53  C   UNL A   1      38.506  32.609  32.979  1.00  0.00     0.074 A 
ATOM     54  C   UNL A   1      43.021  30.932  37.104  1.00  0.00     0.029 A 
ATOM     55  N   UNL A   1      41.665  31.078  35.348  1.00  0.00    -0.354 N 
ATOM     56  N   UNL A   1      39.463  32.190  33.774  1.00  0.00    -0.248 NA
ATOM     57  C   UNL A   1      37.728  33.736  33.511  1.00  0.00     0.031 C 
ATOM     58  C   UNL A   1      42.101  31.961  37.338  1.00  0.00     0.029 A 
ATOM     59  C   UNL A   1      41.267  32.064  36.236  1.00  0.00     0.049 A 
ATOM     60  H   UNL A   1      41.252  30.908  34.470  1.00  0.00     0.167 HD
ATOM     61  C   UNL A   1      39.413  33.015  34.892  1.00  0.00     0.074 A 
ATOM     62  C   UNL A   1      38.342  33.964  34.665  1.00  0.00     0.031 C 
ATOM     63  C   UNL A   1      40.190  32.991  36.006  1.00  0.00     0.031 A 
BRANCH  50  64
ATOM     64  C   UNL A   1      44.455  28.511  35.965  1.00  0.00    -0.014 A 
ATOM     65  C   UNL A   1      44.153  27.437  36.823  1.00  0.00     0.010 A 
ATOM     66  C   UNL A   1      45.794  28.906  35.805  1.00  0.00     0.010 A 
ATOM     67  C   UNL A   1      45.166  26.811  37.554  1.00  0.00     0.020 A 
ATOM     68  C   UNL A   1      46.813  28.267  36.518  1.00  0.00     0.020 A 
ATOM     69  C   UNL A   1      46.488  27.241  37.407  1.00  0.00     0.054 A 
BRANCH  69  70
ATOM     70  S   UNL A   1      47.785  26.434  38.386  1.00  0.00     0.124 S 
ATOM     71  O   UNL A   1      48.999  26.939  37.747  1.00  0.00    -0.237 OA
ATOM     72  O   UNL A   1      47.532  26.932  39.735  1.00  0.00    -0.237 OA
ATOM     73  O   UNL A   1      47.526  25.009  38.193  1.00  0.00    -0.744 OA
ENDBRANCH  69  70
ENDBRANCH  50  64
BRANCH  51  74
ATOM     74  C   UNL A   1      36.986  32.694  30.866  1.00  0.00    -0.014 A 
ATOM     75  C   UNL A   1      35.660  32.427  31.245  1.00  0.00     0.010 A 
ATOM     76  C   UNL A   1      37.232  33.578  29.800  1.00  0.00     0.010 A 
ATOM     77  C   UNL A   1      34.598  33.039  30.574  1.00  0.00     0.020 A 
ATOM     78  C   UNL A   1      36.173  34.207  29.140  1.00  0.00     0.020 A 
ATOM     79  C   UNL A   1      34.861  33.932  29.531  1.00  0.00     0.054 A 
BRANCH  79  80
ATOM     80  S   UNL A   1      33.476  34.799  28.742  1.00  0.00     0.124 S 
ATOM     81  O   UNL A   1      33.085  33.859  27.697  1.00  0.00    -0.237 OA
ATOM     82  O   UNL A   1      32.529  34.953  29.844  1.00  0.00    -0.237 OA
ATOM     83  O   UNL A   1      34.080  36.045  28.274  1.00  0.00    -0.744 OA
ENDBRANCH  79  80
ENDBRANCH  51  74
BRANCH  63  84
ATOM     84  C   UNL A   1      39.917  34.032  37.058  1.00  0.00    -0.014 A 
ATOM     85  C   UNL A   1      39.037  33.775  38.124  1.00  0.00     0.010 A 
ATOM     86  C   UNL A   1      40.576  35.273  36.997  1.00  0.00     0.010 A 
ATOM     87  C   UNL A   1      38.791  34.755  39.090  1.00  0.00     0.020 A 
ATOM     88  C   UNL A   1      40.350  36.248  37.973  1.00  0.00     0.020 A 
ATOM     89  C   UNL A   1      39.444  35.989  39.004  1.00  0.00     0.054 A 
BRANCH  89  90
ATOM     90  S   UNL A   1      39.129  37.242  40.278  1.00  0.00     0.124 S 
ATOM     91  O   UNL A   1      38.549  36.440  41.353  1.00  0.00    -0.237 OA
ATOM     92  O   UNL A   1      40.461  37.778  40.544  1.00  0.00    -0.237 OA
ATOM     93  O   UNL A   1      38.208  38.171  39.627  1.00  0.00    -0.744 OA
ENDBRANCH  89  90
ENDBRANCH  63  84
ENDBRANCH  37  38
ENDBRANCH  30  32
ENDBRANCH  29  30
ENDBRANCH  28  29
ENDBRANCH   1  28
TORSDOF 20
ENDMDL
MODEL 3
REMARK VINA RESULT:     -10.5      1.353      8.093
REMARK SMILES CS(=O)(=O)c1ccc(N2N=C(C(=O)OCCOCCOC(=O)c3ccc(-c4c5nc(c(-c6ccc(S(=O)(=O)[O-])cc6)c6ccc([nH]6)c(-c6ccc(S(=O)(=O)[O-])cc6)c6nc(c(-c7ccc(S(=O)(=O)[O-])cc7)c7ccc4[nH]7)C=C6)C=C5)cc3)C[C@H]2c2cccs2)cc1
REMARK SMILES IDX 18 1 17 2 16 3 15 4 14 5 12 6 13 7 11 8 9 9 10 10 84 11
REMARK SMILES IDX 83 12 8 13 5 14 6 15 91 16 7 17 90 18 2 19 1 20 3 21 4 22
REMARK SMILES IDX 85 23 86 24 89 25 87 26 88 27 19 28 20 29 21 30 22 31 23 32
REMARK SMILES IDX 24 33 82 34 25 35 81 36 26 37 27 38 28 39 75 40 29 41 80 42
REMARK SMILES IDX 74 43 76 44 30 45 79 46 73 47 72 48 31 50 61 51 42 52 60 53
REMARK SMILES IDX 43 54 46 55 59 56 77 57 44 58 45 59 58 61 78 62 47 63 32 64
REMARK SMILES IDX 33 65 41 66 34 67 40 68 35 69 36 70 37 71 38 72 39 73 62 74
REMARK SMILES IDX 63 75 71 76 64 77 70 78 65 79 66 80 67 81 68 82 69 83 48 84
REMARK SMILES IDX 49 85 57 86 50 87 56 88 51 89 52 90 53 91 54 92 55 93
REMARK H PARENT 76 49 46 60
REMARK Flexibility Score: inf
ROOT
ATOM      1  C   UNL A   1      35.587  22.473  24.462  1.00  0.00     0.202 C 
ENDROOT
BRANCH   1   2
ATOM      2  O   UNL A   1      34.528  21.514  24.511  1.00  0.00    -0.374 OA
BRANCH   2   3
ATOM      3  C   UNL A   1      33.964  21.245  25.799  1.00  0.00     0.202 C 
BRANCH   3   4
ATOM      4  C   UNL A   1      32.535  21.763  25.973  1.00  0.00     0.261 C 
BRANCH   4   5
ATOM      5  O   UNL A   1      32.549  22.868  26.891  1.00  0.00    -0.459 OA
BRANCH   5   6
ATOM      6  C   UNL A   1      31.439  23.626  26.896  1.00  0.00     0.354 C 
ATOM      7  O   UNL A   1      30.408  23.449  27.516  1.00  0.00    -0.245 OA
BRANCH   6   8
ATOM      8  C   UNL A   1      31.691  24.862  26.073  1.00  0.00     0.148 C 
ATOM      9  N   UNL A   1      31.350  26.583  24.900  1.00  0.00    -0.256 N 
ATOM     10  N   UNL A   1      30.745  25.685  25.727  1.00  0.00    -0.169 NA
ATOM     11  C   UNL A   1      32.699  26.164  24.490  1.00  0.00     0.154 C 
ATOM     12  C   UNL A   1      33.079  25.262  25.673  1.00  0.00     0.099 C 
BRANCH   9  13
ATOM     13  C   UNL A   1      30.610  27.605  24.334  1.00  0.00     0.060 A 
ATOM     14  C   UNL A   1      29.036  29.651  23.211  1.00  0.00     0.067 A 
ATOM     15  C   UNL A   1      28.621  28.323  23.106  1.00  0.00     0.022 A 
ATOM     16  C   UNL A   1      30.243  29.962  23.842  1.00  0.00     0.022 A 
ATOM     17  C   UNL A   1      29.417  27.312  23.658  1.00  0.00     0.029 A 
ATOM     18  C   UNL A   1      31.018  28.941  24.397  1.00  0.00     0.029 A 
BRANCH  14  19
ATOM     19  S   UNL A   1      28.067  30.981  22.545  1.00  0.00     0.175 S 
ATOM     20  C   UNL A   1      29.086  32.427  22.587  1.00  0.00     0.163 C 
ATOM     21  O   UNL A   1      26.971  31.215  23.469  1.00  0.00    -0.224 OA
ATOM     22  O   UNL A   1      27.812  30.652  21.155  1.00  0.00    -0.224 OA
ENDBRANCH  14  19
ENDBRANCH   9  13
BRANCH  11  23
ATOM     23  C   UNL A   1      32.817  25.470  23.141  1.00  0.00     0.030 A 
ATOM     24  C   UNL A   1      32.931  24.109  22.911  1.00  0.00     0.017 A 
ATOM     25  S   UNL A   1      32.861  26.340  21.656  1.00  0.00    -0.147 S 
ATOM     26  C   UNL A   1      33.032  23.790  21.525  1.00  0.00     0.012 A 
ATOM     27  C   UNL A   1      32.971  24.912  20.732  1.00  0.00     0.065 A 
ENDBRANCH  11  23
ENDBRANCH   6   8
ENDBRANCH   5   6
ENDBRANCH   4   5
ENDBRANCH   3   4
ENDBRANCH   2   3
ENDBRANCH   1   2
BRANCH   1  28
ATOM     28  C   UNL A   1      35.937  23.127  25.803  1.00  0.00     0.261 C 
BRANCH  28  29
ATOM     29  O   UNL A   1      37.050  24.030  25.675  1.00  0.00    -0.460 OA
BRANCH  29  30
ATOM     30  C   UNL A   1      38.247  23.491  26.012  1.00  0.00     0.338 C 
ATOM     31  O   UNL A   1      38.671  22.392  25.688  1.00  0.00    -0.246 OA
BRANCH  30  32
ATOM     32  C   UNL A   1      39.086  24.482  26.718  1.00  0.00     0.060 A 
ATOM     33  C   UNL A   1      38.884  24.611  28.097  1.00  0.00     0.016 A 
ATOM     34  C   UNL A   1      39.993  25.315  26.056  1.00  0.00     0.016 A 
ATOM     35  C   UNL A   1      39.535  25.616  28.807  1.00  0.00     0.010 A 
ATOM     36  C   UNL A   1      40.648  26.326  26.772  1.00  0.00     0.010 A 
ATOM     37  C   UNL A   1      40.388  26.508  28.142  1.00  0.00    -0.014 A 
BRANCH  37  38
ATOM     38  C   UNL A   1      40.880  27.696  28.880  1.00  0.00     0.031 A 
ATOM     39  C   UNL A   1      39.971  28.882  29.058  1.00  0.00     0.074 A 
ATOM     40  C   UNL A   1      42.097  27.693  29.453  1.00  0.00     0.049 A 
ATOM     41  N   UNL A   1      40.144  29.952  29.791  1.00  0.00    -0.248 NA
ATOM     42  C   UNL A   1      38.704  28.857  28.311  1.00  0.00     0.031 C 
ATOM     43  C   UNL A   1      43.076  26.613  29.351  1.00  0.00     0.029 A 
ATOM     44  N   UNL A   1      42.708  28.633  30.243  1.00  0.00    -0.354 N 
ATOM     45  C   UNL A   1      39.005  30.726  29.601  1.00  0.00     0.074 A 
ATOM     46  C   UNL A   1      38.169  30.021  28.654  1.00  0.00     0.031 C 
ATOM     47  C   UNL A   1      44.170  26.951  30.055  1.00  0.00     0.029 A 
ATOM     48  C   UNL A   1      43.967  28.269  30.655  1.00  0.00     0.049 A 
ATOM     49  H   UNL A   1      42.286  29.487  30.491  1.00  0.00     0.167 HD
ATOM     50  C   UNL A   1      38.678  31.912  30.170  1.00  0.00     0.031 A 
ATOM     51  C   UNL A   1      44.853  28.918  31.436  1.00  0.00     0.031 A 
ATOM     52  C   UNL A   1      39.514  32.627  31.095  1.00  0.00     0.049 A 
ATOM     53  C   UNL A   1      44.475  30.232  32.059  1.00  0.00     0.074 A 
ATOM     54  C   UNL A   1      39.254  33.817  31.753  1.00  0.00     0.029 A 
ATOM     55  N   UNL A   1      40.783  32.226  31.485  1.00  0.00    -0.354 N 
ATOM     56  N   UNL A   1      43.360  30.914  31.931  1.00  0.00    -0.248 NA
ATOM     57  C   UNL A   1      45.463  30.852  32.953  1.00  0.00     0.031 C 
ATOM     58  C   UNL A   1      40.384  34.157  32.507  1.00  0.00     0.029 A 
ATOM     59  C   UNL A   1      41.330  33.155  32.355  1.00  0.00     0.049 A 
ATOM     60  H   UNL A   1      41.230  31.400  31.188  1.00  0.00     0.167 HD
ATOM     61  C   UNL A   1      43.506  32.032  32.743  1.00  0.00     0.074 A 
ATOM     62  C   UNL A   1      44.810  31.929  33.368  1.00  0.00     0.031 C 
ATOM     63  C   UNL A   1      42.634  33.051  32.957  1.00  0.00     0.031 A 
BRANCH  50  64
ATOM     64  C   UNL A   1      37.360  32.518  29.768  1.00  0.00    -0.014 A 
ATOM     65  C   UNL A   1      37.291  33.514  28.777  1.00  0.00     0.010 A 
ATOM     66  C   UNL A   1      36.178  32.094  30.399  1.00  0.00     0.010 A 
ATOM     67  C   UNL A   1      36.069  34.118  28.467  1.00  0.00     0.020 A 
ATOM     68  C   UNL A   1      34.951  32.680  30.076  1.00  0.00     0.020 A 
ATOM     69  C   UNL A   1      34.910  33.706  29.130  1.00  0.00     0.054 A 
BRANCH  69  70
ATOM     70  S   UNL A   1      33.338  34.522  28.734  1.00  0.00     0.124 S 
ATOM     71  O   UNL A   1      33.793  35.772  28.131  1.00  0.00    -0.237 OA
ATOM     72  O   UNL A   1      32.704  33.577  27.818  1.00  0.00    -0.237 OA
ATOM     73  O   UNL A   1      32.684  34.658  30.033  1.00  0.00    -0.744 OA
ENDBRANCH  69  70
ENDBRANCH  50  64
BRANCH  51  74
ATOM     74  C   UNL A   1      46.185  28.305  31.680  1.00  0.00    -0.014 A 
ATOM     75  C   UNL A   1      46.378  27.388  32.726  1.00  0.00     0.010 A 
ATOM     76  C   UNL A   1      47.257  28.599  30.817  1.00  0.00     0.010 A 
ATOM     77  C   UNL A   1      47.618  26.770  32.903  1.00  0.00     0.020 A 
ATOM     78  C   UNL A   1      48.493  27.969  30.979  1.00  0.00     0.020 A 
ATOM     79  C   UNL A   1      48.666  27.058  32.023  1.00  0.00     0.054 A 
BRANCH  79  80
ATOM     80  S   UNL A   1      50.237  26.167  32.201  1.00  0.00     0.124 S 
ATOM     81  O   UNL A   1      51.207  27.173  31.782  1.00  0.00    -0.237 OA
ATOM     82  O   UNL A   1      50.250  25.828  33.622  1.00  0.00    -0.237 OA
ATOM     83  O   UNL A   1      50.084  25.027  31.300  1.00  0.00    -0.744 OA
ENDBRANCH  79  80
ENDBRANCH  51  74
BRANCH  63  84
ATOM     84  C   UNL A   1      43.057  34.130  33.917  1.00  0.00    -0.014 A 
ATOM     85  C   UNL A   1      43.731  35.280  33.468  1.00  0.00     0.010 A 
ATOM     86  C   UNL A   1      42.747  34.007  35.283  1.00  0.00     0.010 A 
ATOM     87  C   UNL A   1      44.122  36.270  34.374  1.00  0.00     0.020 A 
ATOM     88  C   UNL A   1      43.116  35.005  36.190  1.00  0.00     0.020 A 
ATOM     89  C   UNL A   1      43.818  36.122  35.732  1.00  0.00     0.054 A 
BRANCH  89  90
ATOM     90  S   UNL A   1      44.315  37.427  36.890  1.00  0.00     0.124 S 
ATOM     91  O   UNL A   1      43.239  37.380  37.877  1.00  0.00    -0.237 OA
ATOM     92  O   UNL A   1      45.618  36.967  37.360  1.00  0.00    -0.237 OA
ATOM     93  O   UNL A   1      44.347  38.629  36.060  1.00  0.00    -0.744 OA
ENDBRANCH  89  90
ENDBRANCH  63  84
ENDBRANCH  37  38
ENDBRANCH  30  32
ENDBRANCH  29  30
ENDBRANCH  28  29
ENDBRANCH   1  28
TORSDOF 20
ENDMDL
