MODEL 1
REMARK VINA RESULT:     -10.1      0.000      0.000
REMARK SMILES O=C(CCC(=O)OCCOCCOC(=O)c1ccc(-c2c3nc(c(-c4ccc(S(=O)(=O)[O-])cc4)c4ccc([nH]4)c(-c4ccc(S(=O)(=O)[O-])cc4)c4nc(c(-c5ccc(S(=O)(=O)[O-])cc5)c5ccc2[nH]5)C=C4)C=C3)cc1)Nc1ccc2nc(-c3ccccc3)oc2c1
REMARK SMILES IDX 9 1 8 2 7 3 5 4 6 5 4 6 3 7 2 8 1 9 76 10 77 12 78 13 91 14
REMARK SMILES IDX 79 15 90 16 80 17 89 18 81 19 82 20 83 21 84 22 88 23 85 24
REMARK SMILES IDX 87 25 86 26 10 27 11 28 12 29 13 30 14 31 15 32 16 33 17 34
REMARK SMILES IDX 75 35 18 36 74 37 19 38 20 39 21 40 68 41 22 42 73 43 67 44
REMARK SMILES IDX 69 45 23 46 72 47 66 48 65 49 24 51 54 52 35 53 53 54 36 55
REMARK SMILES IDX 39 56 52 57 70 58 37 59 38 60 51 62 71 63 40 64 25 65 26 66
REMARK SMILES IDX 34 67 27 68 33 69 28 70 29 71 30 72 31 73 32 74 55 75 56 76
REMARK SMILES IDX 64 77 57 78 63 79 58 80 59 81 60 82 61 83 62 84 41 85 42 86
REMARK SMILES IDX 50 87 43 88 49 89 44 90 45 91 46 92 47 93 48 94
REMARK H PARENT 76 11 69 50 39 61
REMARK Flexibility Score: inf
ROOT
ATOM      1  C   UNL A   1      36.162  21.651  25.725  1.00  0.00     0.202 C 
ENDROOT
BRANCH   1   2
ATOM      2  C   UNL A   1      34.692  21.561  26.141  1.00  0.00     0.261 C 
BRANCH   2   3
ATOM      3  O   UNL A   1      33.810  21.607  24.993  1.00  0.00    -0.463 OA
BRANCH   3   4
ATOM      4  C   UNL A   1      32.588  21.022  25.143  1.00  0.00     0.306 C 
ATOM      5  O   UNL A   1      32.344  19.846  24.913  1.00  0.00    -0.252 OA
BRANCH   4   6
ATOM      6  C   UNL A   1      31.531  22.018  25.583  1.00  0.00     0.132 C 
BRANCH   6   7
ATOM      7  C   UNL A   1      31.564  23.386  24.895  1.00  0.00     0.112 C 
BRANCH   7   8
ATOM      8  C   UNL A   1      31.979  24.511  25.832  1.00  0.00     0.224 C 
ATOM      9  O   UNL A   1      31.715  24.482  27.028  1.00  0.00    -0.275 OA
ATOM     10  N   UNL A   1      32.591  25.544  25.159  1.00  0.00    -0.326 N 
ATOM     11  H   UNL A   1      32.911  25.359  24.247  1.00  0.00     0.169 HD
BRANCH  10  12
ATOM     12  C   UNL A   1      32.796  26.836  25.664  1.00  0.00     0.045 A 
ATOM     13  C   UNL A   1      31.776  27.738  25.329  1.00  0.00     0.028 A 
ATOM     14  C   UNL A   1      33.901  27.222  26.449  1.00  0.00     0.075 A 
ATOM     15  C   UNL A   1      31.759  29.023  25.848  1.00  0.00     0.034 A 
ATOM     16  C   UNL A   1      33.910  28.565  26.840  1.00  0.00     0.157 A 
ATOM     17  C   UNL A   1      32.858  29.434  26.598  1.00  0.00     0.110 A 
ATOM     18  O   UNL A   1      34.896  29.295  27.482  1.00  0.00    -0.436 OA
ATOM     19  N   UNL A   1      33.094  30.638  27.164  1.00  0.00    -0.209 NA
ATOM     20  C   UNL A   1      34.327  30.546  27.617  1.00  0.00     0.227 A 
BRANCH  20  21
ATOM     21  C   UNL A   1      35.045  31.629  28.275  1.00  0.00     0.037 A 
ATOM     22  C   UNL A   1      36.419  31.848  28.133  1.00  0.00     0.014 A 
ATOM     23  C   UNL A   1      34.268  32.615  28.907  1.00  0.00     0.014 A 
ATOM     24  C   UNL A   1      36.984  33.050  28.587  1.00  0.00     0.001 A 
ATOM     25  C   UNL A   1      34.826  33.809  29.352  1.00  0.00     0.001 A 
ATOM     26  C   UNL A   1      36.188  34.030  29.183  1.00  0.00     0.000 A 
ENDBRANCH  20  21
ENDBRANCH  10  12
ENDBRANCH   7   8
ENDBRANCH   6   7
ENDBRANCH   4   6
ENDBRANCH   3   4
ENDBRANCH   2   3
ENDBRANCH   1   2
BRANCH   1  27
ATOM     27  O   UNL A   1      36.594  22.906  25.205  1.00  0.00    -0.374 OA
BRANCH  27  28
ATOM     28  C   UNL A   1      37.115  23.854  26.130  1.00  0.00     0.202 C 
BRANCH  28  29
ATOM     29  C   UNL A   1      38.636  23.864  26.331  1.00  0.00     0.261 C 
BRANCH  29  30
ATOM     30  O   UNL A   1      39.043  24.488  27.563  1.00  0.00    -0.460 OA
BRANCH  30  31
ATOM     31  C   UNL A   1      39.805  25.600  27.411  1.00  0.00     0.338 C 
ATOM     32  O   UNL A   1      40.437  25.922  26.409  1.00  0.00    -0.246 OA
BRANCH  31  33
ATOM     33  C   UNL A   1      39.649  26.502  28.566  1.00  0.00     0.060 A 
ATOM     34  C   UNL A   1      40.510  27.604  28.669  1.00  0.00     0.016 A 
ATOM     35  C   UNL A   1      38.734  26.233  29.580  1.00  0.00     0.016 A 
ATOM     36  C   UNL A   1      40.486  28.421  29.805  1.00  0.00     0.010 A 
ATOM     37  C   UNL A   1      38.712  27.056  30.713  1.00  0.00     0.010 A 
ATOM     38  C   UNL A   1      39.604  28.142  30.854  1.00  0.00    -0.014 A 
BRANCH  38  39
ATOM     39  C   UNL A   1      39.682  28.850  32.168  1.00  0.00     0.031 A 
ATOM     40  C   UNL A   1      38.784  30.040  32.387  1.00  0.00     0.074 A 
ATOM     41  C   UNL A   1      40.554  28.499  33.137  1.00  0.00     0.049 A 
ATOM     42  N   UNL A   1      38.827  30.956  33.317  1.00  0.00    -0.248 NA
ATOM     43  C   UNL A   1      37.681  30.216  31.423  1.00  0.00     0.031 C 
ATOM     44  C   UNL A   1      41.419  27.323  33.124  1.00  0.00     0.029 A 
ATOM     45  N   UNL A   1      40.917  29.158  34.293  1.00  0.00    -0.354 N 
ATOM     46  C   UNL A   1      37.759  31.807  33.059  1.00  0.00     0.074 A 
ATOM     47  C   UNL A   1      37.127  31.343  31.845  1.00  0.00     0.031 C 
ATOM     48  C   UNL A   1      42.312  27.419  34.125  1.00  0.00     0.029 A 
ATOM     49  C   UNL A   1      42.071  28.655  34.860  1.00  0.00     0.049 A 
ATOM     50  H   UNL A   1      40.407  29.909  34.674  1.00  0.00     0.167 HD
ATOM     51  C   UNL A   1      37.317  32.855  33.791  1.00  0.00     0.031 A 
ATOM     52  C   UNL A   1      42.874  29.160  35.820  1.00  0.00     0.031 A 
ATOM     53  C   UNL A   1      37.922  33.289  35.021  1.00  0.00     0.049 A 
ATOM     54  C   UNL A   1      42.454  30.422  36.535  1.00  0.00     0.074 A 
ATOM     55  C   UNL A   1      37.495  34.288  35.878  1.00  0.00     0.029 A 
ATOM     56  N   UNL A   1      39.076  32.755  35.568  1.00  0.00    -0.354 N 
ATOM     57  N   UNL A   1      41.391  31.165  36.339  1.00  0.00    -0.248 NA
ATOM     58  C   UNL A   1      43.311  30.890  37.637  1.00  0.00     0.031 C 
ATOM     59  C   UNL A   1      38.421  34.395  36.918  1.00  0.00     0.029 A 
ATOM     60  C   UNL A   1      39.391  33.422  36.738  1.00  0.00     0.049 A 
ATOM     61  H   UNL A   1      39.595  32.012  35.183  1.00  0.00     0.167 HD
ATOM     62  C   UNL A   1      41.420  32.140  37.329  1.00  0.00     0.074 A 
ATOM     63  C   UNL A   1      42.604  31.900  38.123  1.00  0.00     0.031 C 
ATOM     64  C   UNL A   1      40.535  33.140  37.562  1.00  0.00     0.031 A 
BRANCH  51  65
ATOM     65  C   UNL A   1      36.102  33.596  33.306  1.00  0.00    -0.014 A 
ATOM     66  C   UNL A   1      34.819  33.030  33.417  1.00  0.00     0.010 A 
ATOM     67  C   UNL A   1      36.233  34.913  32.827  1.00  0.00     0.010 A 
ATOM     68  C   UNL A   1      33.690  33.762  33.042  1.00  0.00     0.020 A 
ATOM     69  C   UNL A   1      35.104  35.657  32.478  1.00  0.00     0.020 A 
ATOM     70  C   UNL A   1      33.839  35.074  32.581  1.00  0.00     0.054 A 
BRANCH  70  71
ATOM     71  S   UNL A   1      32.349  36.024  32.176  1.00  0.00     0.124 S 
ATOM     72  O   UNL A   1      32.487  36.199  30.732  1.00  0.00    -0.237 OA
ATOM     73  O   UNL A   1      31.275  35.129  32.600  1.00  0.00    -0.237 OA
ATOM     74  O   UNL A   1      32.489  37.244  32.967  1.00  0.00    -0.744 OA
ENDBRANCH  70  71
ENDBRANCH  51  65
BRANCH  52  75
ATOM     75  C   UNL A   1      44.187  28.518  36.141  1.00  0.00    -0.014 A 
ATOM     76  C   UNL A   1      45.321  28.722  35.336  1.00  0.00     0.010 A 
ATOM     77  C   UNL A   1      44.282  27.618  37.220  1.00  0.00     0.010 A 
ATOM     78  C   UNL A   1      46.492  27.988  35.557  1.00  0.00     0.020 A 
ATOM     79  C   UNL A   1      45.454  26.893  37.455  1.00  0.00     0.020 A 
ATOM     80  C   UNL A   1      46.546  27.066  36.607  1.00  0.00     0.054 A 
BRANCH  80  81
ATOM     81  S   UNL A   1      48.066  26.101  36.847  1.00  0.00     0.124 S 
ATOM     82  O   UNL A   1      48.728  26.834  37.921  1.00  0.00    -0.237 OA
ATOM     83  O   UNL A   1      47.545  24.785  37.205  1.00  0.00    -0.237 OA
ATOM     84  O   UNL A   1      48.726  26.169  35.544  1.00  0.00    -0.744 OA
ENDBRANCH  80  81
ENDBRANCH  52  75
BRANCH  64  85
ATOM     85  C   UNL A   1      40.727  33.982  38.793  1.00  0.00    -0.014 A 
ATOM     86  C   UNL A   1      41.380  35.223  38.746  1.00  0.00     0.010 A 
ATOM     87  C   UNL A   1      40.155  33.551  40.007  1.00  0.00     0.010 A 
ATOM     88  C   UNL A   1      41.470  36.014  39.896  1.00  0.00     0.020 A 
ATOM     89  C   UNL A   1      40.217  34.351  41.149  1.00  0.00     0.020 A 
ATOM     90  C   UNL A   1      40.883  35.576  41.088  1.00  0.00     0.054 A 
BRANCH  90  91
ATOM     91  S   UNL A   1      40.953  36.653  42.545  1.00  0.00     0.124 S 
ATOM     92  O   UNL A   1      41.485  35.754  43.565  1.00  0.00    -0.237 OA
ATOM     93  O   UNL A   1      41.855  37.718  42.112  1.00  0.00    -0.237 OA
ATOM     94  O   UNL A   1      39.563  37.063  42.740  1.00  0.00    -0.744 OA
ENDBRANCH  90  91
ENDBRANCH  64  85
ENDBRANCH  38  39
ENDBRANCH  31  33
ENDBRANCH  30  31
ENDBRANCH  29  30
ENDBRANCH  28  29
ENDBRANCH  27  28
ENDBRANCH   1  27
TORSDOF 21
ENDMDL
MODEL 2
REMARK VINA RESULT:     -10.1      1.714      8.175
REMARK SMILES O=C(CCC(=O)OCCOCCOC(=O)c1ccc(-c2c3nc(c(-c4ccc(S(=O)(=O)[O-])cc4)c4ccc([nH]4)c(-c4ccc(S(=O)(=O)[O-])cc4)c4nc(c(-c5ccc(S(=O)(=O)[O-])cc5)c5ccc2[nH]5)C=C4)C=C3)cc1)Nc1ccc2nc(-c3ccccc3)oc2c1
REMARK SMILES IDX 9 1 8 2 7 3 5 4 6 5 4 6 3 7 2 8 1 9 76 10 77 12 78 13 91 14
REMARK SMILES IDX 79 15 90 16 80 17 89 18 81 19 82 20 83 21 84 22 88 23 85 24
REMARK SMILES IDX 87 25 86 26 10 27 11 28 12 29 13 30 14 31 15 32 16 33 17 34
REMARK SMILES IDX 75 35 18 36 74 37 19 38 20 39 21 40 68 41 22 42 73 43 67 44
REMARK SMILES IDX 69 45 23 46 72 47 66 48 65 49 24 51 54 52 35 53 53 54 36 55
REMARK SMILES IDX 39 56 52 57 70 58 37 59 38 60 51 62 71 63 40 64 25 65 26 66
REMARK SMILES IDX 34 67 27 68 33 69 28 70 29 71 30 72 31 73 32 74 55 75 56 76
REMARK SMILES IDX 64 77 57 78 63 79 58 80 59 81 60 82 61 83 62 84 41 85 42 86
REMARK SMILES IDX 50 87 43 88 49 89 44 90 45 91 46 92 47 93 48 94
REMARK H PARENT 76 11 69 50 39 61
REMARK Flexibility Score: inf
ROOT
ATOM      1  C   UNL A   1      35.520  21.876  26.187  1.00  0.00     0.202 C 
ENDROOT
BRANCH   1   2
ATOM      2  C   UNL A   1      34.154  21.201  26.037  1.00  0.00     0.261 C 
BRANCH   2   3
ATOM      3  O   UNL A   1      34.110  20.340  24.873  1.00  0.00    -0.463 OA
BRANCH   3   4
ATOM      4  C   UNL A   1      32.897  19.803  24.561  1.00  0.00     0.306 C 
ATOM      5  O   UNL A   1      32.086  19.387  25.376  1.00  0.00    -0.252 OA
BRANCH   4   6
ATOM      6  C   UNL A   1      32.678  19.727  23.061  1.00  0.00     0.132 C 
BRANCH   6   7
ATOM      7  C   UNL A   1      32.001  20.940  22.415  1.00  0.00     0.112 C 
BRANCH   7   8
ATOM      8  C   UNL A   1      32.026  22.176  23.303  1.00  0.00     0.224 C 
ATOM      9  O   UNL A   1      31.088  22.458  24.039  1.00  0.00    -0.275 OA
ATOM     10  N   UNL A   1      33.163  22.927  23.109  1.00  0.00    -0.326 N 
ATOM     11  H   UNL A   1      33.913  22.495  22.642  1.00  0.00     0.169 HD
BRANCH  10  12
ATOM     12  C   UNL A   1      33.340  24.256  23.521  1.00  0.00     0.045 A 
ATOM     13  C   UNL A   1      33.533  25.151  22.459  1.00  0.00     0.028 A 
ATOM     14  C   UNL A   1      33.318  24.687  24.862  1.00  0.00     0.075 A 
ATOM     15  C   UNL A   1      33.601  26.518  22.680  1.00  0.00     0.034 A 
ATOM     16  C   UNL A   1      33.526  26.058  25.048  1.00  0.00     0.157 A 
ATOM     17  C   UNL A   1      33.615  26.961  24.000  1.00  0.00     0.110 A 
ATOM     18  O   UNL A   1      33.704  26.778  26.216  1.00  0.00    -0.436 OA
ATOM     19  N   UNL A   1      33.722  28.225  24.468  1.00  0.00    -0.209 NA
ATOM     20  C   UNL A   1      33.840  28.078  25.770  1.00  0.00     0.227 A 
BRANCH  20  21
ATOM     21  C   UNL A   1      34.028  29.176  26.709  1.00  0.00     0.037 A 
ATOM     22  C   UNL A   1      35.241  29.453  27.346  1.00  0.00     0.014 A 
ATOM     23  C   UNL A   1      32.988  30.117  26.802  1.00  0.00     0.014 A 
ATOM     24  C   UNL A   1      35.410  30.668  28.028  1.00  0.00     0.001 A 
ATOM     25  C   UNL A   1      33.156  31.325  27.474  1.00  0.00     0.001 A 
ATOM     26  C   UNL A   1      34.374  31.604  28.081  1.00  0.00     0.000 A 
ENDBRANCH  20  21
ENDBRANCH  10  12
ENDBRANCH   7   8
ENDBRANCH   6   7
ENDBRANCH   4   6
ENDBRANCH   3   4
ENDBRANCH   2   3
ENDBRANCH   1   2
BRANCH   1  27
ATOM     27  O   UNL A   1      36.189  22.218  24.974  1.00  0.00    -0.374 OA
BRANCH  27  28
ATOM     28  C   UNL A   1      37.067  23.338  25.005  1.00  0.00     0.202 C 
BRANCH  28  29
ATOM     29  C   UNL A   1      38.317  23.214  25.887  1.00  0.00     0.261 C 
BRANCH  29  30
ATOM     30  O   UNL A   1      38.591  24.401  26.654  1.00  0.00    -0.460 OA
BRANCH  30  31
ATOM     31  C   UNL A   1      39.907  24.702  26.783  1.00  0.00     0.338 C 
ATOM     32  O   UNL A   1      40.811  24.375  26.019  1.00  0.00    -0.246 OA
BRANCH  31  33
ATOM     33  C   UNL A   1      40.121  25.646  27.895  1.00  0.00     0.060 A 
ATOM     34  C   UNL A   1      39.143  25.724  28.897  1.00  0.00     0.016 A 
ATOM     35  C   UNL A   1      41.216  26.505  27.918  1.00  0.00     0.016 A 
ATOM     36  C   UNL A   1      39.237  26.688  29.908  1.00  0.00     0.010 A 
ATOM     37  C   UNL A   1      41.307  27.466  28.933  1.00  0.00     0.010 A 
ATOM     38  C   UNL A   1      40.307  27.589  29.924  1.00  0.00    -0.014 A 
BRANCH  38  39
ATOM     39  C   UNL A   1      40.345  28.762  30.850  1.00  0.00     0.031 A 
ATOM     40  C   UNL A   1      41.130  28.630  32.130  1.00  0.00     0.074 A 
ATOM     41  C   UNL A   1      39.668  29.905  30.610  1.00  0.00     0.049 A 
ATOM     42  N   UNL A   1      41.123  29.390  33.192  1.00  0.00    -0.248 NA
ATOM     43  C   UNL A   1      42.054  27.484  32.218  1.00  0.00     0.031 C 
ATOM     44  C   UNL A   1      38.944  30.229  29.384  1.00  0.00     0.029 A 
ATOM     45  N   UNL A   1      39.407  30.978  31.436  1.00  0.00    -0.354 N 
ATOM     46  C   UNL A   1      42.042  28.823  34.067  1.00  0.00     0.074 A 
ATOM     47  C   UNL A   1      42.537  27.617  33.444  1.00  0.00     0.031 C 
ATOM     48  C   UNL A   1      38.201  31.331  29.586  1.00  0.00     0.029 A 
ATOM     49  C   UNL A   1      38.410  31.801  30.951  1.00  0.00     0.049 A 
ATOM     50  H   UNL A   1      39.882  31.140  32.283  1.00  0.00     0.167 HD
ATOM     51  C   UNL A   1      42.469  29.289  35.263  1.00  0.00     0.031 A 
ATOM     52  C   UNL A   1      37.705  32.782  31.554  1.00  0.00     0.031 A 
ATOM     53  C   UNL A   1      42.006  30.511  35.862  1.00  0.00     0.049 A 
ATOM     54  C   UNL A   1      38.085  33.199  32.955  1.00  0.00     0.074 A 
ATOM     55  C   UNL A   1      42.443  31.109  37.031  1.00  0.00     0.029 A 
ATOM     56  N   UNL A   1      41.010  31.320  35.343  1.00  0.00    -0.354 N 
ATOM     57  N   UNL A   1      39.021  32.711  33.735  1.00  0.00    -0.248 NA
ATOM     58  C   UNL A   1      37.352  34.332  33.543  1.00  0.00     0.031 C 
ATOM     59  C   UNL A   1      41.671  32.253  37.249  1.00  0.00     0.029 A 
ATOM     60  C   UNL A   1      40.798  32.398  36.183  1.00  0.00     0.049 A 
ATOM     61  H   UNL A   1      40.525  31.153  34.502  1.00  0.00     0.167 HD
ATOM     62  C   UNL A   1      39.029  33.516  34.868  1.00  0.00     0.074 A 
ATOM     63  C   UNL A   1      38.008  34.522  34.679  1.00  0.00     0.031 C 
ATOM     64  C   UNL A   1      39.824  33.433  35.962  1.00  0.00     0.031 A 
BRANCH  51  65
ATOM     65  C   UNL A   1      43.512  28.496  36.001  1.00  0.00    -0.014 A 
ATOM     66  C   UNL A   1      43.155  27.377  36.775  1.00  0.00     0.010 A 
ATOM     67  C   UNL A   1      44.873  28.812  35.838  1.00  0.00     0.010 A 
ATOM     68  C   UNL A   1      44.139  26.597  37.385  1.00  0.00     0.020 A 
ATOM     69  C   UNL A   1      45.861  28.018  36.425  1.00  0.00     0.020 A 
ATOM     70  C   UNL A   1      45.487  26.919  37.201  1.00  0.00     0.054 A 
BRANCH  70  71
ATOM     71  S   UNL A   1      46.744  25.843  37.944  1.00  0.00     0.124 S 
ATOM     72  O   UNL A   1      47.933  26.190  37.168  1.00  0.00    -0.237 OA
ATOM     73  O   UNL A   1      46.754  26.279  39.338  1.00  0.00    -0.237 OA
ATOM     74  O   UNL A   1      46.226  24.497  37.718  1.00  0.00    -0.744 OA
ENDBRANCH  70  71
ENDBRANCH  51  65
BRANCH  52  75
ATOM     75  C   UNL A   1      36.532  33.415  30.876  1.00  0.00    -0.014 A 
ATOM     76  C   UNL A   1      36.657  34.039  29.623  1.00  0.00     0.010 A 
ATOM     77  C   UNL A   1      35.288  33.473  31.534  1.00  0.00     0.010 A 
ATOM     78  C   UNL A   1      35.592  34.766  29.080  1.00  0.00     0.020 A 
ATOM     79  C   UNL A   1      34.215  34.184  30.990  1.00  0.00     0.020 A 
ATOM     80  C   UNL A   1      34.380  34.847  29.774  1.00  0.00     0.054 A 
BRANCH  80  81
ATOM     81  S   UNL A   1      33.028  35.827  29.063  1.00  0.00     0.124 S 
ATOM     82  O   UNL A   1      32.451  34.899  28.097  1.00  0.00    -0.237 OA
ATOM     83  O   UNL A   1      32.203  36.115  30.234  1.00  0.00    -0.237 OA
ATOM     84  O   UNL A   1      33.708  36.986  28.488  1.00  0.00    -0.744 OA
ENDBRANCH  80  81
ENDBRANCH  52  75
BRANCH  64  85
ATOM     85  C   UNL A   1      39.724  34.522  36.995  1.00  0.00    -0.014 A 
ATOM     86  C   UNL A   1      38.930  34.380  38.144  1.00  0.00     0.010 A 
ATOM     87  C   UNL A   1      40.519  35.675  36.846  1.00  0.00     0.010 A 
ATOM     88  C   UNL A   1      38.923  35.381  39.121  1.00  0.00     0.020 A 
ATOM     89  C   UNL A   1      40.537  36.662  37.832  1.00  0.00     0.020 A 
ATOM     90  C   UNL A   1      39.731  36.512  38.962  1.00  0.00     0.054 A 
BRANCH  90  91
ATOM     91  S   UNL A   1      39.756  37.760  40.277  1.00  0.00     0.124 S 
ATOM     92  O   UNL A   1      38.941  38.827  39.701  1.00  0.00    -0.237 OA
ATOM     93  O   UNL A   1      39.157  37.049  41.404  1.00  0.00    -0.237 OA
ATOM     94  O   UNL A   1      41.176  38.074  40.430  1.00  0.00    -0.744 OA
ENDBRANCH  90  91
ENDBRANCH  64  85
ENDBRANCH  38  39
ENDBRANCH  31  33
ENDBRANCH  30  31
ENDBRANCH  29  30
ENDBRANCH  28  29
ENDBRANCH  27  28
ENDBRANCH   1  27
TORSDOF 21
ENDMDL
MODEL 3
REMARK VINA RESULT:      -9.3      6.436     11.559
REMARK SMILES O=C(CCC(=O)OCCOCCOC(=O)c1ccc(-c2c3nc(c(-c4ccc(S(=O)(=O)[O-])cc4)c4ccc([nH]4)c(-c4ccc(S(=O)(=O)[O-])cc4)c4nc(c(-c5ccc(S(=O)(=O)[O-])cc5)c5ccc2[nH]5)C=C4)C=C3)cc1)Nc1ccc2nc(-c3ccccc3)oc2c1
REMARK SMILES IDX 9 1 8 2 7 3 5 4 6 5 4 6 3 7 2 8 1 9 76 10 77 12 78 13 91 14
REMARK SMILES IDX 79 15 90 16 80 17 89 18 81 19 82 20 83 21 84 22 88 23 85 24
REMARK SMILES IDX 87 25 86 26 10 27 11 28 12 29 13 30 14 31 15 32 16 33 17 34
REMARK SMILES IDX 75 35 18 36 74 37 19 38 20 39 21 40 68 41 22 42 73 43 67 44
REMARK SMILES IDX 69 45 23 46 72 47 66 48 65 49 24 51 54 52 35 53 53 54 36 55
REMARK SMILES IDX 39 56 52 57 70 58 37 59 38 60 51 62 71 63 40 64 25 65 26 66
REMARK SMILES IDX 34 67 27 68 33 69 28 70 29 71 30 72 31 73 32 74 55 75 56 76
REMARK SMILES IDX 64 77 57 78 63 79 58 80 59 81 60 82 61 83 62 84 41 85 42 86
REMARK SMILES IDX 50 87 43 88 49 89 44 90 45 91 46 92 47 93 48 94
REMARK H PARENT 76 11 69 50 39 61
REMARK Flexibility Score: inf
ROOT
ATOM      1  C   UNL A   1      43.876  18.964  24.790  1.00  0.00     0.202 C 
ENDROOT
BRANCH   1   2
ATOM      2  C   UNL A   1      45.129  19.704  24.312  1.00  0.00     0.261 C 
BRANCH   2   3
ATOM      3  O   UNL A   1      45.308  20.957  25.015  1.00  0.00    -0.463 OA
BRANCH   3   4
ATOM      4  C   UNL A   1      45.013  22.091  24.319  1.00  0.00     0.306 C 
ATOM      5  O   UNL A   1      44.506  22.115  23.206  1.00  0.00    -0.252 OA
BRANCH   4   6
ATOM      6  C   UNL A   1      45.437  23.343  25.064  1.00  0.00     0.132 C 
BRANCH   6   7
ATOM      7  C   UNL A   1      46.512  23.157  26.139  1.00  0.00     0.112 C 
BRANCH   7   8
ATOM      8  C   UNL A   1      46.338  24.100  27.321  1.00  0.00     0.224 C 
ATOM      9  O   UNL A   1      47.218  24.883  27.654  1.00  0.00    -0.275 OA
ATOM     10  N   UNL A   1      45.140  23.898  27.969  1.00  0.00    -0.326 N 
ATOM     11  H   UNL A   1      44.451  23.383  27.492  1.00  0.00     0.169 HD
BRANCH  10  12
ATOM     12  C   UNL A   1      44.821  24.364  29.253  1.00  0.00     0.045 A 
ATOM     13  C   UNL A   1      44.521  23.340  30.163  1.00  0.00     0.028 A 
ATOM     14  C   UNL A   1      44.810  25.721  29.631  1.00  0.00     0.075 A 
ATOM     15  C   UNL A   1      44.303  23.617  31.504  1.00  0.00     0.034 A 
ATOM     16  C   UNL A   1      44.454  25.963  30.962  1.00  0.00     0.157 A 
ATOM     17  C   UNL A   1      44.255  24.953  31.890  1.00  0.00     0.110 A 
ATOM     18  O   UNL A   1      44.209  27.161  31.612  1.00  0.00    -0.436 OA
ATOM     19  N   UNL A   1      44.014  25.472  33.115  1.00  0.00    -0.209 NA
ATOM     20  C   UNL A   1      43.926  26.768  32.905  1.00  0.00     0.227 A 
BRANCH  20  21
ATOM     21  C   UNL A   1      43.627  27.751  33.937  1.00  0.00     0.037 A 
ATOM     22  C   UNL A   1      43.030  27.435  35.161  1.00  0.00     0.014 A 
ATOM     23  C   UNL A   1      44.165  29.039  33.763  1.00  0.00     0.014 A 
ATOM     24  C   UNL A   1      43.011  28.385  36.195  1.00  0.00     0.001 A 
ATOM     25  C   UNL A   1      44.152  29.979  34.789  1.00  0.00     0.001 A 
ATOM     26  C   UNL A   1      43.581  29.647  36.011  1.00  0.00     0.000 A 
ENDBRANCH  20  21
ENDBRANCH  10  12
ENDBRANCH   7   8
ENDBRANCH   6   7
ENDBRANCH   4   6
ENDBRANCH   3   4
ENDBRANCH   2   3
ENDBRANCH   1   2
BRANCH   1  27
ATOM     27  O   UNL A   1      42.826  19.777  25.310  1.00  0.00    -0.374 OA
BRANCH  27  28
ATOM     28  C   UNL A   1      41.881  19.152  26.172  1.00  0.00     0.202 C 
BRANCH  28  29
ATOM     29  C   UNL A   1      40.420  19.603  26.041  1.00  0.00     0.261 C 
BRANCH  29  30
ATOM     30  O   UNL A   1      40.071  20.668  26.944  1.00  0.00    -0.460 OA
BRANCH  30  31
ATOM     31  C   UNL A   1      39.357  21.676  26.384  1.00  0.00     0.338 C 
ATOM     32  O   UNL A   1      38.370  21.561  25.662  1.00  0.00    -0.246 OA
BRANCH  31  33
ATOM     33  C   UNL A   1      39.809  22.983  26.894  1.00  0.00     0.060 A 
ATOM     34  C   UNL A   1      39.227  24.142  26.360  1.00  0.00     0.016 A 
ATOM     35  C   UNL A   1      40.846  23.084  27.816  1.00  0.00     0.016 A 
ATOM     36  C   UNL A   1      39.704  25.407  26.718  1.00  0.00     0.010 A 
ATOM     37  C   UNL A   1      41.318  24.353  28.175  1.00  0.00     0.010 A 
ATOM     38  C   UNL A   1      40.774  25.529  27.612  1.00  0.00    -0.014 A 
BRANCH  38  39
ATOM     39  C   UNL A   1      41.454  26.836  27.864  1.00  0.00     0.031 A 
ATOM     40  C   UNL A   1      42.772  27.094  27.180  1.00  0.00     0.074 A 
ATOM     41  C   UNL A   1      40.962  27.764  28.712  1.00  0.00     0.049 A 
ATOM     42  N   UNL A   1      43.664  28.019  27.413  1.00  0.00    -0.248 NA
ATOM     43  C   UNL A   1      43.128  26.182  26.076  1.00  0.00     0.031 C 
ATOM     44  C   UNL A   1      39.663  27.713  29.375  1.00  0.00     0.029 A 
ATOM     45  N   UNL A   1      41.548  28.899  29.231  1.00  0.00    -0.354 N 
ATOM     46  C   UNL A   1      44.676  27.809  26.485  1.00  0.00     0.074 A 
ATOM     47  C   UNL A   1      44.327  26.627  25.731  1.00  0.00     0.031 C 
ATOM     48  C   UNL A   1      39.608  28.670  30.319  1.00  0.00     0.029 A 
ATOM     49  C   UNL A   1      40.864  29.413  30.314  1.00  0.00     0.049 A 
ATOM     50  H   UNL A   1      42.370  29.302  28.866  1.00  0.00     0.167 HD
ATOM     51  C   UNL A   1      45.778  28.559  26.252  1.00  0.00     0.031 A 
ATOM     52  C   UNL A   1      41.228  30.333  31.232  1.00  0.00     0.031 A 
ATOM     53  C   UNL A   1      46.103  29.757  26.976  1.00  0.00     0.049 A 
ATOM     54  C   UNL A   1      42.537  31.064  31.053  1.00  0.00     0.074 A 
ATOM     55  C   UNL A   1      47.153  30.631  26.755  1.00  0.00     0.029 A 
ATOM     56  N   UNL A   1      45.388  30.251  28.053  1.00  0.00    -0.354 N 
ATOM     57  N   UNL A   1      43.443  30.916  30.116  1.00  0.00    -0.248 NA
ATOM     58  C   UNL A   1      42.856  32.124  32.025  1.00  0.00     0.031 C 
ATOM     59  C   UNL A   1      47.105  31.626  27.734  1.00  0.00     0.029 A 
ATOM     60  C   UNL A   1      45.990  31.403  28.525  1.00  0.00     0.049 A 
ATOM     61  H   UNL A   1      44.573  29.843  28.427  1.00  0.00     0.167 HD
ATOM     62  C   UNL A   1      44.395  31.901  30.348  1.00  0.00     0.074 A 
ATOM     63  C   UNL A   1      43.964  32.640  31.513  1.00  0.00     0.031 C 
ATOM     64  C   UNL A   1      45.523  32.173  29.647  1.00  0.00     0.031 A 
BRANCH  51  65
ATOM     65  C   UNL A   1      46.707  28.129  25.151  1.00  0.00    -0.014 A 
ATOM     66  C   UNL A   1      46.424  28.433  23.807  1.00  0.00     0.010 A 
ATOM     67  C   UNL A   1      47.927  27.504  25.471  1.00  0.00     0.010 A 
ATOM     68  C   UNL A   1      47.336  28.105  22.801  1.00  0.00     0.020 A 
ATOM     69  C   UNL A   1      48.852  27.200  24.470  1.00  0.00     0.020 A 
ATOM     70  C   UNL A   1      48.547  27.496  23.140  1.00  0.00     0.054 A 
BRANCH  70  71
ATOM     71  S   UNL A   1      49.743  27.153  21.821  1.00  0.00     0.124 S 
ATOM     72  O   UNL A   1      49.064  26.101  21.066  1.00  0.00    -0.237 OA
ATOM     73  O   UNL A   1      49.850  28.443  21.143  1.00  0.00    -0.237 OA
ATOM     74  O   UNL A   1      50.941  26.728  22.539  1.00  0.00    -0.744 OA
ENDBRANCH  70  71
ENDBRANCH  51  65
BRANCH  52  75
ATOM     75  C   UNL A   1      40.382  30.594  32.438  1.00  0.00    -0.014 A 
ATOM     76  C   UNL A   1      39.406  31.605  32.444  1.00  0.00     0.010 A 
ATOM     77  C   UNL A   1      40.618  29.880  33.628  1.00  0.00     0.010 A 
ATOM     78  C   UNL A   1      38.739  31.943  33.628  1.00  0.00     0.020 A 
ATOM     79  C   UNL A   1      39.944  30.202  34.810  1.00  0.00     0.020 A 
ATOM     80  C   UNL A   1      39.023  31.248  34.808  1.00  0.00     0.054 A 
BRANCH  80  81
ATOM     81  S   UNL A   1      38.170  31.733  36.336  1.00  0.00     0.124 S 
ATOM     82  O   UNL A   1      39.156  32.597  36.976  1.00  0.00    -0.237 OA
ATOM     83  O   UNL A   1      36.977  32.404  35.826  1.00  0.00    -0.237 OA
ATOM     84  O   UNL A   1      37.921  30.461  37.010  1.00  0.00    -0.744 OA
ENDBRANCH  80  81
ENDBRANCH  52  75
BRANCH  64  85
ATOM     85  C   UNL A   1      46.317  33.393  30.028  1.00  0.00    -0.014 A 
ATOM     86  C   UNL A   1      47.325  33.343  31.004  1.00  0.00     0.010 A 
ATOM     87  C   UNL A   1      46.101  34.592  29.322  1.00  0.00     0.010 A 
ATOM     88  C   UNL A   1      48.096  34.478  31.276  1.00  0.00     0.020 A 
ATOM     89  C   UNL A   1      46.887  35.718  29.571  1.00  0.00     0.020 A 
ATOM     90  C   UNL A   1      47.876  35.656  30.554  1.00  0.00     0.054 A 
BRANCH  90  91
ATOM     91  S   UNL A   1      48.937  37.090  30.877  1.00  0.00     0.124 S 
ATOM     92  O   UNL A   1      49.792  36.600  31.956  1.00  0.00    -0.237 OA
ATOM     93  O   UNL A   1      49.601  37.294  29.592  1.00  0.00    -0.237 OA
ATOM     94  O   UNL A   1      47.995  38.141  31.259  1.00  0.00    -0.744 OA
ENDBRANCH  90  91
ENDBRANCH  64  85
ENDBRANCH  38  39
ENDBRANCH  31  33
ENDBRANCH  30  31
ENDBRANCH  29  30
ENDBRANCH  28  29
ENDBRANCH  27  28
ENDBRANCH   1  27
TORSDOF 21
ENDMDL
