MODEL 1
REMARK VINA RESULT:      -9.6      0.000      0.000
REMARK SMILES O=C(Cc1csc(N2C(=O)C[C@H](Nc3cccc(F)c3)C2=O)n1)OCCOCCOC(=O)c1ccc(-c2c3nc(c(-c4ccc(S(=O)(=O)[O-])cc4)c4ccc([nH]4)c(-c4ccc(S(=O)(=O)[O-])cc4)c4nc(c(-c5ccc(S(=O)(=O)[O-])cc5)c5ccc2[nH]5)C=C4)C=C3)cc1
REMARK SMILES IDX 26 1 25 2 24 3 2 4 1 5 3 6 4 7 5 8 23 9 6 10 7 11 8 12 9 13
REMARK SMILES IDX 21 14 10 15 11 16 12 17 22 18 13 19 14 21 15 22 20 23 16 24
REMARK SMILES IDX 18 25 17 26 19 27 27 28 28 29 29 30 30 31 31 32 32 33 33 34
REMARK SMILES IDX 34 35 92 36 35 37 91 38 36 39 37 40 38 41 85 42 39 43 90 44
REMARK SMILES IDX 84 45 86 46 40 47 89 48 83 49 82 50 41 52 71 53 52 54 70 55
REMARK SMILES IDX 53 56 56 57 69 58 87 59 54 60 55 61 68 63 88 64 57 65 42 66
REMARK SMILES IDX 43 67 51 68 44 69 50 70 45 71 46 72 47 73 48 74 49 75 72 76
REMARK SMILES IDX 73 77 81 78 74 79 80 80 75 81 76 82 77 83 78 84 79 85 58 86
REMARK SMILES IDX 59 87 67 88 60 89 66 90 61 91 62 92 63 93 64 94 65 95
REMARK H PARENT 13 20 86 51 56 62
REMARK Flexibility Score: inf
ROOT
ATOM      1  C   UNL A   1      34.909  34.775  28.156  1.00  0.00     0.202 C 
ENDROOT
BRANCH   1   2
ATOM      2  C   UNL A   1      36.062  33.771  28.036  1.00  0.00     0.261 C 
BRANCH   2   3
ATOM      3  O   UNL A   1      35.784  32.372  27.831  1.00  0.00    -0.463 OA
BRANCH   3   4
ATOM      4  C   UNL A   1      35.425  31.417  28.708  1.00  0.00     0.311 C 
ATOM      5  O   UNL A   1      35.160  31.747  29.867  1.00  0.00    -0.252 OA
BRANCH   4   6
ATOM      6  C   UNL A   1      35.455  29.959  28.342  1.00  0.00     0.179 C 
BRANCH   6   7
ATOM      7  C   UNL A   1      34.424  29.546  27.364  1.00  0.00     0.065 A 
ATOM      8  C   UNL A   1      33.166  30.100  27.224  1.00  0.00     0.093 A 
ATOM      9  N   UNL A   1      34.672  28.485  26.523  1.00  0.00    -0.224 NA
ATOM     10  S   UNL A   1      32.383  29.422  25.861  1.00  0.00    -0.104 S 
ATOM     11  C   UNL A   1      33.741  28.408  25.607  1.00  0.00     0.199 A 
BRANCH  11  12
ATOM     12  N   UNL A   1      33.758  27.572  24.527  1.00  0.00    -0.223 N 
ATOM     13  C   UNL A   1      33.572  28.026  23.255  1.00  0.00     0.238 C 
ATOM     14  C   UNL A   1      33.680  26.212  24.654  1.00  0.00     0.258 C 
ATOM     15  O   UNL A   1      33.510  29.179  22.848  1.00  0.00    -0.274 OA
ATOM     16  C   UNL A   1      33.534  26.845  22.332  1.00  0.00     0.136 C 
ATOM     17  C   UNL A   1      33.574  25.633  23.253  1.00  0.00     0.179 C 
ATOM     18  O   UNL A   1      33.646  25.559  25.689  1.00  0.00    -0.272 OA
BRANCH  17  19
ATOM     19  N   UNL A   1      32.378  24.809  23.067  1.00  0.00    -0.373 N 
ATOM     20  H   UNL A   1      31.650  25.093  22.467  1.00  0.00     0.161 HD
BRANCH  19  21
ATOM     21  C   UNL A   1      32.305  23.610  23.769  1.00  0.00     0.038 A 
ATOM     22  C   UNL A   1      33.135  22.527  23.457  1.00  0.00     0.026 A 
ATOM     23  C   UNL A   1      31.305  23.428  24.728  1.00  0.00     0.065 A 
ATOM     24  C   UNL A   1      32.987  21.294  24.097  1.00  0.00     0.005 A 
ATOM     25  C   UNL A   1      31.146  22.191  25.346  1.00  0.00     0.125 A 
ATOM     26  C   UNL A   1      31.980  21.124  25.041  1.00  0.00     0.039 A 
ATOM     27  F   UNL A   1      30.154  22.018  26.229  1.00  0.00    -0.207 F 
ENDBRANCH  19  21
ENDBRANCH  17  19
ENDBRANCH  11  12
ENDBRANCH   6   7
ENDBRANCH   4   6
ENDBRANCH   3   4
ENDBRANCH   2   3
ENDBRANCH   1   2
BRANCH   1  28
ATOM     28  O   UNL A   1      34.098  34.815  29.322  1.00  0.00    -0.374 OA
BRANCH  28  29
ATOM     29  C   UNL A   1      32.847  35.492  29.310  1.00  0.00     0.202 C 
BRANCH  29  30
ATOM     30  C   UNL A   1      32.457  36.204  30.595  1.00  0.00     0.261 C 
BRANCH  30  31
ATOM     31  O   UNL A   1      32.570  35.315  31.708  1.00  0.00    -0.460 OA
BRANCH  31  32
ATOM     32  C   UNL A   1      33.375  35.741  32.703  1.00  0.00     0.338 C 
ATOM     33  O   UNL A   1      33.146  36.609  33.531  1.00  0.00    -0.246 OA
BRANCH  32  34
ATOM     34  C   UNL A   1      34.554  34.867  32.739  1.00  0.00     0.060 A 
ATOM     35  C   UNL A   1      34.398  33.554  33.201  1.00  0.00     0.016 A 
ATOM     36  C   UNL A   1      35.805  35.359  32.365  1.00  0.00     0.016 A 
ATOM     37  C   UNL A   1      35.514  32.739  33.346  1.00  0.00     0.010 A 
ATOM     38  C   UNL A   1      36.921  34.545  32.515  1.00  0.00     0.010 A 
ATOM     39  C   UNL A   1      36.782  33.252  33.050  1.00  0.00    -0.014 A 
BRANCH  39  40
ATOM     40  C   UNL A   1      37.999  32.539  33.481  1.00  0.00     0.031 A 
ATOM     41  C   UNL A   1      38.499  32.785  34.876  1.00  0.00     0.074 A 
ATOM     42  C   UNL A   1      38.667  31.745  32.631  1.00  0.00     0.049 A 
ATOM     43  N   UNL A   1      39.623  32.420  35.429  1.00  0.00    -0.248 NA
ATOM     44  C   UNL A   1      37.617  33.569  35.757  1.00  0.00     0.031 C 
ATOM     45  C   UNL A   1      38.242  31.411  31.273  1.00  0.00     0.029 A 
ATOM     46  N   UNL A   1      39.866  31.100  32.782  1.00  0.00    -0.354 N 
ATOM     47  C   UNL A   1      39.599  32.954  36.712  1.00  0.00     0.074 A 
ATOM     48  C   UNL A   1      38.361  33.690  36.844  1.00  0.00     0.031 C 
ATOM     49  C   UNL A   1      39.182  30.640  30.702  1.00  0.00     0.029 A 
ATOM     50  C   UNL A   1      40.293  30.471  31.639  1.00  0.00     0.049 A 
ATOM     51  H   UNL A   1      40.372  31.089  33.627  1.00  0.00     0.167 HD
ATOM     52  C   UNL A   1      40.531  32.844  37.687  1.00  0.00     0.031 A 
ATOM     53  C   UNL A   1      41.464  29.863  31.371  1.00  0.00     0.031 A 
ATOM     54  C   UNL A   1      41.765  32.125  37.523  1.00  0.00     0.049 A 
ATOM     55  C   UNL A   1      42.517  29.802  32.446  1.00  0.00     0.074 A 
ATOM     56  C   UNL A   1      42.775  31.926  38.446  1.00  0.00     0.029 A 
ATOM     57  N   UNL A   1      42.160  31.495  36.350  1.00  0.00    -0.354 N 
ATOM     58  N   UNL A   1      42.480  30.293  33.664  1.00  0.00    -0.248 NA
ATOM     59  C   UNL A   1      43.763  29.099  32.117  1.00  0.00     0.031 C 
ATOM     60  C   UNL A   1      43.810  31.233  37.811  1.00  0.00     0.029 A 
ATOM     61  C   UNL A   1      43.411  30.928  36.518  1.00  0.00     0.049 A 
ATOM     62  H   UNL A   1      41.630  31.457  35.523  1.00  0.00     0.167 HD
ATOM     63  C   UNL A   1      43.681  29.924  34.259  1.00  0.00     0.074 A 
ATOM     64  C   UNL A   1      44.422  29.169  33.267  1.00  0.00     0.031 C 
ATOM     65  C   UNL A   1      44.126  30.175  35.517  1.00  0.00     0.031 A 
BRANCH  52  66
ATOM     66  C   UNL A   1      40.266  33.562  38.984  1.00  0.00    -0.014 A 
ATOM     67  C   UNL A   1      39.443  33.003  39.981  1.00  0.00     0.010 A 
ATOM     68  C   UNL A   1      40.853  34.819  39.212  1.00  0.00     0.010 A 
ATOM     69  C   UNL A   1      39.169  33.714  41.154  1.00  0.00     0.020 A 
ATOM     70  C   UNL A   1      40.611  35.518  40.399  1.00  0.00     0.020 A 
ATOM     71  C   UNL A   1      39.751  34.969  41.352  1.00  0.00     0.054 A 
BRANCH  71  72
ATOM     72  S   UNL A   1      39.378  35.869  42.882  1.00  0.00     0.124 S 
ATOM     73  O   UNL A   1      40.436  35.398  43.773  1.00  0.00    -0.237 OA
ATOM     74  O   UNL A   1      39.483  37.264  42.464  1.00  0.00    -0.237 OA
ATOM     75  O   UNL A   1      38.031  35.424  43.228  1.00  0.00    -0.744 OA
ENDBRANCH  71  72
ENDBRANCH  52  66
BRANCH  53  76
ATOM     76  C   UNL A   1      41.693  29.276  30.024  1.00  0.00    -0.014 A 
ATOM     77  C   UNL A   1      41.301  27.957  29.745  1.00  0.00     0.010 A 
ATOM     78  C   UNL A   1      42.261  30.053  28.996  1.00  0.00     0.010 A 
ATOM     79  C   UNL A   1      41.472  27.423  28.465  1.00  0.00     0.020 A 
ATOM     80  C   UNL A   1      42.407  29.533  27.707  1.00  0.00     0.020 A 
ATOM     81  C   UNL A   1      42.014  28.219  27.451  1.00  0.00     0.054 A 
BRANCH  81  82
ATOM     82  S   UNL A   1      42.146  27.527  25.780  1.00  0.00     0.124 S 
ATOM     83  O   UNL A   1      42.057  28.722  24.947  1.00  0.00    -0.237 OA
ATOM     84  O   UNL A   1      43.453  26.875  25.816  1.00  0.00    -0.237 OA
ATOM     85  O   UNL A   1      41.006  26.617  25.695  1.00  0.00    -0.744 OA
ENDBRANCH  81  82
ENDBRANCH  53  76
BRANCH  65  86
ATOM     86  C   UNL A   1      45.448  29.579  35.923  1.00  0.00    -0.014 A 
ATOM     87  C   UNL A   1      46.656  30.280  35.768  1.00  0.00     0.010 A 
ATOM     88  C   UNL A   1      45.462  28.322  36.559  1.00  0.00     0.010 A 
ATOM     89  C   UNL A   1      47.855  29.727  36.225  1.00  0.00     0.020 A 
ATOM     90  C   UNL A   1      46.653  27.781  37.045  1.00  0.00     0.020 A 
ATOM     91  C   UNL A   1      47.845  28.484  36.866  1.00  0.00     0.054 A 
BRANCH  91  92
ATOM     92  S   UNL A   1      49.405  27.821  37.512  1.00  0.00     0.124 S 
ATOM     93  O   UNL A   1      50.089  27.409  36.289  1.00  0.00    -0.237 OA
ATOM     94  O   UNL A   1      49.983  28.975  38.197  1.00  0.00    -0.237 OA
ATOM     95  O   UNL A   1      48.984  26.731  38.388  1.00  0.00    -0.744 OA
ENDBRANCH  91  92
ENDBRANCH  65  86
ENDBRANCH  39  40
ENDBRANCH  32  34
ENDBRANCH  31  32
ENDBRANCH  30  31
ENDBRANCH  29  30
ENDBRANCH  28  29
ENDBRANCH   1  28
TORSDOF 21
ENDMDL
MODEL 2
REMARK VINA RESULT:      -9.4      2.667      9.646
REMARK SMILES O=C(Cc1csc(N2C(=O)C[C@H](Nc3cccc(F)c3)C2=O)n1)OCCOCCOC(=O)c1ccc(-c2c3nc(c(-c4ccc(S(=O)(=O)[O-])cc4)c4ccc([nH]4)c(-c4ccc(S(=O)(=O)[O-])cc4)c4nc(c(-c5ccc(S(=O)(=O)[O-])cc5)c5ccc2[nH]5)C=C4)C=C3)cc1
REMARK SMILES IDX 26 1 25 2 24 3 2 4 1 5 3 6 4 7 5 8 23 9 6 10 7 11 8 12 9 13
REMARK SMILES IDX 21 14 10 15 11 16 12 17 22 18 13 19 14 21 15 22 20 23 16 24
REMARK SMILES IDX 18 25 17 26 19 27 27 28 28 29 29 30 30 31 31 32 32 33 33 34
REMARK SMILES IDX 34 35 92 36 35 37 91 38 36 39 37 40 38 41 85 42 39 43 90 44
REMARK SMILES IDX 84 45 86 46 40 47 89 48 83 49 82 50 41 52 71 53 52 54 70 55
REMARK SMILES IDX 53 56 56 57 69 58 87 59 54 60 55 61 68 63 88 64 57 65 42 66
REMARK SMILES IDX 43 67 51 68 44 69 50 70 45 71 46 72 47 73 48 74 49 75 72 76
REMARK SMILES IDX 73 77 81 78 74 79 80 80 75 81 76 82 77 83 78 84 79 85 58 86
REMARK SMILES IDX 59 87 67 88 60 89 66 90 61 91 62 92 63 93 64 94 65 95
REMARK H PARENT 13 20 86 51 56 62
REMARK Flexibility Score: inf
ROOT
ATOM      1  C   UNL A   1      41.123  21.035  26.777  1.00  0.00     0.202 C 
ENDROOT
BRANCH   1   2
ATOM      2  C   UNL A   1      39.705  21.030  26.193  1.00  0.00     0.261 C 
BRANCH   2   3
ATOM      3  O   UNL A   1      39.051  22.274  25.875  1.00  0.00    -0.463 OA
BRANCH   3   4
ATOM      4  C   UNL A   1      37.783  22.522  25.498  1.00  0.00     0.311 C 
ATOM      5  O   UNL A   1      37.433  23.694  25.338  1.00  0.00    -0.252 OA
BRANCH   4   6
ATOM      6  C   UNL A   1      36.764  21.423  25.387  1.00  0.00     0.179 C 
BRANCH   6   7
ATOM      7  C   UNL A   1      35.366  21.852  25.615  1.00  0.00     0.065 A 
ATOM      8  C   UNL A   1      34.712  21.886  26.832  1.00  0.00     0.093 A 
ATOM      9  N   UNL A   1      34.584  22.216  24.543  1.00  0.00    -0.224 NA
ATOM     10  S   UNL A   1      33.171  22.606  26.642  1.00  0.00    -0.104 S 
ATOM     11  C   UNL A   1      33.467  22.754  24.961  1.00  0.00     0.199 A 
BRANCH  11  12
ATOM     12  N   UNL A   1      32.534  23.362  24.168  1.00  0.00    -0.223 N 
ATOM     13  C   UNL A   1      32.875  24.283  23.223  1.00  0.00     0.238 C 
ATOM     14  C   UNL A   1      31.195  23.310  24.445  1.00  0.00     0.258 C 
ATOM     15  O   UNL A   1      33.986  24.609  22.828  1.00  0.00    -0.274 OA
ATOM     16  C   UNL A   1      31.616  24.832  22.622  1.00  0.00     0.136 C 
ATOM     17  C   UNL A   1      30.493  24.216  23.447  1.00  0.00     0.179 C 
ATOM     18  O   UNL A   1      30.642  22.701  25.351  1.00  0.00    -0.272 OA
BRANCH  17  19
ATOM     19  N   UNL A   1      29.696  25.263  24.091  1.00  0.00    -0.373 N 
ATOM     20  H   UNL A   1      28.718  25.182  24.174  1.00  0.00     0.161 HD
BRANCH  19  21
ATOM     21  C   UNL A   1      30.371  26.377  24.580  1.00  0.00     0.038 A 
ATOM     22  C   UNL A   1      31.035  26.347  25.813  1.00  0.00     0.026 A 
ATOM     23  C   UNL A   1      30.290  27.592  23.896  1.00  0.00     0.065 A 
ATOM     24  C   UNL A   1      31.623  27.498  26.345  1.00  0.00     0.005 A 
ATOM     25  C   UNL A   1      30.857  28.740  24.442  1.00  0.00     0.125 A 
ATOM     26  C   UNL A   1      31.525  28.703  25.658  1.00  0.00     0.039 A 
ATOM     27  F   UNL A   1      30.731  29.908  23.797  1.00  0.00    -0.207 F 
ENDBRANCH  19  21
ENDBRANCH  17  19
ENDBRANCH  11  12
ENDBRANCH   6   7
ENDBRANCH   4   6
ENDBRANCH   3   4
ENDBRANCH   2   3
ENDBRANCH   1   2
BRANCH   1  28
ATOM     28  O   UNL A   1      41.691  22.226  27.302  1.00  0.00    -0.374 OA
BRANCH  28  29
ATOM     29  C   UNL A   1      42.824  22.821  26.683  1.00  0.00     0.202 C 
BRANCH  29  30
ATOM     30  C   UNL A   1      42.549  24.011  25.779  1.00  0.00     0.261 C 
BRANCH  30  31
ATOM     31  O   UNL A   1      41.460  24.781  26.291  1.00  0.00    -0.460 OA
BRANCH  31  32
ATOM     32  C   UNL A   1      41.611  26.119  26.206  1.00  0.00     0.338 C 
ATOM     33  O   UNL A   1      41.590  26.811  25.200  1.00  0.00    -0.246 OA
BRANCH  32  34
ATOM     34  C   UNL A   1      41.656  26.658  27.570  1.00  0.00     0.060 A 
ATOM     35  C   UNL A   1      40.792  26.118  28.531  1.00  0.00     0.016 A 
ATOM     36  C   UNL A   1      42.509  27.718  27.878  1.00  0.00     0.016 A 
ATOM     37  C   UNL A   1      40.736  26.681  29.800  1.00  0.00     0.010 A 
ATOM     38  C   UNL A   1      42.450  28.283  29.146  1.00  0.00     0.010 A 
ATOM     39  C   UNL A   1      41.531  27.796  30.092  1.00  0.00    -0.014 A 
BRANCH  39  40
ATOM     40  C   UNL A   1      41.277  28.602  31.301  1.00  0.00     0.031 A 
ATOM     41  C   UNL A   1      40.181  29.626  31.244  1.00  0.00     0.074 A 
ATOM     42  C   UNL A   1      42.044  28.462  32.393  1.00  0.00     0.049 A 
ATOM     43  N   UNL A   1      39.878  30.564  32.100  1.00  0.00    -0.248 NA
ATOM     44  C   UNL A   1      39.324  29.600  30.045  1.00  0.00     0.031 C 
ATOM     45  C   UNL A   1      43.105  27.470  32.561  1.00  0.00     0.029 A 
ATOM     46  N   UNL A   1      42.063  29.183  33.557  1.00  0.00    -0.354 N 
ATOM     47  C   UNL A   1      38.817  31.259  31.531  1.00  0.00     0.074 A 
ATOM     48  C   UNL A   1      38.547  30.652  30.247  1.00  0.00     0.031 C 
ATOM     49  C   UNL A   1      43.691  27.661  33.754  1.00  0.00     0.029 A 
ATOM     50  C   UNL A   1      43.078  28.818  34.406  1.00  0.00     0.049 A 
ATOM     51  H   UNL A   1      41.412  29.892  33.765  1.00  0.00     0.167 HD
ATOM     52  C   UNL A   1      38.135  32.314  32.036  1.00  0.00     0.031 A 
ATOM     53  C   UNL A   1      43.489  29.383  35.558  1.00  0.00     0.031 A 
ATOM     54  C   UNL A   1      38.438  32.915  33.307  1.00  0.00     0.049 A 
ATOM     55  C   UNL A   1      42.759  30.594  36.077  1.00  0.00     0.074 A 
ATOM     56  C   UNL A   1      37.803  33.971  33.933  1.00  0.00     0.029 A 
ATOM     57  N   UNL A   1      39.472  32.514  34.142  1.00  0.00    -0.354 N 
ATOM     58  N   UNL A   1      41.745  31.235  35.544  1.00  0.00    -0.248 NA
ATOM     59  C   UNL A   1      43.222  31.152  37.353  1.00  0.00     0.031 C 
ATOM     60  C   UNL A   1      38.495  34.253  35.114  1.00  0.00     0.029 A 
ATOM     61  C   UNL A   1      39.510  33.319  35.266  1.00  0.00     0.049 A 
ATOM     62  H   UNL A   1      40.087  31.768  33.962  1.00  0.00     0.167 HD
ATOM     63  C   UNL A   1      41.422  32.248  36.440  1.00  0.00     0.074 A 
ATOM     64  C   UNL A   1      42.350  32.133  37.548  1.00  0.00     0.031 C 
ATOM     65  C   UNL A   1      40.439  33.181  36.361  1.00  0.00     0.031 A 
BRANCH  52  66
ATOM     66  C   UNL A   1      37.043  32.906  31.185  1.00  0.00    -0.014 A 
ATOM     67  C   UNL A   1      35.691  32.848  31.574  1.00  0.00     0.010 A 
ATOM     68  C   UNL A   1      37.376  33.534  29.971  1.00  0.00     0.010 A 
ATOM     69  C   UNL A   1      34.691  33.357  30.741  1.00  0.00     0.020 A 
ATOM     70  C   UNL A   1      36.382  34.077  29.151  1.00  0.00     0.020 A 
ATOM     71  C   UNL A   1      35.044  33.964  29.532  1.00  0.00     0.054 A 
BRANCH  71  72
ATOM     72  S   UNL A   1      33.726  34.615  28.470  1.00  0.00     0.124 S 
ATOM     73  O   UNL A   1      32.612  34.733  29.409  1.00  0.00    -0.237 OA
ATOM     74  O   UNL A   1      34.289  35.879  28.002  1.00  0.00    -0.237 OA
ATOM     75  O   UNL A   1      33.567  33.588  27.443  1.00  0.00    -0.744 OA
ENDBRANCH  71  72
ENDBRANCH  52  66
BRANCH  53  76
ATOM     76  C   UNL A   1      44.650  28.804  36.283  1.00  0.00    -0.014 A 
ATOM     77  C   UNL A   1      44.472  27.743  37.186  1.00  0.00     0.010 A 
ATOM     78  C   UNL A   1      45.952  29.281  36.037  1.00  0.00     0.010 A 
ATOM     79  C   UNL A   1      45.571  27.168  37.830  1.00  0.00     0.020 A 
ATOM     80  C   UNL A   1      47.057  28.689  36.656  1.00  0.00     0.020 A 
ATOM     81  C   UNL A   1      46.858  27.639  37.552  1.00  0.00     0.054 A 
BRANCH  81  82
ATOM     82  S   UNL A   1      48.271  26.817  38.338  1.00  0.00     0.124 S 
ATOM     83  O   UNL A   1      47.936  26.922  39.754  1.00  0.00    -0.237 OA
ATOM     84  O   UNL A   1      48.206  25.473  37.768  1.00  0.00    -0.237 OA
ATOM     85  O   UNL A   1      49.415  27.616  37.904  1.00  0.00    -0.744 OA
ENDBRANCH  81  82
ENDBRANCH  53  76
BRANCH  65  86
ATOM     86  C   UNL A   1      40.267  34.117  37.528  1.00  0.00    -0.014 A 
ATOM     87  C   UNL A   1      41.056  35.271  37.675  1.00  0.00     0.010 A 
ATOM     88  C   UNL A   1      39.226  33.877  38.446  1.00  0.00     0.010 A 
ATOM     89  C   UNL A   1      40.819  36.156  38.730  1.00  0.00     0.020 A 
ATOM     90  C   UNL A   1      38.965  34.776  39.481  1.00  0.00     0.020 A 
ATOM     91  C   UNL A   1      39.771  35.907  39.622  1.00  0.00     0.054 A 
BRANCH  91  92
ATOM     92  S   UNL A   1      39.440  37.108  40.939  1.00  0.00     0.124 S 
ATOM     93  O   UNL A   1      40.723  37.796  41.053  1.00  0.00    -0.237 OA
ATOM     94  O   UNL A   1      38.348  37.902  40.380  1.00  0.00    -0.237 OA
ATOM     95  O   UNL A   1      39.075  36.278  42.084  1.00  0.00    -0.744 OA
ENDBRANCH  91  92
ENDBRANCH  65  86
ENDBRANCH  39  40
ENDBRANCH  32  34
ENDBRANCH  31  32
ENDBRANCH  30  31
ENDBRANCH  29  30
ENDBRANCH  28  29
ENDBRANCH   1  28
TORSDOF 21
ENDMDL
MODEL 3
REMARK VINA RESULT:      -9.2      3.093      9.726
REMARK SMILES O=C(Cc1csc(N2C(=O)C[C@H](Nc3cccc(F)c3)C2=O)n1)OCCOCCOC(=O)c1ccc(-c2c3nc(c(-c4ccc(S(=O)(=O)[O-])cc4)c4ccc([nH]4)c(-c4ccc(S(=O)(=O)[O-])cc4)c4nc(c(-c5ccc(S(=O)(=O)[O-])cc5)c5ccc2[nH]5)C=C4)C=C3)cc1
REMARK SMILES IDX 26 1 25 2 24 3 2 4 1 5 3 6 4 7 5 8 23 9 6 10 7 11 8 12 9 13
REMARK SMILES IDX 21 14 10 15 11 16 12 17 22 18 13 19 14 21 15 22 20 23 16 24
REMARK SMILES IDX 18 25 17 26 19 27 27 28 28 29 29 30 30 31 31 32 32 33 33 34
REMARK SMILES IDX 34 35 92 36 35 37 91 38 36 39 37 40 38 41 85 42 39 43 90 44
REMARK SMILES IDX 84 45 86 46 40 47 89 48 83 49 82 50 41 52 71 53 52 54 70 55
REMARK SMILES IDX 53 56 56 57 69 58 87 59 54 60 55 61 68 63 88 64 57 65 42 66
REMARK SMILES IDX 43 67 51 68 44 69 50 70 45 71 46 72 47 73 48 74 49 75 72 76
REMARK SMILES IDX 73 77 81 78 74 79 80 80 75 81 76 82 77 83 78 84 79 85 58 86
REMARK SMILES IDX 59 87 67 88 60 89 66 90 61 91 62 92 63 93 64 94 65 95
REMARK H PARENT 13 20 86 51 56 62
REMARK Flexibility Score: inf
ROOT
ATOM      1  C   UNL A   1      47.006  25.505  25.351  1.00  0.00     0.202 C 
ENDROOT
BRANCH   1   2
ATOM      2  C   UNL A   1      46.948  24.570  26.565  1.00  0.00     0.261 C 
BRANCH   2   3
ATOM      3  O   UNL A   1      45.816  23.698  26.753  1.00  0.00    -0.463 OA
BRANCH   3   4
ATOM      4  C   UNL A   1      45.358  22.687  25.993  1.00  0.00     0.311 C 
ATOM      5  O   UNL A   1      46.095  21.718  25.791  1.00  0.00    -0.252 OA
BRANCH   4   6
ATOM      6  C   UNL A   1      44.029  22.765  25.293  1.00  0.00     0.179 C 
BRANCH   6   7
ATOM      7  C   UNL A   1      42.880  22.292  26.096  1.00  0.00     0.065 A 
ATOM      8  C   UNL A   1      42.811  22.251  27.476  1.00  0.00     0.093 A 
ATOM      9  N   UNL A   1      41.768  21.790  25.460  1.00  0.00    -0.224 NA
ATOM     10  S   UNL A   1      41.237  21.791  27.965  1.00  0.00    -0.104 S 
ATOM     11  C   UNL A   1      40.795  21.620  26.318  1.00  0.00     0.199 A 
BRANCH  11  12
ATOM     12  N   UNL A   1      39.508  21.284  26.003  1.00  0.00    -0.223 N 
ATOM     13  C   UNL A   1      39.173  20.044  25.547  1.00  0.00     0.238 C 
ATOM     14  C   UNL A   1      38.524  22.223  25.851  1.00  0.00     0.258 C 
ATOM     15  O   UNL A   1      39.862  19.035  25.478  1.00  0.00    -0.274 OA
ATOM     16  C   UNL A   1      37.717  20.049  25.190  1.00  0.00     0.136 C 
ATOM     17  C   UNL A   1      37.282  21.499  25.358  1.00  0.00     0.179 C 
ATOM     18  O   UNL A   1      38.612  23.432  26.021  1.00  0.00    -0.272 OA
BRANCH  17  19
ATOM     19  N   UNL A   1      36.777  22.033  24.092  1.00  0.00    -0.373 N 
ATOM     20  H   UNL A   1      37.357  22.100  23.299  1.00  0.00     0.161 HD
BRANCH  19  21
ATOM     21  C   UNL A   1      35.448  22.443  24.050  1.00  0.00     0.038 A 
ATOM     22  C   UNL A   1      35.102  23.783  23.831  1.00  0.00     0.026 A 
ATOM     23  C   UNL A   1      34.431  21.533  24.349  1.00  0.00     0.065 A 
ATOM     24  C   UNL A   1      33.771  24.205  23.892  1.00  0.00     0.005 A 
ATOM     25  C   UNL A   1      33.110  21.963  24.432  1.00  0.00     0.125 A 
ATOM     26  C   UNL A   1      32.771  23.290  24.203  1.00  0.00     0.039 A 
ATOM     27  F   UNL A   1      32.152  21.089  24.766  1.00  0.00    -0.207 F 
ENDBRANCH  19  21
ENDBRANCH  17  19
ENDBRANCH  11  12
ENDBRANCH   6   7
ENDBRANCH   4   6
ENDBRANCH   3   4
ENDBRANCH   2   3
ENDBRANCH   1   2
BRANCH   1  28
ATOM     28  O   UNL A   1      45.823  26.091  24.827  1.00  0.00    -0.374 OA
BRANCH  28  29
ATOM     29  C   UNL A   1      44.964  26.857  25.662  1.00  0.00     0.202 C 
BRANCH  29  30
ATOM     30  C   UNL A   1      43.475  26.588  25.520  1.00  0.00     0.261 C 
BRANCH  30  31
ATOM     31  O   UNL A   1      42.725  27.752  25.873  1.00  0.00    -0.460 OA
BRANCH  31  32
ATOM     32  C   UNL A   1      41.591  27.517  26.565  1.00  0.00     0.338 C 
ATOM     33  O   UNL A   1      40.645  26.818  26.236  1.00  0.00    -0.246 OA
BRANCH  32  34
ATOM     34  C   UNL A   1      41.735  28.127  27.892  1.00  0.00     0.060 A 
ATOM     35  C   UNL A   1      41.134  27.494  28.988  1.00  0.00     0.016 A 
ATOM     36  C   UNL A   1      42.417  29.336  28.039  1.00  0.00     0.016 A 
ATOM     37  C   UNL A   1      41.163  28.105  30.236  1.00  0.00     0.010 A 
ATOM     38  C   UNL A   1      42.441  29.948  29.286  1.00  0.00     0.010 A 
ATOM     39  C   UNL A   1      41.774  29.356  30.373  1.00  0.00    -0.014 A 
BRANCH  39  40
ATOM     40  C   UNL A   1      41.557  30.168  31.586  1.00  0.00     0.031 A 
ATOM     41  C   UNL A   1      42.523  30.000  32.725  1.00  0.00     0.074 A 
ATOM     42  C   UNL A   1      40.497  30.983  31.686  1.00  0.00     0.049 A 
ATOM     43  N   UNL A   1      42.454  30.461  33.943  1.00  0.00    -0.248 NA
ATOM     44  C   UNL A   1      43.716  29.180  32.453  1.00  0.00     0.031 C 
ATOM     45  C   UNL A   1      39.527  31.245  30.624  1.00  0.00     0.029 A 
ATOM     46  N   UNL A   1      40.044  31.717  32.750  1.00  0.00    -0.354 N 
ATOM     47  C   UNL A   1      43.577  29.964  34.594  1.00  0.00     0.074 A 
ATOM     48  C   UNL A   1      44.295  29.146  33.642  1.00  0.00     0.031 C 
ATOM     49  C   UNL A   1      38.575  32.065  31.099  1.00  0.00     0.029 A 
ATOM     50  C   UNL A   1      38.846  32.341  32.510  1.00  0.00     0.049 A 
ATOM     51  H   UNL A   1      40.531  31.790  33.603  1.00  0.00     0.167 HD
ATOM     52  C   UNL A   1      43.968  30.170  35.873  1.00  0.00     0.031 A 
ATOM     53  C   UNL A   1      38.041  33.024  33.347  1.00  0.00     0.031 A 
ATOM     54  C   UNL A   1      43.224  30.971  36.808  1.00  0.00     0.049 A 
ATOM     55  C   UNL A   1      38.459  33.192  34.784  1.00  0.00     0.074 A 
ATOM     56  C   UNL A   1      43.532  31.270  38.121  1.00  0.00     0.029 A 
ATOM     57  N   UNL A   1      42.016  31.593  36.525  1.00  0.00    -0.354 N 
ATOM     58  N   UNL A   1      39.533  32.736  35.388  1.00  0.00    -0.248 NA
ATOM     59  C   UNL A   1      37.566  33.973  35.649  1.00  0.00     0.031 C 
ATOM     60  C   UNL A   1      42.477  32.016  38.654  1.00  0.00     0.029 A 
ATOM     61  C   UNL A   1      41.551  32.253  37.649  1.00  0.00     0.049 A 
ATOM     62  H   UNL A   1      41.557  31.568  35.655  1.00  0.00     0.167 HD
ATOM     63  C   UNL A   1      39.463  33.208  36.695  1.00  0.00     0.074 A 
ATOM     64  C   UNL A   1      38.242  33.985  36.791  1.00  0.00     0.031 C 
ATOM     65  C   UNL A   1      40.335  33.027  37.718  1.00  0.00     0.031 A 
BRANCH  52  66
ATOM     66  C   UNL A   1      45.220  29.474  36.336  1.00  0.00    -0.014 A 
ATOM     67  C   UNL A   1      45.172  28.235  37.004  1.00  0.00     0.010 A 
ATOM     68  C   UNL A   1      46.472  30.069  36.097  1.00  0.00     0.010 A 
ATOM     69  C   UNL A   1      46.344  27.635  37.472  1.00  0.00     0.020 A 
ATOM     70  C   UNL A   1      47.651  29.455  36.532  1.00  0.00     0.020 A 
ATOM     71  C   UNL A   1      47.576  28.253  37.237  1.00  0.00     0.054 A 
BRANCH  71  72
ATOM     72  S   UNL A   1      49.082  27.453  37.855  1.00  0.00     0.124 S 
ATOM     73  O   UNL A   1      48.582  26.736  39.027  1.00  0.00    -0.237 OA
ATOM     74  O   UNL A   1      49.483  26.614  36.730  1.00  0.00    -0.237 OA
ATOM     75  O   UNL A   1      49.976  28.572  38.146  1.00  0.00    -0.744 OA
ENDBRANCH  71  72
ENDBRANCH  52  66
BRANCH  53  76
ATOM     76  C   UNL A   1      36.762  33.586  32.838  1.00  0.00    -0.014 A 
ATOM     77  C   UNL A   1      36.618  34.970  32.645  1.00  0.00     0.010 A 
ATOM     78  C   UNL A   1      35.696  32.733  32.496  1.00  0.00     0.010 A 
ATOM     79  C   UNL A   1      35.433  35.492  32.120  1.00  0.00     0.020 A 
ATOM     80  C   UNL A   1      34.520  33.248  31.943  1.00  0.00     0.020 A 
ATOM     81  C   UNL A   1      34.395  34.626  31.763  1.00  0.00     0.054 A 
BRANCH  81  82
ATOM     82  S   UNL A   1      32.902  35.324  31.005  1.00  0.00     0.124 S 
ATOM     83  O   UNL A   1      32.744  34.491  29.818  1.00  0.00    -0.237 OA
ATOM     84  O   UNL A   1      31.903  35.131  32.054  1.00  0.00    -0.237 OA
ATOM     85  O   UNL A   1      33.267  36.716  30.751  1.00  0.00    -0.744 OA
ENDBRANCH  81  82
ENDBRANCH  53  76
BRANCH  65  86
ATOM     86  C   UNL A   1      40.044  33.729  39.019  1.00  0.00    -0.014 A 
ATOM     87  C   UNL A   1      39.351  33.094  40.064  1.00  0.00     0.010 A 
ATOM     88  C   UNL A   1      40.560  35.023  39.225  1.00  0.00     0.010 A 
ATOM     89  C   UNL A   1      39.164  33.748  41.284  1.00  0.00     0.020 A 
ATOM     90  C   UNL A   1      40.403  35.667  40.453  1.00  0.00     0.020 A 
ATOM     91  C   UNL A   1      39.696  35.028  41.473  1.00  0.00     0.054 A 
BRANCH  91  92
ATOM     92  S   UNL A   1      39.500  35.827  43.089  1.00  0.00     0.124 S 
ATOM     93  O   UNL A   1      38.100  35.547  43.398  1.00  0.00    -0.237 OA
ATOM     94  O   UNL A   1      40.479  35.122  43.914  1.00  0.00    -0.237 OA
ATOM     95  O   UNL A   1      39.811  37.229  42.825  1.00  0.00    -0.744 OA
ENDBRANCH  91  92
ENDBRANCH  65  86
ENDBRANCH  39  40
ENDBRANCH  32  34
ENDBRANCH  31  32
ENDBRANCH  30  31
ENDBRANCH  29  30
ENDBRANCH  28  29
ENDBRANCH   1  28
TORSDOF 21
ENDMDL
