MODEL 1
REMARK VINA RESULT:     -11.0      0.000      0.000
REMARK SMILES O=C(OCCOCCOC(=O)[C@@H]1C=C[C@H](NC(=O)[C@@H]2Cc3ccccc3O2)C1)c1ccc(-c2c3nc(c(-c4ccc(S(=O)(=O)[O-])cc4)c4ccc([nH]4)c(-c4ccc(S(=O)(=O)[O-])cc4)c4nc(c(-c5ccc(S(=O)(=O)[O-])cc5)c5ccc2[nH]5)C=C4)C=C3)cc1
REMARK SMILES IDX 5 1 4 2 3 3 2 4 1 5 29 6 30 7 88 8 31 9 87 10 32 11 33 12
REMARK SMILES IDX 34 13 81 14 35 15 86 16 80 17 82 18 36 19 85 20 79 21 78 22
REMARK SMILES IDX 37 24 67 25 48 26 66 27 49 28 52 29 65 30 83 31 50 32 51 33
REMARK SMILES IDX 64 35 84 36 53 37 38 38 39 39 47 40 40 41 46 42 41 43 42 44
REMARK SMILES IDX 43 45 44 46 45 47 68 48 69 49 77 50 70 51 76 52 71 53 72 54
REMARK SMILES IDX 73 55 74 56 75 57 54 58 55 59 63 60 56 61 62 62 57 63 58 64
REMARK SMILES IDX 59 65 60 66 61 67 6 68 7 69 8 70 9 71 10 72 11 73 12 74
REMARK SMILES IDX 13 75 28 76 14 77 15 78 16 79 17 80 18 82 19 83 20 84 27 85
REMARK SMILES IDX 21 86 26 87 22 88 25 89 23 90 24 91
REMARK H PARENT 82 23 52 34 16 81
REMARK Flexibility Score: inf
ROOT
ATOM      1  C   UNL A   1      34.030  30.814  27.045  1.00  0.00     0.202 C 
ENDROOT
BRANCH   1   2
ATOM      2  C   UNL A   1      35.041  31.067  28.173  1.00  0.00     0.261 C 
BRANCH   2   3
ATOM      3  O   UNL A   1      35.512  29.823  28.719  1.00  0.00    -0.460 OA
BRANCH   3   4
ATOM      4  C   UNL A   1      36.472  29.634  29.656  1.00  0.00     0.338 C 
ATOM      5  O   UNL A   1      36.159  29.563  30.841  1.00  0.00    -0.246 OA
BRANCH   4   6
ATOM      6  C   UNL A   1      37.908  29.474  29.297  1.00  0.00     0.060 A 
ATOM      7  C   UNL A   1      38.386  29.503  27.991  1.00  0.00     0.016 A 
ATOM      8  C   UNL A   1      38.840  29.335  30.337  1.00  0.00     0.016 A 
ATOM      9  C   UNL A   1      39.707  29.297  27.692  1.00  0.00     0.010 A 
ATOM     10  C   UNL A   1      40.201  29.183  30.052  1.00  0.00     0.010 A 
ATOM     11  C   UNL A   1      40.622  29.139  28.719  1.00  0.00    -0.014 A 
BRANCH  11  12
ATOM     12  C   UNL A   1      41.970  28.765  28.283  1.00  0.00     0.031 A 
ATOM     13  C   UNL A   1      43.066  29.756  28.512  1.00  0.00     0.074 A 
ATOM     14  C   UNL A   1      42.203  27.478  27.969  1.00  0.00     0.049 A 
ATOM     15  N   UNL A   1      44.342  29.635  28.283  1.00  0.00    -0.248 NA
ATOM     16  C   UNL A   1      42.679  31.050  29.108  1.00  0.00     0.031 C 
ATOM     17  C   UNL A   1      41.185  26.417  27.942  1.00  0.00     0.029 A 
ATOM     18  N   UNL A   1      43.369  26.822  27.699  1.00  0.00    -0.354 N 
ATOM     19  C   UNL A   1      44.901  30.852  28.652  1.00  0.00     0.074 A 
ATOM     20  C   UNL A   1      43.835  31.693  29.139  1.00  0.00     0.031 C 
ATOM     21  C   UNL A   1      41.785  25.238  27.722  1.00  0.00     0.029 A 
ATOM     22  C   UNL A   1      43.204  25.471  27.502  1.00  0.00     0.049 A 
ATOM     23  H   UNL A   1      44.243  27.272  27.651  1.00  0.00     0.167 HD
ATOM     24  C   UNL A   1      46.196  31.227  28.558  1.00  0.00     0.031 A 
ATOM     25  C   UNL A   1      44.109  24.542  27.146  1.00  0.00     0.031 A 
ATOM     26  C   UNL A   1      47.216  30.347  28.062  1.00  0.00     0.049 A 
ATOM     27  C   UNL A   1      45.522  25.014  26.940  1.00  0.00     0.074 A 
ATOM     28  C   UNL A   1      48.550  30.612  27.823  1.00  0.00     0.029 A 
ATOM     29  N   UNL A   1      47.001  29.013  27.730  1.00  0.00    -0.354 N 
ATOM     30  N   UNL A   1      46.031  26.205  27.168  1.00  0.00    -0.248 NA
ATOM     31  C   UNL A   1      46.476  24.037  26.412  1.00  0.00     0.031 C 
ATOM     32  C   UNL A   1      49.128  29.453  27.295  1.00  0.00     0.029 A 
ATOM     33  C   UNL A   1      48.172  28.445  27.269  1.00  0.00     0.049 A 
ATOM     34  H   UNL A   1      46.140  28.543  27.812  1.00  0.00     0.167 HD
ATOM     35  C   UNL A   1      47.372  26.116  26.827  1.00  0.00     0.074 A 
ATOM     36  C   UNL A   1      47.595  24.747  26.399  1.00  0.00     0.031 C 
ATOM     37  C   UNL A   1      48.334  27.072  26.858  1.00  0.00     0.031 A 
BRANCH  24  38
ATOM     38  C   UNL A   1      46.517  32.659  28.876  1.00  0.00    -0.014 A 
ATOM     39  C   UNL A   1      46.908  33.073  30.163  1.00  0.00     0.010 A 
ATOM     40  C   UNL A   1      46.373  33.625  27.863  1.00  0.00     0.010 A 
ATOM     41  C   UNL A   1      47.104  34.431  30.438  1.00  0.00     0.020 A 
ATOM     42  C   UNL A   1      46.593  34.979  28.128  1.00  0.00     0.020 A 
ATOM     43  C   UNL A   1      46.938  35.376  29.420  1.00  0.00     0.054 A 
BRANCH  43  44
ATOM     44  S   UNL A   1      47.194  37.130  29.802  1.00  0.00     0.124 S 
ATOM     45  O   UNL A   1      47.134  37.132  31.263  1.00  0.00    -0.237 OA
ATOM     46  O   UNL A   1      48.511  37.395  29.229  1.00  0.00    -0.237 OA
ATOM     47  O   UNL A   1      46.080  37.798  29.133  1.00  0.00    -0.744 OA
ENDBRANCH  43  44
ENDBRANCH  24  38
BRANCH  25  48
ATOM     48  C   UNL A   1      43.693  23.136  26.888  1.00  0.00    -0.014 A 
ATOM     49  C   UNL A   1      43.916  22.524  25.642  1.00  0.00     0.010 A 
ATOM     50  C   UNL A   1      43.061  22.391  27.904  1.00  0.00     0.010 A 
ATOM     51  C   UNL A   1      43.499  21.206  25.413  1.00  0.00     0.020 A 
ATOM     52  C   UNL A   1      42.674  21.065  27.691  1.00  0.00     0.020 A 
ATOM     53  C   UNL A   1      42.881  20.486  26.439  1.00  0.00     0.054 A 
BRANCH  53  54
ATOM     54  S   UNL A   1      42.369  18.772  26.130  1.00  0.00     0.124 S 
ATOM     55  O   UNL A   1      42.574  18.154  27.437  1.00  0.00    -0.237 OA
ATOM     56  O   UNL A   1      40.978  18.928  25.714  1.00  0.00    -0.237 OA
ATOM     57  O   UNL A   1      43.279  18.327  25.078  1.00  0.00    -0.744 OA
ENDBRANCH  53  54
ENDBRANCH  25  48
BRANCH  37  58
ATOM     58  C   UNL A   1      49.717  26.641  26.464  1.00  0.00    -0.014 A 
ATOM     59  C   UNL A   1      50.158  26.733  25.133  1.00  0.00     0.010 A 
ATOM     60  C   UNL A   1      50.598  26.184  27.460  1.00  0.00     0.010 A 
ATOM     61  C   UNL A   1      51.453  26.334  24.799  1.00  0.00     0.020 A 
ATOM     62  C   UNL A   1      51.902  25.816  27.134  1.00  0.00     0.020 A 
ATOM     63  C   UNL A   1      52.316  25.878  25.802  1.00  0.00     0.054 A 
BRANCH  63  64
ATOM     64  S   UNL A   1      54.003  25.402  25.351  1.00  0.00     0.124 S 
ATOM     65  O   UNL A   1      54.369  26.449  24.401  1.00  0.00    -0.237 OA
ATOM     66  O   UNL A   1      54.703  25.444  26.634  1.00  0.00    -0.237 OA
ATOM     67  O   UNL A   1      53.845  24.067  24.779  1.00  0.00    -0.744 OA
ENDBRANCH  63  64
ENDBRANCH  37  58
ENDBRANCH  11  12
ENDBRANCH   4   6
ENDBRANCH   3   4
ENDBRANCH   2   3
ENDBRANCH   1   2
BRANCH   1  68
ATOM     68  O   UNL A   1      32.690  31.241  27.281  1.00  0.00    -0.374 OA
BRANCH  68  69
ATOM     69  C   UNL A   1      31.681  30.499  26.596  1.00  0.00     0.202 C 
BRANCH  69  70
ATOM     70  C   UNL A   1      32.104  29.043  26.428  1.00  0.00     0.261 C 
BRANCH  70  71
ATOM     71  O   UNL A   1      31.346  28.423  25.371  1.00  0.00    -0.463 OA
BRANCH  71  72
ATOM     72  C   UNL A   1      31.808  28.596  24.102  1.00  0.00     0.312 C 
ATOM     73  O   UNL A   1      32.829  29.201  23.794  1.00  0.00    -0.252 OA
BRANCH  72  74
ATOM     74  C   UNL A   1      30.927  27.902  23.065  1.00  0.00     0.124 C 
ATOM     75  C   UNL A   1      29.474  28.198  23.238  1.00  0.00    -0.014 C 
ATOM     76  C   UNL A   1      30.947  26.362  23.113  1.00  0.00     0.048 C 
ATOM     77  C   UNL A   1      28.793  27.127  23.660  1.00  0.00    -0.006 C 
ATOM     78  C   UNL A   1      29.642  25.914  23.818  1.00  0.00     0.106 C 
BRANCH  78  79
ATOM     79  N   UNL A   1      29.876  25.519  25.198  1.00  0.00    -0.347 N 
ATOM     80  C   UNL A   1      30.813  24.725  25.795  1.00  0.00     0.261 C 
ATOM     81  H   UNL A   1      29.225  25.901  25.831  1.00  0.00     0.164 HD
ATOM     82  O   UNL A   1      31.039  24.944  26.988  1.00  0.00    -0.271 OA
BRANCH  80  83
ATOM     83  C   UNL A   1      31.506  23.612  25.025  1.00  0.00     0.266 C 
ATOM     84  C   UNL A   1      31.096  22.244  25.590  1.00  0.00     0.095 C 
ATOM     85  O   UNL A   1      32.950  23.711  25.099  1.00  0.00    -0.480 OA
ATOM     86  C   UNL A   1      32.334  21.496  25.274  1.00  0.00    -0.002 A 
ATOM     87  C   UNL A   1      33.357  22.403  25.040  1.00  0.00     0.123 A 
ATOM     88  C   UNL A   1      32.570  20.135  25.245  1.00  0.00     0.008 A 
ATOM     89  C   UNL A   1      34.648  21.997  24.780  1.00  0.00     0.047 A 
ATOM     90  C   UNL A   1      33.866  19.699  24.958  1.00  0.00     0.001 A 
ATOM     91  C   UNL A   1      34.900  20.625  24.730  1.00  0.00     0.004 A 
ENDBRANCH  80  83
ENDBRANCH  78  79
ENDBRANCH  72  74
ENDBRANCH  71  72
ENDBRANCH  70  71
ENDBRANCH  69  70
ENDBRANCH  68  69
ENDBRANCH   1  68
TORSDOF 19
ENDMDL
MODEL 2
REMARK VINA RESULT:     -10.9      1.765      2.949
REMARK SMILES O=C(OCCOCCOC(=O)[C@@H]1C=C[C@H](NC(=O)[C@@H]2Cc3ccccc3O2)C1)c1ccc(-c2c3nc(c(-c4ccc(S(=O)(=O)[O-])cc4)c4ccc([nH]4)c(-c4ccc(S(=O)(=O)[O-])cc4)c4nc(c(-c5ccc(S(=O)(=O)[O-])cc5)c5ccc2[nH]5)C=C4)C=C3)cc1
REMARK SMILES IDX 5 1 4 2 3 3 2 4 1 5 29 6 30 7 88 8 31 9 87 10 32 11 33 12
REMARK SMILES IDX 34 13 81 14 35 15 86 16 80 17 82 18 36 19 85 20 79 21 78 22
REMARK SMILES IDX 37 24 67 25 48 26 66 27 49 28 52 29 65 30 83 31 50 32 51 33
REMARK SMILES IDX 64 35 84 36 53 37 38 38 39 39 47 40 40 41 46 42 41 43 42 44
REMARK SMILES IDX 43 45 44 46 45 47 68 48 69 49 77 50 70 51 76 52 71 53 72 54
REMARK SMILES IDX 73 55 74 56 75 57 54 58 55 59 63 60 56 61 62 62 57 63 58 64
REMARK SMILES IDX 59 65 60 66 61 67 6 68 7 69 8 70 9 71 10 72 11 73 12 74
REMARK SMILES IDX 13 75 28 76 14 77 15 78 16 79 17 80 18 82 19 83 20 84 27 85
REMARK SMILES IDX 21 86 26 87 22 88 25 89 23 90 24 91
REMARK H PARENT 82 23 52 34 16 81
REMARK Flexibility Score: inf
ROOT
ATOM      1  C   UNL A   1      33.830  30.131  27.354  1.00  0.00     0.202 C 
ENDROOT
BRANCH   1   2
ATOM      2  C   UNL A   1      35.115  29.329  27.610  1.00  0.00     0.261 C 
BRANCH   2   3
ATOM      3  O   UNL A   1      35.993  30.048  28.492  1.00  0.00    -0.460 OA
BRANCH   3   4
ATOM      4  C   UNL A   1      36.955  29.545  29.304  1.00  0.00     0.338 C 
ATOM      5  O   UNL A   1      36.692  29.296  30.477  1.00  0.00    -0.246 OA
BRANCH   4   6
ATOM      6  C   UNL A   1      38.329  29.248  28.813  1.00  0.00     0.060 A 
ATOM      7  C   UNL A   1      39.333  28.706  29.608  1.00  0.00     0.016 A 
ATOM      8  C   UNL A   1      38.615  29.484  27.460  1.00  0.00     0.016 A 
ATOM      9  C   UNL A   1      40.604  28.496  29.139  1.00  0.00     0.010 A 
ATOM     10  C   UNL A   1      39.891  29.221  26.950  1.00  0.00     0.010 A 
ATOM     11  C   UNL A   1      40.889  28.749  27.808  1.00  0.00    -0.014 A 
BRANCH  11  12
ATOM     12  C   UNL A   1      42.308  28.647  27.459  1.00  0.00     0.031 A 
ATOM     13  C   UNL A   1      43.206  29.759  27.898  1.00  0.00     0.074 A 
ATOM     14  C   UNL A   1      42.773  27.461  27.025  1.00  0.00     0.049 A 
ATOM     15  N   UNL A   1      44.498  29.867  27.776  1.00  0.00    -0.248 NA
ATOM     16  C   UNL A   1      42.568  30.891  28.597  1.00  0.00     0.031 C 
ATOM     17  C   UNL A   1      41.949  26.268  26.784  1.00  0.00     0.029 A 
ATOM     18  N   UNL A   1      44.048  27.034  26.791  1.00  0.00    -0.354 N 
ATOM     19  C   UNL A   1      44.820  31.099  28.329  1.00  0.00     0.074 A 
ATOM     20  C   UNL A   1      43.597  31.697  28.808  1.00  0.00     0.031 C 
ATOM     21  C   UNL A   1      42.749  25.233  26.489  1.00  0.00     0.029 A 
ATOM     22  C   UNL A   1      44.123  25.709  26.428  1.00  0.00     0.049 A 
ATOM     23  H   UNL A   1      44.837  27.616  26.875  1.00  0.00     0.167 HD
ATOM     24  C   UNL A   1      46.038  31.679  28.398  1.00  0.00     0.031 A 
ATOM     25  C   UNL A   1      45.192  24.984  26.055  1.00  0.00     0.031 A 
ATOM     26  C   UNL A   1      47.223  31.038  27.902  1.00  0.00     0.049 A 
ATOM     27  C   UNL A   1      46.519  25.692  26.035  1.00  0.00     0.074 A 
ATOM     28  C   UNL A   1      48.509  31.535  27.819  1.00  0.00     0.029 A 
ATOM     29  N   UNL A   1      47.256  29.740  27.403  1.00  0.00    -0.354 N 
ATOM     30  N   UNL A   1      46.806  26.909  26.441  1.00  0.00    -0.248 NA
ATOM     31  C   UNL A   1      47.657  24.948  25.491  1.00  0.00     0.031 C 
ATOM     32  C   UNL A   1      49.308  30.555  27.219  1.00  0.00     0.029 A 
ATOM     33  C   UNL A   1      48.535  29.422  26.992  1.00  0.00     0.049 A 
ATOM     34  H   UNL A   1      46.481  29.135  27.352  1.00  0.00     0.167 HD
ATOM     35  C   UNL A   1      48.165  27.073  26.218  1.00  0.00     0.074 A 
ATOM     36  C   UNL A   1      48.642  25.819  25.661  1.00  0.00     0.031 C 
ATOM     37  C   UNL A   1      48.952  28.154  26.445  1.00  0.00     0.031 A 
BRANCH  24  38
ATOM     38  C   UNL A   1      46.095  33.093  28.904  1.00  0.00    -0.014 A 
ATOM     39  C   UNL A   1      46.228  33.396  30.272  1.00  0.00     0.010 A 
ATOM     40  C   UNL A   1      45.959  34.146  27.981  1.00  0.00     0.010 A 
ATOM     41  C   UNL A   1      46.179  34.725  30.708  1.00  0.00     0.020 A 
ATOM     42  C   UNL A   1      45.936  35.476  28.411  1.00  0.00     0.020 A 
ATOM     43  C   UNL A   1      46.026  35.755  29.775  1.00  0.00     0.054 A 
BRANCH  43  44
ATOM     44  S   UNL A   1      45.962  37.469  30.365  1.00  0.00     0.124 S 
ATOM     45  O   UNL A   1      45.138  37.343  31.566  1.00  0.00    -0.237 OA
ATOM     46  O   UNL A   1      47.369  37.782  30.600  1.00  0.00    -0.237 OA
ATOM     47  O   UNL A   1      45.342  38.195  29.259  1.00  0.00    -0.744 OA
ENDBRANCH  43  44
ENDBRANCH  24  38
BRANCH  25  48
ATOM     48  C   UNL A   1      45.034  23.574  25.602  1.00  0.00    -0.014 A 
ATOM     49  C   UNL A   1      44.905  22.520  26.524  1.00  0.00     0.010 A 
ATOM     50  C   UNL A   1      45.013  23.275  24.225  1.00  0.00     0.010 A 
ATOM     51  C   UNL A   1      44.777  21.199  26.077  1.00  0.00     0.020 A 
ATOM     52  C   UNL A   1      44.852  21.962  23.776  1.00  0.00     0.020 A 
ATOM     53  C   UNL A   1      44.751  20.928  24.706  1.00  0.00     0.054 A 
BRANCH  53  54
ATOM     54  S   UNL A   1      44.561  19.211  24.148  1.00  0.00     0.124 S 
ATOM     55  O   UNL A   1      43.311  18.820  24.791  1.00  0.00    -0.237 OA
ATOM     56  O   UNL A   1      44.509  19.356  22.696  1.00  0.00    -0.237 OA
ATOM     57  O   UNL A   1      45.761  18.551  24.657  1.00  0.00    -0.744 OA
ENDBRANCH  53  54
ENDBRANCH  25  48
BRANCH  37  58
ATOM     58  C   UNL A   1      50.412  27.996  26.135  1.00  0.00    -0.014 A 
ATOM     59  C   UNL A   1      50.946  28.422  24.908  1.00  0.00     0.010 A 
ATOM     60  C   UNL A   1      51.262  27.455  27.115  1.00  0.00     0.010 A 
ATOM     61  C   UNL A   1      52.310  28.272  24.651  1.00  0.00     0.020 A 
ATOM     62  C   UNL A   1      52.629  27.334  26.874  1.00  0.00     0.020 A 
ATOM     63  C   UNL A   1      53.141  27.727  25.636  1.00  0.00     0.054 A 
BRANCH  63  64
ATOM     64  S   UNL A   1      54.914  27.577  25.296  1.00  0.00     0.124 S 
ATOM     65  O   UNL A   1      54.917  26.859  24.024  1.00  0.00    -0.237 OA
ATOM     66  O   UNL A   1      55.347  28.972  25.232  1.00  0.00    -0.237 OA
ATOM     67  O   UNL A   1      55.423  26.825  26.440  1.00  0.00    -0.744 OA
ENDBRANCH  63  64
ENDBRANCH  37  58
ENDBRANCH  11  12
ENDBRANCH   4   6
ENDBRANCH   3   4
ENDBRANCH   2   3
ENDBRANCH   1   2
BRANCH   1  68
ATOM     68  O   UNL A   1      32.833  29.500  26.555  1.00  0.00    -0.374 OA
BRANCH  68  69
ATOM     69  C   UNL A   1      32.106  28.452  27.196  1.00  0.00     0.202 C 
BRANCH  69  70
ATOM     70  C   UNL A   1      32.300  27.132  26.457  1.00  0.00     0.261 C 
BRANCH  70  71
ATOM     71  O   UNL A   1      31.229  26.222  26.775  1.00  0.00    -0.463 OA
BRANCH  71  72
ATOM     72  C   UNL A   1      30.754  25.453  25.756  1.00  0.00     0.312 C 
ATOM     73  O   UNL A   1      30.427  25.866  24.648  1.00  0.00    -0.252 OA
BRANCH  72  74
ATOM     74  C   UNL A   1      30.706  23.971  26.121  1.00  0.00     0.124 C 
ATOM     75  C   UNL A   1      31.785  23.566  27.070  1.00  0.00    -0.014 C 
ATOM     76  C   UNL A   1      30.933  23.000  24.946  1.00  0.00     0.048 C 
ATOM     77  C   UNL A   1      32.697  22.782  26.485  1.00  0.00    -0.006 C 
ATOM     78  C   UNL A   1      32.391  22.488  25.057  1.00  0.00     0.106 C 
BRANCH  78  79
ATOM     79  N   UNL A   1      33.273  23.145  24.105  1.00  0.00    -0.347 N 
ATOM     80  C   UNL A   1      34.626  23.133  23.926  1.00  0.00     0.261 C 
ATOM     81  H   UNL A   1      32.797  23.715  23.458  1.00  0.00     0.164 HD
ATOM     82  O   UNL A   1      35.033  23.399  22.793  1.00  0.00    -0.271 OA
BRANCH  80  83
ATOM     83  C   UNL A   1      35.569  22.839  25.083  1.00  0.00     0.266 C 
ATOM     84  C   UNL A   1      36.280  24.128  25.524  1.00  0.00     0.095 C 
ATOM     85  O   UNL A   1      36.585  21.868  24.730  1.00  0.00    -0.480 OA
ATOM     86  C   UNL A   1      37.540  23.526  26.017  1.00  0.00    -0.002 A 
ATOM     87  C   UNL A   1      37.660  22.248  25.492  1.00  0.00     0.123 A 
ATOM     88  C   UNL A   1      38.531  24.064  26.815  1.00  0.00     0.008 A 
ATOM     89  C   UNL A   1      38.768  21.462  25.727  1.00  0.00     0.047 A 
ATOM     90  C   UNL A   1      39.652  23.276  27.089  1.00  0.00     0.001 A 
ATOM     91  C   UNL A   1      39.771  21.983  26.545  1.00  0.00     0.004 A 
ENDBRANCH  80  83
ENDBRANCH  78  79
ENDBRANCH  72  74
ENDBRANCH  71  72
ENDBRANCH  70  71
ENDBRANCH  69  70
ENDBRANCH  68  69
ENDBRANCH   1  68
TORSDOF 19
ENDMDL
MODEL 3
REMARK VINA RESULT:     -10.9      4.831      6.314
REMARK SMILES O=C(OCCOCCOC(=O)[C@@H]1C=C[C@H](NC(=O)[C@@H]2Cc3ccccc3O2)C1)c1ccc(-c2c3nc(c(-c4ccc(S(=O)(=O)[O-])cc4)c4ccc([nH]4)c(-c4ccc(S(=O)(=O)[O-])cc4)c4nc(c(-c5ccc(S(=O)(=O)[O-])cc5)c5ccc2[nH]5)C=C4)C=C3)cc1
REMARK SMILES IDX 5 1 4 2 3 3 2 4 1 5 29 6 30 7 88 8 31 9 87 10 32 11 33 12
REMARK SMILES IDX 34 13 81 14 35 15 86 16 80 17 82 18 36 19 85 20 79 21 78 22
REMARK SMILES IDX 37 24 67 25 48 26 66 27 49 28 52 29 65 30 83 31 50 32 51 33
REMARK SMILES IDX 64 35 84 36 53 37 38 38 39 39 47 40 40 41 46 42 41 43 42 44
REMARK SMILES IDX 43 45 44 46 45 47 68 48 69 49 77 50 70 51 76 52 71 53 72 54
REMARK SMILES IDX 73 55 74 56 75 57 54 58 55 59 63 60 56 61 62 62 57 63 58 64
REMARK SMILES IDX 59 65 60 66 61 67 6 68 7 69 8 70 9 71 10 72 11 73 12 74
REMARK SMILES IDX 13 75 28 76 14 77 15 78 16 79 17 80 18 82 19 83 20 84 27 85
REMARK SMILES IDX 21 86 26 87 22 88 25 89 23 90 24 91
REMARK H PARENT 82 23 52 34 16 81
REMARK Flexibility Score: inf
ROOT
ATOM      1  C   UNL A   1      33.736  28.373  25.233  1.00  0.00     0.202 C 
ENDROOT
BRANCH   1   2
ATOM      2  C   UNL A   1      33.106  29.401  26.185  1.00  0.00     0.261 C 
BRANCH   2   3
ATOM      3  O   UNL A   1      33.910  29.553  27.367  1.00  0.00    -0.460 OA
BRANCH   3   4
ATOM      4  C   UNL A   1      34.704  30.598  27.707  1.00  0.00     0.338 C 
ATOM      5  O   UNL A   1      34.352  31.742  27.435  1.00  0.00    -0.246 OA
BRANCH   4   6
ATOM      6  C   UNL A   1      35.988  30.412  28.436  1.00  0.00     0.060 A 
ATOM      7  C   UNL A   1      37.133  31.160  28.187  1.00  0.00     0.016 A 
ATOM      8  C   UNL A   1      36.033  29.461  29.467  1.00  0.00     0.016 A 
ATOM      9  C   UNL A   1      38.316  30.925  28.839  1.00  0.00     0.010 A 
ATOM     10  C   UNL A   1      37.216  29.248  30.182  1.00  0.00     0.010 A 
ATOM     11  C   UNL A   1      38.364  29.971  29.841  1.00  0.00    -0.014 A 
BRANCH  11  12
ATOM     12  C   UNL A   1      39.708  29.692  30.353  1.00  0.00     0.031 A 
ATOM     13  C   UNL A   1      40.096  30.326  31.650  1.00  0.00     0.074 A 
ATOM     14  C   UNL A   1      40.403  28.683  29.797  1.00  0.00     0.049 A 
ATOM     15  N   UNL A   1      41.190  30.180  32.340  1.00  0.00    -0.248 NA
ATOM     16  C   UNL A   1      39.105  31.227  32.271  1.00  0.00     0.031 C 
ATOM     17  C   UNL A   1      39.958  27.884  28.646  1.00  0.00     0.029 A 
ATOM     18  N   UNL A   1      41.580  28.100  30.168  1.00  0.00    -0.354 N 
ATOM     19  C   UNL A   1      41.044  31.010  33.444  1.00  0.00     0.074 A 
ATOM     20  C   UNL A   1      39.751  31.643  33.348  1.00  0.00     0.031 C 
ATOM     21  C   UNL A   1      40.828  26.883  28.443  1.00  0.00     0.029 A 
ATOM     22  C   UNL A   1      41.930  27.026  29.382  1.00  0.00     0.049 A 
ATOM     23  H   UNL A   1      42.125  28.415  30.924  1.00  0.00     0.167 HD
ATOM     24  C   UNL A   1      41.940  31.233  34.432  1.00  0.00     0.031 A 
ATOM     25  C   UNL A   1      43.045  26.274  29.409  1.00  0.00     0.031 A 
ATOM     26  C   UNL A   1      43.215  30.576  34.475  1.00  0.00     0.049 A 
ATOM     27  C   UNL A   1      44.072  26.621  30.451  1.00  0.00     0.074 A 
ATOM     28  C   UNL A   1      44.260  30.765  35.357  1.00  0.00     0.029 A 
ATOM     29  N   UNL A   1      43.613  29.586  33.580  1.00  0.00    -0.354 N 
ATOM     30  N   UNL A   1      43.990  27.500  31.425  1.00  0.00    -0.248 NA
ATOM     31  C   UNL A   1      45.346  25.900  30.389  1.00  0.00     0.031 C 
ATOM     32  C   UNL A   1      45.310  29.929  34.962  1.00  0.00     0.029 A 
ATOM     33  C   UNL A   1      44.895  29.168  33.876  1.00  0.00     0.049 A 
ATOM     34  H   UNL A   1      43.061  29.235  32.845  1.00  0.00     0.167 HD
ATOM     35  C   UNL A   1      45.195  27.426  32.106  1.00  0.00     0.074 A 
ATOM     36  C   UNL A   1      45.978  26.399  31.442  1.00  0.00     0.031 C 
ATOM     37  C   UNL A   1      45.625  28.138  33.178  1.00  0.00     0.031 A 
BRANCH  24  38
ATOM     38  C   UNL A   1      41.602  32.303  35.431  1.00  0.00    -0.014 A 
ATOM     39  C   UNL A   1      40.872  32.032  36.603  1.00  0.00     0.010 A 
ATOM     40  C   UNL A   1      41.989  33.628  35.158  1.00  0.00     0.010 A 
ATOM     41  C   UNL A   1      40.497  33.075  37.457  1.00  0.00     0.020 A 
ATOM     42  C   UNL A   1      41.638  34.668  36.022  1.00  0.00     0.020 A 
ATOM     43  C   UNL A   1      40.877  34.387  37.157  1.00  0.00     0.054 A 
BRANCH  43  44
ATOM     44  S   UNL A   1      40.376  35.723  38.277  1.00  0.00     0.124 S 
ATOM     45  O   UNL A   1      39.530  35.012  39.234  1.00  0.00    -0.237 OA
ATOM     46  O   UNL A   1      41.653  36.198  38.802  1.00  0.00    -0.237 OA
ATOM     47  O   UNL A   1      39.675  36.664  37.406  1.00  0.00    -0.744 OA
ENDBRANCH  43  44
ENDBRANCH  24  38
BRANCH  25  48
ATOM     48  C   UNL A   1      43.268  25.210  28.391  1.00  0.00    -0.014 A 
ATOM     49  C   UNL A   1      43.691  25.522  27.088  1.00  0.00     0.010 A 
ATOM     50  C   UNL A   1      43.055  23.858  28.728  1.00  0.00     0.010 A 
ATOM     51  C   UNL A   1      43.877  24.507  26.140  1.00  0.00     0.020 A 
ATOM     52  C   UNL A   1      43.271  22.841  27.796  1.00  0.00     0.020 A 
ATOM     53  C   UNL A   1      43.666  23.173  26.500  1.00  0.00     0.054 A 
BRANCH  53  54
ATOM     54  S   UNL A   1      43.934  21.872  25.264  1.00  0.00     0.124 S 
ATOM     55  O   UNL A   1      45.314  21.478  25.533  1.00  0.00    -0.237 OA
ATOM     56  O   UNL A   1      42.915  20.888  25.616  1.00  0.00    -0.237 OA
ATOM     57  O   UNL A   1      43.715  22.556  23.992  1.00  0.00    -0.744 OA
ENDBRANCH  53  54
ENDBRANCH  25  48
BRANCH  37  58
ATOM     58  C   UNL A   1      46.981  27.784  33.716  1.00  0.00    -0.014 A 
ATOM     59  C   UNL A   1      47.142  26.784  34.689  1.00  0.00     0.010 A 
ATOM     60  C   UNL A   1      48.111  28.439  33.195  1.00  0.00     0.010 A 
ATOM     61  C   UNL A   1      48.416  26.470  35.162  1.00  0.00     0.020 A 
ATOM     62  C   UNL A   1      49.388  28.104  33.643  1.00  0.00     0.020 A 
ATOM     63  C   UNL A   1      49.530  27.134  34.636  1.00  0.00     0.054 A 
BRANCH  63  64
ATOM     64  S   UNL A   1      51.178  26.683  35.238  1.00  0.00     0.124 S 
ATOM     65  O   UNL A   1      51.176  27.257  36.581  1.00  0.00    -0.237 OA
ATOM     66  O   UNL A   1      51.153  25.223  35.177  1.00  0.00    -0.237 OA
ATOM     67  O   UNL A   1      52.081  27.324  34.286  1.00  0.00    -0.744 OA
ENDBRANCH  63  64
ENDBRANCH  37  58
ENDBRANCH  11  12
ENDBRANCH   4   6
ENDBRANCH   3   4
ENDBRANCH   2   3
ENDBRANCH   1   2
BRANCH   1  68
ATOM     68  O   UNL A   1      34.002  27.081  25.773  1.00  0.00    -0.374 OA
BRANCH  68  69
ATOM     69  C   UNL A   1      33.441  25.986  25.049  1.00  0.00     0.202 C 
BRANCH  69  70
ATOM     70  C   UNL A   1      31.935  26.163  24.890  1.00  0.00     0.261 C 
BRANCH  70  71
ATOM     71  O   UNL A   1      31.274  24.884  24.953  1.00  0.00    -0.463 OA
BRANCH  71  72
ATOM     72  C   UNL A   1      30.517  24.638  26.058  1.00  0.00     0.312 C 
ATOM     73  O   UNL A   1      29.741  25.432  26.578  1.00  0.00    -0.252 OA
BRANCH  72  74
ATOM     74  C   UNL A   1      30.698  23.214  26.579  1.00  0.00     0.124 C 
ATOM     75  C   UNL A   1      31.868  23.070  27.496  1.00  0.00    -0.014 C 
ATOM     76  C   UNL A   1      31.004  22.155  25.503  1.00  0.00     0.048 C 
ATOM     77  C   UNL A   1      32.853  22.356  26.940  1.00  0.00    -0.006 C 
ATOM     78  C   UNL A   1      32.523  21.863  25.573  1.00  0.00     0.106 C 
BRANCH  78  79
ATOM     79  N   UNL A   1      33.256  22.521  24.503  1.00  0.00    -0.347 N 
ATOM     80  C   UNL A   1      34.587  22.651  24.226  1.00  0.00     0.261 C 
ATOM     81  H   UNL A   1      32.674  22.963  23.844  1.00  0.00     0.164 HD
ATOM     82  O   UNL A   1      34.886  22.848  23.046  1.00  0.00    -0.271 OA
BRANCH  80  83
ATOM     83  C   UNL A   1      35.629  22.587  25.332  1.00  0.00     0.266 C 
ATOM     84  C   UNL A   1      36.219  23.983  25.583  1.00  0.00     0.095 C 
ATOM     85  O   UNL A   1      36.722  21.693  25.006  1.00  0.00    -0.480 OA
ATOM     86  C   UNL A   1      37.567  23.574  26.038  1.00  0.00    -0.002 A 
ATOM     87  C   UNL A   1      37.794  22.264  25.640  1.00  0.00     0.123 A 
ATOM     88  C   UNL A   1      38.542  24.297  26.698  1.00  0.00     0.008 A 
ATOM     89  C   UNL A   1      38.995  21.629  25.871  1.00  0.00     0.047 A 
ATOM     90  C   UNL A   1      39.759  23.664  26.966  1.00  0.00     0.001 A 
ATOM     91  C   UNL A   1      39.985  22.339  26.552  1.00  0.00     0.004 A 
ENDBRANCH  80  83
ENDBRANCH  78  79
ENDBRANCH  72  74
ENDBRANCH  71  72
ENDBRANCH  70  71
ENDBRANCH  69  70
ENDBRANCH  68  69
ENDBRANCH   1  68
TORSDOF 19
ENDMDL
