MODEL 1
REMARK VINA RESULT:     -10.5      0.000      0.000
REMARK SMILES Cc1c(Cl)cccc1NC(=O)C[C@H](C(=O)OCCOCCOC(=O)c1ccc(-c2c3nc(c(-c4ccc(S(=O)(=O)[O-])cc4)c4ccc([nH]4)c(-c4ccc(S(=O)(=O)[O-])cc4)c4nc(c(-c5ccc(S(=O)(=O)[O-])cc5)c5ccc2[nH]5)C=C4)C=C3)cc1)[C@H](C)c1ccccc1
REMARK SMILES IDX 19 1 18 2 17 3 16 4 14 5 15 6 13 7 12 8 10 9 9 10 11 12 8 13
REMARK SMILES IDX 1 14 2 15 3 16 4 17 5 18 7 19 6 20 85 21 86 22 87 23 88 24
REMARK SMILES IDX 92 25 89 26 91 27 90 28 20 29 21 30 22 31 23 32 24 33 25 34
REMARK SMILES IDX 26 35 84 36 27 37 83 38 28 39 29 40 30 41 77 42 31 43 82 44
REMARK SMILES IDX 76 45 78 46 32 47 81 48 75 49 74 50 33 52 63 53 44 54 62 55
REMARK SMILES IDX 45 56 48 57 61 58 79 59 46 60 47 61 60 63 80 64 49 65 34 66
REMARK SMILES IDX 35 67 43 68 36 69 42 70 37 71 38 72 39 73 40 74 41 75 64 76
REMARK SMILES IDX 65 77 73 78 66 79 72 80 67 81 68 82 69 83 70 84 71 85 50 86
REMARK SMILES IDX 51 87 59 88 52 89 58 90 53 91 54 92 55 93 56 94 57 95
REMARK H PARENT 9 11 78 51 48 62
REMARK Flexibility Score: inf
ROOT
ATOM      1  O   UNL A   1      36.904  20.092  24.878  1.00  0.00    -0.374 OA
ENDROOT
BRANCH   1   2
ATOM      2  C   UNL A   1      35.844  21.046  24.971  1.00  0.00     0.202 C 
BRANCH   2   3
ATOM      3  C   UNL A   1      34.426  20.462  25.075  1.00  0.00     0.261 C 
BRANCH   3   4
ATOM      4  O   UNL A   1      33.493  21.414  25.646  1.00  0.00    -0.463 OA
BRANCH   4   5
ATOM      5  C   UNL A   1      32.680  22.104  24.797  1.00  0.00     0.310 C 
ATOM      6  O   UNL A   1      31.977  21.584  23.940  1.00  0.00    -0.252 OA
BRANCH   5   7
ATOM      7  C   UNL A   1      32.679  23.615  25.091  1.00  0.00     0.116 C 
BRANCH   7   8
ATOM      8  C   UNL A   1      32.061  23.811  26.488  1.00  0.00     0.116 C 
BRANCH   8   9
ATOM      9  C   UNL A   1      30.592  24.020  26.749  1.00  0.00     0.225 C 
ATOM     10  N   UNL A   1      29.889  25.114  26.339  1.00  0.00    -0.326 N 
ATOM     11  H   UNL A   1      29.028  25.228  26.804  1.00  0.00     0.169 HD
ATOM     12  O   UNL A   1      29.975  23.170  27.404  1.00  0.00    -0.275 OA
BRANCH  10  13
ATOM     13  C   UNL A   1      30.153  26.117  25.380  1.00  0.00     0.045 A 
ATOM     14  C   UNL A   1      31.379  27.479  27.189  1.00  0.00     0.048 C 
ATOM     15  C   UNL A   1      30.853  27.282  25.786  1.00  0.00    -0.009 A 
ATOM     16  C   UNL A   1      30.922  28.375  24.892  1.00  0.00     0.046 A 
ATOM     17  Cl  UNL A   1      31.702  29.858  25.320  1.00  0.00    -0.084 Cl
ATOM     18  C   UNL A   1      30.307  28.331  23.643  1.00  0.00     0.021 A 
ATOM     19  C   UNL A   1      29.624  26.072  24.091  1.00  0.00     0.026 A 
ATOM     20  C   UNL A   1      29.665  27.175  23.239  1.00  0.00     0.004 A 
ENDBRANCH  10  13
ENDBRANCH   8   9
ENDBRANCH   7   8
BRANCH   7  21
ATOM     21  C   UNL A   1      34.032  24.205  24.600  1.00  0.00     0.031 C 
ATOM     22  C   UNL A   1      35.123  24.572  25.600  1.00  0.00     0.013 C 
BRANCH  21  23
ATOM     23  C   UNL A   1      33.770  25.466  23.769  1.00  0.00    -0.044 A 
ATOM     24  C   UNL A   1      33.221  25.363  22.486  1.00  0.00     0.004 A 
ATOM     25  C   UNL A   1      34.122  26.739  24.256  1.00  0.00     0.004 A 
ATOM     26  C   UNL A   1      33.087  26.499  21.686  1.00  0.00     0.000 A 
ATOM     27  C   UNL A   1      34.007  27.867  23.449  1.00  0.00     0.000 A 
ATOM     28  C   UNL A   1      33.499  27.745  22.160  1.00  0.00     0.000 A 
ENDBRANCH  21  23
ENDBRANCH   7  21
ENDBRANCH   5   7
ENDBRANCH   4   5
ENDBRANCH   3   4
ENDBRANCH   2   3
ENDBRANCH   1   2
BRANCH   1  29
ATOM     29  C   UNL A   1      38.212  20.570  25.170  1.00  0.00     0.202 C 
BRANCH  29  30
ATOM     30  C   UNL A   1      39.238  19.511  25.604  1.00  0.00     0.261 C 
BRANCH  30  31
ATOM     31  O   UNL A   1      40.205  20.013  26.547  1.00  0.00    -0.460 OA
BRANCH  31  32
ATOM     32  C   UNL A   1      41.497  19.832  26.179  1.00  0.00     0.338 C 
ATOM     33  O   UNL A   1      41.965  18.848  25.624  1.00  0.00    -0.246 OA
BRANCH  32  34
ATOM     34  C   UNL A   1      42.282  21.070  26.376  1.00  0.00     0.060 A 
ATOM     35  C   UNL A   1      42.592  21.422  27.695  1.00  0.00     0.016 A 
ATOM     36  C   UNL A   1      42.661  21.907  25.322  1.00  0.00     0.016 A 
ATOM     37  C   UNL A   1      43.223  22.634  27.972  1.00  0.00     0.010 A 
ATOM     38  C   UNL A   1      43.311  23.120  25.603  1.00  0.00     0.010 A 
ATOM     39  C   UNL A   1      43.554  23.514  26.933  1.00  0.00    -0.014 A 
BRANCH  39  40
ATOM     40  C   UNL A   1      43.990  24.900  27.262  1.00  0.00     0.031 A 
ATOM     41  C   UNL A   1      45.435  25.283  27.048  1.00  0.00     0.074 A 
ATOM     42  C   UNL A   1      43.115  25.837  27.676  1.00  0.00     0.049 A 
ATOM     43  N   UNL A   1      46.026  26.435  27.237  1.00  0.00    -0.248 NA
ATOM     44  C   UNL A   1      46.331  24.226  26.549  1.00  0.00     0.031 C 
ATOM     45  C   UNL A   1      41.680  25.628  27.868  1.00  0.00     0.029 A 
ATOM     46  N   UNL A   1      43.304  27.159  28.000  1.00  0.00    -0.354 N 
ATOM     47  C   UNL A   1      47.359  26.241  26.889  1.00  0.00     0.074 A 
ATOM     48  C   UNL A   1      47.498  24.850  26.518  1.00  0.00     0.031 C 
ATOM     49  C   UNL A   1      41.121  26.778  28.283  1.00  0.00     0.029 A 
ATOM     50  C   UNL A   1      42.159  27.801  28.409  1.00  0.00     0.049 A 
ATOM     51  H   UNL A   1      44.180  27.605  27.945  1.00  0.00     0.167 HD
ATOM     52  C   UNL A   1      48.376  27.137  26.867  1.00  0.00     0.031 A 
ATOM     53  C   UNL A   1      41.964  29.063  28.843  1.00  0.00     0.031 A 
ATOM     54  C   UNL A   1      48.245  28.520  27.241  1.00  0.00     0.049 A 
ATOM     55  C   UNL A   1      43.127  30.022  28.890  1.00  0.00     0.074 A 
ATOM     56  C   UNL A   1      49.214  29.508  27.231  1.00  0.00     0.029 A 
ATOM     57  N   UNL A   1      47.078  29.112  27.701  1.00  0.00    -0.354 N 
ATOM     58  N   UNL A   1      44.371  29.827  28.527  1.00  0.00    -0.248 NA
ATOM     59  C   UNL A   1      42.852  31.377  29.392  1.00  0.00     0.031 C 
ATOM     60  C   UNL A   1      48.654  30.679  27.751  1.00  0.00     0.029 A 
ATOM     61  C   UNL A   1      47.314  30.442  28.013  1.00  0.00     0.049 A 
ATOM     62  H   UNL A   1      46.212  28.655  27.793  1.00  0.00     0.167 HD
ATOM     63  C   UNL A   1      45.021  31.041  28.730  1.00  0.00     0.074 A 
ATOM     64  C   UNL A   1      44.027  31.969  29.231  1.00  0.00     0.031 C 
ATOM     65  C   UNL A   1      46.322  31.360  28.516  1.00  0.00     0.031 A 
BRANCH  52  66
ATOM     66  C   UNL A   1      49.736  26.634  26.457  1.00  0.00    -0.014 A 
ATOM     67  C   UNL A   1      50.248  26.863  25.166  1.00  0.00     0.010 A 
ATOM     68  C   UNL A   1      50.533  25.949  27.394  1.00  0.00     0.010 A 
ATOM     69  C   UNL A   1      51.508  26.378  24.807  1.00  0.00     0.020 A 
ATOM     70  C   UNL A   1      51.807  25.491  27.049  1.00  0.00     0.020 A 
ATOM     71  C   UNL A   1      52.279  25.692  25.751  1.00  0.00     0.054 A 
BRANCH  71  72
ATOM     72  S   UNL A   1      53.916  25.085  25.261  1.00  0.00     0.124 S 
ATOM     73  O   UNL A   1      53.997  25.528  23.871  1.00  0.00    -0.237 OA
ATOM     74  O   UNL A   1      54.804  25.775  26.192  1.00  0.00    -0.237 OA
ATOM     75  O   UNL A   1      53.823  23.640  25.448  1.00  0.00    -0.744 OA
ENDBRANCH  71  72
ENDBRANCH  52  66
BRANCH  53  76
ATOM     76  C   UNL A   1      40.608  29.496  29.284  1.00  0.00    -0.014 A 
ATOM     77  C   UNL A   1      40.330  29.733  30.643  1.00  0.00     0.010 A 
ATOM     78  C   UNL A   1      39.579  29.674  28.339  1.00  0.00     0.010 A 
ATOM     79  C   UNL A   1      39.049  30.126  31.048  1.00  0.00     0.020 A 
ATOM     80  C   UNL A   1      38.308  30.096  28.736  1.00  0.00     0.020 A 
ATOM     81  C   UNL A   1      38.048  30.312  30.090  1.00  0.00     0.054 A 
BRANCH  81  82
ATOM     82  S   UNL A   1      36.414  30.884  30.632  1.00  0.00     0.124 S 
ATOM     83  O   UNL A   1      35.919  29.731  31.378  1.00  0.00    -0.237 OA
ATOM     84  O   UNL A   1      36.746  32.061  31.430  1.00  0.00    -0.237 OA
ATOM     85  O   UNL A   1      35.718  31.167  29.379  1.00  0.00    -0.744 OA
ENDBRANCH  81  82
ENDBRANCH  53  76
BRANCH  65  86
ATOM     86  C   UNL A   1      46.752  32.780  28.788  1.00  0.00    -0.014 A 
ATOM     87  C   UNL A   1      47.279  33.163  30.034  1.00  0.00     0.010 A 
ATOM     88  C   UNL A   1      46.681  33.735  27.756  1.00  0.00     0.010 A 
ATOM     89  C   UNL A   1      47.695  34.479  30.253  1.00  0.00     0.020 A 
ATOM     90  C   UNL A   1      47.125  35.044  27.960  1.00  0.00     0.020 A 
ATOM     91  C   UNL A   1      47.617  35.412  29.214  1.00  0.00     0.054 A 
BRANCH  91  92
ATOM     92  S   UNL A   1      48.202  37.104  29.512  1.00  0.00     0.124 S 
ATOM     93  O   UNL A   1      49.574  37.043  29.015  1.00  0.00    -0.237 OA
ATOM     94  O   UNL A   1      47.279  37.906  28.713  1.00  0.00    -0.237 OA
ATOM     95  O   UNL A   1      48.071  37.267  30.958  1.00  0.00    -0.744 OA
ENDBRANCH  91  92
ENDBRANCH  65  86
ENDBRANCH  39  40
ENDBRANCH  32  34
ENDBRANCH  31  32
ENDBRANCH  30  31
ENDBRANCH  29  30
ENDBRANCH   1  29
TORSDOF 22
ENDMDL
MODEL 2
REMARK VINA RESULT:     -10.4      6.174      8.390
REMARK SMILES Cc1c(Cl)cccc1NC(=O)C[C@H](C(=O)OCCOCCOC(=O)c1ccc(-c2c3nc(c(-c4ccc(S(=O)(=O)[O-])cc4)c4ccc([nH]4)c(-c4ccc(S(=O)(=O)[O-])cc4)c4nc(c(-c5ccc(S(=O)(=O)[O-])cc5)c5ccc2[nH]5)C=C4)C=C3)cc1)[C@H](C)c1ccccc1
REMARK SMILES IDX 19 1 18 2 17 3 16 4 14 5 15 6 13 7 12 8 10 9 9 10 11 12 8 13
REMARK SMILES IDX 1 14 2 15 3 16 4 17 5 18 7 19 6 20 85 21 86 22 87 23 88 24
REMARK SMILES IDX 92 25 89 26 91 27 90 28 20 29 21 30 22 31 23 32 24 33 25 34
REMARK SMILES IDX 26 35 84 36 27 37 83 38 28 39 29 40 30 41 77 42 31 43 82 44
REMARK SMILES IDX 76 45 78 46 32 47 81 48 75 49 74 50 33 52 63 53 44 54 62 55
REMARK SMILES IDX 45 56 48 57 61 58 79 59 46 60 47 61 60 63 80 64 49 65 34 66
REMARK SMILES IDX 35 67 43 68 36 69 42 70 37 71 38 72 39 73 40 74 41 75 64 76
REMARK SMILES IDX 65 77 73 78 66 79 72 80 67 81 68 82 69 83 70 84 71 85 50 86
REMARK SMILES IDX 51 87 59 88 52 89 58 90 53 91 54 92 55 93 56 94 57 95
REMARK H PARENT 9 11 78 51 48 62
REMARK Flexibility Score: inf
ROOT
ATOM      1  O   UNL A   1      38.175  21.819  25.170  1.00  0.00    -0.374 OA
ENDROOT
BRANCH   1   2
ATOM      2  C   UNL A   1      37.031  21.105  25.643  1.00  0.00     0.202 C 
BRANCH   2   3
ATOM      3  C   UNL A   1      35.708  21.408  24.920  1.00  0.00     0.261 C 
BRANCH   3   4
ATOM      4  O   UNL A   1      34.911  22.380  25.642  1.00  0.00    -0.463 OA
BRANCH   4   5
ATOM      5  C   UNL A   1      34.944  23.677  25.222  1.00  0.00     0.310 C 
ATOM      6  O   UNL A   1      35.971  24.325  25.066  1.00  0.00    -0.252 OA
BRANCH   5   7
ATOM      7  C   UNL A   1      33.543  24.215  24.883  1.00  0.00     0.116 C 
BRANCH   7   8
ATOM      8  C   UNL A   1      32.988  23.357  23.729  1.00  0.00     0.116 C 
BRANCH   8   9
ATOM      9  C   UNL A   1      32.956  23.788  22.286  1.00  0.00     0.225 C 
ATOM     10  N   UNL A   1      32.113  24.737  21.788  1.00  0.00    -0.326 N 
ATOM     11  H   UNL A   1      32.029  24.716  20.808  1.00  0.00     0.169 HD
ATOM     12  O   UNL A   1      33.714  23.233  21.480  1.00  0.00    -0.275 OA
BRANCH  10  13
ATOM     13  C   UNL A   1      31.336  25.744  22.403  1.00  0.00     0.045 A 
ATOM     14  C   UNL A   1      33.273  27.405  22.058  1.00  0.00     0.048 C 
ATOM     15  C   UNL A   1      31.898  27.036  22.564  1.00  0.00    -0.009 A 
ATOM     16  C   UNL A   1      31.214  27.975  23.371  1.00  0.00     0.046 A 
ATOM     17  Cl  UNL A   1      31.850  29.555  23.673  1.00  0.00    -0.084 Cl
ATOM     18  C   UNL A   1      30.024  27.647  24.015  1.00  0.00     0.021 A 
ATOM     19  C   UNL A   1      30.100  25.476  22.990  1.00  0.00     0.026 A 
ATOM     20  C   UNL A   1      29.462  26.400  23.817  1.00  0.00     0.004 A 
ENDBRANCH  10  13
ENDBRANCH   8   9
ENDBRANCH   7   8
BRANCH   7  21
ATOM     21  C   UNL A   1      32.810  24.533  26.218  1.00  0.00     0.031 C 
ATOM     22  C   UNL A   1      31.405  23.998  26.476  1.00  0.00     0.013 C 
BRANCH  21  23
ATOM     23  C   UNL A   1      32.732  26.052  26.410  1.00  0.00    -0.044 A 
ATOM     24  C   UNL A   1      33.816  26.864  26.057  1.00  0.00     0.004 A 
ATOM     25  C   UNL A   1      31.597  26.649  26.990  1.00  0.00     0.004 A 
ATOM     26  C   UNL A   1      33.788  28.231  26.335  1.00  0.00     0.000 A 
ATOM     27  C   UNL A   1      31.582  28.010  27.285  1.00  0.00     0.000 A 
ATOM     28  C   UNL A   1      32.682  28.799  26.967  1.00  0.00     0.000 A 
ENDBRANCH  21  23
ENDBRANCH   7  21
ENDBRANCH   5   7
ENDBRANCH   4   5
ENDBRANCH   3   4
ENDBRANCH   2   3
ENDBRANCH   1   2
BRANCH   1  29
ATOM     29  C   UNL A   1      39.054  22.333  26.164  1.00  0.00     0.202 C 
BRANCH  29  30
ATOM     30  C   UNL A   1      38.909  23.829  26.486  1.00  0.00     0.261 C 
BRANCH  30  31
ATOM     31  O   UNL A   1      40.025  24.360  27.226  1.00  0.00    -0.460 OA
BRANCH  31  32
ATOM     32  C   UNL A   1      40.357  25.635  26.907  1.00  0.00     0.338 C 
ATOM     33  O   UNL A   1      40.723  26.040  25.813  1.00  0.00    -0.246 OA
BRANCH  32  34
ATOM     34  C   UNL A   1      40.057  26.556  28.025  1.00  0.00     0.060 A 
ATOM     35  C   UNL A   1      40.710  27.793  28.021  1.00  0.00     0.016 A 
ATOM     36  C   UNL A   1      39.214  26.215  29.087  1.00  0.00     0.016 A 
ATOM     37  C   UNL A   1      40.575  28.667  29.100  1.00  0.00     0.010 A 
ATOM     38  C   UNL A   1      39.066  27.104  30.165  1.00  0.00     0.010 A 
ATOM     39  C   UNL A   1      39.783  28.315  30.200  1.00  0.00    -0.014 A 
BRANCH  39  40
ATOM     40  C   UNL A   1      39.852  29.137  31.441  1.00  0.00     0.031 A 
ATOM     41  C   UNL A   1      40.987  28.907  32.410  1.00  0.00     0.074 A 
ATOM     42  C   UNL A   1      38.970  30.128  31.681  1.00  0.00     0.049 A 
ATOM     43  N   UNL A   1      41.259  29.525  33.531  1.00  0.00    -0.248 NA
ATOM     44  C   UNL A   1      41.943  27.843  32.065  1.00  0.00     0.031 C 
ATOM     45  C   UNL A   1      37.861  30.504  30.806  1.00  0.00     0.029 A 
ATOM     46  N   UNL A   1      38.876  31.007  32.733  1.00  0.00    -0.354 N 
ATOM     47  C   UNL A   1      42.410  28.921  34.028  1.00  0.00     0.074 A 
ATOM     48  C   UNL A   1      42.760  27.861  33.108  1.00  0.00     0.031 C 
ATOM     49  C   UNL A   1      37.195  31.532  31.359  1.00  0.00     0.029 A 
ATOM     50  C   UNL A   1      37.812  31.874  32.640  1.00  0.00     0.049 A 
ATOM     51  H   UNL A   1      39.511  31.015  33.486  1.00  0.00     0.167 HD
ATOM     52  C   UNL A   1      43.122  29.224  35.141  1.00  0.00     0.031 A 
ATOM     53  C   UNL A   1      37.377  32.829  33.488  1.00  0.00     0.031 A 
ATOM     54  C   UNL A   1      42.776  30.273  36.063  1.00  0.00     0.049 A 
ATOM     55  C   UNL A   1      38.136  33.093  34.763  1.00  0.00     0.074 A 
ATOM     56  C   UNL A   1      43.448  30.666  37.207  1.00  0.00     0.029 A 
ATOM     57  N   UNL A   1      41.659  31.088  35.957  1.00  0.00    -0.354 N 
ATOM     58  N   UNL A   1      39.239  32.533  35.198  1.00  0.00    -0.248 NA
ATOM     59  C   UNL A   1      37.599  34.133  35.654  1.00  0.00     0.031 C 
ATOM     60  C   UNL A   1      42.702  31.672  37.831  1.00  0.00     0.029 A 
ATOM     61  C   UNL A   1      41.605  31.958  37.035  1.00  0.00     0.049 A 
ATOM     62  H   UNL A   1      41.003  31.054  35.225  1.00  0.00     0.167 HD
ATOM     63  C   UNL A   1      39.542  33.170  36.398  1.00  0.00     0.074 A 
ATOM     64  C   UNL A   1      38.516  34.171  36.611  1.00  0.00     0.031 C 
ATOM     65  C   UNL A   1      40.579  32.950  37.244  1.00  0.00     0.031 A 
BRANCH  52  66
ATOM     66  C   UNL A   1      44.333  28.378  35.443  1.00  0.00    -0.014 A 
ATOM     67  C   UNL A   1      44.210  27.061  35.922  1.00  0.00     0.010 A 
ATOM     68  C   UNL A   1      45.618  28.902  35.210  1.00  0.00     0.010 A 
ATOM     69  C   UNL A   1      45.348  26.300  36.203  1.00  0.00     0.020 A 
ATOM     70  C   UNL A   1      46.758  28.133  35.460  1.00  0.00     0.020 A 
ATOM     71  C   UNL A   1      46.616  26.843  35.974  1.00  0.00     0.054 A 
BRANCH  71  72
ATOM     72  S   UNL A   1      48.075  25.829  36.336  1.00  0.00     0.124 S 
ATOM     73  O   UNL A   1      48.384  26.225  37.707  1.00  0.00    -0.237 OA
ATOM     74  O   UNL A   1      47.567  24.470  36.174  1.00  0.00    -0.237 OA
ATOM     75  O   UNL A   1      49.049  26.250  35.333  1.00  0.00    -0.744 OA
ENDBRANCH  71  72
ENDBRANCH  52  66
BRANCH  53  76
ATOM     76  C   UNL A   1      36.145  33.603  33.166  1.00  0.00    -0.014 A 
ATOM     77  C   UNL A   1      34.868  33.043  33.352  1.00  0.00     0.010 A 
ATOM     78  C   UNL A   1      36.246  34.916  32.665  1.00  0.00     0.010 A 
ATOM     79  C   UNL A   1      33.719  33.774  33.034  1.00  0.00     0.020 A 
ATOM     80  C   UNL A   1      35.099  35.660  32.375  1.00  0.00     0.020 A 
ATOM     81  C   UNL A   1      33.842  35.081  32.554  1.00  0.00     0.054 A 
BRANCH  81  82
ATOM     82  S   UNL A   1      32.335  36.032  32.209  1.00  0.00     0.124 S 
ATOM     83  O   UNL A   1      32.387  36.171  30.757  1.00  0.00    -0.237 OA
ATOM     84  O   UNL A   1      31.288  35.155  32.726  1.00  0.00    -0.237 OA
ATOM     85  O   UNL A   1      32.531  37.268  32.965  1.00  0.00    -0.744 OA
ENDBRANCH  81  82
ENDBRANCH  53  76
BRANCH  65  86
ATOM     86  C   UNL A   1      40.686  33.825  38.468  1.00  0.00    -0.014 A 
ATOM     87  C   UNL A   1      41.338  35.070  38.428  1.00  0.00     0.010 A 
ATOM     88  C   UNL A   1      40.069  33.418  39.667  1.00  0.00     0.010 A 
ATOM     89  C   UNL A   1      41.401  35.875  39.569  1.00  0.00     0.020 A 
ATOM     90  C   UNL A   1      40.101  34.233  40.801  1.00  0.00     0.020 A 
ATOM     91  C   UNL A   1      40.781  35.452  40.749  1.00  0.00     0.054 A 
BRANCH  91  92
ATOM     92  S   UNL A   1      40.841  36.534  42.204  1.00  0.00     0.124 S 
ATOM     93  O   UNL A   1      39.479  37.060  42.249  1.00  0.00    -0.237 OA
ATOM     94  O   UNL A   1      41.193  35.607  43.277  1.00  0.00    -0.237 OA
ATOM     95  O   UNL A   1      41.874  37.512  41.867  1.00  0.00    -0.744 OA
ENDBRANCH  91  92
ENDBRANCH  65  86
ENDBRANCH  39  40
ENDBRANCH  32  34
ENDBRANCH  31  32
ENDBRANCH  30  31
ENDBRANCH  29  30
ENDBRANCH   1  29
TORSDOF 22
ENDMDL
MODEL 3
REMARK VINA RESULT:     -10.3      2.631      4.125
REMARK SMILES Cc1c(Cl)cccc1NC(=O)C[C@H](C(=O)OCCOCCOC(=O)c1ccc(-c2c3nc(c(-c4ccc(S(=O)(=O)[O-])cc4)c4ccc([nH]4)c(-c4ccc(S(=O)(=O)[O-])cc4)c4nc(c(-c5ccc(S(=O)(=O)[O-])cc5)c5ccc2[nH]5)C=C4)C=C3)cc1)[C@H](C)c1ccccc1
REMARK SMILES IDX 19 1 18 2 17 3 16 4 14 5 15 6 13 7 12 8 10 9 9 10 11 12 8 13
REMARK SMILES IDX 1 14 2 15 3 16 4 17 5 18 7 19 6 20 85 21 86 22 87 23 88 24
REMARK SMILES IDX 92 25 89 26 91 27 90 28 20 29 21 30 22 31 23 32 24 33 25 34
REMARK SMILES IDX 26 35 84 36 27 37 83 38 28 39 29 40 30 41 77 42 31 43 82 44
REMARK SMILES IDX 76 45 78 46 32 47 81 48 75 49 74 50 33 52 63 53 44 54 62 55
REMARK SMILES IDX 45 56 48 57 61 58 79 59 46 60 47 61 60 63 80 64 49 65 34 66
REMARK SMILES IDX 35 67 43 68 36 69 42 70 37 71 38 72 39 73 40 74 41 75 64 76
REMARK SMILES IDX 65 77 73 78 66 79 72 80 67 81 68 82 69 83 70 84 71 85 50 86
REMARK SMILES IDX 51 87 59 88 52 89 58 90 53 91 54 92 55 93 56 94 57 95
REMARK H PARENT 9 11 78 51 48 62
REMARK Flexibility Score: inf
ROOT
ATOM      1  O   UNL A   1      34.576  22.236  24.877  1.00  0.00    -0.374 OA
ENDROOT
BRANCH   1   2
ATOM      2  C   UNL A   1      33.643  22.171  23.796  1.00  0.00     0.202 C 
BRANCH   2   3
ATOM      3  C   UNL A   1      33.839  23.211  22.680  1.00  0.00     0.261 C 
BRANCH   3   4
ATOM      4  O   UNL A   1      32.749  24.166  22.638  1.00  0.00    -0.463 OA
BRANCH   4   5
ATOM      5  C   UNL A   1      33.010  25.417  22.164  1.00  0.00     0.310 C 
ATOM      6  O   UNL A   1      33.364  25.661  21.018  1.00  0.00    -0.252 OA
BRANCH   5   7
ATOM      7  C   UNL A   1      32.728  26.507  23.214  1.00  0.00     0.116 C 
BRANCH   7   8
ATOM      8  C   UNL A   1      33.787  26.361  24.324  1.00  0.00     0.116 C 
BRANCH   8   9
ATOM      9  C   UNL A   1      33.471  26.143  25.780  1.00  0.00     0.225 C 
ATOM     10  N   UNL A   1      33.262  27.149  26.678  1.00  0.00    -0.326 N 
ATOM     11  H   UNL A   1      33.331  26.862  27.617  1.00  0.00     0.169 HD
ATOM     12  O   UNL A   1      33.427  24.985  26.216  1.00  0.00    -0.275 OA
BRANCH  10  13
ATOM     13  C   UNL A   1      32.968  28.522  26.524  1.00  0.00     0.045 A 
ATOM     14  C   UNL A   1      35.203  29.096  27.667  1.00  0.00     0.048 C 
ATOM     15  C   UNL A   1      33.889  29.477  27.024  1.00  0.00    -0.009 A 
ATOM     16  C   UNL A   1      33.496  30.835  27.073  1.00  0.00     0.046 A 
ATOM     17  Cl  UNL A   1      34.529  32.063  27.720  1.00  0.00    -0.084 Cl
ATOM     18  C   UNL A   1      32.229  31.238  26.658  1.00  0.00     0.021 A 
ATOM     19  C   UNL A   1      31.741  28.970  26.037  1.00  0.00     0.026 A 
ATOM     20  C   UNL A   1      31.355  30.307  26.132  1.00  0.00     0.004 A 
ENDBRANCH  10  13
ENDBRANCH   8   9
ENDBRANCH   7   8
BRANCH   7  21
ATOM     21  C   UNL A   1      32.367  27.821  22.464  1.00  0.00     0.031 C 
ATOM     22  C   UNL A   1      33.155  29.101  22.723  1.00  0.00     0.013 C 
BRANCH  21  23
ATOM     23  C   UNL A   1      30.895  28.166  22.714  1.00  0.00    -0.044 A 
ATOM     24  C   UNL A   1      30.037  27.221  23.286  1.00  0.00     0.004 A 
ATOM     25  C   UNL A   1      30.370  29.414  22.328  1.00  0.00     0.004 A 
ATOM     26  C   UNL A   1      28.674  27.495  23.410  1.00  0.00     0.000 A 
ATOM     27  C   UNL A   1      29.006  29.675  22.433  1.00  0.00     0.000 A 
ATOM     28  C   UNL A   1      28.157  28.711  22.965  1.00  0.00     0.000 A 
ENDBRANCH  21  23
ENDBRANCH   7  21
ENDBRANCH   5   7
ENDBRANCH   4   5
ENDBRANCH   3   4
ENDBRANCH   2   3
ENDBRANCH   1   2
BRANCH   1  29
ATOM     29  C   UNL A   1      35.751  21.446  24.745  1.00  0.00     0.202 C 
BRANCH  29  30
ATOM     30  C   UNL A   1      36.835  21.662  25.813  1.00  0.00     0.261 C 
BRANCH  30  31
ATOM     31  O   UNL A   1      37.909  22.513  25.367  1.00  0.00    -0.460 OA
BRANCH  31  32
ATOM     32  C   UNL A   1      39.018  22.477  26.145  1.00  0.00     0.338 C 
ATOM     33  O   UNL A   1      39.786  21.535  26.276  1.00  0.00    -0.246 OA
BRANCH  32  34
ATOM     34  C   UNL A   1      39.309  23.811  26.715  1.00  0.00     0.060 A 
ATOM     35  C   UNL A   1      39.955  24.730  25.880  1.00  0.00     0.016 A 
ATOM     36  C   UNL A   1      39.022  24.152  28.040  1.00  0.00     0.016 A 
ATOM     37  C   UNL A   1      40.372  25.964  26.378  1.00  0.00     0.010 A 
ATOM     38  C   UNL A   1      39.429  25.402  28.535  1.00  0.00     0.010 A 
ATOM     39  C   UNL A   1      40.149  26.297  27.721  1.00  0.00    -0.014 A 
BRANCH  39  40
ATOM     40  C   UNL A   1      40.818  27.498  28.295  1.00  0.00     0.031 A 
ATOM     41  C   UNL A   1      42.326  27.581  28.264  1.00  0.00     0.074 A 
ATOM     42  C   UNL A   1      40.111  28.541  28.772  1.00  0.00     0.049 A 
ATOM     43  N   UNL A   1      43.113  28.541  28.677  1.00  0.00    -0.248 NA
ATOM     44  C   UNL A   1      43.038  26.430  27.686  1.00  0.00     0.031 C 
ATOM     45  C   UNL A   1      38.651  28.627  28.809  1.00  0.00     0.029 A 
ATOM     46  N   UNL A   1      40.527  29.735  29.310  1.00  0.00    -0.354 N 
ATOM     47  C   UNL A   1      44.410  28.109  28.417  1.00  0.00     0.074 A 
ATOM     48  C   UNL A   1      44.304  26.783  27.849  1.00  0.00     0.031 C 
ATOM     49  C   UNL A   1      38.295  29.806  29.346  1.00  0.00     0.029 A 
ATOM     50  C   UNL A   1      39.497  30.551  29.715  1.00  0.00     0.049 A 
ATOM     51  H   UNL A   1      41.476  29.983  29.399  1.00  0.00     0.167 HD
ATOM     52  C   UNL A   1      45.583  28.756  28.619  1.00  0.00     0.031 A 
ATOM     53  C   UNL A   1      39.515  31.757  30.320  1.00  0.00     0.031 A 
ATOM     54  C   UNL A   1      45.695  30.073  29.189  1.00  0.00     0.049 A 
ATOM     55  C   UNL A   1      40.835  32.424  30.612  1.00  0.00     0.074 A 
ATOM     56  C   UNL A   1      46.840  30.817  29.412  1.00  0.00     0.029 A 
ATOM     57  N   UNL A   1      44.628  30.839  29.635  1.00  0.00    -0.354 N 
ATOM     58  N   UNL A   1      42.048  32.012  30.329  1.00  0.00    -0.248 NA
ATOM     59  C   UNL A   1      40.787  33.727  31.291  1.00  0.00     0.031 C 
ATOM     60  C   UNL A   1      46.474  32.003  30.057  1.00  0.00     0.029 A 
ATOM     61  C   UNL A   1      45.093  32.031  30.166  1.00  0.00     0.049 A 
ATOM     62  H   UNL A   1      43.682  30.574  29.582  1.00  0.00     0.167 HD
ATOM     63  C   UNL A   1      42.903  33.017  30.771  1.00  0.00     0.074 A 
ATOM     64  C   UNL A   1      42.069  34.064  31.323  1.00  0.00     0.031 C 
ATOM     65  C   UNL A   1      44.258  33.069  30.719  1.00  0.00     0.031 A 
BRANCH  52  66
ATOM     66  C   UNL A   1      46.851  28.027  28.253  1.00  0.00    -0.014 A 
ATOM     67  C   UNL A   1      47.504  27.181  29.168  1.00  0.00     0.010 A 
ATOM     68  C   UNL A   1      47.378  28.164  26.955  1.00  0.00     0.010 A 
ATOM     69  C   UNL A   1      48.683  26.524  28.807  1.00  0.00     0.020 A 
ATOM     70  C   UNL A   1      48.539  27.483  26.580  1.00  0.00     0.020 A 
ATOM     71  C   UNL A   1      49.196  26.682  27.516  1.00  0.00     0.054 A 
BRANCH  71  72
ATOM     72  S   UNL A   1      50.720  25.806  27.071  1.00  0.00     0.124 S 
ATOM     73  O   UNL A   1      50.417  24.441  27.493  1.00  0.00    -0.237 OA
ATOM     74  O   UNL A   1      50.800  26.015  25.628  1.00  0.00    -0.237 OA
ATOM     75  O   UNL A   1      51.751  26.483  27.853  1.00  0.00    -0.744 OA
ENDBRANCH  71  72
ENDBRANCH  52  66
BRANCH  53  76
ATOM     76  C   UNL A   1      38.234  32.413  30.707  1.00  0.00    -0.014 A 
ATOM     77  C   UNL A   1      37.664  32.198  31.975  1.00  0.00     0.010 A 
ATOM     78  C   UNL A   1      37.572  33.263  29.799  1.00  0.00     0.010 A 
ATOM     79  C   UNL A   1      36.454  32.809  32.323  1.00  0.00     0.020 A 
ATOM     80  C   UNL A   1      36.379  33.899  30.154  1.00  0.00     0.020 A 
ATOM     81  C   UNL A   1      35.823  33.661  31.412  1.00  0.00     0.054 A 
BRANCH  81  82
ATOM     82  S   UNL A   1      34.289  34.492  31.910  1.00  0.00     0.124 S 
ATOM     83  O   UNL A   1      34.791  35.721  32.517  1.00  0.00    -0.237 OA
ATOM     84  O   UNL A   1      33.594  34.652  30.635  1.00  0.00    -0.237 OA
ATOM     85  O   UNL A   1      33.671  33.543  32.834  1.00  0.00    -0.744 OA
ENDBRANCH  81  82
ENDBRANCH  53  76
BRANCH  65  86
ATOM     86  C   UNL A   1      44.934  34.312  31.241  1.00  0.00    -0.014 A 
ATOM     87  C   UNL A   1      45.418  34.388  32.559  1.00  0.00     0.010 A 
ATOM     88  C   UNL A   1      45.140  35.404  30.376  1.00  0.00     0.010 A 
ATOM     89  C   UNL A   1      46.065  35.541  33.012  1.00  0.00     0.020 A 
ATOM     90  C   UNL A   1      45.814  36.547  30.814  1.00  0.00     0.020 A 
ATOM     91  C   UNL A   1      46.260  36.614  32.136  1.00  0.00     0.054 A 
BRANCH  91  92
ATOM     92  S   UNL A   1      47.139  38.084  32.736  1.00  0.00     0.124 S 
ATOM     93  O   UNL A   1      46.600  38.231  34.086  1.00  0.00    -0.237 OA
ATOM     94  O   UNL A   1      48.539  37.671  32.661  1.00  0.00    -0.237 OA
ATOM     95  O   UNL A   1      46.751  39.130  31.793  1.00  0.00    -0.744 OA
ENDBRANCH  91  92
ENDBRANCH  65  86
ENDBRANCH  39  40
ENDBRANCH  32  34
ENDBRANCH  31  32
ENDBRANCH  30  31
ENDBRANCH  29  30
ENDBRANCH   1  29
TORSDOF 22
ENDMDL
