MODEL 1
REMARK VINA RESULT:      -8.1      0.000      0.000
REMARK SMILES C[C@@H](Oc1ccc(N)cc1)C(=O)OCCOCCOC(=O)c1ccc(-c2c3nc(c(-c4ccc(S(=O)(=O)[O-])cc4)c4ccc([nH]4)c(-c4ccc(S(=O)(=O)[O-])cc4)c4nc(c(-c5ccc(S(=O)(=O)[O-])cc5)c5ccc2[nH]5)C=C4)C=C3)cc1
REMARK SMILES IDX 16 1 15 2 14 3 13 4 11 5 12 6 2 7 1 8 3 9 4 10 5 11 10 12
REMARK SMILES IDX 6 13 9 14 7 15 8 16 17 19 18 20 19 21 20 22 21 23 22 24
REMARK SMILES IDX 23 25 81 26 24 27 80 28 25 29 26 30 27 31 74 32 28 33 79 34
REMARK SMILES IDX 73 35 75 36 29 37 78 38 72 39 71 40 30 42 60 43 41 44 59 45
REMARK SMILES IDX 42 46 45 47 58 48 76 49 43 50 44 51 57 53 77 54 46 55 31 56
REMARK SMILES IDX 32 57 40 58 33 59 39 60 34 61 35 62 36 63 37 64 38 65 61 66
REMARK SMILES IDX 62 67 70 68 63 69 69 70 64 71 65 72 66 73 67 74 68 75 47 76
REMARK SMILES IDX 48 77 56 78 49 79 55 80 50 81 51 82 52 83 53 84 54 85
REMARK H PARENT 8 17 8 18 75 41 45 52
REMARK Flexibility Score: inf
ROOT
ATOM      1  O   UNL A   1      33.728  35.278  29.128  1.00  0.00    -0.374 OA
ENDROOT
BRANCH   1   2
ATOM      2  C   UNL A   1      32.875  35.550  30.242  1.00  0.00     0.202 C 
BRANCH   2   3
ATOM      3  C   UNL A   1      33.487  35.332  31.630  1.00  0.00     0.261 C 
BRANCH   3   4
ATOM      4  O   UNL A   1      34.817  34.784  31.530  1.00  0.00    -0.461 OA
BRANCH   4   5
ATOM      5  C   UNL A   1      34.987  33.504  31.966  1.00  0.00     0.347 C 
ATOM      6  O   UNL A   1      34.091  32.670  32.051  1.00  0.00    -0.248 OA
BRANCH   5   7
ATOM      7  C   UNL A   1      36.441  33.199  32.330  1.00  0.00     0.279 C 
ATOM      8  C   UNL A   1      37.327  34.444  32.334  1.00  0.00     0.066 C 
BRANCH   7   9
ATOM      9  O   UNL A   1      36.454  32.575  33.621  1.00  0.00    -0.479 OA
BRANCH   9  10
ATOM     10  C   UNL A   1      37.488  31.688  33.728  1.00  0.00     0.120 A 
ATOM     11  C   UNL A   1      38.612  32.016  34.480  1.00  0.00     0.048 A 
ATOM     12  C   UNL A   1      37.386  30.442  33.121  1.00  0.00     0.048 A 
ATOM     13  C   UNL A   1      39.668  31.110  34.579  1.00  0.00     0.029 A 
ATOM     14  C   UNL A   1      38.438  29.530  33.241  1.00  0.00     0.029 A 
ATOM     15  C   UNL A   1      39.577  29.845  33.990  1.00  0.00     0.032 A 
BRANCH  15  16
ATOM     16  N   UNL A   1      40.655  28.973  34.042  1.00  0.00    -0.399 N 
ATOM     17  H   UNL A   1      41.133  28.831  34.890  1.00  0.00     0.156 HD
ATOM     18  H   UNL A   1      40.941  28.496  33.230  1.00  0.00     0.156 HD
ENDBRANCH  15  16
ENDBRANCH   9  10
ENDBRANCH   7   9
ENDBRANCH   5   7
ENDBRANCH   4   5
ENDBRANCH   3   4
ENDBRANCH   2   3
ENDBRANCH   1   2
BRANCH   1  19
ATOM     19  C   UNL A   1      33.372  34.184  28.288  1.00  0.00     0.202 C 
BRANCH  19  20
ATOM     20  C   UNL A   1      34.439  33.099  28.086  1.00  0.00     0.261 C 
BRANCH  20  21
ATOM     21  O   UNL A   1      34.074  31.836  28.669  1.00  0.00    -0.460 OA
BRANCH  21  22
ATOM     22  C   UNL A   1      34.324  30.763  27.878  1.00  0.00     0.338 C 
ATOM     23  O   UNL A   1      33.639  30.360  26.948  1.00  0.00    -0.246 OA
BRANCH  22  24
ATOM     24  C   UNL A   1      35.654  30.197  28.170  1.00  0.00     0.060 A 
ATOM     25  C   UNL A   1      35.882  29.733  29.472  1.00  0.00     0.016 A 
ATOM     26  C   UNL A   1      36.688  30.205  27.231  1.00  0.00     0.016 A 
ATOM     27  C   UNL A   1      37.157  29.324  29.856  1.00  0.00     0.010 A 
ATOM     28  C   UNL A   1      37.972  29.801  27.622  1.00  0.00     0.010 A 
ATOM     29  C   UNL A   1      38.220  29.394  28.947  1.00  0.00    -0.014 A 
BRANCH  29  30
ATOM     30  C   UNL A   1      39.606  29.178  29.433  1.00  0.00     0.031 A 
ATOM     31  C   UNL A   1      40.303  27.882  29.108  1.00  0.00     0.074 A 
ATOM     32  C   UNL A   1      40.259  30.141  30.108  1.00  0.00     0.049 A 
ATOM     33  N   UNL A   1      41.513  27.494  29.418  1.00  0.00    -0.248 NA
ATOM     34  C   UNL A   1      39.537  26.899  28.325  1.00  0.00     0.031 C 
ATOM     35  C   UNL A   1      39.714  31.456  30.443  1.00  0.00     0.029 A 
ATOM     36  N   UNL A   1      41.529  30.161  30.628  1.00  0.00    -0.354 N 
ATOM     37  C   UNL A   1      41.654  26.223  28.872  1.00  0.00     0.074 A 
ATOM     38  C   UNL A   1      40.396  25.895  28.237  1.00  0.00     0.031 C 
ATOM     39  C   UNL A   1      40.647  32.155  31.113  1.00  0.00     0.029 A 
ATOM     40  C   UNL A   1      41.842  31.330  31.278  1.00  0.00     0.049 A 
ATOM     41  H   UNL A   1      42.158  29.407  30.541  1.00  0.00     0.167 HD
ATOM     42  C   UNL A   1      42.733  25.404  28.891  1.00  0.00     0.031 A 
ATOM     43  C   UNL A   1      42.957  31.689  31.945  1.00  0.00     0.031 A 
ATOM     44  C   UNL A   1      43.981  25.723  29.534  1.00  0.00     0.049 A 
ATOM     45  C   UNL A   1      44.118  30.730  32.020  1.00  0.00     0.074 A 
ATOM     46  C   UNL A   1      45.133  24.960  29.600  1.00  0.00     0.029 A 
ATOM     47  N   UNL A   1      44.238  26.896  30.225  1.00  0.00    -0.354 N 
ATOM     48  N   UNL A   1      44.238  29.538  31.485  1.00  0.00    -0.248 NA
ATOM     49  C   UNL A   1      45.294  31.170  32.782  1.00  0.00     0.031 C 
ATOM     50  C   UNL A   1      46.070  25.650  30.376  1.00  0.00     0.029 A 
ATOM     51  C   UNL A   1      45.521  26.868  30.745  1.00  0.00     0.049 A 
ATOM     52  H   UNL A   1      43.602  27.640  30.332  1.00  0.00     0.167 HD
ATOM     53  C   UNL A   1      45.513  29.097  31.826  1.00  0.00     0.074 A 
ATOM     54  C   UNL A   1      46.128  30.154  32.602  1.00  0.00     0.031 C 
ATOM     55  C   UNL A   1      46.121  27.925  31.518  1.00  0.00     0.031 A 
BRANCH  42  56
ATOM     56  C   UNL A   1      42.597  24.063  28.221  1.00  0.00    -0.014 A 
ATOM     57  C   UNL A   1      42.379  22.894  28.971  1.00  0.00     0.010 A 
ATOM     58  C   UNL A   1      42.654  23.977  26.818  1.00  0.00     0.010 A 
ATOM     59  C   UNL A   1      42.258  21.657  28.332  1.00  0.00     0.020 A 
ATOM     60  C   UNL A   1      42.509  22.745  26.173  1.00  0.00     0.020 A 
ATOM     61  C   UNL A   1      42.328  21.590  26.937  1.00  0.00     0.054 A 
BRANCH  61  62
ATOM     62  S   UNL A   1      42.152  19.975  26.131  1.00  0.00     0.124 S 
ATOM     63  O   UNL A   1      43.085  20.092  25.014  1.00  0.00    -0.237 OA
ATOM     64  O   UNL A   1      42.548  19.044  27.185  1.00  0.00    -0.237 OA
ATOM     65  O   UNL A   1      40.739  19.925  25.759  1.00  0.00    -0.744 OA
ENDBRANCH  61  62
ENDBRANCH  42  56
BRANCH  43  66
ATOM     66  C   UNL A   1      43.028  33.017  32.613  1.00  0.00    -0.014 A 
ATOM     67  C   UNL A   1      43.492  34.147  31.920  1.00  0.00     0.010 A 
ATOM     68  C   UNL A   1      42.627  33.154  33.955  1.00  0.00     0.010 A 
ATOM     69  C   UNL A   1      43.568  35.388  32.559  1.00  0.00     0.020 A 
ATOM     70  C   UNL A   1      42.678  34.398  34.591  1.00  0.00     0.020 A 
ATOM     71  C   UNL A   1      43.160  35.506  33.891  1.00  0.00     0.054 A 
BRANCH  71  72
ATOM     72  S   UNL A   1      43.215  37.136  34.686  1.00  0.00     0.124 S 
ATOM     73  O   UNL A   1      44.605  37.211  35.126  1.00  0.00    -0.237 OA
ATOM     74  O   UNL A   1      42.847  38.033  33.594  1.00  0.00    -0.237 OA
ATOM     75  O   UNL A   1      42.225  37.028  35.754  1.00  0.00    -0.744 OA
ENDBRANCH  71  72
ENDBRANCH  43  66
BRANCH  55  76
ATOM     76  C   UNL A   1      47.536  27.729  31.994  1.00  0.00    -0.014 A 
ATOM     77  C   UNL A   1      48.632  28.121  31.205  1.00  0.00     0.010 A 
ATOM     78  C   UNL A   1      47.770  27.197  33.276  1.00  0.00     0.010 A 
ATOM     79  C   UNL A   1      49.937  27.957  31.678  1.00  0.00     0.020 A 
ATOM     80  C   UNL A   1      49.073  27.055  33.762  1.00  0.00     0.020 A 
ATOM     81  C   UNL A   1      50.150  27.423  32.953  1.00  0.00     0.054 A 
BRANCH  81  82
ATOM     82  S   UNL A   1      51.850  27.261  33.563  1.00  0.00     0.124 S 
ATOM     83  O   UNL A   1      52.112  25.839  33.359  1.00  0.00    -0.237 OA
ATOM     84  O   UNL A   1      52.593  28.168  32.691  1.00  0.00    -0.237 OA
ATOM     85  O   UNL A   1      51.760  27.684  34.959  1.00  0.00    -0.744 OA
ENDBRANCH  81  82
ENDBRANCH  55  76
ENDBRANCH  29  30
ENDBRANCH  22  24
ENDBRANCH  21  22
ENDBRANCH  20  21
ENDBRANCH  19  20
ENDBRANCH   1  19
TORSDOF 20
ENDMDL
MODEL 2
REMARK VINA RESULT:      -8.0      0.985      8.522
REMARK SMILES C[C@@H](Oc1ccc(N)cc1)C(=O)OCCOCCOC(=O)c1ccc(-c2c3nc(c(-c4ccc(S(=O)(=O)[O-])cc4)c4ccc([nH]4)c(-c4ccc(S(=O)(=O)[O-])cc4)c4nc(c(-c5ccc(S(=O)(=O)[O-])cc5)c5ccc2[nH]5)C=C4)C=C3)cc1
REMARK SMILES IDX 16 1 15 2 14 3 13 4 11 5 12 6 2 7 1 8 3 9 4 10 5 11 10 12
REMARK SMILES IDX 6 13 9 14 7 15 8 16 17 19 18 20 19 21 20 22 21 23 22 24
REMARK SMILES IDX 23 25 81 26 24 27 80 28 25 29 26 30 27 31 74 32 28 33 79 34
REMARK SMILES IDX 73 35 75 36 29 37 78 38 72 39 71 40 30 42 60 43 41 44 59 45
REMARK SMILES IDX 42 46 45 47 58 48 76 49 43 50 44 51 57 53 77 54 46 55 31 56
REMARK SMILES IDX 32 57 40 58 33 59 39 60 34 61 35 62 36 63 37 64 38 65 61 66
REMARK SMILES IDX 62 67 70 68 63 69 69 70 64 71 65 72 66 73 67 74 68 75 47 76
REMARK SMILES IDX 48 77 56 78 49 79 55 80 50 81 51 82 52 83 53 84 54 85
REMARK H PARENT 8 17 8 18 75 41 45 52
REMARK Flexibility Score: inf
ROOT
ATOM      1  O   UNL A   1      33.929  33.914  30.652  1.00  0.00    -0.374 OA
ENDROOT
BRANCH   1   2
ATOM      2  C   UNL A   1      34.915  33.202  31.405  1.00  0.00     0.202 C 
BRANCH   2   3
ATOM      3  C   UNL A   1      36.301  33.851  31.486  1.00  0.00     0.261 C 
BRANCH   3   4
ATOM      4  O   UNL A   1      37.134  33.176  32.449  1.00  0.00    -0.461 OA
BRANCH   4   5
ATOM      5  C   UNL A   1      37.279  33.779  33.663  1.00  0.00     0.347 C 
ATOM      6  O   UNL A   1      36.827  34.882  33.954  1.00  0.00    -0.248 OA
BRANCH   5   7
ATOM      7  C   UNL A   1      38.065  32.918  34.653  1.00  0.00     0.279 C 
ATOM      8  C   UNL A   1      38.027  33.465  36.079  1.00  0.00     0.066 C 
BRANCH   7   9
ATOM      9  O   UNL A   1      37.524  31.591  34.615  1.00  0.00    -0.479 OA
BRANCH   9  10
ATOM     10  C   UNL A   1      38.478  30.680  34.260  1.00  0.00     0.120 A 
ATOM     11  C   UNL A   1      39.725  30.700  34.878  1.00  0.00     0.048 A 
ATOM     12  C   UNL A   1      38.177  29.707  33.314  1.00  0.00     0.048 A 
ATOM     13  C   UNL A   1      40.697  29.772  34.506  1.00  0.00     0.029 A 
ATOM     14  C   UNL A   1      39.149  28.767  32.960  1.00  0.00     0.029 A 
ATOM     15  C   UNL A   1      40.408  28.775  33.570  1.00  0.00     0.032 A 
BRANCH  15  16
ATOM     16  N   UNL A   1      41.399  27.894  33.161  1.00  0.00    -0.399 N 
ATOM     17  H   UNL A   1      42.179  27.728  33.737  1.00  0.00     0.156 HD
ATOM     18  H   UNL A   1      41.320  27.434  32.294  1.00  0.00     0.156 HD
ENDBRANCH  15  16
ENDBRANCH   9  10
ENDBRANCH   7   9
ENDBRANCH   5   7
ENDBRANCH   4   5
ENDBRANCH   3   4
ENDBRANCH   2   3
ENDBRANCH   1   2
BRANCH   1  19
ATOM     19  C   UNL A   1      34.280  34.303  29.327  1.00  0.00     0.202 C 
BRANCH  19  20
ATOM     20  C   UNL A   1      33.853  33.353  28.199  1.00  0.00     0.261 C 
BRANCH  20  21
ATOM     21  O   UNL A   1      34.925  32.513  27.735  1.00  0.00    -0.460 OA
BRANCH  21  22
ATOM     22  C   UNL A   1      34.682  31.184  27.847  1.00  0.00     0.338 C 
ATOM     23  O   UNL A   1      33.616  30.613  27.656  1.00  0.00    -0.246 OA
BRANCH  22  24
ATOM     24  C   UNL A   1      35.933  30.441  28.082  1.00  0.00     0.060 A 
ATOM     25  C   UNL A   1      36.161  29.962  29.379  1.00  0.00     0.016 A 
ATOM     26  C   UNL A   1      36.909  30.297  27.092  1.00  0.00     0.016 A 
ATOM     27  C   UNL A   1      37.386  29.383  29.705  1.00  0.00     0.010 A 
ATOM     28  C   UNL A   1      38.143  29.722  27.426  1.00  0.00     0.010 A 
ATOM     29  C   UNL A   1      38.400  29.297  28.743  1.00  0.00    -0.014 A 
BRANCH  29  30
ATOM     30  C   UNL A   1      39.766  28.894  29.164  1.00  0.00     0.031 A 
ATOM     31  C   UNL A   1      40.583  29.841  30.004  1.00  0.00     0.074 A 
ATOM     32  C   UNL A   1      40.254  27.680  28.852  1.00  0.00     0.049 A 
ATOM     33  N   UNL A   1      41.787  29.685  30.492  1.00  0.00    -0.248 NA
ATOM     34  C   UNL A   1      39.958  31.130  30.343  1.00  0.00     0.031 C 
ATOM     35  C   UNL A   1      39.546  26.654  28.087  1.00  0.00     0.029 A 
ATOM     36  N   UNL A   1      41.465  27.104  29.147  1.00  0.00    -0.354 N 
ATOM     37  C   UNL A   1      42.065  30.854  31.192  1.00  0.00     0.074 A 
ATOM     38  C   UNL A   1      40.916  31.720  31.041  1.00  0.00     0.031 C 
ATOM     39  C   UNL A   1      40.336  25.573  27.975  1.00  0.00     0.029 A 
ATOM     40  C   UNL A   1      41.614  25.838  28.633  1.00  0.00     0.049 A 
ATOM     41  H   UNL A   1      42.161  27.555  29.678  1.00  0.00     0.167 HD
ATOM     42  C   UNL A   1      43.172  31.176  31.903  1.00  0.00     0.031 A 
ATOM     43  C   UNL A   1      42.666  24.996  28.673  1.00  0.00     0.031 A 
ATOM     44  C   UNL A   1      44.322  30.321  32.044  1.00  0.00     0.049 A 
ATOM     45  C   UNL A   1      43.918  25.407  29.404  1.00  0.00     0.074 A 
ATOM     46  C   UNL A   1      45.489  30.558  32.749  1.00  0.00     0.029 A 
ATOM     47  N   UNL A   1      44.453  29.069  31.464  1.00  0.00    -0.354 N 
ATOM     48  N   UNL A   1      44.157  26.510  30.073  1.00  0.00    -0.248 NA
ATOM     49  C   UNL A   1      45.038  24.456  29.390  1.00  0.00     0.031 C 
ATOM     50  C   UNL A   1      46.346  29.470  32.554  1.00  0.00     0.029 A 
ATOM     51  C   UNL A   1      45.691  28.531  31.773  1.00  0.00     0.049 A 
ATOM     52  H   UNL A   1      43.767  28.627  30.913  1.00  0.00     0.167 HD
ATOM     53  C   UNL A   1      45.446  26.373  30.580  1.00  0.00     0.074 A 
ATOM     54  C   UNL A   1      45.930  25.077  30.151  1.00  0.00     0.031 C 
ATOM     55  C   UNL A   1      46.161  27.241  31.338  1.00  0.00     0.031 A 
BRANCH  42  56
ATOM     56  C   UNL A   1      43.206  32.531  32.557  1.00  0.00    -0.014 A 
ATOM     57  C   UNL A   1      42.861  32.693  33.911  1.00  0.00     0.010 A 
ATOM     58  C   UNL A   1      43.624  33.651  31.817  1.00  0.00     0.010 A 
ATOM     59  C   UNL A   1      42.895  33.960  34.502  1.00  0.00     0.020 A 
ATOM     60  C   UNL A   1      43.684  34.916  32.410  1.00  0.00     0.020 A 
ATOM     61  C   UNL A   1      43.302  35.064  33.745  1.00  0.00     0.054 A 
BRANCH  61  62
ATOM     62  S   UNL A   1      43.354  36.694  34.540  1.00  0.00     0.124 S 
ATOM     63  O   UNL A   1      41.934  36.993  34.705  1.00  0.00    -0.237 OA
ATOM     64  O   UNL A   1      44.087  36.427  35.774  1.00  0.00    -0.237 OA
ATOM     65  O   UNL A   1      44.057  37.530  33.569  1.00  0.00    -0.744 OA
ENDBRANCH  61  62
ENDBRANCH  42  56
BRANCH  43  66
ATOM     66  C   UNL A   1      42.589  23.679  27.986  1.00  0.00    -0.014 A 
ATOM     67  C   UNL A   1      42.979  23.544  26.643  1.00  0.00     0.010 A 
ATOM     68  C   UNL A   1      42.121  22.547  28.679  1.00  0.00     0.010 A 
ATOM     69  C   UNL A   1      42.890  22.305  26.001  1.00  0.00     0.020 A 
ATOM     70  C   UNL A   1      42.054  21.301  28.048  1.00  0.00     0.020 A 
ATOM     71  C   UNL A   1      42.430  21.191  26.708  1.00  0.00     0.054 A 
BRANCH  71  72
ATOM     72  S   UNL A   1      42.373  19.581  25.873  1.00  0.00     0.124 S 
ATOM     73  O   UNL A   1      40.982  19.515  25.437  1.00  0.00    -0.237 OA
ATOM     74  O   UNL A   1      43.363  19.742  24.811  1.00  0.00    -0.237 OA
ATOM     75  O   UNL A   1      42.746  18.638  26.924  1.00  0.00    -0.744 OA
ENDBRANCH  71  72
ENDBRANCH  43  66
BRANCH  55  76
ATOM     76  C   UNL A   1      47.534  26.809  31.781  1.00  0.00    -0.014 A 
ATOM     77  C   UNL A   1      47.720  26.064  32.958  1.00  0.00     0.010 A 
ATOM     78  C   UNL A   1      48.649  27.107  30.974  1.00  0.00     0.010 A 
ATOM     79  C   UNL A   1      49.000  25.648  33.336  1.00  0.00     0.020 A 
ATOM     80  C   UNL A   1      49.927  26.672  31.337  1.00  0.00     0.020 A 
ATOM     81  C   UNL A   1      50.096  25.956  32.524  1.00  0.00     0.054 A 
BRANCH  81  82
ATOM     82  S   UNL A   1      51.741  25.368  33.012  1.00  0.00     0.124 S 
ATOM     83  O   UNL A   1      52.048  24.410  31.954  1.00  0.00    -0.237 OA
ATOM     84  O   UNL A   1      52.538  26.593  32.999  1.00  0.00    -0.237 OA
ATOM     85  O   UNL A   1      51.524  24.787  34.335  1.00  0.00    -0.744 OA
ENDBRANCH  81  82
ENDBRANCH  55  76
ENDBRANCH  29  30
ENDBRANCH  22  24
ENDBRANCH  21  22
ENDBRANCH  20  21
ENDBRANCH  19  20
ENDBRANCH   1  19
TORSDOF 20
ENDMDL
MODEL 3
REMARK VINA RESULT:      -7.9      4.726     10.668
REMARK SMILES C[C@@H](Oc1ccc(N)cc1)C(=O)OCCOCCOC(=O)c1ccc(-c2c3nc(c(-c4ccc(S(=O)(=O)[O-])cc4)c4ccc([nH]4)c(-c4ccc(S(=O)(=O)[O-])cc4)c4nc(c(-c5ccc(S(=O)(=O)[O-])cc5)c5ccc2[nH]5)C=C4)C=C3)cc1
REMARK SMILES IDX 16 1 15 2 14 3 13 4 11 5 12 6 2 7 1 8 3 9 4 10 5 11 10 12
REMARK SMILES IDX 6 13 9 14 7 15 8 16 17 19 18 20 19 21 20 22 21 23 22 24
REMARK SMILES IDX 23 25 81 26 24 27 80 28 25 29 26 30 27 31 74 32 28 33 79 34
REMARK SMILES IDX 73 35 75 36 29 37 78 38 72 39 71 40 30 42 60 43 41 44 59 45
REMARK SMILES IDX 42 46 45 47 58 48 76 49 43 50 44 51 57 53 77 54 46 55 31 56
REMARK SMILES IDX 32 57 40 58 33 59 39 60 34 61 35 62 36 63 37 64 38 65 61 66
REMARK SMILES IDX 62 67 70 68 63 69 69 70 64 71 65 72 66 73 67 74 68 75 47 76
REMARK SMILES IDX 48 77 56 78 49 79 55 80 50 81 51 82 52 83 53 84 54 85
REMARK H PARENT 8 17 8 18 75 41 45 52
REMARK Flexibility Score: inf
ROOT
ATOM      1  O   UNL A   1      33.483  28.336  26.969  1.00  0.00    -0.374 OA
ENDROOT
BRANCH   1   2
ATOM      2  C   UNL A   1      33.559  27.250  26.042  1.00  0.00     0.202 C 
BRANCH   2   3
ATOM      3  C   UNL A   1      33.044  27.534  24.626  1.00  0.00     0.261 C 
BRANCH   3   4
ATOM      4  O   UNL A   1      34.051  27.235  23.639  1.00  0.00    -0.461 OA
BRANCH   4   5
ATOM      5  C   UNL A   1      33.714  26.332  22.675  1.00  0.00     0.347 C 
ATOM      6  O   UNL A   1      33.665  26.578  21.474  1.00  0.00    -0.248 OA
BRANCH   5   7
ATOM      7  C   UNL A   1      33.414  24.947  23.251  1.00  0.00     0.279 C 
ATOM      8  C   UNL A   1      31.980  24.491  22.989  1.00  0.00     0.066 C 
BRANCH   7   9
ATOM      9  O   UNL A   1      34.344  24.018  22.679  1.00  0.00    -0.479 OA
BRANCH   9  10
ATOM     10  C   UNL A   1      35.270  23.617  23.601  1.00  0.00     0.120 A 
ATOM     11  C   UNL A   1      36.261  22.708  23.244  1.00  0.00     0.048 A 
ATOM     12  C   UNL A   1      35.240  24.160  24.880  1.00  0.00     0.048 A 
ATOM     13  C   UNL A   1      37.198  22.297  24.191  1.00  0.00     0.029 A 
ATOM     14  C   UNL A   1      36.195  23.759  25.820  1.00  0.00     0.029 A 
ATOM     15  C   UNL A   1      37.196  22.844  25.477  1.00  0.00     0.032 A 
BRANCH  15  16
ATOM     16  N   UNL A   1      38.093  22.386  26.432  1.00  0.00    -0.399 N 
ATOM     17  H   UNL A   1      38.158  22.838  27.303  1.00  0.00     0.156 HD
ATOM     18  H   UNL A   1      38.663  21.608  26.237  1.00  0.00     0.156 HD
ENDBRANCH  15  16
ENDBRANCH   9  10
ENDBRANCH   7   9
ENDBRANCH   5   7
ENDBRANCH   4   5
ENDBRANCH   3   4
ENDBRANCH   2   3
ENDBRANCH   1   2
BRANCH   1  19
ATOM     19  C   UNL A   1      34.672  29.089  27.187  1.00  0.00     0.202 C 
BRANCH  19  20
ATOM     20  C   UNL A   1      34.536  30.352  28.049  1.00  0.00     0.261 C 
BRANCH  20  21
ATOM     21  O   UNL A   1      35.797  30.834  28.545  1.00  0.00    -0.460 OA
BRANCH  21  22
ATOM     22  C   UNL A   1      36.418  29.991  29.407  1.00  0.00     0.338 C 
ATOM     23  O   UNL A   1      35.887  29.270  30.241  1.00  0.00    -0.246 OA
BRANCH  22  24
ATOM     24  C   UNL A   1      37.861  29.911  29.113  1.00  0.00     0.060 A 
ATOM     25  C   UNL A   1      38.231  29.677  27.782  1.00  0.00     0.016 A 
ATOM     26  C   UNL A   1      38.829  29.964  30.119  1.00  0.00     0.016 A 
ATOM     27  C   UNL A   1      39.567  29.444  27.459  1.00  0.00     0.010 A 
ATOM     28  C   UNL A   1      40.169  29.720  29.792  1.00  0.00     0.010 A 
ATOM     29  C   UNL A   1      40.539  29.422  28.467  1.00  0.00    -0.014 A 
BRANCH  29  30
ATOM     30  C   UNL A   1      41.908  28.945  28.144  1.00  0.00     0.031 A 
ATOM     31  C   UNL A   1      43.046  29.932  28.144  1.00  0.00     0.074 A 
ATOM     32  C   UNL A   1      42.147  27.643  27.907  1.00  0.00     0.049 A 
ATOM     33  N   UNL A   1      44.317  29.729  27.907  1.00  0.00    -0.248 NA
ATOM     34  C   UNL A   1      42.708  31.330  28.459  1.00  0.00     0.031 C 
ATOM     35  C   UNL A   1      41.142  26.581  27.925  1.00  0.00     0.029 A 
ATOM     36  N   UNL A   1      43.319  26.992  27.610  1.00  0.00    -0.354 N 
ATOM     37  C   UNL A   1      44.929  30.970  28.041  1.00  0.00     0.074 A 
ATOM     38  C   UNL A   1      43.887  31.924  28.352  1.00  0.00     0.031 C 
ATOM     39  C   UNL A   1      41.742  25.410  27.651  1.00  0.00     0.029 A 
ATOM     40  C   UNL A   1      43.165  25.641  27.411  1.00  0.00     0.049 A 
ATOM     41  H   UNL A   1      44.188  27.451  27.545  1.00  0.00     0.167 HD
ATOM     42  C   UNL A   1      46.241  31.287  27.923  1.00  0.00     0.031 A 
ATOM     43  C   UNL A   1      44.064  24.701  27.059  1.00  0.00     0.031 A 
ATOM     44  C   UNL A   1      47.278  30.343  27.601  1.00  0.00     0.049 A 
ATOM     45  C   UNL A   1      45.505  25.091  26.857  1.00  0.00     0.074 A 
ATOM     46  C   UNL A   1      48.637  30.569  27.467  1.00  0.00     0.029 A 
ATOM     47  N   UNL A   1      47.072  28.994  27.357  1.00  0.00    -0.354 N 
ATOM     48  N   UNL A   1      46.069  26.267  27.003  1.00  0.00    -0.248 NA
ATOM     49  C   UNL A   1      46.432  24.025  26.450  1.00  0.00     0.031 C 
ATOM     50  C   UNL A   1      49.245  29.367  27.090  1.00  0.00     0.029 A 
ATOM     51  C   UNL A   1      48.273  28.379  27.046  1.00  0.00     0.049 A 
ATOM     52  H   UNL A   1      46.199  28.539  27.397  1.00  0.00     0.167 HD
ATOM     53  C   UNL A   1      47.421  26.075  26.730  1.00  0.00     0.074 A 
ATOM     54  C   UNL A   1      47.591  24.670  26.421  1.00  0.00     0.031 C 
ATOM     55  C   UNL A   1      48.429  26.981  26.739  1.00  0.00     0.031 A 
BRANCH  42  56
ATOM     56  C   UNL A   1      46.624  32.731  28.112  1.00  0.00    -0.014 A 
ATOM     57  C   UNL A   1      46.600  33.636  27.036  1.00  0.00     0.010 A 
ATOM     58  C   UNL A   1      46.979  33.195  29.392  1.00  0.00     0.010 A 
ATOM     59  C   UNL A   1      46.962  34.973  27.230  1.00  0.00     0.020 A 
ATOM     60  C   UNL A   1      47.317  34.536  29.595  1.00  0.00     0.020 A 
ATOM     61  C   UNL A   1      47.323  35.413  28.507  1.00  0.00     0.054 A 
BRANCH  61  62
ATOM     62  S   UNL A   1      47.772  37.155  28.735  1.00  0.00     0.124 S 
ATOM     63  O   UNL A   1      47.035  37.500  29.948  1.00  0.00    -0.237 OA
ATOM     64  O   UNL A   1      49.224  37.098  28.878  1.00  0.00    -0.237 OA
ATOM     65  O   UNL A   1      47.294  37.799  27.513  1.00  0.00    -0.744 OA
ENDBRANCH  61  62
ENDBRANCH  42  56
BRANCH  43  66
ATOM     66  C   UNL A   1      43.626  23.293  26.859  1.00  0.00    -0.014 A 
ATOM     67  C   UNL A   1      42.954  22.596  27.877  1.00  0.00     0.010 A 
ATOM     68  C   UNL A   1      43.882  22.640  25.638  1.00  0.00     0.010 A 
ATOM     69  C   UNL A   1      42.558  21.269  27.685  1.00  0.00     0.020 A 
ATOM     70  C   UNL A   1      43.466  21.322  25.433  1.00  0.00     0.020 A 
ATOM     71  C   UNL A   1      42.816  20.641  26.463  1.00  0.00     0.054 A 
BRANCH  71  72
ATOM     72  S   UNL A   1      42.246  18.936  26.215  1.00  0.00     0.124 S 
ATOM     73  O   UNL A   1      42.446  18.354  27.538  1.00  0.00    -0.237 OA
ATOM     74  O   UNL A   1      40.855  19.123  25.810  1.00  0.00    -0.237 OA
ATOM     75  O   UNL A   1      43.129  18.430  25.167  1.00  0.00    -0.744 OA
ENDBRANCH  71  72
ENDBRANCH  43  66
BRANCH  55  76
ATOM     76  C   UNL A   1      49.817  26.480  26.436  1.00  0.00    -0.014 A 
ATOM     77  C   UNL A   1      50.613  25.891  27.434  1.00  0.00     0.010 A 
ATOM     78  C   UNL A   1      50.308  26.550  25.119  1.00  0.00     0.010 A 
ATOM     79  C   UNL A   1      51.887  25.405  27.125  1.00  0.00     0.020 A 
ATOM     80  C   UNL A   1      51.571  26.043  24.802  1.00  0.00     0.020 A 
ATOM     81  C   UNL A   1      52.359  25.487  25.811  1.00  0.00     0.054 A 
BRANCH  81  82
ATOM     82  S   UNL A   1      53.998  24.811  25.425  1.00  0.00     0.124 S 
ATOM     83  O   UNL A   1      54.390  25.608  24.266  1.00  0.00    -0.237 OA
ATOM     84  O   UNL A   1      54.751  25.071  26.650  1.00  0.00    -0.237 OA
ATOM     85  O   UNL A   1      53.735  23.399  25.151  1.00  0.00    -0.744 OA
ENDBRANCH  81  82
ENDBRANCH  55  76
ENDBRANCH  29  30
ENDBRANCH  22  24
ENDBRANCH  21  22
ENDBRANCH  20  21
ENDBRANCH  19  20
ENDBRANCH   1  19
TORSDOF 20
ENDMDL
