MODEL 1
REMARK VINA RESULT:     -10.1      0.000      0.000
REMARK SMILES O=C(Cc1ccccc1Nc1c(Cl)cccc1Cl)OCCOCCOC(=O)c1ccc(-c2c3nc(c(-c4ccc(S(=O)(=O)[O-])cc4)c4ccc([nH]4)c(-c4ccc(S(=O)(=O)[O-])cc4)c4nc(c(-c5ccc(S(=O)(=O)[O-])cc5)c5ccc2[nH]5)C=C4)C=C3)cc1
REMARK SMILES IDX 22 1 21 2 20 3 19 4 2 5 1 6 3 7 4 8 5 9 9 10 6 11 8 12 7 13
REMARK SMILES IDX 10 14 11 16 12 17 17 18 13 19 14 20 16 21 18 22 15 23 23 24
REMARK SMILES IDX 24 25 25 26 26 27 27 28 28 29 29 30 87 31 30 32 86 33 31 34
REMARK SMILES IDX 32 35 33 36 80 37 34 38 85 39 79 40 81 41 35 42 84 43 78 44
REMARK SMILES IDX 77 45 36 47 66 48 47 49 65 50 48 51 51 52 64 53 82 54 49 55
REMARK SMILES IDX 50 56 63 58 83 59 52 60 37 61 38 62 46 63 39 64 45 65 40 66
REMARK SMILES IDX 41 67 42 68 43 69 44 70 67 71 68 72 76 73 69 74 75 75 70 76
REMARK SMILES IDX 71 77 72 78 73 79 74 80 53 81 54 82 62 83 55 84 61 85 56 86
REMARK SMILES IDX 57 87 58 88 59 89 60 90
REMARK H PARENT 10 15 81 46 51 57
REMARK Flexibility Score: inf
ROOT
ATOM      1  O   UNL A   1      37.310  23.898  25.277  1.00  0.00    -0.374 OA
ENDROOT
BRANCH   1   2
ATOM      2  C   UNL A   1      37.208  22.691  24.524  1.00  0.00     0.202 C 
BRANCH   2   3
ATOM      3  C   UNL A   1      35.847  22.359  23.922  1.00  0.00     0.261 C 
BRANCH   3   4
ATOM      4  O   UNL A   1      35.392  23.321  22.961  1.00  0.00    -0.463 OA
BRANCH   4   5
ATOM      5  C   UNL A   1      34.321  24.132  23.116  1.00  0.00     0.310 C 
ATOM      6  O   UNL A   1      34.435  25.140  23.814  1.00  0.00    -0.252 OA
BRANCH   5   7
ATOM      7  C   UNL A   1      33.006  23.845  22.420  1.00  0.00     0.160 C 
BRANCH   7   8
ATOM      8  C   UNL A   1      31.911  24.825  22.745  1.00  0.00    -0.013 A 
ATOM      9  C   UNL A   1      31.905  26.074  22.092  1.00  0.00     0.006 A 
ATOM     10  C   UNL A   1      30.957  24.533  23.739  1.00  0.00     0.042 A 
ATOM     11  C   UNL A   1      31.021  27.069  22.493  1.00  0.00     0.000 A 
ATOM     12  C   UNL A   1      30.057  25.541  24.102  1.00  0.00     0.026 A 
ATOM     13  C   UNL A   1      30.105  26.805  23.506  1.00  0.00     0.002 A 
BRANCH  10  14
ATOM     14  N   UNL A   1      30.923  23.257  24.326  1.00  0.00    -0.353 N 
ATOM     15  H   UNL A   1      30.089  22.762  24.157  1.00  0.00     0.167 HD
BRANCH  14  16
ATOM     16  C   UNL A   1      31.858  22.552  25.114  1.00  0.00     0.076 A 
ATOM     17  C   UNL A   1      32.253  23.114  26.350  1.00  0.00     0.066 A 
ATOM     18  C   UNL A   1      32.406  21.307  24.762  1.00  0.00     0.066 A 
ATOM     19  Cl  UNL A   1      31.657  24.664  26.849  1.00  0.00    -0.082 Cl
ATOM     20  C   UNL A   1      33.136  22.456  27.206  1.00  0.00     0.023 A 
ATOM     21  C   UNL A   1      33.292  20.646  25.624  1.00  0.00     0.023 A 
ATOM     22  Cl  UNL A   1      32.153  20.575  23.211  1.00  0.00    -0.082 Cl
ATOM     23  C   UNL A   1      33.647  21.215  26.846  1.00  0.00     0.003 A 
ENDBRANCH  14  16
ENDBRANCH  10  14
ENDBRANCH   7   8
ENDBRANCH   5   7
ENDBRANCH   4   5
ENDBRANCH   3   4
ENDBRANCH   2   3
ENDBRANCH   1   2
BRANCH   1  24
ATOM     24  C   UNL A   1      37.938  23.777  26.562  1.00  0.00     0.202 C 
BRANCH  24  25
ATOM     25  C   UNL A   1      39.450  23.542  26.551  1.00  0.00     0.261 C 
BRANCH  25  26
ATOM     26  O   UNL A   1      40.117  24.438  27.449  1.00  0.00    -0.460 OA
BRANCH  26  27
ATOM     27  C   UNL A   1      40.319  25.683  26.958  1.00  0.00     0.338 C 
ATOM     28  O   UNL A   1      40.499  25.994  25.790  1.00  0.00    -0.246 OA
BRANCH  27  29
ATOM     29  C   UNL A   1      40.053  26.663  28.029  1.00  0.00     0.060 A 
ATOM     30  C   UNL A   1      40.618  27.940  27.896  1.00  0.00     0.016 A 
ATOM     31  C   UNL A   1      39.249  26.349  29.128  1.00  0.00     0.016 A 
ATOM     32  C   UNL A   1      40.446  28.884  28.901  1.00  0.00     0.010 A 
ATOM     33  C   UNL A   1      39.083  27.293  30.139  1.00  0.00     0.010 A 
ATOM     34  C   UNL A   1      39.726  28.541  30.050  1.00  0.00    -0.014 A 
BRANCH  34  35
ATOM     35  C   UNL A   1      39.829  29.390  31.255  1.00  0.00     0.031 A 
ATOM     36  C   UNL A   1      40.967  29.128  32.201  1.00  0.00     0.074 A 
ATOM     37  C   UNL A   1      38.939  30.367  31.489  1.00  0.00     0.049 A 
ATOM     38  N   UNL A   1      41.232  29.687  33.352  1.00  0.00    -0.248 NA
ATOM     39  C   UNL A   1      41.931  28.088  31.801  1.00  0.00     0.031 C 
ATOM     40  C   UNL A   1      37.827  30.730  30.611  1.00  0.00     0.029 A 
ATOM     41  N   UNL A   1      38.831  31.230  32.549  1.00  0.00    -0.354 N 
ATOM     42  C   UNL A   1      42.378  29.053  33.820  1.00  0.00     0.074 A 
ATOM     43  C   UNL A   1      42.741  28.050  32.847  1.00  0.00     0.031 C 
ATOM     44  C   UNL A   1      37.137  31.735  31.178  1.00  0.00     0.029 A 
ATOM     45  C   UNL A   1      37.737  32.057  32.471  1.00  0.00     0.049 A 
ATOM     46  H   UNL A   1      39.473  31.253  33.294  1.00  0.00     0.167 HD
ATOM     47  C   UNL A   1      43.064  29.291  34.961  1.00  0.00     0.031 A 
ATOM     48  C   UNL A   1      37.263  32.953  33.359  1.00  0.00     0.031 A 
ATOM     49  C   UNL A   1      42.681  30.288  35.924  1.00  0.00     0.049 A 
ATOM     50  C   UNL A   1      38.009  33.158  34.653  1.00  0.00     0.074 A 
ATOM     51  C   UNL A   1      43.315  30.632  37.104  1.00  0.00     0.029 A 
ATOM     52  N   UNL A   1      41.556  31.094  35.821  1.00  0.00    -0.354 N 
ATOM     53  N   UNL A   1      39.107  32.573  35.073  1.00  0.00    -0.248 NA
ATOM     54  C   UNL A   1      37.459  34.149  35.585  1.00  0.00     0.031 C 
ATOM     55  C   UNL A   1      42.536  31.600  37.746  1.00  0.00     0.029 A 
ATOM     56  C   UNL A   1      41.459  31.913  36.931  1.00  0.00     0.049 A 
ATOM     57  H   UNL A   1      40.921  31.084  35.068  1.00  0.00     0.167 HD
ATOM     58  C   UNL A   1      39.395  33.148  36.306  1.00  0.00     0.074 A 
ATOM     59  C   UNL A   1      38.364  34.136  36.555  1.00  0.00     0.031 C 
ATOM     60  C   UNL A   1      40.420  32.887  37.156  1.00  0.00     0.031 A 
BRANCH  47  61
ATOM     61  C   UNL A   1      44.269  28.432  35.246  1.00  0.00    -0.014 A 
ATOM     62  C   UNL A   1      45.558  28.813  34.830  1.00  0.00     0.010 A 
ATOM     63  C   UNL A   1      44.110  27.238  35.973  1.00  0.00     0.010 A 
ATOM     64  C   UNL A   1      46.659  27.998  35.108  1.00  0.00     0.020 A 
ATOM     65  C   UNL A   1      45.213  26.437  36.280  1.00  0.00     0.020 A 
ATOM     66  C   UNL A   1      46.480  26.815  35.832  1.00  0.00     0.054 A 
BRANCH  66  67
ATOM     67  S   UNL A   1      47.933  25.797  36.207  1.00  0.00     0.124 S 
ATOM     68  O   UNL A   1      47.693  25.431  37.601  1.00  0.00    -0.237 OA
ATOM     69  O   UNL A   1      47.816  24.707  35.242  1.00  0.00    -0.237 OA
ATOM     70  O   UNL A   1      49.058  26.703  35.988  1.00  0.00    -0.744 OA
ENDBRANCH  66  67
ENDBRANCH  47  61
BRANCH  48  71
ATOM     71  C   UNL A   1      36.014  33.705  33.060  1.00  0.00    -0.014 A 
ATOM     72  C   UNL A   1      34.767  33.231  33.502  1.00  0.00     0.010 A 
ATOM     73  C   UNL A   1      36.069  34.916  32.345  1.00  0.00     0.010 A 
ATOM     74  C   UNL A   1      33.598  33.946  33.222  1.00  0.00     0.020 A 
ATOM     75  C   UNL A   1      34.907  35.649  32.090  1.00  0.00     0.020 A 
ATOM     76  C   UNL A   1      33.677  35.154  32.523  1.00  0.00     0.054 A 
BRANCH  76  77
ATOM     77  S   UNL A   1      32.152  36.091  32.225  1.00  0.00     0.124 S 
ATOM     78  O   UNL A   1      32.288  37.200  33.165  1.00  0.00    -0.237 OA
ATOM     79  O   UNL A   1      32.271  36.441  30.812  1.00  0.00    -0.237 OA
ATOM     80  O   UNL A   1      31.095  35.132  32.535  1.00  0.00    -0.744 OA
ENDBRANCH  76  77
ENDBRANCH  48  71
BRANCH  60  81
ATOM     81  C   UNL A   1      40.504  33.709  38.416  1.00  0.00    -0.014 A 
ATOM     82  C   UNL A   1      41.052  35.003  38.413  1.00  0.00     0.010 A 
ATOM     83  C   UNL A   1      39.964  33.195  39.611  1.00  0.00     0.010 A 
ATOM     84  C   UNL A   1      41.091  35.755  39.589  1.00  0.00     0.020 A 
ATOM     85  C   UNL A   1      39.969  33.958  40.780  1.00  0.00     0.020 A 
ATOM     86  C   UNL A   1      40.547  35.228  40.765  1.00  0.00     0.054 A 
BRANCH  86  87
ATOM     87  S   UNL A   1      40.571  36.242  42.269  1.00  0.00     0.124 S 
ATOM     88  O   UNL A   1      41.747  37.079  42.051  1.00  0.00    -0.237 OA
ATOM     89  O   UNL A   1      39.285  36.935  42.206  1.00  0.00    -0.237 OA
ATOM     90  O   UNL A   1      40.693  35.263  43.346  1.00  0.00    -0.744 OA
ENDBRANCH  86  87
ENDBRANCH  60  81
ENDBRANCH  34  35
ENDBRANCH  27  29
ENDBRANCH  26  27
ENDBRANCH  25  26
ENDBRANCH  24  25
ENDBRANCH   1  24
TORSDOF 20
ENDMDL
MODEL 2
REMARK VINA RESULT:      -9.9      5.007      6.435
REMARK SMILES O=C(Cc1ccccc1Nc1c(Cl)cccc1Cl)OCCOCCOC(=O)c1ccc(-c2c3nc(c(-c4ccc(S(=O)(=O)[O-])cc4)c4ccc([nH]4)c(-c4ccc(S(=O)(=O)[O-])cc4)c4nc(c(-c5ccc(S(=O)(=O)[O-])cc5)c5ccc2[nH]5)C=C4)C=C3)cc1
REMARK SMILES IDX 22 1 21 2 20 3 19 4 2 5 1 6 3 7 4 8 5 9 9 10 6 11 8 12 7 13
REMARK SMILES IDX 10 14 11 16 12 17 17 18 13 19 14 20 16 21 18 22 15 23 23 24
REMARK SMILES IDX 24 25 25 26 26 27 27 28 28 29 29 30 87 31 30 32 86 33 31 34
REMARK SMILES IDX 32 35 33 36 80 37 34 38 85 39 79 40 81 41 35 42 84 43 78 44
REMARK SMILES IDX 77 45 36 47 66 48 47 49 65 50 48 51 51 52 64 53 82 54 49 55
REMARK SMILES IDX 50 56 63 58 83 59 52 60 37 61 38 62 46 63 39 64 45 65 40 66
REMARK SMILES IDX 41 67 42 68 43 69 44 70 67 71 68 72 76 73 69 74 75 75 70 76
REMARK SMILES IDX 71 77 72 78 73 79 74 80 53 81 54 82 62 83 55 84 61 85 56 86
REMARK SMILES IDX 57 87 58 88 59 89 60 90
REMARK H PARENT 10 15 81 46 51 57
REMARK Flexibility Score: inf
ROOT
ATOM      1  O   UNL A   1      35.102  21.918  26.582  1.00  0.00    -0.374 OA
ENDROOT
BRANCH   1   2
ATOM      2  C   UNL A   1      33.842  21.737  27.227  1.00  0.00     0.202 C 
BRANCH   2   3
ATOM      3  C   UNL A   1      32.619  22.338  26.544  1.00  0.00     0.261 C 
BRANCH   3   4
ATOM      4  O   UNL A   1      32.059  23.457  27.245  1.00  0.00    -0.463 OA
BRANCH   4   5
ATOM      5  C   UNL A   1      31.703  24.632  26.680  1.00  0.00     0.310 C 
ATOM      6  O   UNL A   1      30.509  24.933  26.638  1.00  0.00    -0.252 OA
BRANCH   5   7
ATOM      7  C   UNL A   1      32.740  25.595  26.139  1.00  0.00     0.160 C 
BRANCH   7   8
ATOM      8  C   UNL A   1      32.767  25.689  24.637  1.00  0.00    -0.013 A 
ATOM      9  C   UNL A   1      32.255  24.615  23.881  1.00  0.00     0.006 A 
ATOM     10  C   UNL A   1      33.365  26.792  23.997  1.00  0.00     0.042 A 
ATOM     11  C   UNL A   1      32.424  24.586  22.502  1.00  0.00     0.000 A 
ATOM     12  C   UNL A   1      33.495  26.753  22.604  1.00  0.00     0.026 A 
ATOM     13  C   UNL A   1      33.055  25.650  21.866  1.00  0.00     0.002 A 
BRANCH  10  14
ATOM     14  N   UNL A   1      33.801  27.892  24.756  1.00  0.00    -0.353 N 
ATOM     15  H   UNL A   1      34.778  27.934  24.873  1.00  0.00     0.167 HD
BRANCH  14  16
ATOM     16  C   UNL A   1      33.103  28.946  25.382  1.00  0.00     0.076 A 
ATOM     17  C   UNL A   1      33.686  29.556  26.517  1.00  0.00     0.066 A 
ATOM     18  C   UNL A   1      31.870  29.452  24.935  1.00  0.00     0.066 A 
ATOM     19  Cl  UNL A   1      35.187  28.974  27.162  1.00  0.00    -0.082 Cl
ATOM     20  C   UNL A   1      33.081  30.634  27.162  1.00  0.00     0.023 A 
ATOM     21  C   UNL A   1      31.265  30.536  25.584  1.00  0.00     0.023 A 
ATOM     22  Cl  UNL A   1      30.953  28.702  23.669  1.00  0.00    -0.082 Cl
ATOM     23  C   UNL A   1      31.873  31.131  26.688  1.00  0.00     0.003 A 
ENDBRANCH  14  16
ENDBRANCH  10  14
ENDBRANCH   7   8
ENDBRANCH   5   7
ENDBRANCH   4   5
ENDBRANCH   3   4
ENDBRANCH   2   3
ENDBRANCH   1   2
BRANCH   1  24
ATOM     24  C   UNL A   1      35.056  22.547  25.293  1.00  0.00     0.202 C 
BRANCH  24  25
ATOM     25  C   UNL A   1      36.269  23.399  24.916  1.00  0.00     0.261 C 
BRANCH  25  26
ATOM     26  O   UNL A   1      36.988  23.816  26.083  1.00  0.00    -0.460 OA
BRANCH  26  27
ATOM     27  C   UNL A   1      38.227  23.282  26.203  1.00  0.00     0.338 C 
ATOM     28  O   UNL A   1      38.602  22.193  25.798  1.00  0.00    -0.246 OA
BRANCH  27  29
ATOM     29  C   UNL A   1      39.146  24.326  26.699  1.00  0.00     0.060 A 
ATOM     30  C   UNL A   1      39.223  24.516  28.087  1.00  0.00     0.016 A 
ATOM     31  C   UNL A   1      39.931  25.087  25.830  1.00  0.00     0.016 A 
ATOM     32  C   UNL A   1      40.029  25.521  28.607  1.00  0.00     0.010 A 
ATOM     33  C   UNL A   1      40.733  26.100  26.351  1.00  0.00     0.010 A 
ATOM     34  C   UNL A   1      40.740  26.352  27.734  1.00  0.00    -0.014 A 
BRANCH  34  35
ATOM     35  C   UNL A   1      41.310  27.619  28.237  1.00  0.00     0.031 A 
ATOM     36  C   UNL A   1      42.807  27.750  28.270  1.00  0.00     0.074 A 
ATOM     37  C   UNL A   1      40.514  28.621  28.643  1.00  0.00     0.049 A 
ATOM     38  N   UNL A   1      43.542  28.727  28.729  1.00  0.00    -0.248 NA
ATOM     39  C   UNL A   1      43.579  26.621  27.720  1.00  0.00     0.031 C 
ATOM     40  C   UNL A   1      39.052  28.610  28.609  1.00  0.00     0.029 A 
ATOM     41  N   UNL A   1      40.832  29.844  29.174  1.00  0.00    -0.354 N 
ATOM     42  C   UNL A   1      44.860  28.323  28.542  1.00  0.00     0.074 A 
ATOM     43  C   UNL A   1      44.825  27.002  27.957  1.00  0.00     0.031 C 
ATOM     44  C   UNL A   1      38.598  29.770  29.113  1.00  0.00     0.029 A 
ATOM     45  C   UNL A   1      39.734  30.584  29.538  1.00  0.00     0.049 A 
ATOM     46  H   UNL A   1      41.758  30.160  29.285  1.00  0.00     0.167 HD
ATOM     47  C   UNL A   1      45.996  28.996  28.833  1.00  0.00     0.031 A 
ATOM     48  C   UNL A   1      39.661  31.773  30.168  1.00  0.00     0.031 A 
ATOM     49  C   UNL A   1      46.012  30.306  29.425  1.00  0.00     0.049 A 
ATOM     50  C   UNL A   1      40.941  32.478  30.540  1.00  0.00     0.074 A 
ATOM     51  C   UNL A   1      47.104  31.094  29.741  1.00  0.00     0.029 A 
ATOM     52  N   UNL A   1      44.880  31.017  29.799  1.00  0.00    -0.354 N 
ATOM     53  N   UNL A   1      42.181  32.100  30.334  1.00  0.00    -0.248 NA
ATOM     54  C   UNL A   1      40.810  33.774  31.218  1.00  0.00     0.031 C 
ATOM     55  C   UNL A   1      46.634  32.252  30.368  1.00  0.00     0.029 A 
ATOM     56  C   UNL A   1      45.248  32.221  30.372  1.00  0.00     0.049 A 
ATOM     57  H   UNL A   1      43.953  30.710  29.674  1.00  0.00     0.167 HD
ATOM     58  C   UNL A   1      42.978  33.125  30.830  1.00  0.00     0.074 A 
ATOM     59  C   UNL A   1      42.079  34.145  31.333  1.00  0.00     0.031 C 
ATOM     60  C   UNL A   1      44.332  33.218  30.866  1.00  0.00     0.031 A 
BRANCH  47  61
ATOM     61  C   UNL A   1      47.308  28.310  28.554  1.00  0.00    -0.014 A 
ATOM     62  C   UNL A   1      47.955  27.534  29.532  1.00  0.00     0.010 A 
ATOM     63  C   UNL A   1      47.887  28.421  27.276  1.00  0.00     0.010 A 
ATOM     64  C   UNL A   1      49.173  26.908  29.248  1.00  0.00     0.020 A 
ATOM     65  C   UNL A   1      49.088  27.770  26.978  1.00  0.00     0.020 A 
ATOM     66  C   UNL A   1      49.731  27.030  27.971  1.00  0.00     0.054 A 
BRANCH  66  67
ATOM     67  S   UNL A   1      51.293  26.178  27.620  1.00  0.00     0.124 S 
ATOM     68  O   UNL A   1      51.920  27.081  26.658  1.00  0.00    -0.237 OA
ATOM     69  O   UNL A   1      51.927  26.121  28.935  1.00  0.00    -0.237 OA
ATOM     70  O   UNL A   1      50.871  24.888  27.078  1.00  0.00    -0.744 OA
ENDBRANCH  66  67
ENDBRANCH  47  61
BRANCH  48  71
ATOM     71  C   UNL A   1      38.333  32.357  30.500  1.00  0.00    -0.014 A 
ATOM     72  C   UNL A   1      37.718  32.087  31.734  1.00  0.00     0.010 A 
ATOM     73  C   UNL A   1      37.683  33.206  29.585  1.00  0.00     0.010 A 
ATOM     74  C   UNL A   1      36.473  32.643  32.041  1.00  0.00     0.020 A 
ATOM     75  C   UNL A   1      36.453  33.789  29.901  1.00  0.00     0.020 A 
ATOM     76  C   UNL A   1      35.851  33.496  31.125  1.00  0.00     0.054 A 
BRANCH  76  77
ATOM     77  S   UNL A   1      34.263  34.252  31.573  1.00  0.00     0.124 S 
ATOM     78  O   UNL A   1      33.681  33.240  32.450  1.00  0.00    -0.237 OA
ATOM     79  O   UNL A   1      34.679  35.491  32.225  1.00  0.00    -0.237 OA
ATOM     80  O   UNL A   1      33.593  34.428  30.287  1.00  0.00    -0.744 OA
ENDBRANCH  76  77
ENDBRANCH  48  71
BRANCH  60  81
ATOM     81  C   UNL A   1      44.925  34.483  31.430  1.00  0.00    -0.014 A 
ATOM     82  C   UNL A   1      45.146  35.614  30.624  1.00  0.00     0.010 A 
ATOM     83  C   UNL A   1      45.207  34.558  32.808  1.00  0.00     0.010 A 
ATOM     84  C   UNL A   1      45.670  36.783  31.178  1.00  0.00     0.020 A 
ATOM     85  C   UNL A   1      45.698  35.738  33.372  1.00  0.00     0.020 A 
ATOM     86  C   UNL A   1      45.941  36.838  32.549  1.00  0.00     0.054 A 
BRANCH  86  87
ATOM     87  S   UNL A   1      46.580  38.384  33.251  1.00  0.00     0.124 S 
ATOM     88  O   UNL A   1      45.404  39.247  33.204  1.00  0.00    -0.237 OA
ATOM     89  O   UNL A   1      47.007  37.974  34.588  1.00  0.00    -0.237 OA
ATOM     90  O   UNL A   1      47.663  38.755  32.344  1.00  0.00    -0.744 OA
ENDBRANCH  86  87
ENDBRANCH  60  81
ENDBRANCH  34  35
ENDBRANCH  27  29
ENDBRANCH  26  27
ENDBRANCH  25  26
ENDBRANCH  24  25
ENDBRANCH   1  24
TORSDOF 20
ENDMDL
MODEL 3
REMARK VINA RESULT:      -9.9      1.784      3.090
REMARK SMILES O=C(Cc1ccccc1Nc1c(Cl)cccc1Cl)OCCOCCOC(=O)c1ccc(-c2c3nc(c(-c4ccc(S(=O)(=O)[O-])cc4)c4ccc([nH]4)c(-c4ccc(S(=O)(=O)[O-])cc4)c4nc(c(-c5ccc(S(=O)(=O)[O-])cc5)c5ccc2[nH]5)C=C4)C=C3)cc1
REMARK SMILES IDX 22 1 21 2 20 3 19 4 2 5 1 6 3 7 4 8 5 9 9 10 6 11 8 12 7 13
REMARK SMILES IDX 10 14 11 16 12 17 17 18 13 19 14 20 16 21 18 22 15 23 23 24
REMARK SMILES IDX 24 25 25 26 26 27 27 28 28 29 29 30 87 31 30 32 86 33 31 34
REMARK SMILES IDX 32 35 33 36 80 37 34 38 85 39 79 40 81 41 35 42 84 43 78 44
REMARK SMILES IDX 77 45 36 47 66 48 47 49 65 50 48 51 51 52 64 53 82 54 49 55
REMARK SMILES IDX 50 56 63 58 83 59 52 60 37 61 38 62 46 63 39 64 45 65 40 66
REMARK SMILES IDX 41 67 42 68 43 69 44 70 67 71 68 72 76 73 69 74 75 75 70 76
REMARK SMILES IDX 71 77 72 78 73 79 74 80 53 81 54 82 62 83 55 84 61 85 56 86
REMARK SMILES IDX 57 87 58 88 59 89 60 90
REMARK H PARENT 10 15 81 46 51 57
REMARK Flexibility Score: inf
ROOT
ATOM      1  O   UNL A   1      39.413  21.679  25.467  1.00  0.00    -0.374 OA
ENDROOT
BRANCH   1   2
ATOM      2  C   UNL A   1      38.047  21.417  25.786  1.00  0.00     0.202 C 
BRANCH   2   3
ATOM      3  C   UNL A   1      37.072  21.296  24.620  1.00  0.00     0.261 C 
BRANCH   3   4
ATOM      4  O   UNL A   1      36.328  22.494  24.363  1.00  0.00    -0.463 OA
BRANCH   4   5
ATOM      5  C   UNL A   1      35.688  23.231  25.298  1.00  0.00     0.310 C 
ATOM      6  O   UNL A   1      36.213  24.271  25.697  1.00  0.00    -0.252 OA
BRANCH   5   7
ATOM      7  C   UNL A   1      34.330  22.823  25.831  1.00  0.00     0.160 C 
BRANCH   7   8
ATOM      8  C   UNL A   1      33.460  22.117  24.825  1.00  0.00    -0.013 A 
ATOM      9  C   UNL A   1      33.356  20.713  24.887  1.00  0.00     0.006 A 
ATOM     10  C   UNL A   1      32.827  22.836  23.793  1.00  0.00     0.042 A 
ATOM     11  C   UNL A   1      32.711  20.014  23.874  1.00  0.00     0.000 A 
ATOM     12  C   UNL A   1      32.156  22.111  22.802  1.00  0.00     0.026 A 
ATOM     13  C   UNL A   1      32.121  20.714  22.825  1.00  0.00     0.002 A 
BRANCH  10  14
ATOM     14  N   UNL A   1      32.871  24.241  23.787  1.00  0.00    -0.353 N 
ATOM     15  H   UNL A   1      33.771  24.613  23.935  1.00  0.00     0.167 HD
BRANCH  14  16
ATOM     16  C   UNL A   1      31.871  25.220  23.609  1.00  0.00     0.076 A 
ATOM     17  C   UNL A   1      30.907  25.387  24.631  1.00  0.00     0.066 A 
ATOM     18  C   UNL A   1      31.781  26.063  22.489  1.00  0.00     0.066 A 
ATOM     19  Cl  UNL A   1      30.916  24.367  26.033  1.00  0.00    -0.082 Cl
ATOM     20  C   UNL A   1      29.916  26.365  24.551  1.00  0.00     0.023 A 
ATOM     21  C   UNL A   1      30.785  27.045  22.411  1.00  0.00     0.023 A 
ATOM     22  Cl  UNL A   1      32.779  25.865  21.085  1.00  0.00    -0.082 Cl
ATOM     23  C   UNL A   1      29.862  27.202  23.443  1.00  0.00     0.003 A 
ENDBRANCH  14  16
ENDBRANCH  10  14
ENDBRANCH   7   8
ENDBRANCH   5   7
ENDBRANCH   4   5
ENDBRANCH   3   4
ENDBRANCH   2   3
ENDBRANCH   1   2
BRANCH   1  24
ATOM     24  C   UNL A   1      40.349  21.485  26.539  1.00  0.00     0.202 C 
BRANCH  24  25
ATOM     25  C   UNL A   1      41.772  21.986  26.288  1.00  0.00     0.261 C 
BRANCH  25  26
ATOM     26  O   UNL A   1      42.103  23.065  27.171  1.00  0.00    -0.460 OA
BRANCH  26  27
ATOM     27  C   UNL A   1      42.387  24.235  26.550  1.00  0.00     0.338 C 
ATOM     28  O   UNL A   1      42.776  24.384  25.402  1.00  0.00    -0.246 OA
BRANCH  27  29
ATOM     29  C   UNL A   1      41.927  25.347  27.405  1.00  0.00     0.060 A 
ATOM     30  C   UNL A   1      42.698  26.519  27.416  1.00  0.00     0.016 A 
ATOM     31  C   UNL A   1      40.756  25.256  28.161  1.00  0.00     0.016 A 
ATOM     32  C   UNL A   1      42.343  27.577  28.244  1.00  0.00     0.010 A 
ATOM     33  C   UNL A   1      40.404  26.313  28.997  1.00  0.00     0.010 A 
ATOM     34  C   UNL A   1      41.226  27.451  29.079  1.00  0.00    -0.014 A 
BRANCH  34  35
ATOM     35  C   UNL A   1      41.042  28.400  30.196  1.00  0.00     0.031 A 
ATOM     36  C   UNL A   1      41.941  28.257  31.392  1.00  0.00     0.074 A 
ATOM     37  C   UNL A   1      40.108  29.362  30.138  1.00  0.00     0.049 A 
ATOM     38  N   UNL A   1      41.930  28.917  32.519  1.00  0.00    -0.248 NA
ATOM     39  C   UNL A   1      42.986  27.221  31.311  1.00  0.00     0.031 C 
ATOM     40  C   UNL A   1      39.218  29.613  29.005  1.00  0.00     0.029 A 
ATOM     41  N   UNL A   1      39.750  30.305  31.066  1.00  0.00    -0.354 N 
ATOM     42  C   UNL A   1      42.950  28.365  33.286  1.00  0.00     0.074 A 
ATOM     43  C   UNL A   1      43.539  27.297  32.511  1.00  0.00     0.031 C 
ATOM     44  C   UNL A   1      38.403  30.637  29.311  1.00  0.00     0.029 A 
ATOM     45  C   UNL A   1      38.690  31.085  30.672  1.00  0.00     0.049 A 
ATOM     46  H   UNL A   1      40.207  30.412  31.931  1.00  0.00     0.167 HD
ATOM     47  C   UNL A   1      43.358  28.719  34.526  1.00  0.00     0.031 A 
ATOM     48  C   UNL A   1      38.015  32.035  31.349  1.00  0.00     0.031 A 
ATOM     49  C   UNL A   1      42.752  29.779  35.287  1.00  0.00     0.049 A 
ATOM     50  C   UNL A   1      38.446  32.371  32.753  1.00  0.00     0.074 A 
ATOM     51  C   UNL A   1      43.098  30.242  36.543  1.00  0.00     0.029 A 
ATOM     52  N   UNL A   1      41.667  30.534  34.863  1.00  0.00    -0.354 N 
ATOM     53  N   UNL A   1      39.429  31.862  33.459  1.00  0.00    -0.248 NA
ATOM     54  C   UNL A   1      37.685  33.417  33.448  1.00  0.00     0.031 C 
ATOM     55  C   UNL A   1      42.180  31.232  36.907  1.00  0.00     0.029 A 
ATOM     56  C   UNL A   1      41.311  31.439  35.847  1.00  0.00     0.049 A 
ATOM     57  H   UNL A   1      41.219  30.440  33.992  1.00  0.00     0.167 HD
ATOM     58  C   UNL A   1      39.422  32.546  34.669  1.00  0.00     0.074 A 
ATOM     59  C   UNL A   1      38.347  33.515  34.593  1.00  0.00     0.031 C 
ATOM     60  C   UNL A   1      40.233  32.392  35.747  1.00  0.00     0.031 A 
BRANCH  47  61
ATOM     61  C   UNL A   1      44.480  27.930  35.148  1.00  0.00    -0.014 A 
ATOM     62  C   UNL A   1      45.823  28.318  34.998  1.00  0.00     0.010 A 
ATOM     63  C   UNL A   1      44.178  26.796  35.925  1.00  0.00     0.010 A 
ATOM     64  C   UNL A   1      46.846  27.567  35.586  1.00  0.00     0.020 A 
ATOM     65  C   UNL A   1      45.196  26.061  36.540  1.00  0.00     0.020 A 
ATOM     66  C   UNL A   1      46.525  26.443  36.355  1.00  0.00     0.054 A 
BRANCH  66  67
ATOM     67  S   UNL A   1      47.870  25.510  37.134  1.00  0.00     0.124 S 
ATOM     68  O   UNL A   1      49.023  26.368  36.873  1.00  0.00    -0.237 OA
ATOM     69  O   UNL A   1      47.443  25.439  38.529  1.00  0.00    -0.237 OA
ATOM     70  O   UNL A   1      47.869  24.236  36.419  1.00  0.00    -0.744 OA
ENDBRANCH  66  67
ENDBRANCH  47  61
BRANCH  48  71
ATOM     71  C   UNL A   1      36.854  32.716  30.713  1.00  0.00    -0.014 A 
ATOM     72  C   UNL A   1      35.539  32.331  31.021  1.00  0.00     0.010 A 
ATOM     73  C   UNL A   1      37.062  33.771  29.805  1.00  0.00     0.010 A 
ATOM     74  C   UNL A   1      34.453  32.980  30.424  1.00  0.00     0.020 A 
ATOM     75  C   UNL A   1      35.980  34.442  29.229  1.00  0.00     0.020 A 
ATOM     76  C   UNL A   1      34.681  34.036  29.536  1.00  0.00     0.054 A 
BRANCH  76  77
ATOM     77  S   UNL A   1      33.254  34.899  28.821  1.00  0.00     0.124 S 
ATOM     78  O   UNL A   1      32.750  33.915  27.867  1.00  0.00    -0.237 OA
ATOM     79  O   UNL A   1      32.413  35.136  29.991  1.00  0.00    -0.237 OA
ATOM     80  O   UNL A   1      33.841  36.100  28.231  1.00  0.00    -0.744 OA
ENDBRANCH  76  77
ENDBRANCH  48  71
BRANCH  60  81
ATOM     81  C   UNL A   1      40.018  33.318  36.915  1.00  0.00    -0.014 A 
ATOM     82  C   UNL A   1      39.197  32.955  37.998  1.00  0.00     0.010 A 
ATOM     83  C   UNL A   1      40.701  34.548  36.955  1.00  0.00     0.010 A 
ATOM     84  C   UNL A   1      39.038  33.820  39.082  1.00  0.00     0.020 A 
ATOM     85  C   UNL A   1      40.572  35.400  38.054  1.00  0.00     0.020 A 
ATOM     86  C   UNL A   1      39.728  35.037  39.104  1.00  0.00     0.054 A 
BRANCH  86  87
ATOM     87  S   UNL A   1      39.537  36.123  40.544  1.00  0.00     0.124 S 
ATOM     88  O   UNL A   1      39.158  37.388  39.922  1.00  0.00    -0.237 OA
ATOM     89  O   UNL A   1      38.484  35.457  41.308  1.00  0.00    -0.237 OA
ATOM     90  O   UNL A   1      40.858  36.107  41.169  1.00  0.00    -0.744 OA
ENDBRANCH  86  87
ENDBRANCH  60  81
ENDBRANCH  34  35
ENDBRANCH  27  29
ENDBRANCH  26  27
ENDBRANCH  25  26
ENDBRANCH  24  25
ENDBRANCH   1  24
TORSDOF 20
ENDMDL
