MODEL 1
REMARK VINA RESULT:     -11.3      0.000      0.000
REMARK SMILES Cc1ccc([C@H]2CC(c3cccs3)=NN2C(=O)CCC(=O)OCCOCCOC(=O)c2ccc(-c3c4nc(c(-c5ccc(S(=O)(=O)[O-])cc5)c5ccc([nH]5)c(-c5ccc(S(=O)(=O)[O-])cc5)c5nc(c(-c6ccc(S(=O)(=O)[O-])cc6)c6ccc3[nH]6)C=C5)C=C4)cc2)o1
REMARK SMILES IDX 24 1 23 2 22 3 20 4 21 5 19 6 18 7 16 8 17 9 15 10 6 11 7 12
REMARK SMILES IDX 8 13 14 14 5 15 1 16 2 17 3 18 91 19 4 20 9 21 10 22 13 23
REMARK SMILES IDX 11 24 12 25 25 26 26 27 27 28 28 29 29 30 30 31 31 32 32 33
REMARK SMILES IDX 90 34 33 35 89 36 34 37 35 38 36 39 83 40 37 41 88 42 82 43
REMARK SMILES IDX 84 44 38 45 87 46 81 47 80 48 39 50 69 51 50 52 68 53 51 54
REMARK SMILES IDX 54 55 67 56 85 57 52 58 53 59 66 61 86 62 55 63 40 64 41 65
REMARK SMILES IDX 49 66 42 67 48 68 43 69 44 70 45 71 46 72 47 73 70 74 71 75
REMARK SMILES IDX 79 76 72 77 78 78 73 79 74 80 75 81 76 82 77 83 56 84 57 85
REMARK SMILES IDX 65 86 58 87 64 88 59 89 60 90 61 91 62 92 63 93
REMARK H PARENT 84 49 54 60
REMARK Flexibility Score: inf
ROOT
ATOM      1  C   UNL A   1      34.491  23.436  25.608  1.00  0.00     0.202 C 
ENDROOT
BRANCH   1   2
ATOM      2  C   UNL A   1      32.802  23.685  25.885  1.00  0.00     0.261 C 
BRANCH   2   3
ATOM      3  O   UNL A   1      31.784  23.827  24.715  1.00  0.00    -0.463 OA
BRANCH   3   4
ATOM      4  C   UNL A   1      31.463  24.757  23.710  1.00  0.00     0.306 C 
ATOM      5  O   UNL A   1      30.308  25.138  23.542  1.00  0.00    -0.252 OA
BRANCH   4   6
ATOM      6  C   UNL A   1      32.741  25.646  23.011  1.00  0.00     0.132 C 
BRANCH   6   7
ATOM      7  C   UNL A   1      33.846  26.588  23.613  1.00  0.00     0.114 C 
BRANCH   7   8
ATOM      8  C   UNL A   1      33.652  27.951  23.084  1.00  0.00     0.243 C 
ATOM      9  O   UNL A   1      34.452  28.567  22.409  1.00  0.00    -0.273 OA
BRANCH   8  10
ATOM     10  N   UNL A   1      32.499  28.413  23.632  1.00  0.00    -0.222 N 
ATOM     11  C   UNL A   1      32.214  28.507  25.100  1.00  0.00     0.183 C 
ATOM     12  C   UNL A   1      30.683  28.644  24.858  1.00  0.00     0.095 C 
ATOM     13  C   UNL A   1      30.548  29.320  23.504  1.00  0.00     0.081 C 
ATOM     14  N   UNL A   1      31.554  28.995  22.755  1.00  0.00    -0.173 NA
BRANCH  11  15
ATOM     15  C   UNL A   1      33.239  29.523  26.170  1.00  0.00     0.129 A 
ATOM     16  C   UNL A   1      36.244  29.349  28.260  1.00  0.00     0.087 C 
ATOM     17  C   UNL A   1      35.042  29.787  27.536  1.00  0.00     0.101 A 
ATOM     18  C   UNL A   1      34.241  30.835  27.840  1.00  0.00     0.045 A 
ATOM     19  O   UNL A   1      34.559  29.081  26.450  1.00  0.00    -0.464 OA
ATOM     20  C   UNL A   1      33.195  30.729  26.928  1.00  0.00     0.048 A 
ENDBRANCH  11  15
BRANCH  13  21
ATOM     21  C   UNL A   1      29.475  30.246  23.150  1.00  0.00     0.050 A 
ATOM     22  C   UNL A   1      28.746  31.184  23.875  1.00  0.00     0.022 A 
ATOM     23  S   UNL A   1      28.780  30.096  21.629  1.00  0.00    -0.142 S 
ATOM     24  C   UNL A   1      27.657  31.769  23.124  1.00  0.00     0.012 A 
ATOM     25  C   UNL A   1      27.665  31.349  21.819  1.00  0.00     0.065 A 
ENDBRANCH  13  21
ENDBRANCH   8  10
ENDBRANCH   7   8
ENDBRANCH   6   7
ENDBRANCH   4   6
ENDBRANCH   3   4
ENDBRANCH   2   3
ENDBRANCH   1   2
BRANCH   1  26
ATOM     26  O   UNL A   1      35.246  22.946  24.473  1.00  0.00    -0.374 OA
BRANCH  26  27
ATOM     27  C   UNL A   1      36.531  22.347  24.211  1.00  0.00     0.202 C 
BRANCH  27  28
ATOM     28  C   UNL A   1      37.613  21.557  24.998  1.00  0.00     0.261 C 
BRANCH  28  29
ATOM     29  O   UNL A   1      38.189  22.164  26.144  1.00  0.00    -0.460 OA
BRANCH  29  30
ATOM     30  C   UNL A   1      39.506  21.891  26.297  1.00  0.00     0.338 C 
ATOM     31  O   UNL A   1      40.088  20.938  25.834  1.00  0.00    -0.246 OA
BRANCH  30  32
ATOM     32  C   UNL A   1      40.191  23.030  26.955  1.00  0.00     0.060 A 
ATOM     33  C   UNL A   1      39.662  24.280  26.641  1.00  0.00     0.016 A 
ATOM     34  C   UNL A   1      41.256  22.925  27.868  1.00  0.00     0.016 A 
ATOM     35  C   UNL A   1      40.162  25.417  27.267  1.00  0.00     0.010 A 
ATOM     36  C   UNL A   1      41.764  24.080  28.502  1.00  0.00     0.010 A 
ATOM     37  C   UNL A   1      41.197  25.333  28.229  1.00  0.00    -0.014 A 
BRANCH  37  38
ATOM     38  C   UNL A   1      41.724  26.641  28.712  1.00  0.00     0.031 A 
ATOM     39  C   UNL A   1      43.109  26.948  28.247  1.00  0.00     0.074 A 
ATOM     40  C   UNL A   1      40.988  27.588  29.337  1.00  0.00     0.049 A 
ATOM     41  N   UNL A   1      43.747  28.081  28.236  1.00  0.00    -0.248 NA
ATOM     42  C   UNL A   1      43.881  25.799  27.733  1.00  0.00     0.031 C 
ATOM     43  C   UNL A   1      39.680  27.394  29.945  1.00  0.00     0.029 A 
ATOM     44  N   UNL A   1      41.203  28.945  29.485  1.00  0.00    -0.354 N 
ATOM     45  C   UNL A   1      45.016  27.771  27.777  1.00  0.00     0.074 A 
ATOM     46  C   UNL A   1      45.037  26.365  27.447  1.00  0.00     0.031 C 
ATOM     47  C   UNL A   1      39.122  28.590  30.207  1.00  0.00     0.029 A 
ATOM     48  C   UNL A   1      40.079  29.648  29.899  1.00  0.00     0.049 A 
ATOM     49  H   UNL A   1      42.072  29.375  29.312  1.00  0.00     0.167 HD
ATOM     50  C   UNL A   1      46.097  28.573  27.720  1.00  0.00     0.031 A 
ATOM     51  C   UNL A   1      39.867  30.982  30.019  1.00  0.00     0.031 A 
ATOM     52  C   UNL A   1      46.090  29.937  28.156  1.00  0.00     0.049 A 
ATOM     53  C   UNL A   1      41.079  31.878  29.876  1.00  0.00     0.074 A 
ATOM     54  C   UNL A   1      47.151  30.814  28.248  1.00  0.00     0.029 A 
ATOM     55  N   UNL A   1      44.963  30.611  28.605  1.00  0.00    -0.354 N 
ATOM     56  N   UNL A   1      42.286  31.571  29.457  1.00  0.00    -0.248 NA
ATOM     57  C   UNL A   1      40.933  33.277  30.309  1.00  0.00     0.031 C 
ATOM     58  C   UNL A   1      46.676  32.004  28.802  1.00  0.00     0.029 A 
ATOM     59  C   UNL A   1      45.305  31.895  28.980  1.00  0.00     0.049 A 
ATOM     60  H   UNL A   1      44.055  30.230  28.648  1.00  0.00     0.167 HD
ATOM     61  C   UNL A   1      43.050  32.720  29.628  1.00  0.00     0.074 A 
ATOM     62  C   UNL A   1      42.154  33.751  30.108  1.00  0.00     0.031 C 
ATOM     63  C   UNL A   1      44.382  32.895  29.451  1.00  0.00     0.031 A 
BRANCH  50  64
ATOM     64  C   UNL A   1      47.382  27.912  27.331  1.00  0.00    -0.014 A 
ATOM     65  C   UNL A   1      48.272  27.408  28.296  1.00  0.00     0.010 A 
ATOM     66  C   UNL A   1      47.741  27.886  25.971  1.00  0.00     0.010 A 
ATOM     67  C   UNL A   1      49.519  26.920  27.906  1.00  0.00     0.020 A 
ATOM     68  C   UNL A   1      48.973  27.369  25.577  1.00  0.00     0.020 A 
ATOM     69  C   UNL A   1      49.860  26.901  26.549  1.00  0.00     0.054 A 
BRANCH  69  70
ATOM     70  S   UNL A   1      51.474  26.235  26.070  1.00  0.00     0.124 S 
ATOM     71  O   UNL A   1      51.361  24.840  26.487  1.00  0.00    -0.237 OA
ATOM     72  O   UNL A   1      51.493  26.460  24.627  1.00  0.00    -0.237 OA
ATOM     73  O   UNL A   1      52.422  27.040  26.836  1.00  0.00    -0.744 OA
ENDBRANCH  69  70
ENDBRANCH  50  64
BRANCH  51  74
ATOM     74  C   UNL A   1      38.535  31.585  30.382  1.00  0.00    -0.014 A 
ATOM     75  C   UNL A   1      37.793  32.334  29.439  1.00  0.00     0.010 A 
ATOM     76  C   UNL A   1      38.022  31.501  31.689  1.00  0.00     0.010 A 
ATOM     77  C   UNL A   1      36.603  32.989  29.798  1.00  0.00     0.020 A 
ATOM     78  C   UNL A   1      36.810  32.113  32.042  1.00  0.00     0.020 A 
ATOM     79  C   UNL A   1      36.115  32.871  31.099  1.00  0.00     0.054 A 
BRANCH  79  80
ATOM     80  S   UNL A   1      34.557  33.692  31.549  1.00  0.00     0.124 S 
ATOM     81  O   UNL A   1      33.887  33.807  30.258  1.00  0.00    -0.237 OA
ATOM     82  O   UNL A   1      33.959  32.748  32.490  1.00  0.00    -0.237 OA
ATOM     83  O   UNL A   1      34.995  34.954  32.140  1.00  0.00    -0.744 OA
ENDBRANCH  79  80
ENDBRANCH  51  74
BRANCH  63  84
ATOM     84  C   UNL A   1      44.947  34.255  29.750  1.00  0.00    -0.014 A 
ATOM     85  C   UNL A   1      45.550  34.542  30.987  1.00  0.00     0.010 A 
ATOM     86  C   UNL A   1      44.947  35.230  28.737  1.00  0.00     0.010 A 
ATOM     87  C   UNL A   1      46.122  35.796  31.213  1.00  0.00     0.020 A 
ATOM     88  C   UNL A   1      45.544  36.473  28.949  1.00  0.00     0.020 A 
ATOM     89  C   UNL A   1      46.117  36.751  30.191  1.00  0.00     0.054 A 
BRANCH  89  90
ATOM     90  S   UNL A   1      46.911  38.354  30.488  1.00  0.00     0.124 S 
ATOM     91  O   UNL A   1      47.040  38.884  29.133  1.00  0.00    -0.237 OA
ATOM     92  O   UNL A   1      45.942  39.037  31.342  1.00  0.00    -0.237 OA
ATOM     93  O   UNL A   1      48.169  38.002  31.143  1.00  0.00    -0.744 OA
ENDBRANCH  89  90
ENDBRANCH  63  84
ENDBRANCH  37  38
ENDBRANCH  30  32
ENDBRANCH  29  30
ENDBRANCH  28  29
ENDBRANCH  27  28
ENDBRANCH  26  27
ENDBRANCH   1  26
TORSDOF 22
ENDMDL
MODEL 2
REMARK VINA RESULT:     -11.0      5.021      7.437
REMARK SMILES Cc1ccc([C@H]2CC(c3cccs3)=NN2C(=O)CCC(=O)OCCOCCOC(=O)c2ccc(-c3c4nc(c(-c5ccc(S(=O)(=O)[O-])cc5)c5ccc([nH]5)c(-c5ccc(S(=O)(=O)[O-])cc5)c5nc(c(-c6ccc(S(=O)(=O)[O-])cc6)c6ccc3[nH]6)C=C5)C=C4)cc2)o1
REMARK SMILES IDX 24 1 23 2 22 3 20 4 21 5 19 6 18 7 16 8 17 9 15 10 6 11 7 12
REMARK SMILES IDX 8 13 14 14 5 15 1 16 2 17 3 18 91 19 4 20 9 21 10 22 13 23
REMARK SMILES IDX 11 24 12 25 25 26 26 27 27 28 28 29 29 30 30 31 31 32 32 33
REMARK SMILES IDX 90 34 33 35 89 36 34 37 35 38 36 39 83 40 37 41 88 42 82 43
REMARK SMILES IDX 84 44 38 45 87 46 81 47 80 48 39 50 69 51 50 52 68 53 51 54
REMARK SMILES IDX 54 55 67 56 85 57 52 58 53 59 66 61 86 62 55 63 40 64 41 65
REMARK SMILES IDX 49 66 42 67 48 68 43 69 44 70 45 71 46 72 47 73 70 74 71 75
REMARK SMILES IDX 79 76 72 77 78 78 73 79 74 80 75 81 76 82 77 83 56 84 57 85
REMARK SMILES IDX 65 86 58 87 64 88 59 89 60 90 61 91 62 92 63 93
REMARK H PARENT 84 49 54 60
REMARK Flexibility Score: inf
ROOT
ATOM      1  C   UNL A   1      41.868  21.584  26.281  1.00  0.00     0.202 C 
ENDROOT
BRANCH   1   2
ATOM      2  C   UNL A   1      40.282  20.896  26.327  1.00  0.00     0.261 C 
BRANCH   2   3
ATOM      3  O   UNL A   1      39.024  21.687  25.861  1.00  0.00    -0.463 OA
BRANCH   3   4
ATOM      4  C   UNL A   1      37.797  21.427  25.225  1.00  0.00     0.306 C 
ATOM      5  O   UNL A   1      37.574  20.345  24.691  1.00  0.00    -0.252 OA
BRANCH   4   6
ATOM      6  C   UNL A   1      36.491  22.473  25.560  1.00  0.00     0.132 C 
BRANCH   6   7
ATOM      7  C   UNL A   1      35.905  23.728  24.817  1.00  0.00     0.114 C 
BRANCH   7   8
ATOM      8  C   UNL A   1      34.586  24.052  25.393  1.00  0.00     0.243 C 
ATOM      9  O   UNL A   1      34.253  23.863  26.545  1.00  0.00    -0.273 OA
BRANCH   8  10
ATOM     10  N   UNL A   1      33.801  24.440  24.356  1.00  0.00    -0.222 N 
ATOM     11  C   UNL A   1      33.589  23.663  23.091  1.00  0.00     0.183 C 
ATOM     12  C   UNL A   1      33.030  24.910  22.346  1.00  0.00     0.095 C 
ATOM     13  C   UNL A   1      32.383  25.766  23.421  1.00  0.00     0.081 C 
ATOM     14  N   UNL A   1      33.001  25.590  24.546  1.00  0.00    -0.173 NA
BRANCH  11  15
ATOM     15  C   UNL A   1      32.876  22.015  23.136  1.00  0.00     0.129 A 
ATOM     16  C   UNL A   1      33.228  18.791  24.841  1.00  0.00     0.087 C 
ATOM     17  C   UNL A   1      32.798  19.902  23.981  1.00  0.00     0.101 A 
ATOM     18  C   UNL A   1      32.129  19.814  22.806  1.00  0.00     0.045 A 
ATOM     19  O   UNL A   1      33.117  21.212  24.282  1.00  0.00    -0.464 OA
ATOM     20  C   UNL A   1      32.086  21.128  22.350  1.00  0.00     0.048 A 
ENDBRANCH  11  15
BRANCH  13  21
ATOM     21  C   UNL A   1      31.201  26.598  23.208  1.00  0.00     0.050 A 
ATOM     22  C   UNL A   1      30.964  27.746  22.457  1.00  0.00     0.022 A 
ATOM     23  S   UNL A   1      29.853  26.304  24.166  1.00  0.00    -0.142 S 
ATOM     24  C   UNL A   1      29.654  28.317  22.681  1.00  0.00     0.012 A 
ATOM     25  C   UNL A   1      28.894  27.523  23.499  1.00  0.00     0.065 A 
ENDBRANCH  13  21
ENDBRANCH   8  10
ENDBRANCH   7   8
ENDBRANCH   6   7
ENDBRANCH   4   6
ENDBRANCH   3   4
ENDBRANCH   2   3
ENDBRANCH   1   2
BRANCH   1  26
ATOM     26  O   UNL A   1      42.885  21.659  25.252  1.00  0.00    -0.374 OA
BRANCH  26  27
ATOM     27  C   UNL A   1      43.924  22.564  24.826  1.00  0.00     0.202 C 
BRANCH  27  28
ATOM     28  C   UNL A   1      44.345  24.036  25.091  1.00  0.00     0.261 C 
BRANCH  28  29
ATOM     29  O   UNL A   1      43.716  24.736  26.153  1.00  0.00    -0.460 OA
BRANCH  29  30
ATOM     30  C   UNL A   1      42.900  25.733  25.736  1.00  0.00     0.338 C 
ATOM     31  O   UNL A   1      42.411  25.830  24.635  1.00  0.00    -0.246 OA
BRANCH  30  32
ATOM     32  C   UNL A   1      42.525  26.597  26.881  1.00  0.00     0.060 A 
ATOM     33  C   UNL A   1      41.776  25.957  27.866  1.00  0.00     0.016 A 
ATOM     34  C   UNL A   1      42.901  27.943  27.044  1.00  0.00     0.016 A 
ATOM     35  C   UNL A   1      41.442  26.641  29.031  1.00  0.00     0.010 A 
ATOM     36  C   UNL A   1      42.560  28.636  28.226  1.00  0.00     0.010 A 
ATOM     37  C   UNL A   1      41.855  27.978  29.244  1.00  0.00    -0.014 A 
BRANCH  37  38
ATOM     38  C   UNL A   1      41.308  28.624  30.470  1.00  0.00     0.031 A 
ATOM     39  C   UNL A   1      42.276  28.690  31.606  1.00  0.00     0.074 A 
ATOM     40  C   UNL A   1      40.132  29.287  30.538  1.00  0.00     0.049 A 
ATOM     41  N   UNL A   1      42.238  29.414  32.686  1.00  0.00    -0.248 NA
ATOM     42  C   UNL A   1      43.446  27.796  31.501  1.00  0.00     0.031 C 
ATOM     43  C   UNL A   1      39.051  29.216  29.565  1.00  0.00     0.029 A 
ATOM     44  N   UNL A   1      39.683  30.238  31.434  1.00  0.00    -0.354 N 
ATOM     45  C   UNL A   1      43.343  29.016  33.420  1.00  0.00     0.074 A 
ATOM     46  C   UNL A   1      44.072  28.048  32.634  1.00  0.00     0.031 C 
ATOM     47  C   UNL A   1      38.174  30.212  29.791  1.00  0.00     0.029 A 
ATOM     48  C   UNL A   1      38.559  30.930  31.000  1.00  0.00     0.049 A 
ATOM     49  H   UNL A   1      40.118  30.409  32.301  1.00  0.00     0.167 HD
ATOM     50  C   UNL A   1      43.670  29.363  34.680  1.00  0.00     0.031 A 
ATOM     51  C   UNL A   1      37.926  32.005  31.531  1.00  0.00     0.031 A 
ATOM     52  C   UNL A   1      42.876  30.239  35.488  1.00  0.00     0.049 A 
ATOM     53  C   UNL A   1      38.359  32.433  32.917  1.00  0.00     0.074 A 
ATOM     54  C   UNL A   1      43.051  30.576  36.814  1.00  0.00     0.029 A 
ATOM     55  N   UNL A   1      41.734  30.891  35.047  1.00  0.00    -0.354 N 
ATOM     56  N   UNL A   1      39.398  32.036  33.615  1.00  0.00    -0.248 NA
ATOM     57  C   UNL A   1      37.485  33.380  33.629  1.00  0.00     0.031 C 
ATOM     58  C   UNL A   1      41.984  31.393  37.192  1.00  0.00     0.029 A 
ATOM     59  C   UNL A   1      41.189  31.628  36.080  1.00  0.00     0.049 A 
ATOM     60  H   UNL A   1      41.367  30.837  34.134  1.00  0.00     0.167 HD
ATOM     61  C   UNL A   1      39.273  32.641  34.860  1.00  0.00     0.074 A 
ATOM     62  C   UNL A   1      38.105  33.495  34.795  1.00  0.00     0.031 C 
ATOM     63  C   UNL A   1      40.025  32.470  35.974  1.00  0.00     0.031 A 
BRANCH  50  64
ATOM     64  C   UNL A   1      44.841  28.643  35.273  1.00  0.00    -0.014 A 
ATOM     65  C   UNL A   1      46.153  29.126  35.127  1.00  0.00     0.010 A 
ATOM     66  C   UNL A   1      44.620  27.407  35.906  1.00  0.00     0.010 A 
ATOM     67  C   UNL A   1      47.231  28.363  35.576  1.00  0.00     0.020 A 
ATOM     68  C   UNL A   1      45.694  26.658  36.384  1.00  0.00     0.020 A 
ATOM     69  C   UNL A   1      46.993  27.135  36.203  1.00  0.00     0.054 A 
BRANCH  69  70
ATOM     70  S   UNL A   1      48.410  26.179  36.801  1.00  0.00     0.124 S 
ATOM     71  O   UNL A   1      47.976  24.807  36.552  1.00  0.00    -0.237 OA
ATOM     72  O   UNL A   1      49.496  26.659  35.951  1.00  0.00    -0.237 OA
ATOM     73  O   UNL A   1      48.512  26.555  38.209  1.00  0.00    -0.744 OA
ENDBRANCH  69  70
ENDBRANCH  50  64
BRANCH  51  74
ATOM     74  C   UNL A   1      36.772  32.707  30.862  1.00  0.00    -0.014 A 
ATOM     75  C   UNL A   1      36.991  33.796  29.985  1.00  0.00     0.010 A 
ATOM     76  C   UNL A   1      35.438  32.366  31.150  1.00  0.00     0.010 A 
ATOM     77  C   UNL A   1      35.920  34.524  29.441  1.00  0.00     0.020 A 
ATOM     78  C   UNL A   1      34.363  33.058  30.573  1.00  0.00     0.020 A 
ATOM     79  C   UNL A   1      34.609  34.147  29.735  1.00  0.00     0.054 A 
BRANCH  79  80
ATOM     80  S   UNL A   1      33.226  35.071  29.001  1.00  0.00     0.124 S 
ATOM     81  O   UNL A   1      32.451  35.450  30.177  1.00  0.00    -0.237 OA
ATOM     82  O   UNL A   1      33.904  36.165  28.311  1.00  0.00    -0.237 OA
ATOM     83  O   UNL A   1      32.591  34.091  28.122  1.00  0.00    -0.744 OA
ENDBRANCH  79  80
ENDBRANCH  51  74
BRANCH  63  84
ATOM     84  C   UNL A   1      39.629  33.240  37.202  1.00  0.00    -0.014 A 
ATOM     85  C   UNL A   1      38.641  32.761  38.080  1.00  0.00     0.010 A 
ATOM     86  C   UNL A   1      40.325  34.419  37.521  1.00  0.00     0.010 A 
ATOM     87  C   UNL A   1      38.338  33.467  39.247  1.00  0.00     0.020 A 
ATOM     88  C   UNL A   1      40.046  35.111  38.700  1.00  0.00     0.020 A 
ATOM     89  C   UNL A   1      39.045  34.636  39.549  1.00  0.00     0.054 A 
BRANCH  89  90
ATOM     90  S   UNL A   1      38.672  35.508  41.093  1.00  0.00     0.124 S 
ATOM     91  O   UNL A   1      39.835  35.185  41.914  1.00  0.00    -0.237 OA
ATOM     92  O   UNL A   1      38.575  36.900  40.658  1.00  0.00    -0.237 OA
ATOM     93  O   UNL A   1      37.412  34.911  41.534  1.00  0.00    -0.744 OA
ENDBRANCH  89  90
ENDBRANCH  63  84
ENDBRANCH  37  38
ENDBRANCH  30  32
ENDBRANCH  29  30
ENDBRANCH  28  29
ENDBRANCH  27  28
ENDBRANCH  26  27
ENDBRANCH   1  26
TORSDOF 22
ENDMDL
MODEL 3
REMARK VINA RESULT:     -10.9      5.781     11.093
REMARK SMILES Cc1ccc([C@H]2CC(c3cccs3)=NN2C(=O)CCC(=O)OCCOCCOC(=O)c2ccc(-c3c4nc(c(-c5ccc(S(=O)(=O)[O-])cc5)c5ccc([nH]5)c(-c5ccc(S(=O)(=O)[O-])cc5)c5nc(c(-c6ccc(S(=O)(=O)[O-])cc6)c6ccc3[nH]6)C=C5)C=C4)cc2)o1
REMARK SMILES IDX 24 1 23 2 22 3 20 4 21 5 19 6 18 7 16 8 17 9 15 10 6 11 7 12
REMARK SMILES IDX 8 13 14 14 5 15 1 16 2 17 3 18 91 19 4 20 9 21 10 22 13 23
REMARK SMILES IDX 11 24 12 25 25 26 26 27 27 28 28 29 29 30 30 31 31 32 32 33
REMARK SMILES IDX 90 34 33 35 89 36 34 37 35 38 36 39 83 40 37 41 88 42 82 43
REMARK SMILES IDX 84 44 38 45 87 46 81 47 80 48 39 50 69 51 50 52 68 53 51 54
REMARK SMILES IDX 54 55 67 56 85 57 52 58 53 59 66 61 86 62 55 63 40 64 41 65
REMARK SMILES IDX 49 66 42 67 48 68 43 69 44 70 45 71 46 72 47 73 70 74 71 75
REMARK SMILES IDX 79 76 72 77 78 78 73 79 74 80 75 81 76 82 77 83 56 84 57 85
REMARK SMILES IDX 65 86 58 87 64 88 59 89 60 90 61 91 62 92 63 93
REMARK H PARENT 84 49 54 60
REMARK Flexibility Score: inf
ROOT
ATOM      1  C   UNL A   1      35.481  33.667  28.040  1.00  0.00     0.202 C 
ENDROOT
BRANCH   1   2
ATOM      2  C   UNL A   1      35.867  32.013  28.362  1.00  0.00     0.261 C 
BRANCH   2   3
ATOM      3  O   UNL A   1      35.062  30.838  27.732  1.00  0.00    -0.463 OA
BRANCH   3   4
ATOM      4  C   UNL A   1      33.784  30.612  27.191  1.00  0.00     0.306 C 
ATOM      5  O   UNL A   1      32.916  31.479  27.227  1.00  0.00    -0.252 OA
BRANCH   4   6
ATOM      6  C   UNL A   1      33.592  29.287  26.134  1.00  0.00     0.132 C 
BRANCH   6   7
ATOM      7  C   UNL A   1      33.474  27.737  26.368  1.00  0.00     0.114 C 
BRANCH   7   8
ATOM      8  C   UNL A   1      32.142  27.437  26.926  1.00  0.00     0.243 C 
ATOM      9  O   UNL A   1      31.698  27.877  27.967  1.00  0.00    -0.273 OA
BRANCH   8  10
ATOM     10  N   UNL A   1      31.607  26.470  26.139  1.00  0.00    -0.222 N 
ATOM     11  C   UNL A   1      30.389  26.628  25.278  1.00  0.00     0.183 C 
ATOM     12  C   UNL A   1      30.214  25.088  25.137  1.00  0.00     0.095 C 
ATOM     13  C   UNL A   1      31.614  24.511  25.242  1.00  0.00     0.081 C 
ATOM     14  N   UNL A   1      32.340  25.269  26.001  1.00  0.00    -0.173 NA
BRANCH  11  15
ATOM     15  C   UNL A   1      30.349  27.850  23.962  1.00  0.00     0.129 A 
ATOM     16  C   UNL A   1      29.071  31.201  23.208  1.00  0.00     0.087 C 
ATOM     17  C   UNL A   1      29.726  29.886  23.154  1.00  0.00     0.101 A 
ATOM     18  C   UNL A   1      30.030  29.169  22.046  1.00  0.00     0.045 A 
ATOM     19  O   UNL A   1      30.050  29.195  24.306  1.00  0.00    -0.464 OA
ATOM     20  C   UNL A   1      30.513  27.966  22.552  1.00  0.00     0.048 A 
ENDBRANCH  11  15
BRANCH  13  21
ATOM     21  C   UNL A   1      32.068  23.319  24.529  1.00  0.00     0.050 A 
ATOM     22  C   UNL A   1      31.955  22.895  23.208  1.00  0.00     0.022 A 
ATOM     23  S   UNL A   1      32.702  22.056  25.437  1.00  0.00    -0.142 S 
ATOM     24  C   UNL A   1      32.434  21.547  22.995  1.00  0.00     0.012 A 
ATOM     25  C   UNL A   1      33.005  21.033  24.130  1.00  0.00     0.065 A 
ENDBRANCH  13  21
ENDBRANCH   8  10
ENDBRANCH   7   8
ENDBRANCH   6   7
ENDBRANCH   4   6
ENDBRANCH   3   4
ENDBRANCH   2   3
ENDBRANCH   1   2
BRANCH   1  26
ATOM     26  O   UNL A   1      34.244  34.422  28.083  1.00  0.00    -0.374 OA
BRANCH  26  27
ATOM     27  C   UNL A   1      33.207  34.738  29.033  1.00  0.00     0.202 C 
BRANCH  27  28
ATOM     28  C   UNL A   1      32.712  35.982  29.823  1.00  0.00     0.261 C 
BRANCH  28  29
ATOM     29  O   UNL A   1      33.339  36.287  31.059  1.00  0.00    -0.460 OA
BRANCH  29  30
ATOM     30  C   UNL A   1      33.062  35.397  32.041  1.00  0.00     0.338 C 
ATOM     31  O   UNL A   1      31.966  35.165  32.494  1.00  0.00    -0.246 OA
BRANCH  30  32
ATOM     32  C   UNL A   1      34.269  34.597  32.359  1.00  0.00     0.060 A 
ATOM     33  C   UNL A   1      35.473  35.281  32.201  1.00  0.00     0.016 A 
ATOM     34  C   UNL A   1      34.268  33.271  32.830  1.00  0.00     0.016 A 
ATOM     35  C   UNL A   1      36.668  34.663  32.556  1.00  0.00     0.010 A 
ATOM     36  C   UNL A   1      35.482  32.645  33.188  1.00  0.00     0.010 A 
ATOM     37  C   UNL A   1      36.690  33.350  33.083  1.00  0.00    -0.014 A 
BRANCH  37  38
ATOM     38  C   UNL A   1      38.047  32.770  33.287  1.00  0.00     0.031 A 
ATOM     39  C   UNL A   1      38.572  32.922  34.677  1.00  0.00     0.074 A 
ATOM     40  C   UNL A   1      38.698  31.989  32.394  1.00  0.00     0.049 A 
ATOM     41  N   UNL A   1      39.556  32.307  35.262  1.00  0.00    -0.248 NA
ATOM     42  C   UNL A   1      37.885  33.926  35.513  1.00  0.00     0.031 C 
ATOM     43  C   UNL A   1      38.369  31.846  30.983  1.00  0.00     0.029 A 
ATOM     44  N   UNL A   1      39.729  31.086  32.569  1.00  0.00    -0.354 N 
ATOM     45  C   UNL A   1      39.650  32.894  36.513  1.00  0.00     0.074 A 
ATOM     46  C   UNL A   1      38.579  33.856  36.632  1.00  0.00     0.031 C 
ATOM     47  C   UNL A   1      39.023  30.785  30.473  1.00  0.00     0.029 A 
ATOM     48  C   UNL A   1      39.916  30.235  31.487  1.00  0.00     0.049 A 
ATOM     49  H   UNL A   1      40.280  31.049  33.384  1.00  0.00     0.167 HD
ATOM     50  C   UNL A   1      40.603  32.709  37.447  1.00  0.00     0.031 A 
ATOM     51  C   UNL A   1      40.720  29.152  31.346  1.00  0.00     0.031 A 
ATOM     52  C   UNL A   1      41.721  31.833  37.269  1.00  0.00     0.049 A 
ATOM     53  C   UNL A   1      41.735  28.912  32.443  1.00  0.00     0.074 A 
ATOM     54  C   UNL A   1      42.806  31.648  38.102  1.00  0.00     0.029 A 
ATOM     55  N   UNL A   1      41.911  31.018  36.162  1.00  0.00    -0.354 N 
ATOM     56  N   UNL A   1      41.828  29.488  33.620  1.00  0.00    -0.248 NA
ATOM     57  C   UNL A   1      42.811  27.947  32.161  1.00  0.00     0.031 C 
ATOM     58  C   UNL A   1      43.680  30.758  37.474  1.00  0.00     0.029 A 
ATOM     59  C   UNL A   1      43.101  30.329  36.288  1.00  0.00     0.049 A 
ATOM     60  H   UNL A   1      41.289  30.943  35.402  1.00  0.00     0.167 HD
ATOM     61  C   UNL A   1      42.996  28.996  34.192  1.00  0.00     0.074 A 
ATOM     62  C   UNL A   1      43.532  28.015  33.271  1.00  0.00     0.031 C 
ATOM     63  C   UNL A   1      43.599  29.357  35.350  1.00  0.00     0.031 A 
BRANCH  50  64
ATOM     64  C   UNL A   1      40.531  33.610  38.641  1.00  0.00    -0.014 A 
ATOM     65  C   UNL A   1      41.251  34.816  38.697  1.00  0.00     0.010 A 
ATOM     66  C   UNL A   1      39.800  33.182  39.764  1.00  0.00     0.010 A 
ATOM     67  C   UNL A   1      41.268  35.564  39.873  1.00  0.00     0.020 A 
ATOM     68  C   UNL A   1      39.790  33.944  40.930  1.00  0.00     0.020 A 
ATOM     69  C   UNL A   1      40.535  35.124  40.982  1.00  0.00     0.054 A 
BRANCH  69  70
ATOM     70  S   UNL A   1      40.552  36.130  42.487  1.00  0.00     0.124 S 
ATOM     71  O   UNL A   1      41.305  37.306  42.057  1.00  0.00    -0.237 OA
ATOM     72  O   UNL A   1      39.130  36.351  42.735  1.00  0.00    -0.237 OA
ATOM     73  O   UNL A   1      41.227  35.280  43.463  1.00  0.00    -0.744 OA
ENDBRANCH  69  70
ENDBRANCH  50  64
BRANCH  51  74
ATOM     74  C   UNL A   1      40.717  28.265  30.128  1.00  0.00    -0.014 A 
ATOM     75  C   UNL A   1      39.688  27.317  29.919  1.00  0.00     0.010 A 
ATOM     76  C   UNL A   1      41.777  28.283  29.203  1.00  0.00     0.010 A 
ATOM     77  C   UNL A   1      39.732  26.414  28.844  1.00  0.00     0.020 A 
ATOM     78  C   UNL A   1      41.804  27.416  28.100  1.00  0.00     0.020 A 
ATOM     79  C   UNL A   1      40.790  26.472  27.937  1.00  0.00     0.054 A 
BRANCH  79  80
ATOM     80  S   UNL A   1      40.824  25.323  26.528  1.00  0.00     0.124 S 
ATOM     81  O   UNL A   1      39.495  24.725  26.587  1.00  0.00    -0.237 OA
ATOM     82  O   UNL A   1      41.068  26.214  25.396  1.00  0.00    -0.237 OA
ATOM     83  O   UNL A   1      41.930  24.423  26.849  1.00  0.00    -0.744 OA
ENDBRANCH  79  80
ENDBRANCH  51  74
BRANCH  63  84
ATOM     84  C   UNL A   1      44.889  28.671  35.703  1.00  0.00    -0.014 A 
ATOM     85  C   UNL A   1      46.133  29.224  35.352  1.00  0.00     0.010 A 
ATOM     86  C   UNL A   1      44.847  27.496  36.473  1.00  0.00     0.010 A 
ATOM     87  C   UNL A   1      47.316  28.596  35.748  1.00  0.00     0.020 A 
ATOM     88  C   UNL A   1      46.026  26.883  36.896  1.00  0.00     0.020 A 
ATOM     89  C   UNL A   1      47.254  27.431  36.519  1.00  0.00     0.054 A 
BRANCH  89  90
ATOM     90  S   UNL A   1      48.800  26.660  37.065  1.00  0.00     0.124 S 
ATOM     91  O   UNL A   1      49.459  27.761  37.763  1.00  0.00    -0.237 OA
ATOM     92  O   UNL A   1      48.330  25.567  37.914  1.00  0.00    -0.237 OA
ATOM     93  O   UNL A   1      49.439  26.241  35.819  1.00  0.00    -0.744 OA
ENDBRANCH  89  90
ENDBRANCH  63  84
ENDBRANCH  37  38
ENDBRANCH  30  32
ENDBRANCH  29  30
ENDBRANCH  28  29
ENDBRANCH  27  28
ENDBRANCH  26  27
ENDBRANCH   1  26
TORSDOF 22
ENDMDL
