MODEL 1
REMARK VINA RESULT:      -9.8      0.000      0.000
REMARK SMILES CSc1ncccc1C(=O)N1CSC[C@H]1C(=O)OCCOCCOC(=O)c1ccc(-c2c3nc(c(-c4ccc(S(=O)(=O)[O-])cc4)c4ccc([nH]4)c(-c4ccc(S(=O)(=O)[O-])cc4)c4nc(c(-c5ccc(S(=O)(=O)[O-])cc5)c5ccc2[nH]5)C=C4)C=C3)cc1
REMARK SMILES IDX 21 1 20 2 19 3 18 4 16 5 17 6 15 7 11 8 12 9 13 10 14 11
REMARK SMILES IDX 9 12 10 13 8 14 3 15 4 16 5 17 7 18 6 19 2 20 1 21 22 22
REMARK SMILES IDX 23 23 24 24 25 25 26 26 27 27 28 28 86 29 29 30 85 31 30 32
REMARK SMILES IDX 31 33 32 34 79 35 33 36 84 37 78 38 80 39 34 40 83 41 77 42
REMARK SMILES IDX 76 43 35 45 65 46 46 47 64 48 47 49 50 50 63 51 81 52 48 53
REMARK SMILES IDX 49 54 62 56 82 57 51 58 36 59 37 60 45 61 38 62 44 63 39 64
REMARK SMILES IDX 40 65 41 66 42 67 43 68 66 69 67 70 75 71 68 72 74 73 69 74
REMARK SMILES IDX 70 75 71 76 72 77 73 78 52 79 53 80 61 81 54 82 60 83 55 84
REMARK SMILES IDX 56 85 57 86 58 87 59 88
REMARK H PARENT 80 44 50 55
REMARK Flexibility Score: inf
ROOT
ATOM      1  O   UNL A   1      38.698  22.397  26.211  1.00  0.00    -0.374 OA
ENDROOT
BRANCH   1   2
ATOM      2  C   UNL A   1      38.282  21.147  25.676  1.00  0.00     0.202 C 
BRANCH   2   3
ATOM      3  C   UNL A   1      37.336  21.138  24.466  1.00  0.00     0.261 C 
BRANCH   3   4
ATOM      4  O   UNL A   1      36.081  21.830  24.661  1.00  0.00    -0.462 OA
BRANCH   4   5
ATOM      5  C   UNL A   1      35.924  22.944  23.897  1.00  0.00     0.329 C 
ATOM      6  O   UNL A   1      36.588  23.194  22.891  1.00  0.00    -0.250 OA
BRANCH   5   7
ATOM      7  C   UNL A   1      34.922  23.967  24.437  1.00  0.00     0.206 C 
ATOM      8  N   UNL A   1      33.551  24.124  23.919  1.00  0.00    -0.315 N 
ATOM      9  C   UNL A   1      32.597  23.238  24.550  1.00  0.00     0.191 C 
ATOM     10  S   UNL A   1      33.123  23.117  26.273  1.00  0.00    -0.138 SA
ATOM     11  C   UNL A   1      34.814  23.705  25.947  1.00  0.00     0.108 C 
BRANCH   8  12
ATOM     12  C   UNL A   1      33.262  25.201  23.078  1.00  0.00     0.258 C 
ATOM     13  O   UNL A   1      33.496  25.139  21.874  1.00  0.00    -0.269 OA
BRANCH  12  14
ATOM     14  C   UNL A   1      32.847  26.508  23.678  1.00  0.00     0.072 A 
ATOM     15  C   UNL A   1      31.552  26.838  24.099  1.00  0.00     0.108 A 
ATOM     16  N   UNL A   1      31.248  28.088  24.561  1.00  0.00    -0.249 NA
ATOM     17  C   UNL A   1      32.191  29.050  24.532  1.00  0.00     0.112 A 
ATOM     18  C   UNL A   1      33.787  27.557  23.621  1.00  0.00     0.018 A 
ATOM     19  C   UNL A   1      33.463  28.839  24.054  1.00  0.00     0.021 A 
BRANCH  15  20
ATOM     20  S   UNL A   1      30.071  25.864  23.960  1.00  0.00    -0.109 SA
ATOM     21  C   UNL A   1      28.814  27.093  23.586  1.00  0.00     0.092 C 
ENDBRANCH  15  20
ENDBRANCH  12  14
ENDBRANCH   8  12
ENDBRANCH   5   7
ENDBRANCH   4   5
ENDBRANCH   3   4
ENDBRANCH   2   3
ENDBRANCH   1   2
BRANCH   1  22
ATOM     22  C   UNL A   1      40.046  22.525  26.635  1.00  0.00     0.202 C 
BRANCH  22  23
ATOM     23  C   UNL A   1      40.699  23.913  26.631  1.00  0.00     0.261 C 
BRANCH  23  24
ATOM     24  O   UNL A   1      39.821  25.044  26.674  1.00  0.00    -0.460 OA
BRANCH  24  25
ATOM     25  C   UNL A   1      40.441  26.244  26.549  1.00  0.00     0.338 C 
ATOM     26  O   UNL A   1      41.115  26.643  25.618  1.00  0.00    -0.246 OA
BRANCH  25  27
ATOM     27  C   UNL A   1      40.109  27.086  27.708  1.00  0.00     0.060 A 
ATOM     28  C   UNL A   1      40.683  28.358  27.785  1.00  0.00     0.016 A 
ATOM     29  C   UNL A   1      39.344  26.577  28.761  1.00  0.00     0.016 A 
ATOM     30  C   UNL A   1      40.529  29.114  28.944  1.00  0.00     0.010 A 
ATOM     31  C   UNL A   1      39.190  27.339  29.923  1.00  0.00     0.010 A 
ATOM     32  C   UNL A   1      39.815  28.592  30.034  1.00  0.00    -0.014 A 
BRANCH  32  33
ATOM     33  C   UNL A   1      39.855  29.314  31.329  1.00  0.00     0.031 A 
ATOM     34  C   UNL A   1      40.978  29.034  32.292  1.00  0.00     0.074 A 
ATOM     35  C   UNL A   1      38.933  30.252  31.612  1.00  0.00     0.049 A 
ATOM     36  N   UNL A   1      41.242  29.600  33.440  1.00  0.00    -0.248 NA
ATOM     37  C   UNL A   1      41.930  27.978  31.908  1.00  0.00     0.031 C 
ATOM     38  C   UNL A   1      37.813  30.624  30.747  1.00  0.00     0.029 A 
ATOM     39  N   UNL A   1      38.802  31.072  32.704  1.00  0.00    -0.354 N 
ATOM     40  C   UNL A   1      42.389  28.974  33.916  1.00  0.00     0.074 A 
ATOM     41  C   UNL A   1      42.748  27.959  32.950  1.00  0.00     0.031 C 
ATOM     42  C   UNL A   1      37.115  31.608  31.338  1.00  0.00     0.029 A 
ATOM     43  C   UNL A   1      37.724  31.920  32.628  1.00  0.00     0.049 A 
ATOM     44  H   UNL A   1      39.421  31.054  33.469  1.00  0.00     0.167 HD
ATOM     45  C   UNL A   1      43.086  29.228  35.050  1.00  0.00     0.031 A 
ATOM     46  C   UNL A   1      37.279  32.846  33.502  1.00  0.00     0.031 A 
ATOM     47  C   UNL A   1      42.717  30.230  36.015  1.00  0.00     0.049 A 
ATOM     48  C   UNL A   1      38.050  33.085  34.772  1.00  0.00     0.074 A 
ATOM     49  C   UNL A   1      43.361  30.573  37.190  1.00  0.00     0.029 A 
ATOM     50  N   UNL A   1      41.603  31.049  35.914  1.00  0.00    -0.354 N 
ATOM     51  N   UNL A   1      39.149  32.503  35.191  1.00  0.00    -0.248 NA
ATOM     52  C   UNL A   1      37.532  34.119  35.678  1.00  0.00     0.031 C 
ATOM     53  C   UNL A   1      42.609  31.567  37.825  1.00  0.00     0.029 A 
ATOM     54  C   UNL A   1      41.529  31.885  37.016  1.00  0.00     0.049 A 
ATOM     55  H   UNL A   1      40.960  31.039  35.170  1.00  0.00     0.167 HD
ATOM     56  C   UNL A   1      39.470  33.120  36.396  1.00  0.00     0.074 A 
ATOM     57  C   UNL A   1      38.455  34.130  36.629  1.00  0.00     0.031 C 
ATOM     58  C   UNL A   1      40.510  32.879  37.232  1.00  0.00     0.031 A 
BRANCH  45  59
ATOM     59  C   UNL A   1      44.305  28.385  35.319  1.00  0.00    -0.014 A 
ATOM     60  C   UNL A   1      45.579  28.784  34.876  1.00  0.00     0.010 A 
ATOM     61  C   UNL A   1      44.179  27.191  36.052  1.00  0.00     0.010 A 
ATOM     62  C   UNL A   1      46.699  27.985  35.128  1.00  0.00     0.020 A 
ATOM     63  C   UNL A   1      45.299  26.401  36.328  1.00  0.00     0.020 A 
ATOM     64  C   UNL A   1      46.550  26.796  35.849  1.00  0.00     0.054 A 
BRANCH  64  65
ATOM     65  S   UNL A   1      48.021  25.786  36.179  1.00  0.00     0.124 S 
ATOM     66  O   UNL A   1      47.607  25.027  37.357  1.00  0.00    -0.237 OA
ATOM     67  O   UNL A   1      48.160  25.010  34.949  1.00  0.00    -0.237 OA
ATOM     68  O   UNL A   1      49.074  26.772  36.411  1.00  0.00    -0.744 OA
ENDBRANCH  64  65
ENDBRANCH  45  59
BRANCH  46  69
ATOM     69  C   UNL A   1      36.044  33.618  33.199  1.00  0.00    -0.014 A 
ATOM     70  C   UNL A   1      36.114  34.961  32.789  1.00  0.00     0.010 A 
ATOM     71  C   UNL A   1      34.783  33.002  33.313  1.00  0.00     0.010 A 
ATOM     72  C   UNL A   1      34.945  35.679  32.514  1.00  0.00     0.020 A 
ATOM     73  C   UNL A   1      33.616  33.708  33.014  1.00  0.00     0.020 A 
ATOM     74  C   UNL A   1      33.703  35.047  32.626  1.00  0.00     0.054 A 
BRANCH  74  75
ATOM     75  S   UNL A   1      32.202  35.977  32.212  1.00  0.00     0.124 S 
ATOM     76  O   UNL A   1      32.338  36.144  30.769  1.00  0.00    -0.237 OA
ATOM     77  O   UNL A   1      31.140  35.074  32.648  1.00  0.00    -0.237 OA
ATOM     78  O   UNL A   1      32.332  37.201  33.000  1.00  0.00    -0.744 OA
ENDBRANCH  74  75
ENDBRANCH  46  69
BRANCH  58  79
ATOM     79  C   UNL A   1      40.624  33.747  38.457  1.00  0.00    -0.014 A 
ATOM     80  C   UNL A   1      41.290  34.986  38.417  1.00  0.00     0.010 A 
ATOM     81  C   UNL A   1      40.024  33.329  39.659  1.00  0.00     0.010 A 
ATOM     82  C   UNL A   1      41.393  35.768  39.570  1.00  0.00     0.020 A 
ATOM     83  C   UNL A   1      40.102  34.122  40.806  1.00  0.00     0.020 A 
ATOM     84  C   UNL A   1      40.804  35.328  40.759  1.00  0.00     0.054 A 
BRANCH  84  85
ATOM     85  S   UNL A   1      40.935  36.368  42.239  1.00  0.00     0.124 S 
ATOM     86  O   UNL A   1      40.684  35.406  43.309  1.00  0.00    -0.237 OA
ATOM     87  O   UNL A   1      42.303  36.876  42.157  1.00  0.00    -0.237 OA
ATOM     88  O   UNL A   1      39.892  37.373  42.047  1.00  0.00    -0.744 OA
ENDBRANCH  84  85
ENDBRANCH  58  79
ENDBRANCH  32  33
ENDBRANCH  25  27
ENDBRANCH  24  25
ENDBRANCH  23  24
ENDBRANCH  22  23
ENDBRANCH   1  22
TORSDOF 20
ENDMDL
MODEL 2
REMARK VINA RESULT:      -9.4      1.689      8.290
REMARK SMILES CSc1ncccc1C(=O)N1CSC[C@H]1C(=O)OCCOCCOC(=O)c1ccc(-c2c3nc(c(-c4ccc(S(=O)(=O)[O-])cc4)c4ccc([nH]4)c(-c4ccc(S(=O)(=O)[O-])cc4)c4nc(c(-c5ccc(S(=O)(=O)[O-])cc5)c5ccc2[nH]5)C=C4)C=C3)cc1
REMARK SMILES IDX 21 1 20 2 19 3 18 4 16 5 17 6 15 7 11 8 12 9 13 10 14 11
REMARK SMILES IDX 9 12 10 13 8 14 3 15 4 16 5 17 7 18 6 19 2 20 1 21 22 22
REMARK SMILES IDX 23 23 24 24 25 25 26 26 27 27 28 28 86 29 29 30 85 31 30 32
REMARK SMILES IDX 31 33 32 34 79 35 33 36 84 37 78 38 80 39 34 40 83 41 77 42
REMARK SMILES IDX 76 43 35 45 65 46 46 47 64 48 47 49 50 50 63 51 81 52 48 53
REMARK SMILES IDX 49 54 62 56 82 57 51 58 36 59 37 60 45 61 38 62 44 63 39 64
REMARK SMILES IDX 40 65 41 66 42 67 43 68 66 69 67 70 75 71 68 72 74 73 69 74
REMARK SMILES IDX 70 75 71 76 72 77 73 78 52 79 53 80 61 81 54 82 60 83 55 84
REMARK SMILES IDX 56 85 57 86 58 87 59 88
REMARK H PARENT 80 44 50 55
REMARK Flexibility Score: inf
ROOT
ATOM      1  O   UNL A   1      38.334  22.104  26.078  1.00  0.00    -0.374 OA
ENDROOT
BRANCH   1   2
ATOM      2  C   UNL A   1      37.870  21.267  25.026  1.00  0.00     0.202 C 
BRANCH   2   3
ATOM      3  C   UNL A   1      36.472  20.640  25.142  1.00  0.00     0.261 C 
BRANCH   3   4
ATOM      4  O   UNL A   1      35.494  21.442  25.843  1.00  0.00    -0.462 OA
BRANCH   4   5
ATOM      5  C   UNL A   1      34.201  21.128  25.565  1.00  0.00     0.329 C 
ATOM      6  O   UNL A   1      33.761  19.980  25.518  1.00  0.00    -0.250 OA
BRANCH   5   7
ATOM      7  C   UNL A   1      33.311  22.314  25.183  1.00  0.00     0.206 C 
ATOM      8  N   UNL A   1      33.755  23.430  24.330  1.00  0.00    -0.315 N 
ATOM      9  C   UNL A   1      33.582  23.174  22.917  1.00  0.00     0.191 C 
ATOM     10  S   UNL A   1      32.054  22.222  22.786  1.00  0.00    -0.138 SA
ATOM     11  C   UNL A   1      32.053  21.715  24.534  1.00  0.00     0.108 C 
BRANCH   8  12
ATOM     12  C   UNL A   1      34.076  24.653  24.924  1.00  0.00     0.258 C 
ATOM     13  O   UNL A   1      35.142  24.805  25.515  1.00  0.00    -0.269 OA
BRANCH  12  14
ATOM     14  C   UNL A   1      33.032  25.722  25.009  1.00  0.00     0.072 A 
ATOM     15  C   UNL A   1      32.759  26.677  24.021  1.00  0.00     0.108 A 
ATOM     16  N   UNL A   1      31.839  27.668  24.220  1.00  0.00    -0.249 NA
ATOM     17  C   UNL A   1      31.243  27.784  25.422  1.00  0.00     0.112 A 
ATOM     18  C   UNL A   1      32.420  25.910  26.265  1.00  0.00     0.018 A 
ATOM     19  C   UNL A   1      31.515  26.945  26.478  1.00  0.00     0.021 A 
BRANCH  15  20
ATOM     20  S   UNL A   1      33.608  26.935  22.480  1.00  0.00    -0.109 SA
ATOM     21  C   UNL A   1      33.709  28.726  22.370  1.00  0.00     0.092 C 
ENDBRANCH  15  20
ENDBRANCH  12  14
ENDBRANCH   8  12
ENDBRANCH   5   7
ENDBRANCH   4   5
ENDBRANCH   3   4
ENDBRANCH   2   3
ENDBRANCH   1   2
BRANCH   1  22
ATOM     22  C   UNL A   1      39.708  22.035  26.427  1.00  0.00     0.202 C 
BRANCH  22  23
ATOM     23  C   UNL A   1      40.493  23.339  26.617  1.00  0.00     0.261 C 
BRANCH  23  24
ATOM     24  O   UNL A   1      39.752  24.562  26.540  1.00  0.00    -0.460 OA
BRANCH  24  25
ATOM     25  C   UNL A   1      40.509  25.671  26.347  1.00  0.00     0.338 C 
ATOM     26  O   UNL A   1      40.921  26.119  25.293  1.00  0.00    -0.246 OA
BRANCH  25  27
ATOM     27  C   UNL A   1      40.712  26.351  27.634  1.00  0.00     0.060 A 
ATOM     28  C   UNL A   1      39.713  26.236  28.605  1.00  0.00     0.016 A 
ATOM     29  C   UNL A   1      41.812  27.190  27.830  1.00  0.00     0.016 A 
ATOM     30  C   UNL A   1      39.790  27.001  29.766  1.00  0.00     0.010 A 
ATOM     31  C   UNL A   1      41.886  27.956  28.997  1.00  0.00     0.010 A 
ATOM     32  C   UNL A   1      40.856  27.894  29.950  1.00  0.00    -0.014 A 
BRANCH  32  33
ATOM     33  C   UNL A   1      40.801  28.855  31.079  1.00  0.00     0.031 A 
ATOM     34  C   UNL A   1      39.763  29.946  31.063  1.00  0.00     0.074 A 
ATOM     35  C   UNL A   1      41.627  28.715  32.131  1.00  0.00     0.049 A 
ATOM     36  N   UNL A   1      39.494  30.843  31.976  1.00  0.00    -0.248 NA
ATOM     37  C   UNL A   1      38.916  30.036  29.863  1.00  0.00     0.031 C 
ATOM     38  C   UNL A   1      42.655  27.683  32.266  1.00  0.00     0.029 A 
ATOM     39  N   UNL A   1      41.719  29.438  33.293  1.00  0.00    -0.354 N 
ATOM     40  C   UNL A   1      38.448  31.602  31.463  1.00  0.00     0.074 A 
ATOM     41  C   UNL A   1      38.156  31.084  30.144  1.00  0.00     0.031 C 
ATOM     42  C   UNL A   1      43.269  27.833  33.452  1.00  0.00     0.029 A 
ATOM     43  C   UNL A   1      42.692  28.981  34.149  1.00  0.00     0.049 A 
ATOM     44  H   UNL A   1      41.144  30.210  33.495  1.00  0.00     0.167 HD
ATOM     45  C   UNL A   1      37.783  32.631  32.042  1.00  0.00     0.031 A 
ATOM     46  C   UNL A   1      43.074  29.436  35.359  1.00  0.00     0.031 A 
ATOM     47  C   UNL A   1      38.086  33.152  33.349  1.00  0.00     0.049 A 
ATOM     48  C   UNL A   1      42.345  30.604  35.966  1.00  0.00     0.074 A 
ATOM     49  C   UNL A   1      37.466  34.184  34.030  1.00  0.00     0.029 A 
ATOM     50  N   UNL A   1      39.097  32.678  34.172  1.00  0.00    -0.354 N 
ATOM     51  N   UNL A   1      41.338  31.291  35.479  1.00  0.00    -0.248 NA
ATOM     52  C   UNL A   1      42.790  31.045  37.295  1.00  0.00     0.031 C 
ATOM     53  C   UNL A   1      38.134  34.367  35.246  1.00  0.00     0.029 A 
ATOM     54  C   UNL A   1      39.132  33.410  35.347  1.00  0.00     0.049 A 
ATOM     55  H   UNL A   1      39.700  31.933  33.954  1.00  0.00     0.167 HD
ATOM     56  C   UNL A   1      41.011  32.228  36.454  1.00  0.00     0.074 A 
ATOM     57  C   UNL A   1      41.918  32.007  37.563  1.00  0.00     0.031 C 
ATOM     58  C   UNL A   1      40.045  33.179  36.437  1.00  0.00     0.031 A 
BRANCH  45  59
ATOM     59  C   UNL A   1      36.679  33.278  31.249  1.00  0.00    -0.014 A 
ATOM     60  C   UNL A   1      36.909  33.782  29.956  1.00  0.00     0.010 A 
ATOM     61  C   UNL A   1      35.384  33.356  31.792  1.00  0.00     0.010 A 
ATOM     62  C   UNL A   1      35.873  34.386  29.235  1.00  0.00     0.020 A 
ATOM     63  C   UNL A   1      34.339  33.937  31.066  1.00  0.00     0.020 A 
ATOM     64  C   UNL A   1      34.596  34.463  29.799  1.00  0.00     0.054 A 
BRANCH  64  65
ATOM     65  S   UNL A   1      33.264  35.236  28.837  1.00  0.00     0.124 S 
ATOM     66  O   UNL A   1      34.007  36.156  27.980  1.00  0.00    -0.237 OA
ATOM     67  O   UNL A   1      32.656  34.094  28.156  1.00  0.00    -0.237 OA
ATOM     68  O   UNL A   1      32.426  35.868  29.853  1.00  0.00    -0.744 OA
ENDBRANCH  64  65
ENDBRANCH  45  59
BRANCH  46  69
ATOM     69  C   UNL A   1      44.201  28.781  36.075  1.00  0.00    -0.014 A 
ATOM     70  C   UNL A   1      43.972  27.702  36.948  1.00  0.00     0.010 A 
ATOM     71  C   UNL A   1      45.520  29.233  35.879  1.00  0.00     0.010 A 
ATOM     72  C   UNL A   1      45.039  27.098  37.622  1.00  0.00     0.020 A 
ATOM     73  C   UNL A   1      46.589  28.615  36.530  1.00  0.00     0.020 A 
ATOM     74  C   UNL A   1      46.341  27.557  37.407  1.00  0.00     0.054 A 
BRANCH  74  75
ATOM     75  S   UNL A   1      47.717  26.726  38.247  1.00  0.00     0.124 S 
ATOM     76  O   UNL A   1      47.944  25.570  37.386  1.00  0.00    -0.237 OA
ATOM     77  O   UNL A   1      48.763  27.746  38.227  1.00  0.00    -0.237 OA
ATOM     78  O   UNL A   1      47.176  26.425  39.571  1.00  0.00    -0.744 OA
ENDBRANCH  74  75
ENDBRANCH  46  69
BRANCH  58  79
ATOM     79  C   UNL A   1      39.896  34.030  37.670  1.00  0.00    -0.014 A 
ATOM     80  C   UNL A   1      40.549  35.270  37.787  1.00  0.00     0.010 A 
ATOM     81  C   UNL A   1      39.061  33.594  38.715  1.00  0.00     0.010 A 
ATOM     82  C   UNL A   1      40.406  36.037  38.947  1.00  0.00     0.020 A 
ATOM     83  C   UNL A   1      38.893  34.370  39.863  1.00  0.00     0.020 A 
ATOM     84  C   UNL A   1      39.584  35.578  39.981  1.00  0.00     0.054 A 
BRANCH  84  85
ATOM     85  S   UNL A   1      39.398  36.597  41.469  1.00  0.00     0.124 S 
ATOM     86  O   UNL A   1      38.978  37.879  40.907  1.00  0.00    -0.237 OA
ATOM     87  O   UNL A   1      38.378  35.879  42.228  1.00  0.00    -0.237 OA
ATOM     88  O   UNL A   1      40.733  36.585  42.064  1.00  0.00    -0.744 OA
ENDBRANCH  84  85
ENDBRANCH  58  79
ENDBRANCH  32  33
ENDBRANCH  25  27
ENDBRANCH  24  25
ENDBRANCH  23  24
ENDBRANCH  22  23
ENDBRANCH   1  22
TORSDOF 20
ENDMDL
MODEL 3
REMARK VINA RESULT:      -9.4      7.053     11.954
REMARK SMILES CSc1ncccc1C(=O)N1CSC[C@H]1C(=O)OCCOCCOC(=O)c1ccc(-c2c3nc(c(-c4ccc(S(=O)(=O)[O-])cc4)c4ccc([nH]4)c(-c4ccc(S(=O)(=O)[O-])cc4)c4nc(c(-c5ccc(S(=O)(=O)[O-])cc5)c5ccc2[nH]5)C=C4)C=C3)cc1
REMARK SMILES IDX 21 1 20 2 19 3 18 4 16 5 17 6 15 7 11 8 12 9 13 10 14 11
REMARK SMILES IDX 9 12 10 13 8 14 3 15 4 16 5 17 7 18 6 19 2 20 1 21 22 22
REMARK SMILES IDX 23 23 24 24 25 25 26 26 27 27 28 28 86 29 29 30 85 31 30 32
REMARK SMILES IDX 31 33 32 34 79 35 33 36 84 37 78 38 80 39 34 40 83 41 77 42
REMARK SMILES IDX 76 43 35 45 65 46 46 47 64 48 47 49 50 50 63 51 81 52 48 53
REMARK SMILES IDX 49 54 62 56 82 57 51 58 36 59 37 60 45 61 38 62 44 63 39 64
REMARK SMILES IDX 40 65 41 66 42 67 43 68 66 69 67 70 75 71 68 72 74 73 69 74
REMARK SMILES IDX 70 75 71 76 72 77 73 78 52 79 53 80 61 81 54 82 60 83 55 84
REMARK SMILES IDX 56 85 57 86 58 87 59 88
REMARK H PARENT 80 44 50 55
REMARK Flexibility Score: inf
ROOT
ATOM      1  O   UNL A   1      33.392  30.710  27.317  1.00  0.00    -0.374 OA
ENDROOT
BRANCH   1   2
ATOM      2  C   UNL A   1      33.361  29.598  26.429  1.00  0.00     0.202 C 
BRANCH   2   3
ATOM      3  C   UNL A   1      32.260  29.537  25.360  1.00  0.00     0.261 C 
BRANCH   3   4
ATOM      4  O   UNL A   1      32.429  28.507  24.360  1.00  0.00    -0.462 OA
BRANCH   4   5
ATOM      5  C   UNL A   1      31.811  27.330  24.650  1.00  0.00     0.329 C 
ATOM      6  O   UNL A   1      30.691  27.240  25.151  1.00  0.00    -0.250 OA
BRANCH   5   7
ATOM      7  C   UNL A   1      32.661  26.076  24.423  1.00  0.00     0.206 C 
ATOM      8  N   UNL A   1      32.111  24.711  24.385  1.00  0.00    -0.315 N 
ATOM      9  C   UNL A   1      31.642  24.319  23.074  1.00  0.00     0.191 C 
ATOM     10  S   UNL A   1      32.789  25.083  21.908  1.00  0.00    -0.138 SA
ATOM     11  C   UNL A   1      33.415  26.303  23.104  1.00  0.00     0.108 C 
BRANCH   8  12
ATOM     12  C   UNL A   1      32.282  23.878  25.494  1.00  0.00     0.258 C 
ATOM     13  O   UNL A   1      32.057  24.287  26.629  1.00  0.00    -0.269 OA
BRANCH  12  14
ATOM     14  C   UNL A   1      32.933  22.542  25.313  1.00  0.00     0.072 A 
ATOM     15  C   UNL A   1      34.289  22.327  25.034  1.00  0.00     0.108 A 
ATOM     16  N   UNL A   1      34.781  21.073  24.803  1.00  0.00    -0.249 NA
ATOM     17  C   UNL A   1      33.931  20.029  24.758  1.00  0.00     0.112 A 
ATOM     18  C   UNL A   1      32.075  21.428  25.208  1.00  0.00     0.018 A 
ATOM     19  C   UNL A   1      32.573  20.159  24.933  1.00  0.00     0.021 A 
BRANCH  15  20
ATOM     20  S   UNL A   1      35.556  23.541  24.737  1.00  0.00    -0.109 SA
ATOM     21  C   UNL A   1      36.599  22.743  23.510  1.00  0.00     0.092 C 
ENDBRANCH  15  20
ENDBRANCH  12  14
ENDBRANCH   8  12
ENDBRANCH   5   7
ENDBRANCH   4   5
ENDBRANCH   3   4
ENDBRANCH   2   3
ENDBRANCH   1   2
BRANCH   1  22
ATOM     22  C   UNL A   1      34.650  31.309  27.588  1.00  0.00     0.202 C 
BRANCH  22  23
ATOM     23  C   UNL A   1      35.521  30.732  28.711  1.00  0.00     0.261 C 
BRANCH  23  24
ATOM     24  O   UNL A   1      36.570  29.837  28.325  1.00  0.00    -0.460 OA
BRANCH  24  25
ATOM     25  C   UNL A   1      37.255  29.290  29.360  1.00  0.00     0.338 C 
ATOM     26  O   UNL A   1      36.848  29.053  30.483  1.00  0.00    -0.246 OA
BRANCH  25  27
ATOM     27  C   UNL A   1      38.604  28.919  28.909  1.00  0.00     0.060 A 
ATOM     28  C   UNL A   1      39.467  28.322  29.832  1.00  0.00     0.016 A 
ATOM     29  C   UNL A   1      39.049  29.270  27.631  1.00  0.00     0.016 A 
ATOM     30  C   UNL A   1      40.801  28.113  29.493  1.00  0.00     0.010 A 
ATOM     31  C   UNL A   1      40.389  29.058  27.293  1.00  0.00     0.010 A 
ATOM     32  C   UNL A   1      41.278  28.516  28.236  1.00  0.00    -0.014 A 
BRANCH  32  33
ATOM     33  C   UNL A   1      42.739  28.491  27.981  1.00  0.00     0.031 A 
ATOM     34  C   UNL A   1      43.357  27.258  27.377  1.00  0.00     0.074 A 
ATOM     35  C   UNL A   1      43.491  29.579  28.229  1.00  0.00     0.049 A 
ATOM     36  N   UNL A   1      44.594  27.051  27.007  1.00  0.00    -0.248 NA
ATOM     37  C   UNL A   1      42.463  26.110  27.158  1.00  0.00     0.031 C 
ATOM     38  C   UNL A   1      42.998  30.836  28.792  1.00  0.00     0.029 A 
ATOM     39  N   UNL A   1      44.829  29.802  28.025  1.00  0.00    -0.354 N 
ATOM     40  C   UNL A   1      44.629  25.752  26.512  1.00  0.00     0.074 A 
ATOM     41  C   UNL A   1      43.297  25.207  26.662  1.00  0.00     0.031 C 
ATOM     42  C   UNL A   1      44.019  31.704  28.878  1.00  0.00     0.029 A 
ATOM     43  C   UNL A   1      45.239  31.060  28.397  1.00  0.00     0.049 A 
ATOM     44  H   UNL A   1      45.437  29.127  27.648  1.00  0.00     0.167 HD
ATOM     45  C   UNL A   1      45.672  25.078  25.970  1.00  0.00     0.031 A 
ATOM     46  C   UNL A   1      46.460  31.628  28.354  1.00  0.00     0.031 A 
ATOM     47  C   UNL A   1      46.998  25.620  25.835  1.00  0.00     0.049 A 
ATOM     48  C   UNL A   1      47.612  30.846  27.782  1.00  0.00     0.074 A 
ATOM     49  C   UNL A   1      48.122  25.023  25.292  1.00  0.00     0.029 A 
ATOM     50  N   UNL A   1      47.378  26.887  26.249  1.00  0.00    -0.354 N 
ATOM     51  N   UNL A   1      47.619  29.629  27.290  1.00  0.00    -0.248 NA
ATOM     52  C   UNL A   1      48.916  31.521  27.740  1.00  0.00     0.031 C 
ATOM     53  C   UNL A   1      49.194  25.913  25.422  1.00  0.00     0.029 A 
ATOM     54  C   UNL A   1      48.725  27.085  25.992  1.00  0.00     0.049 A 
ATOM     55  H   UNL A   1      46.780  27.549  26.665  1.00  0.00     0.167 HD
ATOM     56  C   UNL A   1      48.921  29.403  26.855  1.00  0.00     0.074 A 
ATOM     57  C   UNL A   1      49.667  30.615  27.129  1.00  0.00     0.031 C 
ATOM     58  C   UNL A   1      49.451  28.296  26.276  1.00  0.00     0.031 A 
BRANCH  45  59
ATOM     59  C   UNL A   1      45.422  23.666  25.509  1.00  0.00    -0.014 A 
ATOM     60  C   UNL A   1      45.681  22.568  26.349  1.00  0.00     0.010 A 
ATOM     61  C   UNL A   1      44.890  23.436  24.228  1.00  0.00     0.010 A 
ATOM     62  C   UNL A   1      45.449  21.264  25.903  1.00  0.00     0.020 A 
ATOM     63  C   UNL A   1      44.633  22.134  23.785  1.00  0.00     0.020 A 
ATOM     64  C   UNL A   1      44.930  21.056  24.621  1.00  0.00     0.054 A 
BRANCH  64  65
ATOM     65  S   UNL A   1      44.621  19.354  24.070  1.00  0.00     0.124 S 
ATOM     66  O   UNL A   1      45.791  18.652  24.591  1.00  0.00    -0.237 OA
ATOM     67  O   UNL A   1      43.353  19.032  24.722  1.00  0.00    -0.237 OA
ATOM     68  O   UNL A   1      44.558  19.467  22.615  1.00  0.00    -0.744 OA
ENDBRANCH  64  65
ENDBRANCH  45  59
BRANCH  46  69
ATOM     69  C   UNL A   1      46.653  33.012  28.864  1.00  0.00    -0.014 A 
ATOM     70  C   UNL A   1      46.489  34.123  28.017  1.00  0.00     0.010 A 
ATOM     71  C   UNL A   1      46.996  33.225  30.212  1.00  0.00     0.010 A 
ATOM     72  C   UNL A   1      46.680  35.420  28.506  1.00  0.00     0.020 A 
ATOM     73  C   UNL A   1      47.162  34.519  30.709  1.00  0.00     0.020 A 
ATOM     74  C   UNL A   1      47.013  35.610  29.850  1.00  0.00     0.054 A 
BRANCH  74  75
ATOM     75  S   UNL A   1      47.202  37.301  30.479  1.00  0.00     0.124 S 
ATOM     76  O   UNL A   1      48.612  37.329  30.853  1.00  0.00    -0.237 OA
ATOM     77  O   UNL A   1      46.837  38.111  29.319  1.00  0.00    -0.237 OA
ATOM     78  O   UNL A   1      46.256  37.358  31.591  1.00  0.00    -0.744 OA
ENDBRANCH  74  75
ENDBRANCH  46  69
BRANCH  58  79
ATOM     79  C   UNL A   1      50.898  28.360  25.867  1.00  0.00    -0.014 A 
ATOM     80  C   UNL A   1      51.279  28.830  24.597  1.00  0.00     0.010 A 
ATOM     81  C   UNL A   1      51.894  27.975  26.783  1.00  0.00     0.010 A 
ATOM     82  C   UNL A   1      52.629  28.869  24.236  1.00  0.00     0.020 A 
ATOM     83  C   UNL A   1      53.244  28.038  26.435  1.00  0.00     0.020 A 
ATOM     84  C   UNL A   1      53.602  28.465  25.155  1.00  0.00     0.054 A 
BRANCH  84  85
ATOM     85  S   UNL A   1      55.348  28.540  24.670  1.00  0.00     0.124 S 
ATOM     86  O   UNL A   1      55.588  27.181  24.194  1.00  0.00    -0.237 OA
ATOM     87  O   UNL A   1      55.354  29.578  23.641  1.00  0.00    -0.237 OA
ATOM     88  O   UNL A   1      56.035  28.898  25.909  1.00  0.00    -0.744 OA
ENDBRANCH  84  85
ENDBRANCH  58  79
ENDBRANCH  32  33
ENDBRANCH  25  27
ENDBRANCH  24  25
ENDBRANCH  23  24
ENDBRANCH  22  23
ENDBRANCH   1  22
TORSDOF 20
ENDMDL
