MODEL 1
REMARK VINA RESULT:     -11.6      0.000      0.000
REMARK SMILES Cc1ccc(S(=O)(=O)N(C)c2cccc(C)c2C)cc1C(=O)OCCOCCOC(=O)c1ccc(-c2c3nc(c(-c4ccc(S(=O)(=O)[O-])cc4)c4ccc([nH]4)c(-c4ccc(S(=O)(=O)[O-])cc4)c4nc(c(-c5ccc(S(=O)(=O)[O-])cc5)c5ccc2[nH]5)C=C4)C=C3)cc1
REMARK SMILES IDX 26 1 25 2 24 3 23 4 21 5 22 6 20 7 1 8 2 9 3 10 4 11 19 12
REMARK SMILES IDX 5 13 6 14 7 15 8 16 9 17 10 18 11 19 12 20 17 21 13 22 15 23
REMARK SMILES IDX 18 24 14 25 16 26 27 27 28 28 29 29 30 30 31 31 32 32 33 33
REMARK SMILES IDX 91 34 34 35 90 36 35 37 36 38 37 39 84 40 38 41 89 42 83 43
REMARK SMILES IDX 85 44 39 45 88 46 82 47 81 48 40 50 70 51 51 52 69 53 52 54
REMARK SMILES IDX 55 55 68 56 86 57 53 58 54 59 67 61 87 62 56 63 41 64 42 65
REMARK SMILES IDX 50 66 43 67 49 68 44 69 45 70 46 71 47 72 48 73 71 74 72 75
REMARK SMILES IDX 80 76 73 77 79 78 74 79 75 80 76 81 77 82 78 83 57 84 58 85
REMARK SMILES IDX 66 86 59 87 65 88 60 89 61 90 62 91 63 92 64 93
REMARK H PARENT 85 49 55 60
REMARK Flexibility Score: inf
ROOT
ATOM      1  O   UNL A   1      32.879  28.897  27.046  1.00  0.00    -0.374 OA
ENDROOT
BRANCH   1   2
ATOM      2  C   UNL A   1      32.734  27.932  26.003  1.00  0.00     0.202 C 
BRANCH   2   3
ATOM      3  C   UNL A   1      33.883  28.197  25.087  1.00  0.00     0.261 C 
BRANCH   3   4
ATOM      4  O   UNL A   1      33.402  28.825  23.893  1.00  0.00    -0.460 OA
BRANCH   4   5
ATOM      5  C   UNL A   1      33.425  28.128  22.741  1.00  0.00     0.338 C 
ATOM      6  O   UNL A   1      34.193  28.234  21.809  1.00  0.00    -0.246 OA
BRANCH   5   7
ATOM      7  C   UNL A   1      32.447  27.027  22.850  1.00  0.00     0.064 A 
ATOM      8  C   UNL A   1      30.277  28.433  22.616  1.00  0.00     0.045 C 
ATOM      9  C   UNL A   1      31.043  27.148  22.805  1.00  0.00    -0.036 A 
ATOM     10  C   UNL A   1      30.285  25.984  23.001  1.00  0.00     0.006 A 
ATOM     11  C   UNL A   1      30.902  24.741  23.173  1.00  0.00     0.022 A 
ATOM     12  C   UNL A   1      33.059  25.777  23.059  1.00  0.00     0.038 A 
ATOM     13  C   UNL A   1      32.298  24.633  23.179  1.00  0.00     0.088 A 
BRANCH  13  14
ATOM     14  S   UNL A   1      32.994  23.000  23.206  1.00  0.00     0.264 S 
ATOM     15  O   UNL A   1      31.877  22.107  22.953  1.00  0.00    -0.201 OA
ATOM     16  O   UNL A   1      34.100  23.072  22.269  1.00  0.00    -0.201 OA
BRANCH  14  17
ATOM     17  N   UNL A   1      33.619  22.608  24.774  1.00  0.00    -0.269 N 
ATOM     18  C   UNL A   1      33.172  23.451  25.925  1.00  0.00     0.164 C 
BRANCH  17  19
ATOM     19  C   UNL A   1      35.080  22.441  24.791  1.00  0.00     0.055 A 
ATOM     20  C   UNL A   1      35.908  23.540  25.078  1.00  0.00     0.027 A 
ATOM     21  C   UNL A   1      35.646  21.143  24.781  1.00  0.00    -0.024 A 
ATOM     22  C   UNL A   1      37.277  23.390  25.260  1.00  0.00     0.002 A 
ATOM     23  C   UNL A   1      37.042  20.993  24.995  1.00  0.00    -0.046 A 
ATOM     24  C   UNL A   1      34.758  19.931  24.638  1.00  0.00     0.047 C 
ATOM     25  C   UNL A   1      37.842  22.126  25.213  1.00  0.00     0.004 A 
ATOM     26  C   UNL A   1      37.710  19.644  25.041  1.00  0.00     0.044 C 
ENDBRANCH  17  19
ENDBRANCH  14  17
ENDBRANCH  13  14
ENDBRANCH   5   7
ENDBRANCH   4   5
ENDBRANCH   3   4
ENDBRANCH   2   3
ENDBRANCH   1   2
BRANCH   1  27
ATOM     27  C   UNL A   1      32.109  30.066  26.917  1.00  0.00     0.202 C 
BRANCH  27  28
ATOM     28  C   UNL A   1      32.906  31.337  27.217  1.00  0.00     0.261 C 
BRANCH  28  29
ATOM     29  O   UNL A   1      33.919  31.090  28.219  1.00  0.00    -0.460 OA
BRANCH  29  30
ATOM     30  C   UNL A   1      35.179  31.548  27.943  1.00  0.00     0.338 C 
ATOM     31  O   UNL A   1      35.409  32.638  27.451  1.00  0.00    -0.246 OA
BRANCH  30  32
ATOM     32  C   UNL A   1      36.208  30.567  28.399  1.00  0.00     0.060 A 
ATOM     33  C   UNL A   1      36.176  29.996  29.687  1.00  0.00     0.016 A 
ATOM     34  C   UNL A   1      37.317  30.362  27.585  1.00  0.00     0.016 A 
ATOM     35  C   UNL A   1      37.307  29.333  30.201  1.00  0.00     0.010 A 
ATOM     36  C   UNL A   1      38.453  29.808  28.128  1.00  0.00     0.010 A 
ATOM     37  C   UNL A   1      38.472  29.298  29.438  1.00  0.00    -0.014 A 
BRANCH  37  38
ATOM     38  C   UNL A   1      39.807  28.842  29.850  1.00  0.00     0.031 A 
ATOM     39  C   UNL A   1      40.236  27.506  29.372  1.00  0.00     0.074 A 
ATOM     40  C   UNL A   1      40.732  29.733  30.291  1.00  0.00     0.049 A 
ATOM     41  N   UNL A   1      41.385  26.993  29.620  1.00  0.00    -0.248 NA
ATOM     42  C   UNL A   1      39.394  26.607  28.575  1.00  0.00     0.031 C 
ATOM     43  C   UNL A   1      42.189  29.697  30.126  1.00  0.00     0.029 A 
ATOM     44  N   UNL A   1      40.540  30.919  30.994  1.00  0.00    -0.354 N 
ATOM     45  C   UNL A   1      41.565  25.918  28.786  1.00  0.00     0.074 A 
ATOM     46  C   UNL A   1      40.263  25.650  28.234  1.00  0.00     0.031 C 
ATOM     47  C   UNL A   1      42.759  30.643  30.895  1.00  0.00     0.029 A 
ATOM     48  C   UNL A   1      41.706  31.254  31.690  1.00  0.00     0.049 A 
ATOM     49  H   UNL A   1      39.707  31.444  31.000  1.00  0.00     0.167 HD
ATOM     50  C   UNL A   1      42.835  25.472  28.588  1.00  0.00     0.031 A 
ATOM     51  C   UNL A   1      41.655  31.390  33.043  1.00  0.00     0.031 A 
ATOM     52  C   UNL A   1      43.761  26.148  29.509  1.00  0.00     0.049 A 
ATOM     53  C   UNL A   1      42.390  30.209  33.617  1.00  0.00     0.074 A 
ATOM     54  C   UNL A   1      44.718  27.133  29.349  1.00  0.00     0.029 A 
ATOM     55  N   UNL A   1      43.503  26.072  30.880  1.00  0.00    -0.354 N 
ATOM     56  N   UNL A   1      42.541  29.092  32.955  1.00  0.00    -0.248 NA
ATOM     57  C   UNL A   1      43.147  30.231  34.864  1.00  0.00     0.031 C 
ATOM     58  C   UNL A   1      44.932  27.737  30.628  1.00  0.00     0.029 A 
ATOM     59  C   UNL A   1      44.138  27.090  31.568  1.00  0.00     0.049 A 
ATOM     60  H   UNL A   1      42.943  25.382  31.303  1.00  0.00     0.167 HD
ATOM     61  C   UNL A   1      43.488  28.335  33.562  1.00  0.00     0.074 A 
ATOM     62  C   UNL A   1      43.790  29.051  34.793  1.00  0.00     0.031 C 
ATOM     63  C   UNL A   1      44.004  27.196  33.020  1.00  0.00     0.031 A 
BRANCH  50  64
ATOM     64  C   UNL A   1      43.276  24.561  27.464  1.00  0.00    -0.014 A 
ATOM     65  C   UNL A   1      44.302  23.623  27.703  1.00  0.00     0.010 A 
ATOM     66  C   UNL A   1      42.787  24.614  26.142  1.00  0.00     0.010 A 
ATOM     67  C   UNL A   1      44.804  22.789  26.691  1.00  0.00     0.020 A 
ATOM     68  C   UNL A   1      43.262  23.769  25.124  1.00  0.00     0.020 A 
ATOM     69  C   UNL A   1      44.274  22.862  25.404  1.00  0.00     0.054 A 
BRANCH  69  70
ATOM     70  S   UNL A   1      44.925  21.772  24.111  1.00  0.00     0.124 S 
ATOM     71  O   UNL A   1      46.369  21.928  24.266  1.00  0.00    -0.237 OA
ATOM     72  O   UNL A   1      44.386  20.470  24.495  1.00  0.00    -0.237 OA
ATOM     73  O   UNL A   1      44.373  22.327  22.876  1.00  0.00    -0.744 OA
ENDBRANCH  69  70
ENDBRANCH  50  64
BRANCH  51  74
ATOM     74  C   UNL A   1      40.394  32.078  33.495  1.00  0.00    -0.014 A 
ATOM     75  C   UNL A   1      40.214  33.414  33.048  1.00  0.00     0.010 A 
ATOM     76  C   UNL A   1      39.237  31.346  33.829  1.00  0.00     0.010 A 
ATOM     77  C   UNL A   1      38.937  33.938  32.786  1.00  0.00     0.020 A 
ATOM     78  C   UNL A   1      37.953  31.862  33.550  1.00  0.00     0.020 A 
ATOM     79  C   UNL A   1      37.812  33.137  32.984  1.00  0.00     0.054 A 
BRANCH  79  80
ATOM     80  S   UNL A   1      36.232  33.624  32.182  1.00  0.00     0.124 S 
ATOM     81  O   UNL A   1      36.176  35.057  32.434  1.00  0.00    -0.237 OA
ATOM     82  O   UNL A   1      36.437  33.243  30.782  1.00  0.00    -0.237 OA
ATOM     83  O   UNL A   1      35.243  32.810  32.880  1.00  0.00    -0.744 OA
ENDBRANCH  79  80
ENDBRANCH  51  74
BRANCH  63  84
ATOM     84  C   UNL A   1      44.468  26.073  33.893  1.00  0.00    -0.014 A 
ATOM     85  C   UNL A   1      43.639  24.981  34.202  1.00  0.00     0.010 A 
ATOM     86  C   UNL A   1      45.823  25.996  34.272  1.00  0.00     0.010 A 
ATOM     87  C   UNL A   1      44.109  23.913  34.960  1.00  0.00     0.020 A 
ATOM     88  C   UNL A   1      46.322  24.898  34.968  1.00  0.00     0.020 A 
ATOM     89  C   UNL A   1      45.445  23.886  35.348  1.00  0.00     0.054 A 
BRANCH  89  90
ATOM     90  S   UNL A   1      46.027  22.501  36.343  1.00  0.00     0.124 S 
ATOM     91  O   UNL A   1      45.240  21.399  35.797  1.00  0.00    -0.237 OA
ATOM     92  O   UNL A   1      47.456  22.461  36.040  1.00  0.00    -0.237 OA
ATOM     93  O   UNL A   1      45.697  22.894  37.710  1.00  0.00    -0.744 OA
ENDBRANCH  89  90
ENDBRANCH  63  84
ENDBRANCH  37  38
ENDBRANCH  30  32
ENDBRANCH  29  30
ENDBRANCH  28  29
ENDBRANCH  27  28
ENDBRANCH   1  27
TORSDOF 20
ENDMDL
MODEL 2
REMARK VINA RESULT:     -11.5      1.572      2.355
REMARK SMILES Cc1ccc(S(=O)(=O)N(C)c2cccc(C)c2C)cc1C(=O)OCCOCCOC(=O)c1ccc(-c2c3nc(c(-c4ccc(S(=O)(=O)[O-])cc4)c4ccc([nH]4)c(-c4ccc(S(=O)(=O)[O-])cc4)c4nc(c(-c5ccc(S(=O)(=O)[O-])cc5)c5ccc2[nH]5)C=C4)C=C3)cc1
REMARK SMILES IDX 26 1 25 2 24 3 23 4 21 5 22 6 20 7 1 8 2 9 3 10 4 11 19 12
REMARK SMILES IDX 5 13 6 14 7 15 8 16 9 17 10 18 11 19 12 20 17 21 13 22 15 23
REMARK SMILES IDX 18 24 14 25 16 26 27 27 28 28 29 29 30 30 31 31 32 32 33 33
REMARK SMILES IDX 91 34 34 35 90 36 35 37 36 38 37 39 84 40 38 41 89 42 83 43
REMARK SMILES IDX 85 44 39 45 88 46 82 47 81 48 40 50 70 51 51 52 69 53 52 54
REMARK SMILES IDX 55 55 68 56 86 57 53 58 54 59 67 61 87 62 56 63 41 64 42 65
REMARK SMILES IDX 50 66 43 67 49 68 44 69 45 70 46 71 47 72 48 73 71 74 72 75
REMARK SMILES IDX 80 76 73 77 79 78 74 79 75 80 76 81 77 82 78 83 57 84 58 85
REMARK SMILES IDX 66 86 59 87 65 88 60 89 61 90 62 91 63 92 64 93
REMARK H PARENT 85 49 55 60
REMARK Flexibility Score: inf
ROOT
ATOM      1  O   UNL A   1      31.624  29.089  24.853  1.00  0.00    -0.374 OA
ENDROOT
BRANCH   1   2
ATOM      2  C   UNL A   1      32.693  28.942  23.917  1.00  0.00     0.202 C 
BRANCH   2   3
ATOM      3  C   UNL A   1      33.538  27.849  24.484  1.00  0.00     0.261 C 
BRANCH   3   4
ATOM      4  O   UNL A   1      33.627  26.780  23.535  1.00  0.00    -0.460 OA
BRANCH   4   5
ATOM      5  C   UNL A   1      32.561  25.975  23.366  1.00  0.00     0.338 C 
ATOM      6  O   UNL A   1      31.893  25.806  22.367  1.00  0.00    -0.246 OA
BRANCH   5   7
ATOM      7  C   UNL A   1      32.419  25.137  24.574  1.00  0.00     0.064 A 
ATOM      8  C   UNL A   1      29.971  25.760  25.172  1.00  0.00     0.045 C 
ATOM      9  C   UNL A   1      31.276  25.039  25.393  1.00  0.00    -0.036 A 
ATOM     10  C   UNL A   1      31.370  24.240  26.542  1.00  0.00     0.006 A 
ATOM     11  C   UNL A   1      32.533  23.520  26.829  1.00  0.00     0.022 A 
ATOM     12  C   UNL A   1      33.599  24.438  24.889  1.00  0.00     0.038 A 
ATOM     13  C   UNL A   1      33.648  23.602  25.986  1.00  0.00     0.088 A 
BRANCH  13  14
ATOM     14  S   UNL A   1      35.008  22.509  26.315  1.00  0.00     0.264 S 
ATOM     15  O   UNL A   1      36.142  23.381  26.569  1.00  0.00    -0.201 OA
ATOM     16  O   UNL A   1      34.512  21.631  27.358  1.00  0.00    -0.201 OA
BRANCH  14  17
ATOM     17  N   UNL A   1      35.397  21.553  24.922  1.00  0.00    -0.269 N 
ATOM     18  C   UNL A   1      35.742  22.279  23.662  1.00  0.00     0.164 C 
BRANCH  17  19
ATOM     19  C   UNL A   1      34.417  20.490  24.657  1.00  0.00     0.055 A 
ATOM     20  C   UNL A   1      33.132  20.821  24.196  1.00  0.00     0.027 A 
ATOM     21  C   UNL A   1      34.833  19.137  24.608  1.00  0.00    -0.024 A 
ATOM     22  C   UNL A   1      32.233  19.846  23.782  1.00  0.00     0.002 A 
ATOM     23  C   UNL A   1      33.920  18.146  24.158  1.00  0.00    -0.046 A 
ATOM     24  C   UNL A   1      36.258  18.771  24.941  1.00  0.00     0.047 C 
ATOM     25  C   UNL A   1      32.622  18.516  23.770  1.00  0.00     0.004 A 
ATOM     26  C   UNL A   1      34.301  16.695  24.038  1.00  0.00     0.044 C 
ENDBRANCH  17  19
ENDBRANCH  14  17
ENDBRANCH  13  14
ENDBRANCH   5   7
ENDBRANCH   4   5
ENDBRANCH   3   4
ENDBRANCH   2   3
ENDBRANCH   1   2
BRANCH   1  27
ATOM     27  C   UNL A   1      31.564  30.318  25.534  1.00  0.00     0.202 C 
BRANCH  27  28
ATOM     28  C   UNL A   1      32.298  30.287  26.876  1.00  0.00     0.261 C 
BRANCH  28  29
ATOM     29  O   UNL A   1      33.730  30.367  26.687  1.00  0.00    -0.460 OA
BRANCH  29  30
ATOM     30  C   UNL A   1      34.429  31.105  27.604  1.00  0.00     0.338 C 
ATOM     31  O   UNL A   1      34.112  32.227  27.952  1.00  0.00    -0.246 OA
BRANCH  30  32
ATOM     32  C   UNL A   1      35.568  30.313  28.158  1.00  0.00     0.060 A 
ATOM     33  C   UNL A   1      35.609  29.908  29.506  1.00  0.00     0.016 A 
ATOM     34  C   UNL A   1      36.689  30.138  27.353  1.00  0.00     0.016 A 
ATOM     35  C   UNL A   1      36.812  29.448  30.077  1.00  0.00     0.010 A 
ATOM     36  C   UNL A   1      37.885  29.791  27.939  1.00  0.00     0.010 A 
ATOM     37  C   UNL A   1      37.970  29.454  29.301  1.00  0.00    -0.014 A 
BRANCH  37  38
ATOM     38  C   UNL A   1      39.350  29.209  29.740  1.00  0.00     0.031 A 
ATOM     39  C   UNL A   1      39.980  27.941  29.299  1.00  0.00     0.074 A 
ATOM     40  C   UNL A   1      40.127  30.236  30.172  1.00  0.00     0.049 A 
ATOM     41  N   UNL A   1      41.189  27.610  29.574  1.00  0.00    -0.248 NA
ATOM     42  C   UNL A   1      39.293  26.911  28.513  1.00  0.00     0.031 C 
ATOM     43  C   UNL A   1      41.575  30.414  30.026  1.00  0.00     0.029 A 
ATOM     44  N   UNL A   1      39.749  31.396  30.845  1.00  0.00    -0.354 N 
ATOM     45  C   UNL A   1      41.538  26.556  28.768  1.00  0.00     0.074 A 
ATOM     46  C   UNL A   1      40.300  26.086  28.206  1.00  0.00     0.031 C 
ATOM     47  C   UNL A   1      41.987  31.450  30.779  1.00  0.00     0.029 A 
ATOM     48  C   UNL A   1      40.842  31.915  31.547  1.00  0.00     0.049 A 
ATOM     49  H   UNL A   1      38.848  31.791  30.828  1.00  0.00     0.167 HD
ATOM     50  C   UNL A   1      42.863  26.300  28.597  1.00  0.00     0.031 A 
ATOM     51  C   UNL A   1      40.750  32.071  32.895  1.00  0.00     0.031 A 
ATOM     52  C   UNL A   1      43.664  27.125  29.513  1.00  0.00     0.049 A 
ATOM     53  C   UNL A   1      41.642  31.025  33.506  1.00  0.00     0.074 A 
ATOM     54  C   UNL A   1      44.468  28.237  29.342  1.00  0.00     0.029 A 
ATOM     55  N   UNL A   1      43.399  27.041  30.882  1.00  0.00    -0.354 N 
ATOM     56  N   UNL A   1      41.968  29.928  32.873  1.00  0.00    -0.248 NA
ATOM     57  C   UNL A   1      42.368  31.186  34.762  1.00  0.00     0.031 C 
ATOM     58  C   UNL A   1      44.569  28.893  30.609  1.00  0.00     0.029 A 
ATOM     59  C   UNL A   1      43.865  28.156  31.553  1.00  0.00     0.049 A 
ATOM     60  H   UNL A   1      42.941  26.285  31.314  1.00  0.00     0.167 HD
ATOM     61  C   UNL A   1      43.007  29.333  33.509  1.00  0.00     0.074 A 
ATOM     62  C   UNL A   1      43.180  30.112  34.726  1.00  0.00     0.031 C 
ATOM     63  C   UNL A   1      43.694  28.272  33.000  1.00  0.00     0.031 A 
BRANCH  50  64
ATOM     64  C   UNL A   1      43.453  25.440  27.500  1.00  0.00    -0.014 A 
ATOM     65  C   UNL A   1      43.687  24.072  27.751  1.00  0.00     0.010 A 
ATOM     66  C   UNL A   1      43.864  25.913  26.236  1.00  0.00     0.010 A 
ATOM     67  C   UNL A   1      44.288  23.230  26.801  1.00  0.00     0.020 A 
ATOM     68  C   UNL A   1      44.444  25.077  25.267  1.00  0.00     0.020 A 
ATOM     69  C   UNL A   1      44.658  23.737  25.558  1.00  0.00     0.054 A 
BRANCH  69  70
ATOM     70  S   UNL A   1      45.423  22.635  24.339  1.00  0.00     0.124 S 
ATOM     71  O   UNL A   1      45.736  21.453  25.138  1.00  0.00    -0.237 OA
ATOM     72  O   UNL A   1      44.358  22.467  23.354  1.00  0.00    -0.237 OA
ATOM     73  O   UNL A   1      46.585  23.387  23.869  1.00  0.00    -0.744 OA
ENDBRANCH  69  70
ENDBRANCH  50  64
BRANCH  51  74
ATOM     74  C   UNL A   1      39.394  32.574  33.315  1.00  0.00    -0.014 A 
ATOM     75  C   UNL A   1      39.099  33.925  32.992  1.00  0.00     0.010 A 
ATOM     76  C   UNL A   1      38.305  31.696  33.484  1.00  0.00     0.010 A 
ATOM     77  C   UNL A   1      37.791  34.340  32.685  1.00  0.00     0.020 A 
ATOM     78  C   UNL A   1      36.993  32.105  33.159  1.00  0.00     0.020 A 
ATOM     79  C   UNL A   1      36.751  33.412  32.715  1.00  0.00     0.054 A 
BRANCH  79  80
ATOM     80  S   UNL A   1      35.184  33.818  31.845  1.00  0.00     0.124 S 
ATOM     81  O   UNL A   1      34.312  32.716  32.230  1.00  0.00    -0.237 OA
ATOM     82  O   UNL A   1      34.822  35.124  32.401  1.00  0.00    -0.237 OA
ATOM     83  O   UNL A   1      35.586  33.859  30.443  1.00  0.00    -0.744 OA
ENDBRANCH  79  80
ENDBRANCH  51  74
BRANCH  63  84
ATOM     84  C   UNL A   1      44.305  27.249  33.906  1.00  0.00    -0.014 A 
ATOM     85  C   UNL A   1      45.625  27.363  34.371  1.00  0.00     0.010 A 
ATOM     86  C   UNL A   1      43.496  26.240  34.467  1.00  0.00     0.010 A 
ATOM     87  C   UNL A   1      46.156  26.439  35.266  1.00  0.00     0.020 A 
ATOM     88  C   UNL A   1      43.996  25.354  35.418  1.00  0.00     0.020 A 
ATOM     89  C   UNL A   1      45.338  25.433  35.773  1.00  0.00     0.054 A 
BRANCH  89  90
ATOM     90  S   UNL A   1      46.051  24.237  36.918  1.00  0.00     0.124 S 
ATOM     91  O   UNL A   1      46.388  23.138  36.017  1.00  0.00    -0.237 OA
ATOM     92  O   UNL A   1      47.190  24.961  37.477  1.00  0.00    -0.237 OA
ATOM     93  O   UNL A   1      44.967  23.969  37.858  1.00  0.00    -0.744 OA
ENDBRANCH  89  90
ENDBRANCH  63  84
ENDBRANCH  37  38
ENDBRANCH  30  32
ENDBRANCH  29  30
ENDBRANCH  28  29
ENDBRANCH  27  28
ENDBRANCH   1  27
TORSDOF 20
ENDMDL
MODEL 3
REMARK VINA RESULT:     -11.5      1.235      1.869
REMARK SMILES Cc1ccc(S(=O)(=O)N(C)c2cccc(C)c2C)cc1C(=O)OCCOCCOC(=O)c1ccc(-c2c3nc(c(-c4ccc(S(=O)(=O)[O-])cc4)c4ccc([nH]4)c(-c4ccc(S(=O)(=O)[O-])cc4)c4nc(c(-c5ccc(S(=O)(=O)[O-])cc5)c5ccc2[nH]5)C=C4)C=C3)cc1
REMARK SMILES IDX 26 1 25 2 24 3 23 4 21 5 22 6 20 7 1 8 2 9 3 10 4 11 19 12
REMARK SMILES IDX 5 13 6 14 7 15 8 16 9 17 10 18 11 19 12 20 17 21 13 22 15 23
REMARK SMILES IDX 18 24 14 25 16 26 27 27 28 28 29 29 30 30 31 31 32 32 33 33
REMARK SMILES IDX 91 34 34 35 90 36 35 37 36 38 37 39 84 40 38 41 89 42 83 43
REMARK SMILES IDX 85 44 39 45 88 46 82 47 81 48 40 50 70 51 51 52 69 53 52 54
REMARK SMILES IDX 55 55 68 56 86 57 53 58 54 59 67 61 87 62 56 63 41 64 42 65
REMARK SMILES IDX 50 66 43 67 49 68 44 69 45 70 46 71 47 72 48 73 71 74 72 75
REMARK SMILES IDX 80 76 73 77 79 78 74 79 75 80 76 81 77 82 78 83 57 84 58 85
REMARK SMILES IDX 66 86 59 87 65 88 60 89 61 90 62 91 63 92 64 93
REMARK H PARENT 85 49 55 60
REMARK Flexibility Score: inf
ROOT
ATOM      1  O   UNL A   1      31.728  28.913  27.131  1.00  0.00    -0.374 OA
ENDROOT
BRANCH   1   2
ATOM      2  C   UNL A   1      31.454  27.664  26.495  1.00  0.00     0.202 C 
BRANCH   2   3
ATOM      3  C   UNL A   1      32.690  27.364  25.713  1.00  0.00     0.261 C 
BRANCH   3   4
ATOM      4  O   UNL A   1      32.359  27.269  24.323  1.00  0.00    -0.460 OA
BRANCH   4   5
ATOM      5  C   UNL A   1      32.947  26.311  23.582  1.00  0.00     0.338 C 
ATOM      6  O   UNL A   1      33.796  26.435  22.724  1.00  0.00    -0.246 OA
BRANCH   5   7
ATOM      7  C   UNL A   1      32.533  24.997  24.114  1.00  0.00     0.064 A 
ATOM      8  C   UNL A   1      29.964  25.306  23.904  1.00  0.00     0.045 C 
ATOM      9  C   UNL A   1      31.209  24.540  24.272  1.00  0.00    -0.036 A 
ATOM     10  C   UNL A   1      31.025  23.283  24.866  1.00  0.00     0.006 A 
ATOM     11  C   UNL A   1      32.116  22.489  25.231  1.00  0.00     0.022 A 
ATOM     12  C   UNL A   1      33.625  24.207  24.516  1.00  0.00     0.038 A 
ATOM     13  C   UNL A   1      33.426  22.944  25.035  1.00  0.00     0.088 A 
BRANCH  13  14
ATOM     14  S   UNL A   1      34.747  21.800  25.342  1.00  0.00     0.264 S 
ATOM     15  O   UNL A   1      34.849  21.716  26.789  1.00  0.00    -0.201 OA
ATOM     16  O   UNL A   1      34.389  20.628  24.565  1.00  0.00    -0.201 OA
BRANCH  14  17
ATOM     17  N   UNL A   1      36.259  22.413  24.756  1.00  0.00    -0.269 N 
ATOM     18  C   UNL A   1      36.404  22.594  23.280  1.00  0.00     0.164 C 
BRANCH  17  19
ATOM     19  C   UNL A   1      37.424  21.706  25.309  1.00  0.00     0.055 A 
ATOM     20  C   UNL A   1      37.706  20.392  24.898  1.00  0.00     0.027 A 
ATOM     21  C   UNL A   1      38.404  22.418  26.042  1.00  0.00    -0.024 A 
ATOM     22  C   UNL A   1      38.881  19.750  25.271  1.00  0.00     0.002 A 
ATOM     23  C   UNL A   1      39.615  21.766  26.398  1.00  0.00    -0.046 A 
ATOM     24  C   UNL A   1      38.199  23.880  26.357  1.00  0.00     0.047 C 
ATOM     25  C   UNL A   1      39.826  20.430  26.022  1.00  0.00     0.004 A 
ATOM     26  C   UNL A   1      40.721  22.468  27.140  1.00  0.00     0.044 C 
ENDBRANCH  17  19
ENDBRANCH  14  17
ENDBRANCH  13  14
ENDBRANCH   5   7
ENDBRANCH   4   5
ENDBRANCH   3   4
ENDBRANCH   2   3
ENDBRANCH   1   2
BRANCH   1  27
ATOM     27  C   UNL A   1      31.685  30.050  26.304  1.00  0.00     0.202 C 
BRANCH  27  28
ATOM     28  C   UNL A   1      32.719  31.108  26.696  1.00  0.00     0.261 C 
BRANCH  28  29
ATOM     29  O   UNL A   1      33.688  30.567  27.623  1.00  0.00    -0.460 OA
BRANCH  29  30
ATOM     30  C   UNL A   1      34.853  31.271  27.771  1.00  0.00     0.338 C 
ATOM     31  O   UNL A   1      34.955  32.465  27.552  1.00  0.00    -0.246 OA
BRANCH  30  32
ATOM     32  C   UNL A   1      35.936  30.391  28.305  1.00  0.00     0.060 A 
ATOM     33  C   UNL A   1      35.903  29.882  29.618  1.00  0.00     0.016 A 
ATOM     34  C   UNL A   1      37.082  30.231  27.534  1.00  0.00     0.016 A 
ATOM     35  C   UNL A   1      37.062  29.329  30.198  1.00  0.00     0.010 A 
ATOM     36  C   UNL A   1      38.237  29.789  28.138  1.00  0.00     0.010 A 
ATOM     37  C   UNL A   1      38.251  29.345  29.471  1.00  0.00    -0.014 A 
BRANCH  37  38
ATOM     38  C   UNL A   1      39.601  29.009  29.943  1.00  0.00     0.031 A 
ATOM     39  C   UNL A   1      40.182  27.733  29.461  1.00  0.00     0.074 A 
ATOM     40  C   UNL A   1      40.411  29.972  30.452  1.00  0.00     0.049 A 
ATOM     41  N   UNL A   1      41.362  27.327  29.759  1.00  0.00    -0.248 NA
ATOM     42  C   UNL A   1      39.473  26.779  28.601  1.00  0.00     0.031 C 
ATOM     43  C   UNL A   1      41.871  30.082  30.363  1.00  0.00     0.029 A 
ATOM     44  N   UNL A   1      40.068  31.116  31.169  1.00  0.00    -0.354 N 
ATOM     45  C   UNL A   1      41.687  26.296  28.913  1.00  0.00     0.074 A 
ATOM     46  C   UNL A   1      40.448  25.919  28.286  1.00  0.00     0.031 C 
ATOM     47  C   UNL A   1      42.306  31.058  31.181  1.00  0.00     0.029 A 
ATOM     48  C   UNL A   1      41.159  31.543  31.933  1.00  0.00     0.049 A 
ATOM     49  H   UNL A   1      39.189  31.557  31.142  1.00  0.00     0.167 HD
ATOM     50  C   UNL A   1      43.003  25.981  28.773  1.00  0.00     0.031 A 
ATOM     51  C   UNL A   1      41.026  31.638  33.283  1.00  0.00     0.031 A 
ATOM     52  C   UNL A   1      43.811  26.718  29.756  1.00  0.00     0.049 A 
ATOM     53  C   UNL A   1      41.843  30.519  33.870  1.00  0.00     0.074 A 
ATOM     54  C   UNL A   1      44.675  27.795  29.668  1.00  0.00     0.029 A 
ATOM     55  N   UNL A   1      43.493  26.582  31.109  1.00  0.00    -0.354 N 
ATOM     56  N   UNL A   1      42.137  29.439  33.194  1.00  0.00    -0.248 NA
ATOM     57  C   UNL A   1      42.531  30.581  35.156  1.00  0.00     0.031 C 
ATOM     58  C   UNL A   1      44.763  28.382  30.969  1.00  0.00     0.029 A 
ATOM     59  C   UNL A   1      43.989  27.638  31.851  1.00  0.00     0.049 A 
ATOM     60  H   UNL A   1      42.982  25.830  31.487  1.00  0.00     0.167 HD
ATOM     61  C   UNL A   1      43.121  28.761  33.834  1.00  0.00     0.074 A 
ATOM     62  C   UNL A   1      43.288  29.471  35.094  1.00  0.00     0.031 C 
ATOM     63  C   UNL A   1      43.772  27.692  33.296  1.00  0.00     0.031 A 
BRANCH  50  64
ATOM     64  C   UNL A   1      43.588  25.146  27.655  1.00  0.00    -0.014 A 
ATOM     65  C   UNL A   1      44.749  24.383  27.902  1.00  0.00     0.010 A 
ATOM     66  C   UNL A   1      43.102  25.115  26.331  1.00  0.00     0.010 A 
ATOM     67  C   UNL A   1      45.380  23.635  26.895  1.00  0.00     0.020 A 
ATOM     68  C   UNL A   1      43.709  24.351  25.319  1.00  0.00     0.020 A 
ATOM     69  C   UNL A   1      44.851  23.617  25.607  1.00  0.00     0.054 A 
BRANCH  69  70
ATOM     70  S   UNL A   1      45.671  22.638  24.321  1.00  0.00     0.124 S 
ATOM     71  O   UNL A   1      46.255  21.541  25.088  1.00  0.00    -0.237 OA
ATOM     72  O   UNL A   1      44.561  22.275  23.444  1.00  0.00    -0.237 OA
ATOM     73  O   UNL A   1      46.639  23.567  23.739  1.00  0.00    -0.744 OA
ENDBRANCH  69  70
ENDBRANCH  50  64
BRANCH  51  74
ATOM     74  C   UNL A   1      39.683  32.190  33.682  1.00  0.00    -0.014 A 
ATOM     75  C   UNL A   1      39.456  33.560  33.390  1.00  0.00     0.010 A 
ATOM     76  C   UNL A   1      38.553  31.356  33.798  1.00  0.00     0.010 A 
ATOM     77  C   UNL A   1      38.177  34.042  33.061  1.00  0.00     0.020 A 
ATOM     78  C   UNL A   1      37.269  31.833  33.451  1.00  0.00     0.020 A 
ATOM     79  C   UNL A   1      37.097  33.160  33.038  1.00  0.00     0.054 A 
BRANCH  79  80
ATOM     80  S   UNL A   1      35.573  33.660  32.140  1.00  0.00     0.124 S 
ATOM     81  O   UNL A   1      35.196  34.893  32.817  1.00  0.00    -0.237 OA
ATOM     82  O   UNL A   1      36.036  33.820  30.760  1.00  0.00    -0.237 OA
ATOM     83  O   UNL A   1      34.684  32.520  32.341  1.00  0.00    -0.744 OA
ENDBRANCH  79  80
ENDBRANCH  51  74
BRANCH  63  84
ATOM     84  C   UNL A   1      44.298  26.597  34.169  1.00  0.00    -0.014 A 
ATOM     85  C   UNL A   1      43.465  25.587  34.678  1.00  0.00     0.010 A 
ATOM     86  C   UNL A   1      45.689  26.448  34.343  1.00  0.00     0.010 A 
ATOM     87  C   UNL A   1      43.982  24.538  35.432  1.00  0.00     0.020 A 
ATOM     88  C   UNL A   1      46.224  25.364  35.034  1.00  0.00     0.020 A 
ATOM     89  C   UNL A   1      45.359  24.442  35.615  1.00  0.00     0.054 A 
BRANCH  89  90
ATOM     90  S   UNL A   1      46.005  23.085  36.609  1.00  0.00     0.124 S 
ATOM     91  O   UNL A   1      45.433  23.387  37.919  1.00  0.00    -0.237 OA
ATOM     92  O   UNL A   1      45.458  21.905  35.943  1.00  0.00    -0.237 OA
ATOM     93  O   UNL A   1      47.453  23.239  36.504  1.00  0.00    -0.744 OA
ENDBRANCH  89  90
ENDBRANCH  63  84
ENDBRANCH  37  38
ENDBRANCH  30  32
ENDBRANCH  29  30
ENDBRANCH  28  29
ENDBRANCH  27  28
ENDBRANCH   1  27
TORSDOF 20
ENDMDL
