MODEL 1
REMARK VINA RESULT:     -10.6      0.000      0.000
REMARK SMILES CCn1cnc(S(=O)(=O)N[C@]2(C(=O)OCCOCCOC(=O)c3ccc(-c4c5nc(c(-c6ccc(S(=O)(=O)[O-])cc6)c6ccc([nH]6)c(-c6ccc(S(=O)(=O)[O-])cc6)c6nc(c(-c7ccc(S(=O)(=O)[O-])cc7)c7ccc4[nH]7)C=C6)C=C5)cc3)CCSC2)c1
REMARK SMILES IDX 16 1 15 2 14 3 12 4 13 5 11 6 83 7 86 8 84 9 85 10 10 11
REMARK SMILES IDX 7 13 8 14 9 15 6 16 3 17 4 18 87 19 5 20 2 21 1 22 17 23
REMARK SMILES IDX 18 24 19 25 20 26 21 27 22 28 23 29 24 30 82 31 25 32 81 33
REMARK SMILES IDX 26 34 27 35 28 36 75 37 29 38 80 39 74 40 76 41 30 42 79 43
REMARK SMILES IDX 73 44 72 45 31 47 61 48 42 49 60 50 43 51 46 52 59 53 77 54
REMARK SMILES IDX 44 55 45 56 58 58 78 59 47 60 32 61 33 62 41 63 34 64 40 65
REMARK SMILES IDX 35 66 36 67 37 68 38 69 39 70 62 71 63 72 71 73 64 74 70 75
REMARK SMILES IDX 65 76 66 77 67 78 68 79 69 80 48 81 49 82 57 83 50 84 56 85
REMARK SMILES IDX 51 86 52 87 53 88 54 89 55 90
REMARK H PARENT 10 12 76 46 46 57
REMARK Flexibility Score: inf
ROOT
ATOM      1  C   UNL A   1      36.605  23.314  23.844  1.00  0.00     0.202 C 
ENDROOT
BRANCH   1   2
ATOM      2  C   UNL A   1      35.100  23.517  24.033  1.00  0.00     0.261 C 
BRANCH   2   3
ATOM      3  O   UNL A   1      34.729  24.839  24.466  1.00  0.00    -0.462 OA
BRANCH   3   4
ATOM      4  C   UNL A   1      33.879  25.476  23.619  1.00  0.00     0.328 C 
ATOM      5  O   UNL A   1      33.872  25.269  22.411  1.00  0.00    -0.250 OA
BRANCH   4   6
ATOM      6  C   UNL A   1      32.890  26.433  24.310  1.00  0.00     0.140 C 
ATOM      7  C   UNL A   1      33.522  27.791  24.668  1.00  0.00     0.047 C 
ATOM      8  C   UNL A   1      31.760  26.748  23.328  1.00  0.00     0.105 C 
ATOM      9  C   UNL A   1      32.372  28.724  25.019  1.00  0.00     0.072 C 
ATOM     10  S   UNL A   1      31.148  28.413  23.726  1.00  0.00    -0.159 SA
BRANCH   6  11
ATOM     11  N   UNL A   1      32.526  25.787  25.614  1.00  0.00    -0.191 NA
ATOM     12  H   UNL A   1      33.367  25.287  25.905  1.00  0.00     0.142 HD
BRANCH  11  13
ATOM     13  S   UNL A   1      31.272  24.715  25.886  1.00  0.00     0.260 S 
ATOM     14  O   UNL A   1      30.064  25.335  25.392  1.00  0.00    -0.205 OA
ATOM     15  O   UNL A   1      31.412  24.313  27.270  1.00  0.00    -0.205 OA
BRANCH  13  16
ATOM     16  C   UNL A   1      31.446  23.233  24.980  1.00  0.00     0.188 A 
ATOM     17  N   UNL A   1      32.209  21.289  24.353  1.00  0.00    -0.336 N 
ATOM     18  C   UNL A   1      31.733  21.964  23.269  1.00  0.00     0.201 A 
ATOM     19  C   UNL A   1      31.856  22.007  25.465  1.00  0.00     0.129 A 
ATOM     20  N   UNL A   1      31.297  23.157  23.604  1.00  0.00    -0.224 NA
BRANCH  17  21
ATOM     21  C   UNL A   1      33.122  20.163  24.364  1.00  0.00     0.120 C 
ATOM     22  C   UNL A   1      32.551  18.848  23.861  1.00  0.00     0.027 C 
ENDBRANCH  17  21
ENDBRANCH  13  16
ENDBRANCH  11  13
ENDBRANCH   6  11
ENDBRANCH   4   6
ENDBRANCH   3   4
ENDBRANCH   2   3
ENDBRANCH   1   2
BRANCH   1  23
ATOM     23  O   UNL A   1      37.149  22.002  23.964  1.00  0.00    -0.374 OA
BRANCH  23  24
ATOM     24  C   UNL A   1      37.462  21.440  25.234  1.00  0.00     0.202 C 
BRANCH  24  25
ATOM     25  C   UNL A   1      38.878  21.557  25.775  1.00  0.00     0.261 C 
BRANCH  25  26
ATOM     26  O   UNL A   1      39.060  22.782  26.462  1.00  0.00    -0.460 OA
BRANCH  26  27
ATOM     27  C   UNL A   1      40.193  22.818  27.206  1.00  0.00     0.338 C 
ATOM     28  O   UNL A   1      40.667  21.916  27.862  1.00  0.00    -0.246 OA
BRANCH  27  29
ATOM     29  C   UNL A   1      40.702  24.192  27.195  1.00  0.00     0.060 A 
ATOM     30  C   UNL A   1      41.739  24.437  28.091  1.00  0.00     0.016 A 
ATOM     31  C   UNL A   1      39.941  25.220  26.617  1.00  0.00     0.016 A 
ATOM     32  C   UNL A   1      41.810  25.689  28.645  1.00  0.00     0.010 A 
ATOM     33  C   UNL A   1      40.012  26.470  27.175  1.00  0.00     0.010 A 
ATOM     34  C   UNL A   1      40.869  26.650  28.255  1.00  0.00    -0.014 A 
BRANCH  34  35
ATOM     35  C   UNL A   1      40.897  27.916  28.942  1.00  0.00     0.031 A 
ATOM     36  C   UNL A   1      42.010  28.744  28.459  1.00  0.00     0.074 A 
ATOM     37  C   UNL A   1      39.988  28.284  29.861  1.00  0.00     0.049 A 
ATOM     38  N   UNL A   1      43.186  28.838  28.984  1.00  0.00    -0.248 NA
ATOM     39  C   UNL A   1      41.906  29.293  27.097  1.00  0.00     0.031 C 
ATOM     40  C   UNL A   1      38.707  27.645  30.176  1.00  0.00     0.029 A 
ATOM     41  N   UNL A   1      39.985  29.386  30.653  1.00  0.00    -0.354 N 
ATOM     42  C   UNL A   1      43.867  29.713  28.152  1.00  0.00     0.074 A 
ATOM     43  C   UNL A   1      43.157  29.712  26.900  1.00  0.00     0.031 C 
ATOM     44  C   UNL A   1      37.953  28.501  30.908  1.00  0.00     0.029 A 
ATOM     45  C   UNL A   1      38.759  29.666  31.241  1.00  0.00     0.049 A 
ATOM     46  H   UNL A   1      40.785  29.941  30.799  1.00  0.00     0.167 HD
ATOM     47  C   UNL A   1      44.692  30.656  28.683  1.00  0.00     0.031 A 
ATOM     48  C   UNL A   1      38.435  30.807  31.900  1.00  0.00     0.031 A 
ATOM     49  C   UNL A   1      44.966  30.386  30.071  1.00  0.00     0.049 A 
ATOM     50  C   UNL A   1      39.707  31.421  32.352  1.00  0.00     0.074 A 
ATOM     51  C   UNL A   1      45.701  29.469  30.790  1.00  0.00     0.029 A 
ATOM     52  N   UNL A   1      44.045  30.937  30.928  1.00  0.00    -0.354 N 
ATOM     53  N   UNL A   1      40.500  30.857  33.222  1.00  0.00    -0.248 NA
ATOM     54  C   UNL A   1      40.314  32.483  31.557  1.00  0.00     0.031 C 
ATOM     55  C   UNL A   1      45.052  29.349  32.055  1.00  0.00     0.029 A 
ATOM     56  C   UNL A   1      43.970  30.229  32.096  1.00  0.00     0.049 A 
ATOM     57  H   UNL A   1      43.507  31.737  30.726  1.00  0.00     0.167 HD
ATOM     58  C   UNL A   1      41.776  31.182  32.795  1.00  0.00     0.074 A 
ATOM     59  C   UNL A   1      41.598  32.304  31.881  1.00  0.00     0.031 C 
ATOM     60  C   UNL A   1      42.818  30.319  32.974  1.00  0.00     0.031 A 
BRANCH  47  61
ATOM     61  C   UNL A   1      44.773  32.067  28.141  1.00  0.00    -0.014 A 
ATOM     62  C   UNL A   1      46.043  32.614  27.876  1.00  0.00     0.010 A 
ATOM     63  C   UNL A   1      43.684  32.965  28.157  1.00  0.00     0.010 A 
ATOM     64  C   UNL A   1      46.213  33.991  27.677  1.00  0.00     0.020 A 
ATOM     65  C   UNL A   1      43.836  34.330  27.922  1.00  0.00     0.020 A 
ATOM     66  C   UNL A   1      45.105  34.840  27.706  1.00  0.00     0.054 A 
BRANCH  66  67
ATOM     67  S   UNL A   1      45.337  36.621  27.510  1.00  0.00     0.124 S 
ATOM     68  O   UNL A   1      44.088  37.020  26.870  1.00  0.00    -0.237 OA
ATOM     69  O   UNL A   1      45.515  37.059  28.891  1.00  0.00    -0.237 OA
ATOM     70  O   UNL A   1      46.532  36.719  26.673  1.00  0.00    -0.744 OA
ENDBRANCH  66  67
ENDBRANCH  47  61
BRANCH  48  71
ATOM     71  C   UNL A   1      37.157  31.561  31.850  1.00  0.00    -0.014 A 
ATOM     72  C   UNL A   1      36.506  31.966  33.031  1.00  0.00     0.010 A 
ATOM     73  C   UNL A   1      36.739  32.149  30.638  1.00  0.00     0.010 A 
ATOM     74  C   UNL A   1      35.524  32.972  33.009  1.00  0.00     0.020 A 
ATOM     75  C   UNL A   1      35.758  33.149  30.608  1.00  0.00     0.020 A 
ATOM     76  C   UNL A   1      35.173  33.574  31.798  1.00  0.00     0.054 A 
BRANCH  76  77
ATOM     77  S   UNL A   1      34.041  34.999  31.800  1.00  0.00     0.124 S 
ATOM     78  O   UNL A   1      34.800  35.995  32.550  1.00  0.00    -0.237 OA
ATOM     79  O   UNL A   1      33.873  35.273  30.377  1.00  0.00    -0.237 OA
ATOM     80  O   UNL A   1      32.849  34.490  32.476  1.00  0.00    -0.744 OA
ENDBRANCH  76  77
ENDBRANCH  48  71
BRANCH  60  81
ATOM     81  C   UNL A   1      42.713  29.308  34.083  1.00  0.00    -0.014 A 
ATOM     82  C   UNL A   1      42.694  29.616  35.457  1.00  0.00     0.010 A 
ATOM     83  C   UNL A   1      42.530  27.970  33.689  1.00  0.00     0.010 A 
ATOM     84  C   UNL A   1      42.510  28.600  36.409  1.00  0.00     0.020 A 
ATOM     85  C   UNL A   1      42.330  26.961  34.629  1.00  0.00     0.020 A 
ATOM     86  C   UNL A   1      42.329  27.278  35.986  1.00  0.00     0.054 A 
BRANCH  86  87
ATOM     87  S   UNL A   1      42.055  25.968  37.213  1.00  0.00     0.124 S 
ATOM     88  O   UNL A   1      40.679  26.211  37.633  1.00  0.00    -0.237 OA
ATOM     89  O   UNL A   1      42.274  24.749  36.439  1.00  0.00    -0.237 OA
ATOM     90  O   UNL A   1      43.069  26.232  38.235  1.00  0.00    -0.744 OA
ENDBRANCH  86  87
ENDBRANCH  60  81
ENDBRANCH  34  35
ENDBRANCH  27  29
ENDBRANCH  26  27
ENDBRANCH  25  26
ENDBRANCH  24  25
ENDBRANCH  23  24
ENDBRANCH   1  23
TORSDOF 21
ENDMDL
MODEL 2
REMARK VINA RESULT:     -10.3      1.550      3.207
REMARK SMILES CCn1cnc(S(=O)(=O)N[C@]2(C(=O)OCCOCCOC(=O)c3ccc(-c4c5nc(c(-c6ccc(S(=O)(=O)[O-])cc6)c6ccc([nH]6)c(-c6ccc(S(=O)(=O)[O-])cc6)c6nc(c(-c7ccc(S(=O)(=O)[O-])cc7)c7ccc4[nH]7)C=C6)C=C5)cc3)CCSC2)c1
REMARK SMILES IDX 16 1 15 2 14 3 12 4 13 5 11 6 83 7 86 8 84 9 85 10 10 11
REMARK SMILES IDX 7 13 8 14 9 15 6 16 3 17 4 18 87 19 5 20 2 21 1 22 17 23
REMARK SMILES IDX 18 24 19 25 20 26 21 27 22 28 23 29 24 30 82 31 25 32 81 33
REMARK SMILES IDX 26 34 27 35 28 36 75 37 29 38 80 39 74 40 76 41 30 42 79 43
REMARK SMILES IDX 73 44 72 45 31 47 61 48 42 49 60 50 43 51 46 52 59 53 77 54
REMARK SMILES IDX 44 55 45 56 58 58 78 59 47 60 32 61 33 62 41 63 34 64 40 65
REMARK SMILES IDX 35 66 36 67 37 68 38 69 39 70 62 71 63 72 71 73 64 74 70 75
REMARK SMILES IDX 65 76 66 77 67 78 68 79 69 80 48 81 49 82 57 83 50 84 56 85
REMARK SMILES IDX 51 86 52 87 53 88 54 89 55 90
REMARK H PARENT 10 12 76 46 46 57
REMARK Flexibility Score: inf
ROOT
ATOM      1  C   UNL A   1      36.324  23.242  23.911  1.00  0.00     0.202 C 
ENDROOT
BRANCH   1   2
ATOM      2  C   UNL A   1      35.603  24.094  24.958  1.00  0.00     0.261 C 
BRANCH   2   3
ATOM      3  O   UNL A   1      34.684  25.058  24.409  1.00  0.00    -0.462 OA
BRANCH   3   4
ATOM      4  C   UNL A   1      33.592  25.279  25.186  1.00  0.00     0.328 C 
ATOM      5  O   UNL A   1      33.543  24.950  26.365  1.00  0.00    -0.250 OA
BRANCH   4   6
ATOM      6  C   UNL A   1      32.448  26.028  24.477  1.00  0.00     0.140 C 
ATOM      7  C   UNL A   1      31.745  25.172  23.407  1.00  0.00     0.047 C 
ATOM      8  C   UNL A   1      31.374  26.359  25.515  1.00  0.00     0.105 C 
ATOM      9  C   UNL A   1      30.458  25.901  23.047  1.00  0.00     0.072 C 
ATOM     10  S   UNL A   1      29.778  26.401  24.646  1.00  0.00    -0.159 SA
BRANCH   6  11
ATOM     11  N   UNL A   1      33.088  27.168  23.742  1.00  0.00    -0.191 NA
ATOM     12  H   UNL A   1      34.089  26.966  23.760  1.00  0.00     0.142 HD
BRANCH  11  13
ATOM     13  S   UNL A   1      32.970  28.794  24.115  1.00  0.00     0.260 S 
ATOM     14  O   UNL A   1      31.576  29.158  24.004  1.00  0.00    -0.205 OA
ATOM     15  O   UNL A   1      33.994  29.439  23.320  1.00  0.00    -0.205 OA
BRANCH  13  16
ATOM     16  C   UNL A   1      33.418  29.138  25.768  1.00  0.00     0.188 A 
ATOM     17  N   UNL A   1      33.930  30.265  27.563  1.00  0.00    -0.336 N 
ATOM     18  C   UNL A   1      34.580  29.067  27.574  1.00  0.00     0.201 A 
ATOM     19  C   UNL A   1      33.045  30.235  26.517  1.00  0.00     0.129 A 
ATOM     20  N   UNL A   1      34.324  28.375  26.488  1.00  0.00    -0.224 NA
BRANCH  17  21
ATOM     21  C   UNL A   1      34.247  31.453  28.329  1.00  0.00     0.120 C 
ATOM     22  C   UNL A   1      35.348  32.330  27.757  1.00  0.00     0.027 C 
ENDBRANCH  17  21
ENDBRANCH  13  16
ENDBRANCH  11  13
ENDBRANCH   6  11
ENDBRANCH   4   6
ENDBRANCH   3   4
ENDBRANCH   2   3
ENDBRANCH   1   2
BRANCH   1  23
ATOM     23  O   UNL A   1      36.548  21.860  24.175  1.00  0.00    -0.374 OA
BRANCH  23  24
ATOM     24  C   UNL A   1      37.040  21.413  25.434  1.00  0.00     0.202 C 
BRANCH  24  25
ATOM     25  C   UNL A   1      38.534  21.450  25.709  1.00  0.00     0.261 C 
BRANCH  25  26
ATOM     26  O   UNL A   1      38.917  22.691  26.275  1.00  0.00    -0.460 OA
BRANCH  26  27
ATOM     27  C   UNL A   1      40.018  22.606  27.063  1.00  0.00     0.338 C 
ATOM     28  O   UNL A   1      40.366  21.660  27.735  1.00  0.00    -0.246 OA
BRANCH  27  29
ATOM     29  C   UNL A   1      40.673  23.917  27.072  1.00  0.00     0.060 A 
ATOM     30  C   UNL A   1      41.629  24.084  28.072  1.00  0.00     0.016 A 
ATOM     31  C   UNL A   1      40.096  24.998  26.388  1.00  0.00     0.016 A 
ATOM     32  C   UNL A   1      41.776  25.341  28.597  1.00  0.00     0.010 A 
ATOM     33  C   UNL A   1      40.242  26.253  26.918  1.00  0.00     0.010 A 
ATOM     34  C   UNL A   1      40.994  26.381  28.080  1.00  0.00    -0.014 A 
BRANCH  34  35
ATOM     35  C   UNL A   1      41.086  27.662  28.734  1.00  0.00     0.031 A 
ATOM     36  C   UNL A   1      42.270  28.398  28.269  1.00  0.00     0.074 A 
ATOM     37  C   UNL A   1      40.175  28.118  29.610  1.00  0.00     0.049 A 
ATOM     38  N   UNL A   1      43.431  28.426  28.831  1.00  0.00    -0.248 NA
ATOM     39  C   UNL A   1      42.249  28.912  26.889  1.00  0.00     0.031 C 
ATOM     40  C   UNL A   1      38.843  27.578  29.897  1.00  0.00     0.029 A 
ATOM     41  N   UNL A   1      40.222  29.241  30.372  1.00  0.00    -0.354 N 
ATOM     42  C   UNL A   1      44.199  29.228  28.001  1.00  0.00     0.074 A 
ATOM     43  C   UNL A   1      43.532  29.239  26.725  1.00  0.00     0.031 C 
ATOM     44  C   UNL A   1      38.126  28.505  30.578  1.00  0.00     0.029 A 
ATOM     45  C   UNL A   1      38.999  29.621  30.908  1.00  0.00     0.049 A 
ATOM     46  H   UNL A   1      41.053  29.744  30.531  1.00  0.00     0.167 HD
ATOM     47  C   UNL A   1      45.069  30.128  28.534  1.00  0.00     0.031 A 
ATOM     48  C   UNL A   1      38.734  30.800  31.524  1.00  0.00     0.031 A 
ATOM     49  C   UNL A   1      45.277  29.880  29.939  1.00  0.00     0.049 A 
ATOM     50  C   UNL A   1      40.029  31.339  32.004  1.00  0.00     0.074 A 
ATOM     51  C   UNL A   1      45.922  28.937  30.707  1.00  0.00     0.029 A 
ATOM     52  N   UNL A   1      44.368  30.519  30.747  1.00  0.00    -0.354 N 
ATOM     53  N   UNL A   1      40.752  30.748  32.916  1.00  0.00    -0.248 NA
ATOM     54  C   UNL A   1      40.734  32.333  31.202  1.00  0.00     0.031 C 
ATOM     55  C   UNL A   1      45.225  28.899  31.952  1.00  0.00     0.029 A 
ATOM     56  C   UNL A   1      44.206  29.852  31.931  1.00  0.00     0.049 A 
ATOM     57  H   UNL A   1      43.894  31.347  30.505  1.00  0.00     0.167 HD
ATOM     58  C   UNL A   1      42.061  30.972  32.526  1.00  0.00     0.074 A 
ATOM     59  C   UNL A   1      41.991  32.077  31.576  1.00  0.00     0.031 C 
ATOM     60  C   UNL A   1      43.034  30.046  32.764  1.00  0.00     0.031 A 
BRANCH  47  61
ATOM     61  C   UNL A   1      45.265  31.513  27.958  1.00  0.00    -0.014 A 
ATOM     62  C   UNL A   1      46.575  32.016  27.847  1.00  0.00     0.010 A 
ATOM     63  C   UNL A   1      44.212  32.439  27.794  1.00  0.00     0.010 A 
ATOM     64  C   UNL A   1      46.813  33.380  27.624  1.00  0.00     0.020 A 
ATOM     65  C   UNL A   1      44.436  33.789  27.532  1.00  0.00     0.020 A 
ATOM     66  C   UNL A   1      45.738  34.257  27.472  1.00  0.00     0.054 A 
BRANCH  66  67
ATOM     67  S   UNL A   1      46.049  36.022  27.245  1.00  0.00     0.124 S 
ATOM     68  O   UNL A   1      47.288  36.209  27.992  1.00  0.00    -0.237 OA
ATOM     69  O   UNL A   1      46.156  36.129  25.793  1.00  0.00    -0.237 OA
ATOM     70  O   UNL A   1      44.864  36.654  27.824  1.00  0.00    -0.744 OA
ENDBRANCH  66  67
ENDBRANCH  47  61
BRANCH  48  71
ATOM     71  C   UNL A   1      37.513  31.638  31.409  1.00  0.00    -0.014 A 
ATOM     72  C   UNL A   1      36.361  31.352  32.168  1.00  0.00     0.010 A 
ATOM     73  C   UNL A   1      37.587  32.899  30.782  1.00  0.00     0.010 A 
ATOM     74  C   UNL A   1      35.356  32.317  32.350  1.00  0.00     0.020 A 
ATOM     75  C   UNL A   1      36.587  33.865  30.958  1.00  0.00     0.020 A 
ATOM     76  C   UNL A   1      35.488  33.578  31.762  1.00  0.00     0.054 A 
BRANCH  76  77
ATOM     77  S   UNL A   1      34.280  34.881  32.154  1.00  0.00     0.124 S 
ATOM     78  O   UNL A   1      33.281  34.153  32.932  1.00  0.00    -0.237 OA
ATOM     79  O   UNL A   1      35.082  35.845  32.900  1.00  0.00    -0.237 OA
ATOM     80  O   UNL A   1      33.829  35.338  30.841  1.00  0.00    -0.744 OA
ENDBRANCH  76  77
ENDBRANCH  48  71
BRANCH  60  81
ATOM     81  C   UNL A   1      42.822  29.077  33.897  1.00  0.00    -0.014 A 
ATOM     82  C   UNL A   1      43.131  29.334  35.246  1.00  0.00     0.010 A 
ATOM     83  C   UNL A   1      42.184  27.868  33.568  1.00  0.00     0.010 A 
ATOM     84  C   UNL A   1      42.817  28.389  36.237  1.00  0.00     0.020 A 
ATOM     85  C   UNL A   1      41.854  26.935  34.549  1.00  0.00     0.020 A 
ATOM     86  C   UNL A   1      42.180  27.194  35.879  1.00  0.00     0.054 A 
BRANCH  86  87
ATOM     87  S   UNL A   1      41.741  25.988  37.163  1.00  0.00     0.124 S 
ATOM     88  O   UNL A   1      40.378  26.377  37.509  1.00  0.00    -0.237 OA
ATOM     89  O   UNL A   1      41.875  24.711  36.465  1.00  0.00    -0.237 OA
ATOM     90  O   UNL A   1      42.735  26.218  38.211  1.00  0.00    -0.744 OA
ENDBRANCH  86  87
ENDBRANCH  60  81
ENDBRANCH  34  35
ENDBRANCH  27  29
ENDBRANCH  26  27
ENDBRANCH  25  26
ENDBRANCH  24  25
ENDBRANCH  23  24
ENDBRANCH   1  23
TORSDOF 21
ENDMDL
MODEL 3
REMARK VINA RESULT:     -10.0      2.216      8.925
REMARK SMILES CCn1cnc(S(=O)(=O)N[C@]2(C(=O)OCCOCCOC(=O)c3ccc(-c4c5nc(c(-c6ccc(S(=O)(=O)[O-])cc6)c6ccc([nH]6)c(-c6ccc(S(=O)(=O)[O-])cc6)c6nc(c(-c7ccc(S(=O)(=O)[O-])cc7)c7ccc4[nH]7)C=C6)C=C5)cc3)CCSC2)c1
REMARK SMILES IDX 16 1 15 2 14 3 12 4 13 5 11 6 83 7 86 8 84 9 85 10 10 11
REMARK SMILES IDX 7 13 8 14 9 15 6 16 3 17 4 18 87 19 5 20 2 21 1 22 17 23
REMARK SMILES IDX 18 24 19 25 20 26 21 27 22 28 23 29 24 30 82 31 25 32 81 33
REMARK SMILES IDX 26 34 27 35 28 36 75 37 29 38 80 39 74 40 76 41 30 42 79 43
REMARK SMILES IDX 73 44 72 45 31 47 61 48 42 49 60 50 43 51 46 52 59 53 77 54
REMARK SMILES IDX 44 55 45 56 58 58 78 59 47 60 32 61 33 62 41 63 34 64 40 65
REMARK SMILES IDX 35 66 36 67 37 68 38 69 39 70 62 71 63 72 71 73 64 74 70 75
REMARK SMILES IDX 65 76 66 77 67 78 68 79 69 80 48 81 49 82 57 83 50 84 56 85
REMARK SMILES IDX 51 86 52 87 53 88 54 89 55 90
REMARK H PARENT 10 12 76 46 46 57
REMARK Flexibility Score: inf
ROOT
ATOM      1  C   UNL A   1      33.105  30.435  27.089  1.00  0.00     0.202 C 
ENDROOT
BRANCH   1   2
ATOM      2  C   UNL A   1      31.959  29.841  26.266  1.00  0.00     0.261 C 
BRANCH   2   3
ATOM      3  O   UNL A   1      32.362  29.291  24.998  1.00  0.00    -0.462 OA
BRANCH   3   4
ATOM      4  C   UNL A   1      31.338  28.765  24.278  1.00  0.00     0.328 C 
ATOM      5  O   UNL A   1      30.345  29.414  23.970  1.00  0.00    -0.250 OA
BRANCH   4   6
ATOM      6  C   UNL A   1      31.555  27.306  23.835  1.00  0.00     0.140 C 
ATOM      7  C   UNL A   1      31.226  27.077  22.348  1.00  0.00     0.047 C 
ATOM      8  C   UNL A   1      33.041  26.974  23.986  1.00  0.00     0.105 C 
ATOM      9  C   UNL A   1      31.800  25.715  21.983  1.00  0.00     0.072 C 
ATOM     10  S   UNL A   1      33.444  25.719  22.735  1.00  0.00    -0.159 SA
BRANCH   6  11
ATOM     11  N   UNL A   1      30.570  26.483  24.610  1.00  0.00    -0.191 NA
ATOM     12  H   UNL A   1      29.817  27.129  24.849  1.00  0.00     0.142 HD
BRANCH  11  13
ATOM     13  S   UNL A   1      30.865  25.626  26.015  1.00  0.00     0.260 S 
ATOM     14  O   UNL A   1      29.592  25.138  26.495  1.00  0.00    -0.205 OA
ATOM     15  O   UNL A   1      31.702  26.492  26.818  1.00  0.00    -0.205 OA
BRANCH  13  16
ATOM     16  C   UNL A   1      31.842  24.204  25.742  1.00  0.00     0.188 A 
ATOM     17  N   UNL A   1      32.381  22.144  25.274  1.00  0.00    -0.336 N 
ATOM     18  C   UNL A   1      33.277  22.659  26.162  1.00  0.00     0.201 A 
ATOM     19  C   UNL A   1      31.581  23.176  24.858  1.00  0.00     0.129 A 
ATOM     20  N   UNL A   1      32.963  23.890  26.495  1.00  0.00    -0.224 NA
BRANCH  17  21
ATOM     21  C   UNL A   1      32.126  20.747  24.982  1.00  0.00     0.120 C 
ATOM     22  C   UNL A   1      33.326  19.822  25.096  1.00  0.00     0.027 C 
ENDBRANCH  17  21
ENDBRANCH  13  16
ENDBRANCH  11  13
ENDBRANCH   6  11
ENDBRANCH   4   6
ENDBRANCH   3   4
ENDBRANCH   2   3
ENDBRANCH   1   2
BRANCH   1  23
ATOM     23  O   UNL A   1      33.020  31.792  27.518  1.00  0.00    -0.374 OA
BRANCH  23  24
ATOM     24  C   UNL A   1      34.186  32.547  27.829  1.00  0.00     0.202 C 
BRANCH  24  25
ATOM     25  C   UNL A   1      34.061  34.037  28.102  1.00  0.00     0.261 C 
BRANCH  25  26
ATOM     26  O   UNL A   1      34.945  34.441  29.133  1.00  0.00    -0.460 OA
BRANCH  26  27
ATOM     27  C   UNL A   1      34.457  34.216  30.378  1.00  0.00     0.338 C 
ATOM     28  O   UNL A   1      33.455  34.689  30.868  1.00  0.00    -0.246 OA
BRANCH  27  29
ATOM     29  C   UNL A   1      35.424  33.387  31.103  1.00  0.00     0.060 A 
ATOM     30  C   UNL A   1      36.693  33.947  31.229  1.00  0.00     0.016 A 
ATOM     31  C   UNL A   1      35.177  32.018  31.290  1.00  0.00     0.016 A 
ATOM     32  C   UNL A   1      37.761  33.087  31.236  1.00  0.00     0.010 A 
ATOM     33  C   UNL A   1      36.247  31.162  31.294  1.00  0.00     0.010 A 
ATOM     34  C   UNL A   1      37.516  31.711  31.155  1.00  0.00    -0.014 A 
BRANCH  34  35
ATOM     35  C   UNL A   1      38.662  30.844  31.044  1.00  0.00     0.031 A 
ATOM     36  C   UNL A   1      39.284  30.636  32.359  1.00  0.00     0.074 A 
ATOM     37  C   UNL A   1      39.058  30.277  29.892  1.00  0.00     0.049 A 
ATOM     38  N   UNL A   1      40.278  31.295  32.855  1.00  0.00    -0.248 NA
ATOM     39  C   UNL A   1      38.547  29.819  33.337  1.00  0.00     0.031 C 
ATOM     40  C   UNL A   1      38.331  30.203  28.622  1.00  0.00     0.029 A 
ATOM     41  N   UNL A   1      40.179  29.552  29.647  1.00  0.00    -0.354 N 
ATOM     42  C   UNL A   1      40.466  30.743  34.112  1.00  0.00     0.074 A 
ATOM     43  C   UNL A   1      39.231  30.085  34.451  1.00  0.00     0.031 C 
ATOM     44  C   UNL A   1      38.917  29.273  27.829  1.00  0.00     0.029 A 
ATOM     45  C   UNL A   1      40.140  28.815  28.472  1.00  0.00     0.049 A 
ATOM     46  H   UNL A   1      40.955  29.549  30.253  1.00  0.00     0.167 HD
ATOM     47  C   UNL A   1      41.725  30.522  34.579  1.00  0.00     0.031 A 
ATOM     48  C   UNL A   1      41.030  27.861  28.102  1.00  0.00     0.031 A 
ATOM     49  C   UNL A   1      42.705  31.206  33.774  1.00  0.00     0.049 A 
ATOM     50  C   UNL A   1      42.284  28.125  28.848  1.00  0.00     0.074 A 
ATOM     51  C   UNL A   1      43.106  32.507  33.571  1.00  0.00     0.029 A 
ATOM     52  N   UNL A   1      43.144  30.467  32.703  1.00  0.00    -0.354 N 
ATOM     53  N   UNL A   1      43.001  29.203  28.676  1.00  0.00    -0.248 NA
ATOM     54  C   UNL A   1      42.556  27.390  30.078  1.00  0.00     0.031 C 
ATOM     55  C   UNL A   1      43.626  32.556  32.243  1.00  0.00     0.029 A 
ATOM     56  C   UNL A   1      43.576  31.277  31.688  1.00  0.00     0.049 A 
ATOM     57  H   UNL A   1      43.146  29.483  32.669  1.00  0.00     0.167 HD
ATOM     58  C   UNL A   1      43.486  29.507  29.936  1.00  0.00     0.074 A 
ATOM     59  C   UNL A   1      43.322  28.282  30.712  1.00  0.00     0.031 C 
ATOM     60  C   UNL A   1      43.681  30.800  30.321  1.00  0.00     0.031 A 
BRANCH  47  61
ATOM     61  C   UNL A   1      42.098  29.283  35.363  1.00  0.00    -0.014 A 
ATOM     62  C   UNL A   1      43.209  29.342  36.226  1.00  0.00     0.010 A 
ATOM     63  C   UNL A   1      41.587  27.999  35.071  1.00  0.00     0.010 A 
ATOM     64  C   UNL A   1      43.796  28.174  36.734  1.00  0.00     0.020 A 
ATOM     65  C   UNL A   1      42.138  26.836  35.601  1.00  0.00     0.020 A 
ATOM     66  C   UNL A   1      43.257  26.928  36.413  1.00  0.00     0.054 A 
BRANCH  66  67
ATOM     67  S   UNL A   1      44.054  25.425  37.021  1.00  0.00     0.124 S 
ATOM     68  O   UNL A   1      43.090  24.398  36.642  1.00  0.00    -0.237 OA
ATOM     69  O   UNL A   1      45.311  25.426  36.280  1.00  0.00    -0.237 OA
ATOM     70  O   UNL A   1      44.184  25.665  38.458  1.00  0.00    -0.744 OA
ENDBRANCH  66  67
ENDBRANCH  47  61
BRANCH  48  71
ATOM     71  C   UNL A   1      40.755  26.561  27.438  1.00  0.00    -0.014 A 
ATOM     72  C   UNL A   1      41.749  25.904  26.687  1.00  0.00     0.010 A 
ATOM     73  C   UNL A   1      39.611  25.819  27.800  1.00  0.00     0.010 A 
ATOM     74  C   UNL A   1      41.635  24.539  26.372  1.00  0.00     0.020 A 
ATOM     75  C   UNL A   1      39.490  24.459  27.486  1.00  0.00     0.020 A 
ATOM     76  C   UNL A   1      40.515  23.818  26.795  1.00  0.00     0.054 A 
BRANCH  76  77
ATOM     77  S   UNL A   1      40.461  22.017  26.547  1.00  0.00     0.124 S 
ATOM     78  O   UNL A   1      41.627  21.786  25.699  1.00  0.00    -0.237 OA
ATOM     79  O   UNL A   1      40.559  21.505  27.910  1.00  0.00    -0.237 OA
ATOM     80  O   UNL A   1      39.170  21.798  25.897  1.00  0.00    -0.744 OA
ENDBRANCH  76  77
ENDBRANCH  48  71
BRANCH  60  81
ATOM     81  C   UNL A   1      43.902  31.830  29.245  1.00  0.00    -0.014 A 
ATOM     82  C   UNL A   1      43.014  32.878  28.938  1.00  0.00     0.010 A 
ATOM     83  C   UNL A   1      45.137  31.773  28.575  1.00  0.00     0.010 A 
ATOM     84  C   UNL A   1      43.355  33.835  27.967  1.00  0.00     0.020 A 
ATOM     85  C   UNL A   1      45.488  32.729  27.624  1.00  0.00     0.020 A 
ATOM     86  C   UNL A   1      44.592  33.752  27.317  1.00  0.00     0.054 A 
BRANCH  86  87
ATOM     87  S   UNL A   1      45.051  35.009  26.090  1.00  0.00     0.124 S 
ATOM     88  O   UNL A   1      43.753  35.516  25.656  1.00  0.00    -0.237 OA
ATOM     89  O   UNL A   1      45.864  35.940  26.868  1.00  0.00    -0.237 OA
ATOM     90  O   UNL A   1      45.789  34.252  25.077  1.00  0.00    -0.744 OA
ENDBRANCH  86  87
ENDBRANCH  60  81
ENDBRANCH  34  35
ENDBRANCH  27  29
ENDBRANCH  26  27
ENDBRANCH  25  26
ENDBRANCH  24  25
ENDBRANCH  23  24
ENDBRANCH   1  23
TORSDOF 21
ENDMDL
