MODEL 1
REMARK VINA RESULT:     -10.7      0.000      0.000
REMARK SMILES O=C(OCCOCCOC(=O)c1ccc(-c2c3nc(c(-c4ccc(S(=O)(=O)[O-])cc4)c4ccc([nH]4)c(-c4ccc(S(=O)(=O)[O-])cc4)c4nc(c(-c5ccc(S(=O)(=O)[O-])cc5)c5ccc2[nH]5)C=C4)C=C3)cc1)C1=Cc2cc(Cl)ccc2O[C@@H]1C(F)(F)F
REMARK SMILES IDX 7 1 6 2 5 3 4 4 3 5 2 6 1 7 72 8 73 9 82 10 74 11 81 12
REMARK SMILES IDX 75 13 80 14 76 15 79 16 77 17 78 18 83 19 84 20 85 21 86 22
REMARK SMILES IDX 8 23 9 24 10 25 11 26 12 27 13 28 71 29 14 30 70 31 15 32
REMARK SMILES IDX 16 33 17 34 64 35 18 36 69 37 63 38 65 39 19 40 68 41 62 42
REMARK SMILES IDX 61 43 20 45 50 46 31 47 49 48 32 49 35 50 48 51 66 52 33 53
REMARK SMILES IDX 34 54 47 56 67 57 36 58 21 59 22 60 30 61 23 62 29 63 24 64
REMARK SMILES IDX 25 65 26 66 27 67 28 68 51 69 52 70 60 71 53 72 59 73 54 74
REMARK SMILES IDX 55 75 56 76 57 77 58 78 37 79 38 80 46 81 39 82 45 83 40 84
REMARK SMILES IDX 41 85 42 86 43 87 44 88
REMARK H PARENT 65 44 35 55
REMARK Flexibility Score: inf
ROOT
ATOM      1  C   UNL A   1      34.127  30.856  27.545  1.00  0.00     0.202 C 
ENDROOT
BRANCH   1   2
ATOM      2  O   UNL A   1      34.314  31.994  28.408  1.00  0.00    -0.374 OA
BRANCH   2   3
ATOM      3  C   UNL A   1      33.659  33.472  28.378  1.00  0.00     0.202 C 
BRANCH   3   4
ATOM      4  C   UNL A   1      33.537  34.991  29.921  1.00  0.00     0.261 C 
BRANCH   4   5
ATOM      5  O   UNL A   1      34.307  34.994  31.265  1.00  0.00    -0.460 OA
BRANCH   5   6
ATOM      6  C   UNL A   1      34.756  33.784  31.607  1.00  0.00     0.338 C 
ATOM      7  O   UNL A   1      34.155  32.767  31.841  1.00  0.00    -0.246 OA
BRANCH   6   8
ATOM      8  C   UNL A   1      36.091  34.220  31.935  1.00  0.00     0.087 C 
ATOM      9  C   UNL A   1      36.227  34.480  33.394  1.00  0.00     0.027 C 
ATOM     10  C   UNL A   1      37.028  32.819  30.971  1.00  0.00     0.316 C 
ATOM     11  C   UNL A   1      37.124  33.382  34.530  1.00  0.00     0.019 A 
ATOM     12  O   UNL A   1      37.936  31.614  32.166  1.00  0.00    -0.475 OA
ATOM     13  C   UNL A   1      37.058  33.594  35.880  1.00  0.00     0.032 A 
ATOM     14  C   UNL A   1      37.913  31.947  33.958  1.00  0.00     0.128 A 
ATOM     15  C   UNL A   1      37.615  32.568  36.666  1.00  0.00     0.041 A 
ATOM     16  C   UNL A   1      38.319  30.958  34.800  1.00  0.00     0.048 A 
ATOM     17  Cl  UNL A   1      37.597  32.808  38.386  1.00  0.00    -0.084 Cl
ATOM     18  C   UNL A   1      38.175  31.319  36.164  1.00  0.00     0.024 A 
BRANCH  10  19
ATOM     19  C   UNL A   1      37.585  33.660  29.750  1.00  0.00     0.430 C 
ATOM     20  F   UNL A   1      38.603  34.491  30.038  1.00  0.00    -0.167 F 
ATOM     21  F   UNL A   1      38.099  32.771  28.848  1.00  0.00    -0.167 F 
ATOM     22  F   UNL A   1      36.651  34.350  29.058  1.00  0.00    -0.167 F 
ENDBRANCH  10  19
ENDBRANCH   6   8
ENDBRANCH   5   6
ENDBRANCH   4   5
ENDBRANCH   3   4
ENDBRANCH   2   3
ENDBRANCH   1   2
BRANCH   1  23
ATOM     23  C   UNL A   1      35.132  29.727  27.757  1.00  0.00     0.261 C 
BRANCH  23  24
ATOM     24  O   UNL A   1      36.424  30.223  28.082  1.00  0.00    -0.460 OA
BRANCH  24  25
ATOM     25  C   UNL A   1      36.995  29.617  29.148  1.00  0.00     0.338 C 
ATOM     26  O   UNL A   1      36.505  29.422  30.246  1.00  0.00    -0.246 OA
BRANCH  25  27
ATOM     27  C   UNL A   1      38.357  29.211  28.767  1.00  0.00     0.060 A 
ATOM     28  C   UNL A   1      39.171  28.643  29.753  1.00  0.00     0.016 A 
ATOM     29  C   UNL A   1      38.816  29.360  27.450  1.00  0.00     0.016 A 
ATOM     30  C   UNL A   1      40.442  28.194  29.419  1.00  0.00     0.010 A 
ATOM     31  C   UNL A   1      40.097  28.938  27.122  1.00  0.00     0.010 A 
ATOM     32  C   UNL A   1      40.912  28.372  28.112  1.00  0.00    -0.014 A 
BRANCH  32  33
ATOM     33  C   UNL A   1      42.350  28.227  27.845  1.00  0.00     0.031 A 
ATOM     34  C   UNL A   1      43.208  29.426  28.105  1.00  0.00     0.074 A 
ATOM     35  C   UNL A   1      42.855  27.073  27.383  1.00  0.00     0.049 A 
ATOM     36  N   UNL A   1      44.490  29.579  27.926  1.00  0.00    -0.248 NA
ATOM     37  C   UNL A   1      42.522  30.618  28.641  1.00  0.00     0.031 C 
ATOM     38  C   UNL A   1      42.093  25.848  27.143  1.00  0.00     0.029 A 
ATOM     39  N   UNL A   1      44.136  26.753  27.025  1.00  0.00    -0.354 N 
ATOM     40  C   UNL A   1      44.764  30.880  28.328  1.00  0.00     0.074 A 
ATOM     41  C   UNL A   1      43.515  31.485  28.729  1.00  0.00     0.031 C 
ATOM     42  C   UNL A   1      42.928  24.907  26.668  1.00  0.00     0.029 A 
ATOM     43  C   UNL A   1      44.267  25.477  26.536  1.00  0.00     0.049 A 
ATOM     44  H   UNL A   1      44.893  27.378  27.110  1.00  0.00     0.167 HD
ATOM     45  C   UNL A   1      45.957  31.512  28.355  1.00  0.00     0.031 A 
ATOM     46  C   UNL A   1      45.347  24.861  26.018  1.00  0.00     0.031 A 
ATOM     47  C   UNL A   1      47.174  30.909  27.890  1.00  0.00     0.049 A 
ATOM     48  C   UNL A   1      46.651  25.619  25.967  1.00  0.00     0.074 A 
ATOM     49  C   UNL A   1      48.442  31.453  27.849  1.00  0.00     0.029 A 
ATOM     50  N   UNL A   1      47.263  29.628  27.363  1.00  0.00    -0.354 N 
ATOM     51  N   UNL A   1      46.910  26.841  26.374  1.00  0.00    -0.248 NA
ATOM     52  C   UNL A   1      47.805  24.917  25.395  1.00  0.00     0.031 C 
ATOM     53  C   UNL A   1      49.286  30.527  27.227  1.00  0.00     0.029 A 
ATOM     54  C   UNL A   1      48.562  29.373  26.964  1.00  0.00     0.049 A 
ATOM     55  H   UNL A   1      46.513  28.995  27.284  1.00  0.00     0.167 HD
ATOM     56  C   UNL A   1      48.268  27.039  26.143  1.00  0.00     0.074 A 
ATOM     57  C   UNL A   1      48.772  25.809  25.565  1.00  0.00     0.031 C 
ATOM     58  C   UNL A   1      49.031  28.133  26.394  1.00  0.00     0.031 A 
BRANCH  45  59
ATOM     59  C   UNL A   1      45.967  32.938  28.835  1.00  0.00    -0.014 A 
ATOM     60  C   UNL A   1      46.214  33.256  30.184  1.00  0.00     0.010 A 
ATOM     61  C   UNL A   1      45.709  33.975  27.923  1.00  0.00     0.010 A 
ATOM     62  C   UNL A   1      46.153  34.583  30.619  1.00  0.00     0.020 A 
ATOM     63  C   UNL A   1      45.682  35.306  28.347  1.00  0.00     0.020 A 
ATOM     64  C   UNL A   1      45.887  35.599  29.697  1.00  0.00     0.054 A 
BRANCH  64  65
ATOM     65  S   UNL A   1      45.826  37.312  30.288  1.00  0.00     0.124 S 
ATOM     66  O   UNL A   1      47.126  37.825  29.863  1.00  0.00    -0.237 OA
ATOM     67  O   UNL A   1      44.672  37.853  29.572  1.00  0.00    -0.237 OA
ATOM     68  O   UNL A   1      45.653  37.176  31.732  1.00  0.00    -0.744 OA
ENDBRANCH  64  65
ENDBRANCH  45  59
BRANCH  46  69
ATOM     69  C   UNL A   1      45.237  23.470  25.500  1.00  0.00    -0.014 A 
ATOM     70  C   UNL A   1      45.575  22.369  26.308  1.00  0.00     0.010 A 
ATOM     71  C   UNL A   1      44.774  23.235  24.192  1.00  0.00     0.010 A 
ATOM     72  C   UNL A   1      45.465  21.065  25.813  1.00  0.00     0.020 A 
ATOM     73  C   UNL A   1      44.633  21.932  23.704  1.00  0.00     0.020 A 
ATOM     74  C   UNL A   1      44.987  20.855  24.517  1.00  0.00     0.054 A 
BRANCH  74  75
ATOM     75  S   UNL A   1      44.792  19.152  23.923  1.00  0.00     0.124 S 
ATOM     76  O   UNL A   1      43.640  18.690  24.691  1.00  0.00    -0.237 OA
ATOM     77  O   UNL A   1      44.564  19.344  22.493  1.00  0.00    -0.237 OA
ATOM     78  O   UNL A   1      46.066  18.522  24.265  1.00  0.00    -0.744 OA
ENDBRANCH  74  75
ENDBRANCH  46  69
BRANCH  58  79
ATOM     79  C   UNL A   1      50.507  28.036  26.101  1.00  0.00    -0.014 A 
ATOM     80  C   UNL A   1      51.439  27.709  27.100  1.00  0.00     0.010 A 
ATOM     81  C   UNL A   1      50.948  28.188  24.772  1.00  0.00     0.010 A 
ATOM     82  C   UNL A   1      52.791  27.563  26.780  1.00  0.00     0.020 A 
ATOM     83  C   UNL A   1      52.292  28.008  24.442  1.00  0.00     0.020 A 
ATOM     84  C   UNL A   1      53.207  27.706  25.452  1.00  0.00     0.054 A 
BRANCH  84  85
ATOM     85  S   UNL A   1      54.956  27.450  25.054  1.00  0.00     0.124 S 
ATOM     86  O   UNL A   1      54.885  26.427  24.014  1.00  0.00    -0.237 OA
ATOM     87  O   UNL A   1      55.378  28.774  24.606  1.00  0.00    -0.237 OA
ATOM     88  O   UNL A   1      55.541  27.011  26.319  1.00  0.00    -0.744 OA
ENDBRANCH  84  85
ENDBRANCH  58  79
ENDBRANCH  32  33
ENDBRANCH  25  27
ENDBRANCH  24  25
ENDBRANCH  23  24
ENDBRANCH   1  23
TORSDOF 18
ENDMDL
MODEL 2
REMARK VINA RESULT:     -10.7      4.806     11.174
REMARK SMILES O=C(OCCOCCOC(=O)c1ccc(-c2c3nc(c(-c4ccc(S(=O)(=O)[O-])cc4)c4ccc([nH]4)c(-c4ccc(S(=O)(=O)[O-])cc4)c4nc(c(-c5ccc(S(=O)(=O)[O-])cc5)c5ccc2[nH]5)C=C4)C=C3)cc1)C1=Cc2cc(Cl)ccc2O[C@@H]1C(F)(F)F
REMARK SMILES IDX 7 1 6 2 5 3 4 4 3 5 2 6 1 7 72 8 73 9 82 10 74 11 81 12
REMARK SMILES IDX 75 13 80 14 76 15 79 16 77 17 78 18 83 19 84 20 85 21 86 22
REMARK SMILES IDX 8 23 9 24 10 25 11 26 12 27 13 28 71 29 14 30 70 31 15 32
REMARK SMILES IDX 16 33 17 34 64 35 18 36 69 37 63 38 65 39 19 40 68 41 62 42
REMARK SMILES IDX 61 43 20 45 50 46 31 47 49 48 32 49 35 50 48 51 66 52 33 53
REMARK SMILES IDX 34 54 47 56 67 57 36 58 21 59 22 60 30 61 23 62 29 63 24 64
REMARK SMILES IDX 25 65 26 66 27 67 28 68 51 69 52 70 60 71 53 72 59 73 54 74
REMARK SMILES IDX 55 75 56 76 57 77 58 78 37 79 38 80 46 81 39 82 45 83 40 84
REMARK SMILES IDX 41 85 42 86 43 87 44 88
REMARK H PARENT 65 44 35 55
REMARK Flexibility Score: inf
ROOT
ATOM      1  C   UNL A   1      37.362  20.485  25.010  1.00  0.00     0.202 C 
ENDROOT
BRANCH   1   2
ATOM      2  O   UNL A   1      35.985  20.073  24.932  1.00  0.00    -0.374 OA
BRANCH   2   3
ATOM      3  C   UNL A   1      34.613  20.925  25.008  1.00  0.00     0.202 C 
BRANCH   3   4
ATOM      4  C   UNL A   1      34.011  22.726  23.959  1.00  0.00     0.261 C 
BRANCH   4   5
ATOM      5  O   UNL A   1      32.583  23.326  23.915  1.00  0.00    -0.460 OA
BRANCH   5   6
ATOM      6  C   UNL A   1      32.579  24.658  23.999  1.00  0.00     0.338 C 
ATOM      7  O   UNL A   1      32.664  25.494  23.135  1.00  0.00    -0.246 OA
BRANCH   6   8
ATOM      8  C   UNL A   1      32.801  24.708  25.423  1.00  0.00     0.087 C 
ATOM      9  C   UNL A   1      33.839  25.717  25.768  1.00  0.00     0.027 C 
ATOM     10  C   UNL A   1      30.933  24.824  25.938  1.00  0.00     0.316 C 
ATOM     11  C   UNL A   1      33.463  27.319  26.538  1.00  0.00     0.019 A 
ATOM     12  O   UNL A   1      30.507  26.538  26.702  1.00  0.00    -0.475 OA
ATOM     13  C   UNL A   1      34.445  28.263  26.666  1.00  0.00     0.032 A 
ATOM     14  C   UNL A   1      31.836  27.762  26.945  1.00  0.00     0.128 A 
ATOM     15  C   UNL A   1      33.995  29.531  27.081  1.00  0.00     0.041 A 
ATOM     16  C   UNL A   1      31.482  29.046  27.228  1.00  0.00     0.048 A 
ATOM     17  Cl  UNL A   1      35.207  30.754  27.302  1.00  0.00    -0.084 Cl
ATOM     18  C   UNL A   1      32.605  29.907  27.312  1.00  0.00     0.024 A 
BRANCH  10  19
ATOM     19  C   UNL A   1      30.724  23.365  26.519  1.00  0.00     0.430 C 
ATOM     20  F   UNL A   1      31.701  22.923  27.332  1.00  0.00    -0.167 F 
ATOM     21  F   UNL A   1      29.603  23.397  27.300  1.00  0.00    -0.167 F 
ATOM     22  F   UNL A   1      30.472  22.412  25.595  1.00  0.00    -0.167 F 
ENDBRANCH  10  19
ENDBRANCH   6   8
ENDBRANCH   5   6
ENDBRANCH   4   5
ENDBRANCH   3   4
ENDBRANCH   2   3
ENDBRANCH   1   2
BRANCH   1  23
ATOM     23  C   UNL A   1      37.590  21.981  24.802  1.00  0.00     0.261 C 
BRANCH  23  24
ATOM     24  O   UNL A   1      37.894  22.643  26.023  1.00  0.00    -0.460 OA
BRANCH  24  25
ATOM     25  C   UNL A   1      39.208  22.637  26.341  1.00  0.00     0.338 C 
ATOM     26  O   UNL A   1      39.994  21.711  26.251  1.00  0.00    -0.246 OA
BRANCH  25  27
ATOM     27  C   UNL A   1      39.564  23.977  26.835  1.00  0.00     0.060 A 
ATOM     28  C   UNL A   1      40.145  24.875  25.932  1.00  0.00     0.016 A 
ATOM     29  C   UNL A   1      39.304  24.354  28.160  1.00  0.00     0.016 A 
ATOM     30  C   UNL A   1      40.442  26.167  26.345  1.00  0.00     0.010 A 
ATOM     31  C   UNL A   1      39.629  25.636  28.581  1.00  0.00     0.010 A 
ATOM     32  C   UNL A   1      40.212  26.533  27.677  1.00  0.00    -0.014 A 
BRANCH  32  33
ATOM     33  C   UNL A   1      40.838  27.756  28.199  1.00  0.00     0.031 A 
ATOM     34  C   UNL A   1      42.335  27.792  28.214  1.00  0.00     0.074 A 
ATOM     35  C   UNL A   1      40.093  28.779  28.644  1.00  0.00     0.049 A 
ATOM     36  N   UNL A   1      43.134  28.727  28.648  1.00  0.00    -0.248 NA
ATOM     37  C   UNL A   1      43.024  26.608  27.666  1.00  0.00     0.031 C 
ATOM     38  C   UNL A   1      38.632  28.838  28.624  1.00  0.00     0.029 A 
ATOM     39  N   UNL A   1      40.474  29.965  29.210  1.00  0.00    -0.354 N 
ATOM     40  C   UNL A   1      44.417  28.246  28.422  1.00  0.00     0.074 A 
ATOM     41  C   UNL A   1      44.294  26.927  27.846  1.00  0.00     0.031 C 
ATOM     42  C   UNL A   1      38.240  30.005  29.164  1.00  0.00     0.029 A 
ATOM     43  C   UNL A   1      39.418  30.752  29.599  1.00  0.00     0.049 A 
ATOM     44  H   UNL A   1      41.416  30.230  29.326  1.00  0.00     0.167 HD
ATOM     45  C   UNL A   1      45.595  28.856  28.679  1.00  0.00     0.031 A 
ATOM     46  C   UNL A   1      39.419  31.927  30.257  1.00  0.00     0.031 A 
ATOM     47  C   UNL A   1      45.690  30.140  29.312  1.00  0.00     0.049 A 
ATOM     48  C   UNL A   1      40.745  32.546  30.622  1.00  0.00     0.074 A 
ATOM     49  C   UNL A   1      46.825  30.854  29.642  1.00  0.00     0.029 A 
ATOM     50  N   UNL A   1      44.600  30.892  29.730  1.00  0.00    -0.354 N 
ATOM     51  N   UNL A   1      41.957  32.098  30.382  1.00  0.00    -0.248 NA
ATOM     52  C   UNL A   1      40.706  33.825  31.339  1.00  0.00     0.031 C 
ATOM     53  C   UNL A   1      46.423  32.005  30.329  1.00  0.00     0.029 A 
ATOM     54  C   UNL A   1      45.036  32.050  30.345  1.00  0.00     0.049 A 
ATOM     55  H   UNL A   1      43.657  30.638  29.608  1.00  0.00     0.167 HD
ATOM     56  C   UNL A   1      42.825  33.063  30.884  1.00  0.00     0.074 A 
ATOM     57  C   UNL A   1      41.997  34.117  31.436  1.00  0.00     0.031 C 
ATOM     58  C   UNL A   1      44.182  33.083  30.882  1.00  0.00     0.031 A 
BRANCH  45  59
ATOM     59  C   UNL A   1      46.849  28.097  28.339  1.00  0.00    -0.014 A 
ATOM     60  C   UNL A   1      47.492  28.262  27.097  1.00  0.00     0.010 A 
ATOM     61  C   UNL A   1      47.382  27.190  29.270  1.00  0.00     0.010 A 
ATOM     62  C   UNL A   1      48.617  27.498  26.777  1.00  0.00     0.020 A 
ATOM     63  C   UNL A   1      48.528  26.450  28.969  1.00  0.00     0.020 A 
ATOM     64  C   UNL A   1      49.127  26.596  27.716  1.00  0.00     0.054 A 
BRANCH  64  65
ATOM     65  S   UNL A   1      50.595  25.627  27.279  1.00  0.00     0.124 S 
ATOM     66  O   UNL A   1      51.640  26.296  28.051  1.00  0.00    -0.237 OA
ATOM     67  O   UNL A   1      50.238  24.286  27.735  1.00  0.00    -0.237 OA
ATOM     68  O   UNL A   1      50.697  25.784  25.830  1.00  0.00    -0.744 OA
ENDBRANCH  64  65
ENDBRANCH  45  59
BRANCH  46  69
ATOM     69  C   UNL A   1      38.130  32.581  30.618  1.00  0.00    -0.014 A 
ATOM     70  C   UNL A   1      37.458  33.408  29.701  1.00  0.00     0.010 A 
ATOM     71  C   UNL A   1      37.558  32.365  31.886  1.00  0.00     0.010 A 
ATOM     72  C   UNL A   1      36.247  34.015  30.049  1.00  0.00     0.020 A 
ATOM     73  C   UNL A   1      36.332  32.945  32.226  1.00  0.00     0.020 A 
ATOM     74  C   UNL A   1      35.687  33.773  31.307  1.00  0.00     0.054 A 
BRANCH  74  75
ATOM     75  S   UNL A   1      34.084  34.520  31.709  1.00  0.00     0.124 S 
ATOM     76  O   UNL A   1      34.478  35.813  32.260  1.00  0.00    -0.237 OA
ATOM     77  O   UNL A   1      33.423  34.561  30.407  1.00  0.00    -0.237 OA
ATOM     78  O   UNL A   1      33.500  33.583  32.667  1.00  0.00    -0.744 OA
ENDBRANCH  74  75
ENDBRANCH  46  69
BRANCH  58  79
ATOM     79  C   UNL A   1      44.864  34.306  31.440  1.00  0.00    -0.014 A 
ATOM     80  C   UNL A   1      45.115  35.439  30.649  1.00  0.00     0.010 A 
ATOM     81  C   UNL A   1      45.173  34.345  32.814  1.00  0.00     0.010 A 
ATOM     82  C   UNL A   1      45.689  36.580  31.215  1.00  0.00     0.020 A 
ATOM     83  C   UNL A   1      45.712  35.495  33.391  1.00  0.00     0.020 A 
ATOM     84  C   UNL A   1      45.977  36.602  32.584  1.00  0.00     0.054 A 
BRANCH  84  85
ATOM     85  S   UNL A   1      46.663  38.117  33.305  1.00  0.00     0.124 S 
ATOM     86  O   UNL A   1      45.759  38.356  34.428  1.00  0.00    -0.237 OA
ATOM     87  O   UNL A   1      48.019  37.712  33.665  1.00  0.00    -0.237 OA
ATOM     88  O   UNL A   1      46.576  39.091  32.219  1.00  0.00    -0.744 OA
ENDBRANCH  84  85
ENDBRANCH  58  79
ENDBRANCH  32  33
ENDBRANCH  25  27
ENDBRANCH  24  25
ENDBRANCH  23  24
ENDBRANCH   1  23
TORSDOF 18
ENDMDL
MODEL 3
REMARK VINA RESULT:     -10.5      4.182      6.333
REMARK SMILES O=C(OCCOCCOC(=O)c1ccc(-c2c3nc(c(-c4ccc(S(=O)(=O)[O-])cc4)c4ccc([nH]4)c(-c4ccc(S(=O)(=O)[O-])cc4)c4nc(c(-c5ccc(S(=O)(=O)[O-])cc5)c5ccc2[nH]5)C=C4)C=C3)cc1)C1=Cc2cc(Cl)ccc2O[C@@H]1C(F)(F)F
REMARK SMILES IDX 7 1 6 2 5 3 4 4 3 5 2 6 1 7 72 8 73 9 82 10 74 11 81 12
REMARK SMILES IDX 75 13 80 14 76 15 79 16 77 17 78 18 83 19 84 20 85 21 86 22
REMARK SMILES IDX 8 23 9 24 10 25 11 26 12 27 13 28 71 29 14 30 70 31 15 32
REMARK SMILES IDX 16 33 17 34 64 35 18 36 69 37 63 38 65 39 19 40 68 41 62 42
REMARK SMILES IDX 61 43 20 45 50 46 31 47 49 48 32 49 35 50 48 51 66 52 33 53
REMARK SMILES IDX 34 54 47 56 67 57 36 58 21 59 22 60 30 61 23 62 29 63 24 64
REMARK SMILES IDX 25 65 26 66 27 67 28 68 51 69 52 70 60 71 53 72 59 73 54 74
REMARK SMILES IDX 55 75 56 76 57 77 58 78 37 79 38 80 46 81 39 82 45 83 40 84
REMARK SMILES IDX 41 85 42 86 43 87 44 88
REMARK H PARENT 65 44 35 55
REMARK Flexibility Score: inf
ROOT
ATOM      1  C   UNL A   1      35.038  31.906  28.398  1.00  0.00     0.202 C 
ENDROOT
BRANCH   1   2
ATOM      2  O   UNL A   1      33.698  31.997  27.878  1.00  0.00    -0.374 OA
BRANCH   2   3
ATOM      3  C   UNL A   1      32.832  30.967  26.982  1.00  0.00     0.202 C 
BRANCH   3   4
ATOM      4  C   UNL A   1      32.265  28.907  27.354  1.00  0.00     0.261 C 
BRANCH   4   5
ATOM      5  O   UNL A   1      33.126  27.653  27.059  1.00  0.00    -0.460 OA
BRANCH   5   6
ATOM      6  C   UNL A   1      32.430  26.671  26.481  1.00  0.00     0.338 C 
ATOM      7  O   UNL A   1      31.455  26.077  26.864  1.00  0.00    -0.246 OA
BRANCH   6   8
ATOM      8  C   UNL A   1      33.429  26.360  25.488  1.00  0.00     0.087 C 
ATOM      9  C   UNL A   1      34.021  25.016  25.727  1.00  0.00     0.027 C 
ATOM     10  C   UNL A   1      32.363  26.838  23.938  1.00  0.00     0.316 C 
ATOM     11  C   UNL A   1      33.646  23.559  24.706  1.00  0.00     0.019 A 
ATOM     12  O   UNL A   1      31.909  25.297  22.880  1.00  0.00    -0.475 OA
ATOM     13  C   UNL A   1      34.090  22.324  25.090  1.00  0.00     0.032 A 
ATOM     14  C   UNL A   1      32.571  23.664  23.350  1.00  0.00     0.128 A 
ATOM     15  C   UNL A   1      33.569  21.251  24.343  1.00  0.00     0.041 A 
ATOM     16  C   UNL A   1      32.032  22.560  22.763  1.00  0.00     0.048 A 
ATOM     17  Cl  UNL A   1      34.134  19.663  24.762  1.00  0.00    -0.084 Cl
ATOM     18  C   UNL A   1      32.580  21.357  23.277  1.00  0.00     0.024 A 
BRANCH  10  19
ATOM     19  C   UNL A   1      33.081  28.187  23.524  1.00  0.00     0.430 C 
ATOM     20  F   UNL A   1      34.420  28.195  23.664  1.00  0.00    -0.167 F 
ATOM     21  F   UNL A   1      32.865  28.367  22.186  1.00  0.00    -0.167 F 
ATOM     22  F   UNL A   1      32.584  29.302  24.105  1.00  0.00    -0.167 F 
ENDBRANCH  10  19
ENDBRANCH   6   8
ENDBRANCH   5   6
ENDBRANCH   4   5
ENDBRANCH   3   4
ENDBRANCH   2   3
ENDBRANCH   1   2
BRANCH   1  23
ATOM     23  C   UNL A   1      35.140  32.034  29.916  1.00  0.00     0.261 C 
BRANCH  23  24
ATOM     24  O   UNL A   1      36.485  31.933  30.366  1.00  0.00    -0.460 OA
BRANCH  24  25
ATOM     25  C   UNL A   1      36.834  30.696  30.786  1.00  0.00     0.338 C 
ATOM     26  O   UNL A   1      36.159  29.905  31.421  1.00  0.00    -0.246 OA
BRANCH  25  27
ATOM     27  C   UNL A   1      38.212  30.434  30.341  1.00  0.00     0.060 A 
ATOM     28  C   UNL A   1      38.449  30.337  28.966  1.00  0.00     0.016 A 
ATOM     29  C   UNL A   1      39.261  30.315  31.264  1.00  0.00     0.016 A 
ATOM     30  C   UNL A   1      39.746  30.149  28.505  1.00  0.00     0.010 A 
ATOM     31  C   UNL A   1      40.553  30.097  30.805  1.00  0.00     0.010 A 
ATOM     32  C   UNL A   1      40.788  29.997  29.428  1.00  0.00    -0.014 A 
BRANCH  32  33
ATOM     33  C   UNL A   1      42.075  29.457  28.968  1.00  0.00     0.031 A 
ATOM     34  C   UNL A   1      43.215  30.423  28.873  1.00  0.00     0.074 A 
ATOM     35  C   UNL A   1      42.206  28.162  28.644  1.00  0.00     0.049 A 
ATOM     36  N   UNL A   1      44.438  30.219  28.469  1.00  0.00    -0.248 NA
ATOM     37  C   UNL A   1      42.935  31.810  29.290  1.00  0.00     0.031 C 
ATOM     38  C   UNL A   1      41.155  27.150  28.749  1.00  0.00     0.029 A 
ATOM     39  N   UNL A   1      43.285  27.482  28.151  1.00  0.00    -0.354 N 
ATOM     40  C   UNL A   1      45.072  31.449  28.586  1.00  0.00     0.074 A 
ATOM     41  C   UNL A   1      44.096  32.400  29.065  1.00  0.00     0.031 C 
ATOM     42  C   UNL A   1      41.646  25.973  28.322  1.00  0.00     0.029 A 
ATOM     43  C   UNL A   1      43.026  26.160  27.881  1.00  0.00     0.049 A 
ATOM     44  H   UNL A   1      44.165  27.899  28.004  1.00  0.00     0.167 HD
ATOM     45  C   UNL A   1      46.359  31.755  28.312  1.00  0.00     0.031 A 
ATOM     46  C   UNL A   1      43.816  25.227  27.317  1.00  0.00     0.031 A 
ATOM     47  C   UNL A   1      47.293  30.806  27.776  1.00  0.00     0.049 A 
ATOM     48  C   UNL A   1      45.221  25.615  26.928  1.00  0.00     0.074 A 
ATOM     49  C   UNL A   1      48.618  30.999  27.440  1.00  0.00     0.029 A 
ATOM     50  N   UNL A   1      46.985  29.485  27.477  1.00  0.00    -0.354 N 
ATOM     51  N   UNL A   1      45.824  26.774  27.066  1.00  0.00    -0.248 NA
ATOM     52  C   UNL A   1      46.052  24.572  26.314  1.00  0.00     0.031 C 
ATOM     53  C   UNL A   1      49.092  29.814  26.866  1.00  0.00     0.029 A 
ATOM     54  C   UNL A   1      48.088  28.858  26.930  1.00  0.00     0.049 A 
ATOM     55  H   UNL A   1      46.111  29.059  27.631  1.00  0.00     0.167 HD
ATOM     56  C   UNL A   1      47.120  26.587  26.592  1.00  0.00     0.074 A 
ATOM     57  C   UNL A   1      47.210  25.204  26.169  1.00  0.00     0.031 C 
ATOM     58  C   UNL A   1      48.144  27.474  26.521  1.00  0.00     0.031 A 
BRANCH  45  59
ATOM     59  C   UNL A   1      46.785  33.182  28.524  1.00  0.00    -0.014 A 
ATOM     60  C   UNL A   1      47.417  33.590  29.715  1.00  0.00     0.010 A 
ATOM     61  C   UNL A   1      46.533  34.134  27.522  1.00  0.00     0.010 A 
ATOM     62  C   UNL A   1      47.744  34.934  29.916  1.00  0.00     0.020 A 
ATOM     63  C   UNL A   1      46.891  35.472  27.704  1.00  0.00     0.020 A 
ATOM     64  C   UNL A   1      47.478  35.866  28.909  1.00  0.00     0.054 A 
BRANCH  64  65
ATOM     65  S   UNL A   1      47.923  37.600  29.192  1.00  0.00     0.124 S 
ATOM     66  O   UNL A   1      46.625  38.264  29.106  1.00  0.00    -0.237 OA
ATOM     67  O   UNL A   1      48.522  37.560  30.525  1.00  0.00    -0.237 OA
ATOM     68  O   UNL A   1      48.850  37.903  28.104  1.00  0.00    -0.744 OA
ENDBRANCH  64  65
ENDBRANCH  45  59
BRANCH  46  69
ATOM     69  C   UNL A   1      43.295  23.853  27.079  1.00  0.00    -0.014 A 
ATOM     70  C   UNL A   1      43.209  22.921  28.127  1.00  0.00     0.010 A 
ATOM     71  C   UNL A   1      42.865  23.472  25.794  1.00  0.00     0.010 A 
ATOM     72  C   UNL A   1      42.714  21.633  27.894  1.00  0.00     0.020 A 
ATOM     73  C   UNL A   1      42.341  22.196  25.563  1.00  0.00     0.020 A 
ATOM     74  C   UNL A   1      42.276  21.281  26.614  1.00  0.00     0.054 A 
BRANCH  74  75
ATOM     75  S   UNL A   1      41.579  19.627  26.352  1.00  0.00     0.124 S 
ATOM     76  O   UNL A   1      42.360  19.143  25.219  1.00  0.00    -0.237 OA
ATOM     77  O   UNL A   1      41.843  18.971  27.630  1.00  0.00    -0.237 OA
ATOM     78  O   UNL A   1      40.168  19.890  26.074  1.00  0.00    -0.744 OA
ENDBRANCH  74  75
ENDBRANCH  46  69
BRANCH  58  79
ATOM     79  C   UNL A   1      49.473  26.967  26.022  1.00  0.00    -0.014 A 
ATOM     80  C   UNL A   1      49.908  27.204  24.707  1.00  0.00     0.010 A 
ATOM     81  C   UNL A   1      50.337  26.318  26.926  1.00  0.00     0.010 A 
ATOM     82  C   UNL A   1      51.174  26.777  24.297  1.00  0.00     0.020 A 
ATOM     83  C   UNL A   1      51.616  25.923  26.530  1.00  0.00     0.020 A 
ATOM     84  C   UNL A   1      52.022  26.146  25.214  1.00  0.00     0.054 A 
BRANCH  84  85
ATOM     85  S   UNL A   1      53.681  25.658  24.673  1.00  0.00     0.124 S 
ATOM     86  O   UNL A   1      53.671  26.053  23.267  1.00  0.00    -0.237 OA
ATOM     87  O   UNL A   1      54.545  26.451  25.544  1.00  0.00    -0.237 OA
ATOM     88  O   UNL A   1      53.717  24.217  24.914  1.00  0.00    -0.744 OA
ENDBRANCH  84  85
ENDBRANCH  58  79
ENDBRANCH  32  33
ENDBRANCH  25  27
ENDBRANCH  24  25
ENDBRANCH  23  24
ENDBRANCH   1  23
TORSDOF 18
ENDMDL
