MODEL 1
REMARK VINA RESULT:     -10.7      0.000      0.000
REMARK SMILES COc1cccc(C(=O)N2[C@@H](C(=O)OCCOCCOC(=O)c3ccc(-c4c5nc(c(-c6ccc(S(=O)(=O)[O-])cc6)c6ccc([nH]6)c(-c6ccc(S(=O)(=O)[O-])cc6)c6nc(c(-c7ccc(S(=O)(=O)[O-])cc7)c7ccc4[nH]7)C=C6)C=C5)cc3)CS[C@@H]2c2ccccc2Cl)c1
REMARK SMILES IDX 17 1 16 2 15 3 14 4 12 5 13 6 11 7 10 8 85 9 83 10 84 11
REMARK SMILES IDX 8 12 9 13 7 14 3 15 4 16 93 17 5 18 6 19 2 20 1 21 86 22
REMARK SMILES IDX 87 23 91 24 88 25 90 26 92 27 89 28 18 29 19 30 20 31 21 32
REMARK SMILES IDX 22 33 23 34 24 35 82 36 25 37 81 38 26 39 27 40 28 41 75 42
REMARK SMILES IDX 29 43 80 44 74 45 76 46 30 47 79 48 73 49 72 50 31 52 61 53
REMARK SMILES IDX 42 54 60 55 43 56 46 57 59 58 77 59 44 60 45 61 58 63 78 64
REMARK SMILES IDX 47 65 32 66 33 67 41 68 34 69 40 70 35 71 36 72 37 73 38 74
REMARK SMILES IDX 39 75 62 76 63 77 71 78 64 79 70 80 65 81 66 82 67 83 68 84
REMARK SMILES IDX 69 85 48 86 49 87 57 88 50 89 56 90 51 91 52 92 53 93 54 94
REMARK SMILES IDX 55 95
REMARK H PARENT 76 51 46 62
REMARK Flexibility Score: inf
ROOT
ATOM      1  O   UNL A   1      39.706  21.678  26.867  1.00  0.00    -0.374 OA
ENDROOT
BRANCH   1   2
ATOM      2  C   UNL A   1      39.027  22.760  26.228  1.00  0.00     0.202 C 
BRANCH   2   3
ATOM      3  C   UNL A   1      37.732  22.424  25.475  1.00  0.00     0.261 C 
BRANCH   3   4
ATOM      4  O   UNL A   1      36.950  23.594  25.178  1.00  0.00    -0.462 OA
BRANCH   4   5
ATOM      5  C   UNL A   1      36.058  23.453  24.157  1.00  0.00     0.329 C 
ATOM      6  O   UNL A   1      36.138  22.613  23.268  1.00  0.00    -0.250 OA
BRANCH   5   7
ATOM      7  C   UNL A   1      34.845  24.378  24.320  1.00  0.00     0.206 C 
ATOM      8  N   UNL A   1      33.627  23.765  24.848  1.00  0.00    -0.308 N 
ATOM      9  C   UNL A   1      32.439  24.587  24.682  1.00  0.00     0.176 C 
ATOM     10  C   UNL A   1      34.464  25.020  22.974  1.00  0.00     0.109 C 
ATOM     11  S   UNL A   1      32.648  25.071  22.897  1.00  0.00    -0.129 SA
BRANCH   8  12
ATOM     12  C   UNL A   1      33.699  22.560  25.520  1.00  0.00     0.255 C 
ATOM     13  O   UNL A   1      34.180  22.475  26.647  1.00  0.00    -0.269 OA
BRANCH  12  14
ATOM     14  C   UNL A   1      33.440  21.291  24.774  1.00  0.00     0.043 A 
ATOM     15  C   UNL A   1      33.329  18.868  24.660  1.00  0.00     0.119 A 
ATOM     16  C   UNL A   1      32.588  18.955  23.483  1.00  0.00     0.046 A 
ATOM     17  C   UNL A   1      33.756  20.032  25.305  1.00  0.00     0.060 A 
ATOM     18  C   UNL A   1      32.244  20.201  22.962  1.00  0.00     0.005 A 
ATOM     19  C   UNL A   1      32.669  21.365  23.605  1.00  0.00     0.014 A 
BRANCH  15  20
ATOM     20  O   UNL A   1      33.624  17.602  25.088  1.00  0.00    -0.497 OA
ATOM     21  C   UNL A   1      34.129  16.728  24.083  1.00  0.00     0.278 C 
ENDBRANCH  15  20
ENDBRANCH  12  14
ENDBRANCH   8  12
BRANCH   9  22
ATOM     22  C   UNL A   1      32.321  25.883  25.517  1.00  0.00     0.003 A 
ATOM     23  C   UNL A   1      33.495  26.677  25.629  1.00  0.00     0.008 A 
ATOM     24  C   UNL A   1      31.189  26.369  26.199  1.00  0.00     0.047 A 
ATOM     25  C   UNL A   1      33.582  27.783  26.482  1.00  0.00     0.001 A 
ATOM     26  C   UNL A   1      31.288  27.465  27.077  1.00  0.00     0.021 A 
ATOM     27  Cl  UNL A   1      29.588  25.759  26.014  1.00  0.00    -0.084 Cl
ATOM     28  C   UNL A   1      32.483  28.158  27.236  1.00  0.00     0.002 A 
ENDBRANCH   9  22
ENDBRANCH   5   7
ENDBRANCH   4   5
ENDBRANCH   3   4
ENDBRANCH   2   3
ENDBRANCH   1   2
BRANCH   1  29
ATOM     29  C   UNL A   1      40.863  21.983  27.642  1.00  0.00     0.202 C 
BRANCH  29  30
ATOM     30  C   UNL A   1      42.107  22.448  26.880  1.00  0.00     0.261 C 
BRANCH  30  31
ATOM     31  O   UNL A   1      42.718  23.593  27.500  1.00  0.00    -0.460 OA
BRANCH  31  32
ATOM     32  C   UNL A   1      42.541  24.749  26.821  1.00  0.00     0.338 C 
ATOM     33  O   UNL A   1      42.712  24.928  25.619  1.00  0.00    -0.246 OA
BRANCH  32  34
ATOM     34  C   UNL A   1      41.926  25.775  27.679  1.00  0.00     0.060 A 
ATOM     35  C   UNL A   1      42.662  26.948  27.886  1.00  0.00     0.016 A 
ATOM     36  C   UNL A   1      40.715  25.569  28.347  1.00  0.00     0.016 A 
ATOM     37  C   UNL A   1      42.230  27.886  28.816  1.00  0.00     0.010 A 
ATOM     38  C   UNL A   1      40.284  26.516  29.287  1.00  0.00     0.010 A 
ATOM     39  C   UNL A   1      41.064  27.654  29.559  1.00  0.00    -0.014 A 
BRANCH  39  40
ATOM     40  C   UNL A   1      40.774  28.543  30.711  1.00  0.00     0.031 A 
ATOM     41  C   UNL A   1      41.638  28.457  31.943  1.00  0.00     0.074 A 
ATOM     42  C   UNL A   1      39.820  29.487  30.623  1.00  0.00     0.049 A 
ATOM     43  N   UNL A   1      41.633  29.212  33.011  1.00  0.00    -0.248 NA
ATOM     44  C   UNL A   1      42.643  27.381  31.971  1.00  0.00     0.031 C 
ATOM     45  C   UNL A   1      38.943  29.698  29.471  1.00  0.00     0.029 A 
ATOM     46  N   UNL A   1      39.444  30.460  31.515  1.00  0.00    -0.354 N 
ATOM     47  C   UNL A   1      42.635  28.710  33.835  1.00  0.00     0.074 A 
ATOM     48  C   UNL A   1      43.201  27.562  33.160  1.00  0.00     0.031 C 
ATOM     49  C   UNL A   1      38.140  30.747  29.722  1.00  0.00     0.029 A 
ATOM     50  C   UNL A   1      38.433  31.268  31.056  1.00  0.00     0.049 A 
ATOM     51  H   UNL A   1      39.861  30.568  32.401  1.00  0.00     0.167 HD
ATOM     52  C   UNL A   1      43.056  29.168  35.038  1.00  0.00     0.031 A 
ATOM     53  C   UNL A   1      37.814  32.311  31.642  1.00  0.00     0.031 A 
ATOM     54  C   UNL A   1      42.485  30.301  35.719  1.00  0.00     0.049 A 
ATOM     55  C   UNL A   1      38.260  32.766  33.006  1.00  0.00     0.074 A 
ATOM     56  C   UNL A   1      42.853  30.850  36.935  1.00  0.00     0.029 A 
ATOM     57  N   UNL A   1      41.423  31.056  35.245  1.00  0.00    -0.354 N 
ATOM     58  N   UNL A   1      39.230  32.299  33.755  1.00  0.00    -0.248 NA
ATOM     59  C   UNL A   1      37.534  33.900  33.596  1.00  0.00     0.031 C 
ATOM     60  C   UNL A   1      41.977  31.903  37.224  1.00  0.00     0.029 A 
ATOM     61  C   UNL A   1      41.102  32.047  36.159  1.00  0.00     0.049 A 
ATOM     62  H   UNL A   1      40.964  30.908  34.387  1.00  0.00     0.167 HD
ATOM     63  C   UNL A   1      39.243  33.094  34.898  1.00  0.00     0.074 A 
ATOM     64  C   UNL A   1      38.199  34.084  34.729  1.00  0.00     0.031 C 
ATOM     65  C   UNL A   1      40.047  33.014  35.987  1.00  0.00     0.031 A 
BRANCH  52  66
ATOM     66  C   UNL A   1      44.174  28.418  35.712  1.00  0.00    -0.014 A 
ATOM     67  C   UNL A   1      43.911  27.331  36.567  1.00  0.00     0.010 A 
ATOM     68  C   UNL A   1      45.509  28.783  35.461  1.00  0.00     0.010 A 
ATOM     69  C   UNL A   1      44.962  26.650  37.188  1.00  0.00     0.020 A 
ATOM     70  C   UNL A   1      46.563  28.088  36.060  1.00  0.00     0.020 A 
ATOM     71  C   UNL A   1      46.281  27.036  36.934  1.00  0.00     0.054 A 
BRANCH  71  72
ATOM     72  S   UNL A   1      47.627  26.125  37.740  1.00  0.00     0.124 S 
ATOM     73  O   UNL A   1      47.847  26.919  38.947  1.00  0.00    -0.237 OA
ATOM     74  O   UNL A   1      47.039  24.805  37.956  1.00  0.00    -0.237 OA
ATOM     75  O   UNL A   1      48.711  26.168  36.761  1.00  0.00    -0.744 OA
ENDBRANCH  71  72
ENDBRANCH  52  66
BRANCH  53  76
ATOM     76  C   UNL A   1      36.696  32.998  30.939  1.00  0.00    -0.014 A 
ATOM     77  C   UNL A   1      35.357  32.698  31.245  1.00  0.00     0.010 A 
ATOM     78  C   UNL A   1      36.974  33.965  29.954  1.00  0.00     0.010 A 
ATOM     79  C   UNL A   1      34.316  33.342  30.570  1.00  0.00     0.020 A 
ATOM     80  C   UNL A   1      35.936  34.629  29.297  1.00  0.00     0.020 A 
ATOM     81  C   UNL A   1      34.613  34.306  29.602  1.00  0.00     0.054 A 
BRANCH  81  82
ATOM     82  S   UNL A   1      33.248  35.174  28.779  1.00  0.00     0.124 S 
ATOM     83  O   UNL A   1      32.478  35.673  29.915  1.00  0.00    -0.237 OA
ATOM     84  O   UNL A   1      33.945  36.187  27.992  1.00  0.00    -0.237 OA
ATOM     85  O   UNL A   1      32.600  34.123  27.996  1.00  0.00    -0.744 OA
ENDBRANCH  81  82
ENDBRANCH  53  76
BRANCH  65  86
ATOM     86  C   UNL A   1      39.837  34.035  37.075  1.00  0.00    -0.014 A 
ATOM     87  C   UNL A   1      38.980  33.775  38.159  1.00  0.00     0.010 A 
ATOM     88  C   UNL A   1      40.525  35.260  37.025  1.00  0.00     0.010 A 
ATOM     89  C   UNL A   1      38.777  34.743  39.148  1.00  0.00     0.020 A 
ATOM     90  C   UNL A   1      40.347  36.219  38.025  1.00  0.00     0.020 A 
ATOM     91  C   UNL A   1      39.458  35.962  39.071  1.00  0.00     0.054 A 
BRANCH  91  92
ATOM     92  S   UNL A   1      39.189  37.198  40.371  1.00  0.00     0.124 S 
ATOM     93  O   UNL A   1      38.624  36.388  41.446  1.00  0.00    -0.237 OA
ATOM     94  O   UNL A   1      40.535  37.712  40.611  1.00  0.00    -0.237 OA
ATOM     95  O   UNL A   1      38.266  38.150  39.757  1.00  0.00    -0.744 OA
ENDBRANCH  91  92
ENDBRANCH  65  86
ENDBRANCH  39  40
ENDBRANCH  32  34
ENDBRANCH  31  32
ENDBRANCH  30  31
ENDBRANCH  29  30
ENDBRANCH   1  29
TORSDOF 21
ENDMDL
MODEL 2
REMARK VINA RESULT:     -10.0      2.535      8.623
REMARK SMILES COc1cccc(C(=O)N2[C@@H](C(=O)OCCOCCOC(=O)c3ccc(-c4c5nc(c(-c6ccc(S(=O)(=O)[O-])cc6)c6ccc([nH]6)c(-c6ccc(S(=O)(=O)[O-])cc6)c6nc(c(-c7ccc(S(=O)(=O)[O-])cc7)c7ccc4[nH]7)C=C6)C=C5)cc3)CS[C@@H]2c2ccccc2Cl)c1
REMARK SMILES IDX 17 1 16 2 15 3 14 4 12 5 13 6 11 7 10 8 85 9 83 10 84 11
REMARK SMILES IDX 8 12 9 13 7 14 3 15 4 16 93 17 5 18 6 19 2 20 1 21 86 22
REMARK SMILES IDX 87 23 91 24 88 25 90 26 92 27 89 28 18 29 19 30 20 31 21 32
REMARK SMILES IDX 22 33 23 34 24 35 82 36 25 37 81 38 26 39 27 40 28 41 75 42
REMARK SMILES IDX 29 43 80 44 74 45 76 46 30 47 79 48 73 49 72 50 31 52 61 53
REMARK SMILES IDX 42 54 60 55 43 56 46 57 59 58 77 59 44 60 45 61 58 63 78 64
REMARK SMILES IDX 47 65 32 66 33 67 41 68 34 69 40 70 35 71 36 72 37 73 38 74
REMARK SMILES IDX 39 75 62 76 63 77 71 78 64 79 70 80 65 81 66 82 67 83 68 84
REMARK SMILES IDX 69 85 48 86 49 87 57 88 50 89 56 90 51 91 52 92 53 93 54 94
REMARK SMILES IDX 55 95
REMARK H PARENT 76 51 46 62
REMARK Flexibility Score: inf
ROOT
ATOM      1  O   UNL A   1      34.681  31.037  28.355  1.00  0.00    -0.374 OA
ENDROOT
BRANCH   1   2
ATOM      2  C   UNL A   1      33.888  30.112  27.609  1.00  0.00     0.202 C 
BRANCH   2   3
ATOM      3  C   UNL A   1      34.615  28.913  26.984  1.00  0.00     0.261 C 
BRANCH   3   4
ATOM      4  O   UNL A   1      33.716  27.846  26.635  1.00  0.00    -0.462 OA
BRANCH   4   5
ATOM      5  C   UNL A   1      32.391  28.152  26.718  1.00  0.00     0.329 C 
ATOM      6  O   UNL A   1      31.770  28.301  27.765  1.00  0.00    -0.250 OA
BRANCH   5   7
ATOM      7  C   UNL A   1      31.779  28.438  25.342  1.00  0.00     0.206 C 
ATOM      8  N   UNL A   1      31.367  27.274  24.559  1.00  0.00    -0.308 N 
ATOM      9  C   UNL A   1      31.099  27.573  23.161  1.00  0.00     0.176 C 
ATOM     10  C   UNL A   1      32.763  29.231  24.462  1.00  0.00     0.109 C 
ATOM     11  S   UNL A   1      32.613  28.584  22.769  1.00  0.00    -0.129 SA
BRANCH   8  12
ATOM     12  C   UNL A   1      31.173  26.058  25.185  1.00  0.00     0.255 C 
ATOM     13  O   UNL A   1      30.268  25.885  25.997  1.00  0.00    -0.269 OA
BRANCH  12  14
ATOM     14  C   UNL A   1      32.233  25.009  25.088  1.00  0.00     0.043 A 
ATOM     15  C   UNL A   1      33.150  22.842  25.685  1.00  0.00     0.119 A 
ATOM     16  C   UNL A   1      34.024  22.910  24.602  1.00  0.00     0.046 A 
ATOM     17  C   UNL A   1      32.257  23.888  25.930  1.00  0.00     0.060 A 
ATOM     18  C   UNL A   1      33.989  24.006  23.742  1.00  0.00     0.005 A 
ATOM     19  C   UNL A   1      33.097  25.052  23.984  1.00  0.00     0.014 A 
BRANCH  15  20
ATOM     20  O   UNL A   1      33.266  21.731  26.477  1.00  0.00    -0.497 OA
ATOM     21  C   UNL A   1      34.205  21.845  27.542  1.00  0.00     0.278 C 
ENDBRANCH  15  20
ENDBRANCH  12  14
ENDBRANCH   8  12
BRANCH   9  22
ATOM     22  C   UNL A   1      29.856  28.424  22.817  1.00  0.00     0.003 A 
ATOM     23  C   UNL A   1      30.086  29.623  22.087  1.00  0.00     0.008 A 
ATOM     24  C   UNL A   1      28.514  28.166  23.155  1.00  0.00     0.047 A 
ATOM     25  C   UNL A   1      29.084  30.570  21.850  1.00  0.00     0.001 A 
ATOM     26  C   UNL A   1      27.513  29.133  22.938  1.00  0.00     0.021 A 
ATOM     27  Cl  UNL A   1      27.925  26.676  23.790  1.00  0.00    -0.084 Cl
ATOM     28  C   UNL A   1      27.799  30.339  22.308  1.00  0.00     0.002 A 
ENDBRANCH   9  22
ENDBRANCH   5   7
ENDBRANCH   4   5
ENDBRANCH   3   4
ENDBRANCH   2   3
ENDBRANCH   1   2
BRANCH   1  29
ATOM     29  C   UNL A   1      35.056  32.256  27.719  1.00  0.00     0.202 C 
BRANCH  29  30
ATOM     30  C   UNL A   1      34.021  33.384  27.714  1.00  0.00     0.261 C 
BRANCH  30  31
ATOM     31  O   UNL A   1      33.142  33.309  28.850  1.00  0.00    -0.460 OA
BRANCH  31  32
ATOM     32  C   UNL A   1      33.376  34.251  29.792  1.00  0.00     0.338 C 
ATOM     33  O   UNL A   1      32.685  35.237  30.034  1.00  0.00    -0.246 OA
BRANCH  32  34
ATOM     34  C   UNL A   1      34.506  33.865  30.653  1.00  0.00     0.060 A 
ATOM     35  C   UNL A   1      35.659  34.654  30.573  1.00  0.00     0.016 A 
ATOM     36  C   UNL A   1      34.487  32.713  31.444  1.00  0.00     0.016 A 
ATOM     37  C   UNL A   1      36.822  34.256  31.222  1.00  0.00     0.010 A 
ATOM     38  C   UNL A   1      35.663  32.311  32.095  1.00  0.00     0.010 A 
ATOM     39  C   UNL A   1      36.847  33.057  31.947  1.00  0.00    -0.014 A 
BRANCH  39  40
ATOM     40  C   UNL A   1      38.159  32.539  32.409  1.00  0.00     0.031 A 
ATOM     41  C   UNL A   1      38.604  32.816  33.821  1.00  0.00     0.074 A 
ATOM     42  C   UNL A   1      38.897  31.744  31.614  1.00  0.00     0.049 A 
ATOM     43  N   UNL A   1      39.651  32.364  34.462  1.00  0.00    -0.248 NA
ATOM     44  C   UNL A   1      37.752  33.714  34.618  1.00  0.00     0.031 C 
ATOM     45  C   UNL A   1      38.557  31.370  30.241  1.00  0.00     0.029 A 
ATOM     46  N   UNL A   1      40.079  31.091  31.858  1.00  0.00    -0.354 N 
ATOM     47  C   UNL A   1      39.583  32.917  35.736  1.00  0.00     0.074 A 
ATOM     48  C   UNL A   1      38.413  33.766  35.767  1.00  0.00     0.031 C 
ATOM     49  C   UNL A   1      39.504  30.540  29.769  1.00  0.00     0.029 A 
ATOM     50  C   UNL A   1      40.523  30.340  30.797  1.00  0.00     0.049 A 
ATOM     51  H   UNL A   1      40.563  31.155  32.713  1.00  0.00     0.167 HD
ATOM     52  C   UNL A   1      40.412  32.725  36.791  1.00  0.00     0.031 A 
ATOM     53  C   UNL A   1      41.624  29.575  30.668  1.00  0.00     0.031 A 
ATOM     54  C   UNL A   1      41.585  31.892  36.760  1.00  0.00     0.049 A 
ATOM     55  C   UNL A   1      42.562  29.424  31.836  1.00  0.00     0.074 A 
ATOM     56  C   UNL A   1      42.479  31.625  37.783  1.00  0.00     0.029 A 
ATOM     57  N   UNL A   1      42.031  31.196  35.647  1.00  0.00    -0.354 N 
ATOM     58  N   UNL A   1      42.464  29.928  33.043  1.00  0.00    -0.248 NA
ATOM     59  C   UNL A   1      43.752  28.588  31.626  1.00  0.00     0.031 C 
ATOM     60  C   UNL A   1      43.497  30.810  37.273  1.00  0.00     0.029 A 
ATOM     61  C   UNL A   1      43.205  30.523  35.950  1.00  0.00     0.049 A 
ATOM     62  H   UNL A   1      41.581  31.182  34.772  1.00  0.00     0.167 HD
ATOM     63  C   UNL A   1      43.571  29.455  33.743  1.00  0.00     0.074 A 
ATOM     64  C   UNL A   1      44.311  28.608  32.830  1.00  0.00     0.031 C 
ATOM     65  C   UNL A   1      43.941  29.698  35.025  1.00  0.00     0.031 A 
BRANCH  52  66
ATOM     66  C   UNL A   1      40.091  33.461  38.066  1.00  0.00    -0.014 A 
ATOM     67  C   UNL A   1      40.701  34.692  38.369  1.00  0.00     0.010 A 
ATOM     68  C   UNL A   1      39.141  32.930  38.956  1.00  0.00     0.010 A 
ATOM     69  C   UNL A   1      40.394  35.359  39.559  1.00  0.00     0.020 A 
ATOM     70  C   UNL A   1      38.813  33.606  40.135  1.00  0.00     0.020 A 
ATOM     71  C   UNL A   1      39.456  34.808  40.437  1.00  0.00     0.054 A 
BRANCH  71  72
ATOM     72  S   UNL A   1      39.064  35.700  41.967  1.00  0.00     0.124 S 
ATOM     73  O   UNL A   1      39.951  35.051  42.929  1.00  0.00    -0.237 OA
ATOM     74  O   UNL A   1      39.405  37.081  41.632  1.00  0.00    -0.237 OA
ATOM     75  O   UNL A   1      37.638  35.445  42.164  1.00  0.00    -0.744 OA
ENDBRANCH  71  72
ENDBRANCH  52  66
BRANCH  53  76
ATOM     76  C   UNL A   1      41.904  28.892  29.375  1.00  0.00    -0.014 A 
ATOM     77  C   UNL A   1      41.547  27.547  29.177  1.00  0.00     0.010 A 
ATOM     78  C   UNL A   1      42.532  29.595  28.330  1.00  0.00     0.010 A 
ATOM     79  C   UNL A   1      41.825  26.913  27.962  1.00  0.00     0.020 A 
ATOM     80  C   UNL A   1      42.787  28.973  27.107  1.00  0.00     0.020 A 
ATOM     81  C   UNL A   1      42.442  27.632  26.934  1.00  0.00     0.054 A 
BRANCH  81  82
ATOM     82  S   UNL A   1      42.740  26.809  25.344  1.00  0.00     0.124 S 
ATOM     83  O   UNL A   1      41.574  25.940  25.229  1.00  0.00    -0.237 OA
ATOM     84  O   UNL A   1      42.788  27.932  24.411  1.00  0.00    -0.237 OA
ATOM     85  O   UNL A   1      44.015  26.125  25.549  1.00  0.00    -0.744 OA
ENDBRANCH  81  82
ENDBRANCH  53  76
BRANCH  65  86
ATOM     86  C   UNL A   1      45.196  29.026  35.519  1.00  0.00    -0.014 A 
ATOM     87  C   UNL A   1      45.155  27.745  36.097  1.00  0.00     0.010 A 
ATOM     88  C   UNL A   1      46.436  29.675  35.378  1.00  0.00     0.010 A 
ATOM     89  C   UNL A   1      46.326  27.146  36.571  1.00  0.00     0.020 A 
ATOM     90  C   UNL A   1      47.612  29.068  35.826  1.00  0.00     0.020 A 
ATOM     91  C   UNL A   1      47.547  27.814  36.439  1.00  0.00     0.054 A 
BRANCH  91  92
ATOM     92  S   UNL A   1      49.054  27.013  37.051  1.00  0.00     0.124 S 
ATOM     93  O   UNL A   1      48.530  26.142  38.099  1.00  0.00    -0.237 OA
ATOM     94  O   UNL A   1      49.563  26.332  35.863  1.00  0.00    -0.237 OA
ATOM     95  O   UNL A   1      49.873  28.129  37.519  1.00  0.00    -0.744 OA
ENDBRANCH  91  92
ENDBRANCH  65  86
ENDBRANCH  39  40
ENDBRANCH  32  34
ENDBRANCH  31  32
ENDBRANCH  30  31
ENDBRANCH  29  30
ENDBRANCH   1  29
TORSDOF 21
ENDMDL
MODEL 3
REMARK VINA RESULT:      -9.8      1.791      3.839
REMARK SMILES COc1cccc(C(=O)N2[C@@H](C(=O)OCCOCCOC(=O)c3ccc(-c4c5nc(c(-c6ccc(S(=O)(=O)[O-])cc6)c6ccc([nH]6)c(-c6ccc(S(=O)(=O)[O-])cc6)c6nc(c(-c7ccc(S(=O)(=O)[O-])cc7)c7ccc4[nH]7)C=C6)C=C5)cc3)CS[C@@H]2c2ccccc2Cl)c1
REMARK SMILES IDX 17 1 16 2 15 3 14 4 12 5 13 6 11 7 10 8 85 9 83 10 84 11
REMARK SMILES IDX 8 12 9 13 7 14 3 15 4 16 93 17 5 18 6 19 2 20 1 21 86 22
REMARK SMILES IDX 87 23 91 24 88 25 90 26 92 27 89 28 18 29 19 30 20 31 21 32
REMARK SMILES IDX 22 33 23 34 24 35 82 36 25 37 81 38 26 39 27 40 28 41 75 42
REMARK SMILES IDX 29 43 80 44 74 45 76 46 30 47 79 48 73 49 72 50 31 52 61 53
REMARK SMILES IDX 42 54 60 55 43 56 46 57 59 58 77 59 44 60 45 61 58 63 78 64
REMARK SMILES IDX 47 65 32 66 33 67 41 68 34 69 40 70 35 71 36 72 37 73 38 74
REMARK SMILES IDX 39 75 62 76 63 77 71 78 64 79 70 80 65 81 66 82 67 83 68 84
REMARK SMILES IDX 69 85 48 86 49 87 57 88 50 89 56 90 51 91 52 92 53 93 54 94
REMARK SMILES IDX 55 95
REMARK H PARENT 76 51 46 62
REMARK Flexibility Score: inf
ROOT
ATOM      1  O   UNL A   1      39.579  22.265  26.689  1.00  0.00    -0.374 OA
ENDROOT
BRANCH   1   2
ATOM      2  C   UNL A   1      38.712  23.184  26.024  1.00  0.00     0.202 C 
BRANCH   2   3
ATOM      3  C   UNL A   1      37.388  22.629  25.479  1.00  0.00     0.261 C 
BRANCH   3   4
ATOM      4  O   UNL A   1      36.506  23.666  25.015  1.00  0.00    -0.462 OA
BRANCH   4   5
ATOM      5  C   UNL A   1      35.744  23.339  23.934  1.00  0.00     0.329 C 
ATOM      6  O   UNL A   1      35.914  23.771  22.799  1.00  0.00    -0.250 OA
BRANCH   5   7
ATOM      7  C   UNL A   1      34.721  22.244  24.261  1.00  0.00     0.206 C 
ATOM      8  N   UNL A   1      33.348  22.485  23.820  1.00  0.00    -0.308 N 
ATOM      9  C   UNL A   1      32.374  21.590  24.424  1.00  0.00     0.176 C 
ATOM     10  C   UNL A   1      34.656  21.995  25.779  1.00  0.00     0.109 C 
ATOM     11  S   UNL A   1      32.911  21.708  26.203  1.00  0.00    -0.129 SA
BRANCH   8  12
ATOM     12  C   UNL A   1      33.095  23.425  22.839  1.00  0.00     0.255 C 
ATOM     13  O   UNL A   1      33.510  23.291  21.691  1.00  0.00    -0.269 OA
BRANCH  12  14
ATOM     14  C   UNL A   1      32.542  24.758  23.231  1.00  0.00     0.043 A 
ATOM     15  C   UNL A   1      31.240  26.750  22.753  1.00  0.00     0.119 A 
ATOM     16  C   UNL A   1      31.209  27.059  24.112  1.00  0.00     0.046 A 
ATOM     17  C   UNL A   1      31.905  25.604  22.312  1.00  0.00     0.060 A 
ATOM     18  C   UNL A   1      31.814  26.210  25.037  1.00  0.00     0.005 A 
ATOM     19  C   UNL A   1      32.478  25.063  24.598  1.00  0.00     0.014 A 
BRANCH  15  20
ATOM     20  O   UNL A   1      30.626  27.648  21.922  1.00  0.00    -0.497 OA
ATOM     21  C   UNL A   1      30.598  28.990  22.400  1.00  0.00     0.278 C 
ENDBRANCH  15  20
ENDBRANCH  12  14
ENDBRANCH   8  12
BRANCH   9  22
ATOM     22  C   UNL A   1      32.395  20.099  24.018  1.00  0.00     0.003 A 
ATOM     23  C   UNL A   1      32.591  19.156  25.065  1.00  0.00     0.008 A 
ATOM     24  C   UNL A   1      32.261  19.555  22.726  1.00  0.00     0.047 A 
ATOM     25  C   UNL A   1      32.796  17.792  24.827  1.00  0.00     0.001 A 
ATOM     26  C   UNL A   1      32.495  18.187  22.488  1.00  0.00     0.021 A 
ATOM     27  Cl  UNL A   1      31.752  20.433  21.334  1.00  0.00    -0.084 Cl
ATOM     28  C   UNL A   1      32.783  17.311  23.530  1.00  0.00     0.002 A 
ENDBRANCH   9  22
ENDBRANCH   5   7
ENDBRANCH   4   5
ENDBRANCH   3   4
ENDBRANCH   2   3
ENDBRANCH   1   2
BRANCH   1  29
ATOM     29  C   UNL A   1      40.711  22.793  27.373  1.00  0.00     0.202 C 
BRANCH  29  30
ATOM     30  C   UNL A   1      41.728  23.572  26.535  1.00  0.00     0.261 C 
BRANCH  30  31
ATOM     31  O   UNL A   1      42.030  24.854  27.114  1.00  0.00    -0.460 OA
BRANCH  31  32
ATOM     32  C   UNL A   1      41.337  25.881  26.572  1.00  0.00     0.338 C 
ATOM     33  O   UNL A   1      41.031  26.020  25.391  1.00  0.00    -0.246 OA
BRANCH  32  34
ATOM     34  C   UNL A   1      40.812  26.773  27.620  1.00  0.00     0.060 A 
ATOM     35  C   UNL A   1      41.437  28.018  27.758  1.00  0.00     0.016 A 
ATOM     36  C   UNL A   1      39.810  26.378  28.510  1.00  0.00     0.016 A 
ATOM     37  C   UNL A   1      41.116  28.843  28.831  1.00  0.00     0.010 A 
ATOM     38  C   UNL A   1      39.490  27.211  29.592  1.00  0.00     0.010 A 
ATOM     39  C   UNL A   1      40.176  28.424  29.782  1.00  0.00    -0.014 A 
BRANCH  39  40
ATOM     40  C   UNL A   1      40.046  29.206  31.037  1.00  0.00     0.031 A 
ATOM     41  C   UNL A   1      41.032  28.976  32.153  1.00  0.00     0.074 A 
ATOM     42  C   UNL A   1      39.127  30.182  31.142  1.00  0.00     0.049 A 
ATOM     43  N   UNL A   1      41.172  29.624  33.280  1.00  0.00    -0.248 NA
ATOM     44  C   UNL A   1      41.991  27.873  31.970  1.00  0.00     0.031 C 
ATOM     45  C   UNL A   1      38.142  30.530  30.118  1.00  0.00     0.029 A 
ATOM     46  N   UNL A   1      38.888  31.076  32.155  1.00  0.00    -0.354 N 
ATOM     47  C   UNL A   1      42.234  29.015  33.938  1.00  0.00     0.074 A 
ATOM     48  C   UNL A   1      42.679  27.921  33.102  1.00  0.00     0.031 C 
ATOM     49  C   UNL A   1      37.413  31.573  30.552  1.00  0.00     0.029 A 
ATOM     50  C   UNL A   1      37.867  31.954  31.888  1.00  0.00     0.049 A 
ATOM     51  H   UNL A   1      39.401  31.086  32.997  1.00  0.00     0.167 HD
ATOM     52  C   UNL A   1      42.800  29.343  35.126  1.00  0.00     0.031 A 
ATOM     53  C   UNL A   1      37.357  32.955  32.632  1.00  0.00     0.031 A 
ATOM     54  C   UNL A   1      42.351  30.422  35.967  1.00  0.00     0.049 A 
ATOM     55  C   UNL A   1      37.964  33.262  33.975  1.00  0.00     0.074 A 
ATOM     56  C   UNL A   1      42.869  30.839  37.181  1.00  0.00     0.029 A 
ATOM     57  N   UNL A   1      41.276  31.250  35.685  1.00  0.00    -0.354 N 
ATOM     58  N   UNL A   1      38.989  32.696  34.566  1.00  0.00    -0.248 NA
ATOM     59  C   UNL A   1      37.352  34.356  34.743  1.00  0.00     0.031 C 
ATOM     60  C   UNL A   1      42.072  31.885  37.660  1.00  0.00     0.029 A 
ATOM     61  C   UNL A   1      41.094  32.157  36.716  1.00  0.00     0.049 A 
ATOM     62  H   UNL A   1      40.722  31.200  34.872  1.00  0.00     0.167 HD
ATOM     63  C   UNL A   1      39.156  33.377  35.769  1.00  0.00     0.074 A 
ATOM     64  C   UNL A   1      38.141  34.410  35.808  1.00  0.00     0.031 C 
ATOM     65  C   UNL A   1      40.067  33.168  36.751  1.00  0.00     0.031 A 
BRANCH  52  66
ATOM     66  C   UNL A   1      43.952  28.498  35.600  1.00  0.00    -0.014 A 
ATOM     67  C   UNL A   1      45.280  28.825  35.270  1.00  0.00     0.010 A 
ATOM     68  C   UNL A   1      43.706  27.379  36.417  1.00  0.00     0.010 A 
ATOM     69  C   UNL A   1      46.337  28.026  35.715  1.00  0.00     0.020 A 
ATOM     70  C   UNL A   1      44.762  26.593  36.885  1.00  0.00     0.020 A 
ATOM     71  C   UNL A   1      46.071  26.912  36.517  1.00  0.00     0.054 A 
BRANCH  71  72
ATOM     72  S   UNL A   1      47.461  25.900  37.095  1.00  0.00     0.124 S 
ATOM     73  O   UNL A   1      46.993  24.548  36.798  1.00  0.00    -0.237 OA
ATOM     74  O   UNL A   1      48.570  26.376  36.271  1.00  0.00    -0.237 OA
ATOM     75  O   UNL A   1      47.561  26.226  38.516  1.00  0.00    -0.744 OA
ENDBRANCH  71  72
ENDBRANCH  52  66
BRANCH  53  76
ATOM     76  C   UNL A   1      36.199  33.740  32.122  1.00  0.00    -0.014 A 
ATOM     77  C   UNL A   1      35.948  33.843  30.743  1.00  0.00     0.010 A 
ATOM     78  C   UNL A   1      35.337  34.388  33.026  1.00  0.00     0.010 A 
ATOM     79  C   UNL A   1      34.864  34.593  30.276  1.00  0.00     0.020 A 
ATOM     80  C   UNL A   1      34.238  35.115  32.564  1.00  0.00     0.020 A 
ATOM     81  C   UNL A   1      34.015  35.222  31.191  1.00  0.00     0.054 A 
BRANCH  81  82
ATOM     82  S   UNL A   1      32.579  36.140  30.568  1.00  0.00     0.124 S 
ATOM     83  O   UNL A   1      31.486  35.551  31.335  1.00  0.00    -0.237 OA
ATOM     84  O   UNL A   1      32.916  37.521  30.904  1.00  0.00    -0.237 OA
ATOM     85  O   UNL A   1      32.576  35.837  29.138  1.00  0.00    -0.744 OA
ENDBRANCH  81  82
ENDBRANCH  53  76
BRANCH  65  86
ATOM     86  C   UNL A   1      40.016  34.085  37.945  1.00  0.00    -0.014 A 
ATOM     87  C   UNL A   1      40.739  35.291  37.968  1.00  0.00     0.010 A 
ATOM     88  C   UNL A   1      39.212  33.748  39.050  1.00  0.00     0.010 A 
ATOM     89  C   UNL A   1      40.698  36.119  39.094  1.00  0.00     0.020 A 
ATOM     90  C   UNL A   1      39.146  34.586  40.165  1.00  0.00     0.020 A 
ATOM     91  C   UNL A   1      39.907  35.757  40.189  1.00  0.00     0.054 A 
BRANCH  91  92
ATOM     92  S   UNL A   1      39.860  36.853  41.634  1.00  0.00     0.124 S 
ATOM     93  O   UNL A   1      38.958  36.134  42.529  1.00  0.00    -0.237 OA
ATOM     94  O   UNL A   1      41.259  36.896  42.053  1.00  0.00    -0.237 OA
ATOM     95  O   UNL A   1      39.338  38.108  41.099  1.00  0.00    -0.744 OA
ENDBRANCH  91  92
ENDBRANCH  65  86
ENDBRANCH  39  40
ENDBRANCH  32  34
ENDBRANCH  31  32
ENDBRANCH  30  31
ENDBRANCH  29  30
ENDBRANCH   1  29
TORSDOF 21
ENDMDL
