MODEL 1
REMARK VINA RESULT:      -8.3      0.000      0.000
REMARK SMILES COc1cc(C)cc2c1[C@@H](C)[C@@H](CC(=O)N[C@@H](Cc1c[nH]c3ccccc13)C(=O)OCCOCCOC(=O)c1ccc(-c3c4nc(c(-c5ccc(S(=O)(=O)[O-])cc5)c5ccc([nH]5)c(-c5ccc(S(=O)(=O)[O-])cc5)c5nc(c(-c6ccc(S(=O)(=O)[O-])cc6)c6ccc3[nH]6)C=C5)C=C4)cc1)C(=O)O2
REMARK SMILES IDX 32 1 31 2 30 3 28 4 29 5 17 6 16 7 14 8 15 9 13 11 12 12
REMARK SMILES IDX 3 13 4 14 9 15 5 16 8 17 10 18 6 19 7 20 101 21 11 22 99 23
REMARK SMILES IDX 100 24 2 25 1 26 18 27 19 28 20 29 27 30 21 31 22 32 26 33
REMARK SMILES IDX 23 35 25 36 24 37 33 38 34 39 35 40 36 41 37 42 38 43 39 44
REMARK SMILES IDX 40 45 98 46 41 47 97 48 42 49 43 50 44 51 91 52 45 53 96 54
REMARK SMILES IDX 90 55 92 56 46 57 95 58 89 59 88 60 47 62 77 63 58 64 76 65
REMARK SMILES IDX 59 66 62 67 75 68 93 69 60 70 61 71 74 73 94 74 63 75 48 76
REMARK SMILES IDX 49 77 57 78 50 79 56 80 51 81 52 82 53 83 54 84 55 85 78 86
REMARK SMILES IDX 79 87 87 88 80 89 86 90 81 91 82 92 83 93 84 94 85 95 64 96
REMARK SMILES IDX 65 97 73 98 66 99 72 100 67 101 68 102 69 103 70 104 71 105
REMARK H PARENT 16 10 21 34 92 61 62 72
REMARK Flexibility Score: inf
ROOT
ATOM      1  C   UNL A   1      52.125  25.623  41.300  1.00  0.00     0.202 C 
ENDROOT
BRANCH   1   2
ATOM      2  C   UNL A   1      52.781  24.760  40.217  1.00  0.00     0.261 C 
BRANCH   2   3
ATOM      3  O   UNL A   1      51.889  23.727  39.772  1.00  0.00    -0.462 OA
BRANCH   3   4
ATOM      4  C   UNL A   1      52.004  23.423  38.457  1.00  0.00     0.329 C 
ATOM      5  O   UNL A   1      53.067  23.184  37.893  1.00  0.00    -0.250 OA
BRANCH   4   6
ATOM      6  C   UNL A   1      50.647  23.230  37.772  1.00  0.00     0.196 C 
BRANCH   6   7
ATOM      7  N   UNL A   1      49.388  23.691  38.354  1.00  0.00    -0.342 N 
ATOM      8  C   UNL A   1      48.233  22.950  38.446  1.00  0.00     0.221 C 
ATOM      9  O   UNL A   1      47.145  23.507  38.307  1.00  0.00    -0.275 OA
ATOM     10  H   UNL A   1      49.365  24.608  38.712  1.00  0.00     0.164 HD
BRANCH   8  11
ATOM     11  C   UNL A   1      48.306  21.496  38.914  1.00  0.00     0.116 C 
BRANCH  11  12
ATOM     12  C   UNL A   1      48.471  20.361  37.874  1.00  0.00     0.116 C 
ATOM     13  C   UNL A   1      46.317  18.073  39.999  1.00  0.00     0.126 A 
ATOM     14  C   UNL A   1      46.437  17.714  41.352  1.00  0.00     0.050 A 
ATOM     15  C   UNL A   1      47.410  18.623  39.320  1.00  0.00     0.041 A 
ATOM     16  C   UNL A   1      47.645  17.886  42.047  1.00  0.00    -0.044 A 
ATOM     17  C   UNL A   1      48.643  18.623  39.990  1.00  0.00     0.138 A 
ATOM     18  C   UNL A   1      47.376  19.249  37.932  1.00  0.00     0.038 C 
ATOM     19  C   UNL A   1      47.742  17.556  43.506  1.00  0.00     0.044 C 
ATOM     20  C   UNL A   1      48.772  18.292  41.337  1.00  0.00     0.051 A 
ATOM     21  O   UNL A   1      49.833  18.948  39.314  1.00  0.00    -0.426 OA
ATOM     22  C   UNL A   1      46.032  19.804  37.449  1.00  0.00     0.014 C 
ATOM     23  C   UNL A   1      49.737  19.571  38.081  1.00  0.00     0.315 C 
ATOM     24  O   UNL A   1      50.639  19.513  37.254  1.00  0.00    -0.251 OA
BRANCH  13  25
ATOM     25  O   UNL A   1      45.196  17.800  39.267  1.00  0.00    -0.496 OA
ATOM     26  C   UNL A   1      44.294  16.865  39.845  1.00  0.00     0.278 C 
ENDBRANCH  13  25
ENDBRANCH  11  12
ENDBRANCH   8  11
ENDBRANCH   6   7
BRANCH   6  27
ATOM     27  C   UNL A   1      50.734  23.635  36.310  1.00  0.00     0.074 C 
BRANCH  27  28
ATOM     28  C   UNL A   1      50.337  22.704  35.202  1.00  0.00    -0.020 A 
ATOM     29  C   UNL A   1      51.285  21.950  34.532  1.00  0.00     0.087 A 
ATOM     30  C   UNL A   1      49.057  22.161  34.815  1.00  0.00     0.003 A 
ATOM     31  N   UNL A   1      50.694  20.753  34.249  1.00  0.00    -0.361 N 
ATOM     32  C   UNL A   1      49.330  20.877  34.327  1.00  0.00     0.046 A 
ATOM     33  C   UNL A   1      47.696  22.530  34.903  1.00  0.00     0.010 A 
ATOM     34  H   UNL A   1      51.175  19.924  34.022  1.00  0.00     0.166 HD
ATOM     35  C   UNL A   1      48.340  19.933  34.031  1.00  0.00     0.026 A 
ATOM     36  C   UNL A   1      46.692  21.638  34.491  1.00  0.00     0.001 A 
ATOM     37  C   UNL A   1      47.011  20.346  34.092  1.00  0.00     0.002 A 
ENDBRANCH  27  28
ENDBRANCH   6  27
ENDBRANCH   4   6
ENDBRANCH   3   4
ENDBRANCH   2   3
ENDBRANCH   1   2
BRANCH   1  38
ATOM     38  O   UNL A   1      51.544  26.852  40.863  1.00  0.00    -0.374 OA
BRANCH  38  39
ATOM     39  C   UNL A   1      50.848  26.857  39.614  1.00  0.00     0.202 C 
BRANCH  39  40
ATOM     40  C   UNL A   1      49.335  27.141  39.635  1.00  0.00     0.261 C 
BRANCH  40  41
ATOM     41  O   UNL A   1      48.899  28.024  38.578  1.00  0.00    -0.460 OA
BRANCH  41  42
ATOM     42  C   UNL A   1      48.296  27.410  37.527  1.00  0.00     0.338 C 
ATOM     43  O   UNL A   1      48.555  26.306  37.081  1.00  0.00    -0.246 OA
BRANCH  42  44
ATOM     44  C   UNL A   1      47.108  28.172  37.089  1.00  0.00     0.060 A 
ATOM     45  C   UNL A   1      47.221  29.428  36.490  1.00  0.00     0.016 A 
ATOM     46  C   UNL A   1      45.862  27.536  37.169  1.00  0.00     0.016 A 
ATOM     47  C   UNL A   1      46.084  30.022  35.923  1.00  0.00     0.010 A 
ATOM     48  C   UNL A   1      44.730  28.134  36.614  1.00  0.00     0.010 A 
ATOM     49  C   UNL A   1      44.838  29.367  35.955  1.00  0.00    -0.014 A 
BRANCH  49  50
ATOM     50  C   UNL A   1      43.685  29.864  35.158  1.00  0.00     0.031 A 
ATOM     51  C   UNL A   1      42.672  30.803  35.740  1.00  0.00     0.074 A 
ATOM     52  C   UNL A   1      43.525  29.394  33.904  1.00  0.00     0.049 A 
ATOM     53  N   UNL A   1      41.622  31.331  35.164  1.00  0.00    -0.248 NA
ATOM     54  C   UNL A   1      42.849  31.199  37.146  1.00  0.00     0.031 C 
ATOM     55  C   UNL A   1      44.425  28.445  33.245  1.00  0.00     0.029 A 
ATOM     56  N   UNL A   1      42.556  29.641  32.963  1.00  0.00    -0.354 N 
ATOM     57  C   UNL A   1      41.027  32.141  36.121  1.00  0.00     0.074 A 
ATOM     58  C   UNL A   1      41.803  31.996  37.335  1.00  0.00     0.031 C 
ATOM     59  C   UNL A   1      43.982  28.211  32.001  1.00  0.00     0.029 A 
ATOM     60  C   UNL A   1      42.751  28.966  31.780  1.00  0.00     0.049 A 
ATOM     61  H   UNL A   1      41.796  30.246  33.119  1.00  0.00     0.167 HD
ATOM     62  C   UNL A   1      39.945  32.945  35.987  1.00  0.00     0.031 A 
ATOM     63  C   UNL A   1      42.029  28.953  30.641  1.00  0.00     0.031 A 
ATOM     64  C   UNL A   1      39.170  33.070  34.778  1.00  0.00     0.049 A 
ATOM     65  C   UNL A   1      40.800  29.813  30.539  1.00  0.00     0.074 A 
ATOM     66  C   UNL A   1      38.091  33.903  34.539  1.00  0.00     0.029 A 
ATOM     67  N   UNL A   1      39.376  32.342  33.616  1.00  0.00    -0.354 N 
ATOM     68  N   UNL A   1      40.303  30.640  31.427  1.00  0.00    -0.248 NA
ATOM     69  C   UNL A   1      40.038  29.749  29.283  1.00  0.00     0.031 C 
ATOM     70  C   UNL A   1      37.599  33.630  33.260  1.00  0.00     0.029 A 
ATOM     71  C   UNL A   1      38.418  32.679  32.672  1.00  0.00     0.049 A 
ATOM     72  H   UNL A   1      40.096  31.685  33.480  1.00  0.00     0.167 HD
ATOM     73  C   UNL A   1      39.182  31.206  30.832  1.00  0.00     0.074 A 
ATOM     74  C   UNL A   1      39.082  30.645  29.502  1.00  0.00     0.031 C 
ATOM     75  C   UNL A   1      38.315  32.111  31.350  1.00  0.00     0.031 A 
BRANCH  62  76
ATOM     76  C   UNL A   1      39.532  33.801  37.158  1.00  0.00    -0.014 A 
ATOM     77  C   UNL A   1      40.104  35.075  37.337  1.00  0.00     0.010 A 
ATOM     78  C   UNL A   1      38.713  33.272  38.170  1.00  0.00     0.010 A 
ATOM     79  C   UNL A   1      39.900  35.784  38.525  1.00  0.00     0.020 A 
ATOM     80  C   UNL A   1      38.485  33.988  39.348  1.00  0.00     0.020 A 
ATOM     81  C   UNL A   1      39.103  35.228  39.529  1.00  0.00     0.054 A 
BRANCH  81  82
ATOM     82  S   UNL A   1      38.898  36.134  41.089  1.00  0.00     0.124 S 
ATOM     83  O   UNL A   1      38.656  37.497  40.625  1.00  0.00    -0.237 OA
ATOM     84  O   UNL A   1      37.756  35.461  41.701  1.00  0.00    -0.237 OA
ATOM     85  O   UNL A   1      40.172  35.925  41.774  1.00  0.00    -0.744 OA
ENDBRANCH  81  82
ENDBRANCH  62  76
BRANCH  63  86
ATOM     86  C   UNL A   1      42.494  28.126  29.493  1.00  0.00    -0.014 A 
ATOM     87  C   UNL A   1      43.405  28.647  28.556  1.00  0.00     0.010 A 
ATOM     88  C   UNL A   1      41.968  26.837  29.291  1.00  0.00     0.010 A 
ATOM     89  C   UNL A   1      43.740  27.918  27.412  1.00  0.00     0.020 A 
ATOM     90  C   UNL A   1      42.325  26.093  28.162  1.00  0.00     0.020 A 
ATOM     91  C   UNL A   1      43.186  26.651  27.215  1.00  0.00     0.054 A 
BRANCH  91  92
ATOM     92  S   UNL A   1      43.598  25.742  25.700  1.00  0.00     0.124 S 
ATOM     93  O   UNL A   1      42.392  25.931  24.900  1.00  0.00    -0.237 OA
ATOM     94  O   UNL A   1      44.788  26.442  25.221  1.00  0.00    -0.237 OA
ATOM     95  O   UNL A   1      43.829  24.378  26.171  1.00  0.00    -0.744 OA
ENDBRANCH  91  92
ENDBRANCH  63  86
BRANCH  75  96
ATOM     96  C   UNL A   1      37.155  32.560  30.498  1.00  0.00    -0.014 A 
ATOM     97  C   UNL A   1      37.229  33.779  29.798  1.00  0.00     0.010 A 
ATOM     98  C   UNL A   1      35.940  31.852  30.510  1.00  0.00     0.010 A 
ATOM     99  C   UNL A   1      36.099  34.306  29.167  1.00  0.00     0.020 A 
ATOM    100  C   UNL A   1      34.816  32.361  29.855  1.00  0.00     0.020 A 
ATOM    101  C   UNL A   1      34.894  33.600  29.213  1.00  0.00     0.054 A 
BRANCH 101 102
ATOM    102  S   UNL A   1      33.423  34.327  28.440  1.00  0.00     0.124 S 
ATOM    103  O   UNL A   1      32.677  34.814  29.596  1.00  0.00    -0.237 OA
ATOM    104  O   UNL A   1      33.992  35.361  27.577  1.00  0.00    -0.237 OA
ATOM    105  O   UNL A   1      32.815  33.202  27.733  1.00  0.00    -0.744 OA
ENDBRANCH 101 102
ENDBRANCH  75  96
ENDBRANCH  49  50
ENDBRANCH  42  44
ENDBRANCH  41  42
ENDBRANCH  40  41
ENDBRANCH  39  40
ENDBRANCH  38  39
ENDBRANCH   1  38
TORSDOF 23
ENDMDL
MODEL 2
REMARK VINA RESULT:      -8.2     11.422     20.849
REMARK SMILES COc1cc(C)cc2c1[C@@H](C)[C@@H](CC(=O)N[C@@H](Cc1c[nH]c3ccccc13)C(=O)OCCOCCOC(=O)c1ccc(-c3c4nc(c(-c5ccc(S(=O)(=O)[O-])cc5)c5ccc([nH]5)c(-c5ccc(S(=O)(=O)[O-])cc5)c5nc(c(-c6ccc(S(=O)(=O)[O-])cc6)c6ccc3[nH]6)C=C5)C=C4)cc1)C(=O)O2
REMARK SMILES IDX 32 1 31 2 30 3 28 4 29 5 17 6 16 7 14 8 15 9 13 11 12 12
REMARK SMILES IDX 3 13 4 14 9 15 5 16 8 17 10 18 6 19 7 20 101 21 11 22 99 23
REMARK SMILES IDX 100 24 2 25 1 26 18 27 19 28 20 29 27 30 21 31 22 32 26 33
REMARK SMILES IDX 23 35 25 36 24 37 33 38 34 39 35 40 36 41 37 42 38 43 39 44
REMARK SMILES IDX 40 45 98 46 41 47 97 48 42 49 43 50 44 51 91 52 45 53 96 54
REMARK SMILES IDX 90 55 92 56 46 57 95 58 89 59 88 60 47 62 77 63 58 64 76 65
REMARK SMILES IDX 59 66 62 67 75 68 93 69 60 70 61 71 74 73 94 74 63 75 48 76
REMARK SMILES IDX 49 77 57 78 50 79 56 80 51 81 52 82 53 83 54 84 55 85 78 86
REMARK SMILES IDX 79 87 87 88 80 89 86 90 81 91 82 92 83 93 84 94 85 95 64 96
REMARK SMILES IDX 65 97 73 98 66 99 72 100 67 101 68 102 69 103 70 104 71 105
REMARK H PARENT 16 10 21 34 92 61 62 72
REMARK Flexibility Score: inf
ROOT
ATOM      1  C   UNL A   1      46.317  41.956  26.642  1.00  0.00     0.202 C 
ENDROOT
BRANCH   1   2
ATOM      2  C   UNL A   1      45.289  41.820  25.514  1.00  0.00     0.261 C 
BRANCH   2   3
ATOM      3  O   UNL A   1      45.128  43.062  24.811  1.00  0.00    -0.462 OA
BRANCH   3   4
ATOM      4  C   UNL A   1      44.394  42.966  23.677  1.00  0.00     0.329 C 
ATOM      5  O   UNL A   1      43.171  43.051  23.636  1.00  0.00    -0.250 OA
BRANCH   4   6
ATOM      6  C   UNL A   1      45.258  42.919  22.413  1.00  0.00     0.196 C 
BRANCH   6   7
ATOM      7  N   UNL A   1      46.478  42.120  22.311  1.00  0.00    -0.342 N 
ATOM      8  C   UNL A   1      47.376  42.164  21.271  1.00  0.00     0.221 C 
ATOM      9  O   UNL A   1      47.936  41.129  20.912  1.00  0.00    -0.275 OA
ATOM     10  H   UNL A   1      46.673  41.499  23.050  1.00  0.00     0.164 HD
BRANCH   8  11
ATOM     11  C   UNL A   1      47.816  43.518  20.714  1.00  0.00     0.116 C 
BRANCH  11  12
ATOM     12  C   UNL A   1      48.721  44.443  21.565  1.00  0.00     0.116 C 
ATOM     13  C   UNL A   1      47.769  47.406  19.396  1.00  0.00     0.126 A 
ATOM     14  C   UNL A   1      47.834  47.567  18.002  1.00  0.00     0.050 A 
ATOM     15  C   UNL A   1      48.506  46.394  20.020  1.00  0.00     0.041 A 
ATOM     16  C   UNL A   1      48.638  46.732  17.210  1.00  0.00    -0.044 A 
ATOM     17  C   UNL A   1      49.425  45.692  19.226  1.00  0.00     0.138 A 
ATOM     18  C   UNL A   1      48.379  45.964  21.477  1.00  0.00     0.038 C 
ATOM     19  C   UNL A   1      48.652  46.875  15.717  1.00  0.00     0.044 C 
ATOM     20  C   UNL A   1      49.484  45.824  17.841  1.00  0.00     0.051 A 
ATOM     21  O   UNL A   1      50.362  44.816  19.806  1.00  0.00    -0.426 OA
ATOM     22  C   UNL A   1      47.045  46.249  22.174  1.00  0.00     0.014 C 
ATOM     23  C   UNL A   1      50.159  44.414  21.116  1.00  0.00     0.315 C 
ATOM     24  O   UNL A   1      51.079  44.023  21.824  1.00  0.00    -0.251 OA
BRANCH  13  25
ATOM     25  O   UNL A   1      47.097  48.281  20.203  1.00  0.00    -0.496 OA
ATOM     26  C   UNL A   1      45.821  48.697  19.732  1.00  0.00     0.278 C 
ENDBRANCH  13  25
ENDBRANCH  11  12
ENDBRANCH   8  11
ENDBRANCH   6   7
BRANCH   6  27
ATOM     27  C   UNL A   1      44.386  42.713  21.187  1.00  0.00     0.074 C 
BRANCH  27  28
ATOM     28  C   UNL A   1      43.972  43.853  20.303  1.00  0.00    -0.020 A 
ATOM     29  C   UNL A   1      44.903  44.764  19.835  1.00  0.00     0.087 A 
ATOM     30  C   UNL A   1      42.771  44.091  19.540  1.00  0.00     0.003 A 
ATOM     31  N   UNL A   1      44.510  45.101  18.571  1.00  0.00    -0.361 N 
ATOM     32  C   UNL A   1      43.188  44.782  18.395  1.00  0.00     0.046 A 
ATOM     33  C   UNL A   1      41.406  43.730  19.600  1.00  0.00     0.010 A 
ATOM     34  H   UNL A   1      45.089  45.511  17.889  1.00  0.00     0.166 HD
ATOM     35  C   UNL A   1      42.359  45.032  17.295  1.00  0.00     0.026 A 
ATOM     36  C   UNL A   1      40.532  44.085  18.559  1.00  0.00     0.001 A 
ATOM     37  C   UNL A   1      41.011  44.697  17.409  1.00  0.00     0.002 A 
ENDBRANCH  27  28
ENDBRANCH   6  27
ENDBRANCH   4   6
ENDBRANCH   3   4
ENDBRANCH   2   3
ENDBRANCH   1   2
BRANCH   1  38
ATOM     38  O   UNL A   1      47.522  41.205  26.494  1.00  0.00    -0.374 OA
BRANCH  38  39
ATOM     39  C   UNL A   1      47.412  39.788  26.338  1.00  0.00     0.202 C 
BRANCH  39  40
ATOM     40  C   UNL A   1      48.357  38.898  27.168  1.00  0.00     0.261 C 
BRANCH  40  41
ATOM     41  O   UNL A   1      47.672  38.087  28.148  1.00  0.00    -0.460 OA
BRANCH  41  42
ATOM     42  C   UNL A   1      48.406  37.066  28.665  1.00  0.00     0.338 C 
ATOM     43  O   UNL A   1      49.492  37.153  29.211  1.00  0.00    -0.246 OA
BRANCH  42  44
ATOM     44  C   UNL A   1      47.623  35.813  28.671  1.00  0.00     0.060 A 
ATOM     45  C   UNL A   1      46.608  35.576  27.743  1.00  0.00     0.016 A 
ATOM     46  C   UNL A   1      48.021  34.803  29.558  1.00  0.00     0.016 A 
ATOM     47  C   UNL A   1      46.028  34.301  27.672  1.00  0.00     0.010 A 
ATOM     48  C   UNL A   1      47.434  33.539  29.493  1.00  0.00     0.010 A 
ATOM     49  C   UNL A   1      46.457  33.266  28.526  1.00  0.00    -0.014 A 
BRANCH  49  50
ATOM     50  C   UNL A   1      46.029  31.860  28.307  1.00  0.00     0.031 A 
ATOM     51  C   UNL A   1      46.931  30.854  27.655  1.00  0.00     0.074 A 
ATOM     52  C   UNL A   1      44.771  31.514  28.646  1.00  0.00     0.049 A 
ATOM     53  N   UNL A   1      46.701  29.590  27.410  1.00  0.00    -0.248 NA
ATOM     54  C   UNL A   1      48.255  31.321  27.217  1.00  0.00     0.031 C 
ATOM     55  C   UNL A   1      43.789  32.417  29.251  1.00  0.00     0.029 A 
ATOM     56  N   UNL A   1      44.098  30.322  28.532  1.00  0.00    -0.354 N 
ATOM     57  C   UNL A   1      47.855  29.100  26.814  1.00  0.00     0.074 A 
ATOM     58  C   UNL A   1      48.768  30.217  26.687  1.00  0.00     0.031 C 
ATOM     59  C   UNL A   1      42.652  31.743  29.477  1.00  0.00     0.029 A 
ATOM     60  C   UNL A   1      42.808  30.368  29.009  1.00  0.00     0.049 A 
ATOM     61  H   UNL A   1      44.502  29.511  28.148  1.00  0.00     0.167 HD
ATOM     62  C   UNL A   1      48.130  27.830  26.430  1.00  0.00     0.031 A 
ATOM     63  C   UNL A   1      41.855  29.416  29.069  1.00  0.00     0.031 A 
ATOM     64  C   UNL A   1      47.207  26.729  26.548  1.00  0.00     0.049 A 
ATOM     65  C   UNL A   1      42.167  28.028  28.584  1.00  0.00     0.074 A 
ATOM     66  C   UNL A   1      47.423  25.397  26.233  1.00  0.00     0.029 A 
ATOM     67  N   UNL A   1      45.899  26.823  26.999  1.00  0.00    -0.354 N 
ATOM     68  N   UNL A   1      43.296  27.563  28.105  1.00  0.00    -0.248 NA
ATOM     69  C   UNL A   1      41.088  27.032  28.655  1.00  0.00     0.031 C 
ATOM     70  C   UNL A   1      46.228  24.701  26.425  1.00  0.00     0.029 A 
ATOM     71  C   UNL A   1      45.286  25.582  26.932  1.00  0.00     0.049 A 
ATOM     72  H   UNL A   1      45.470  27.648  27.320  1.00  0.00     0.167 HD
ATOM     73  C   UNL A   1      43.068  26.220  27.832  1.00  0.00     0.074 A 
ATOM     74  C   UNL A   1      41.701  25.939  28.217  1.00  0.00     0.031 C 
ATOM     75  C   UNL A   1      43.920  25.306  27.308  1.00  0.00     0.031 A 
BRANCH  62  76
ATOM     76  C   UNL A   1      49.499  27.523  25.877  1.00  0.00    -0.014 A 
ATOM     77  C   UNL A   1      49.690  27.419  24.486  1.00  0.00     0.010 A 
ATOM     78  C   UNL A   1      50.549  27.166  26.740  1.00  0.00     0.010 A 
ATOM     79  C   UNL A   1      50.891  26.923  23.970  1.00  0.00     0.020 A 
ATOM     80  C   UNL A   1      51.761  26.694  26.228  1.00  0.00     0.020 A 
ATOM     81  C   UNL A   1      51.914  26.549  24.847  1.00  0.00     0.054 A 
BRANCH  81  82
ATOM     82  S   UNL A   1      53.442  25.849  24.163  1.00  0.00     0.124 S 
ATOM     83  O   UNL A   1      54.466  26.701  24.760  1.00  0.00    -0.237 OA
ATOM     84  O   UNL A   1      53.405  24.470  24.646  1.00  0.00    -0.237 OA
ATOM     85  O   UNL A   1      53.270  25.997  22.719  1.00  0.00    -0.744 OA
ENDBRANCH  81  82
ENDBRANCH  62  76
BRANCH  63  86
ATOM     86  C   UNL A   1      40.529  29.750  29.661  1.00  0.00    -0.014 A 
ATOM     87  C   UNL A   1      39.468  30.186  28.846  1.00  0.00     0.010 A 
ATOM     88  C   UNL A   1      40.345  29.706  31.055  1.00  0.00     0.010 A 
ATOM     89  C   UNL A   1      38.269  30.622  29.414  1.00  0.00     0.020 A 
ATOM     90  C   UNL A   1      39.135  30.114  31.625  1.00  0.00     0.020 A 
ATOM     91  C   UNL A   1      38.115  30.596  30.803  1.00  0.00     0.054 A 
BRANCH  91  92
ATOM     92  S   UNL A   1      36.567  31.210  31.523  1.00  0.00     0.124 S 
ATOM     93  O   UNL A   1      36.173  30.094  32.378  1.00  0.00    -0.237 OA
ATOM     94  O   UNL A   1      36.998  32.417  32.224  1.00  0.00    -0.237 OA
ATOM     95  O   UNL A   1      35.715  31.438  30.360  1.00  0.00    -0.744 OA
ENDBRANCH  91  92
ENDBRANCH  63  86
BRANCH  75  96
ATOM     96  C   UNL A   1      43.419  23.900  27.092  1.00  0.00    -0.014 A 
ATOM     97  C   UNL A   1      42.897  23.526  25.839  1.00  0.00     0.010 A 
ATOM     98  C   UNL A   1      43.328  22.999  28.167  1.00  0.00     0.010 A 
ATOM     99  C   UNL A   1      42.250  22.298  25.677  1.00  0.00     0.020 A 
ATOM    100  C   UNL A   1      42.708  21.758  28.001  1.00  0.00     0.020 A 
ATOM    101  C   UNL A   1      42.146  21.428  26.765  1.00  0.00     0.054 A 
BRANCH 101 102
ATOM    102  S   UNL A   1      41.251  19.864  26.553  1.00  0.00     0.124 S 
ATOM    103  O   UNL A   1      42.225  19.049  25.832  1.00  0.00    -0.237 OA
ATOM    104  O   UNL A   1      40.986  19.455  27.930  1.00  0.00    -0.237 OA
ATOM    105  O   UNL A   1      40.068  20.246  25.786  1.00  0.00    -0.744 OA
ENDBRANCH 101 102
ENDBRANCH  75  96
ENDBRANCH  49  50
ENDBRANCH  42  44
ENDBRANCH  41  42
ENDBRANCH  40  41
ENDBRANCH  39  40
ENDBRANCH  38  39
ENDBRANCH   1  38
TORSDOF 23
ENDMDL
MODEL 3
REMARK VINA RESULT:      -8.2      8.907     17.355
REMARK SMILES COc1cc(C)cc2c1[C@@H](C)[C@@H](CC(=O)N[C@@H](Cc1c[nH]c3ccccc13)C(=O)OCCOCCOC(=O)c1ccc(-c3c4nc(c(-c5ccc(S(=O)(=O)[O-])cc5)c5ccc([nH]5)c(-c5ccc(S(=O)(=O)[O-])cc5)c5nc(c(-c6ccc(S(=O)(=O)[O-])cc6)c6ccc3[nH]6)C=C5)C=C4)cc1)C(=O)O2
REMARK SMILES IDX 32 1 31 2 30 3 28 4 29 5 17 6 16 7 14 8 15 9 13 11 12 12
REMARK SMILES IDX 3 13 4 14 9 15 5 16 8 17 10 18 6 19 7 20 101 21 11 22 99 23
REMARK SMILES IDX 100 24 2 25 1 26 18 27 19 28 20 29 27 30 21 31 22 32 26 33
REMARK SMILES IDX 23 35 25 36 24 37 33 38 34 39 35 40 36 41 37 42 38 43 39 44
REMARK SMILES IDX 40 45 98 46 41 47 97 48 42 49 43 50 44 51 91 52 45 53 96 54
REMARK SMILES IDX 90 55 92 56 46 57 95 58 89 59 88 60 47 62 77 63 58 64 76 65
REMARK SMILES IDX 59 66 62 67 75 68 93 69 60 70 61 71 74 73 94 74 63 75 48 76
REMARK SMILES IDX 49 77 57 78 50 79 56 80 51 81 52 82 53 83 54 84 55 85 78 86
REMARK SMILES IDX 79 87 87 88 80 89 86 90 81 91 82 92 83 93 84 94 85 95 64 96
REMARK SMILES IDX 65 97 73 98 66 99 72 100 67 101 68 102 69 103 70 104 71 105
REMARK H PARENT 16 10 21 34 92 61 62 72
REMARK Flexibility Score: inf
ROOT
ATOM      1  C   UNL A   1      47.786  41.235  33.135  1.00  0.00     0.202 C 
ENDROOT
BRANCH   1   2
ATOM      2  C   UNL A   1      46.636  42.003  32.475  1.00  0.00     0.261 C 
BRANCH   2   3
ATOM      3  O   UNL A   1      47.111  42.808  31.386  1.00  0.00    -0.462 OA
BRANCH   3   4
ATOM      4  C   UNL A   1      46.397  42.674  30.243  1.00  0.00     0.329 C 
ATOM      5  O   UNL A   1      46.464  41.704  29.496  1.00  0.00    -0.250 OA
BRANCH   4   6
ATOM      6  C   UNL A   1      45.355  43.783  30.062  1.00  0.00     0.196 C 
BRANCH   6   7
ATOM      7  N   UNL A   1      45.599  44.982  29.264  1.00  0.00    -0.342 N 
ATOM      8  C   UNL A   1      46.173  45.008  28.015  1.00  0.00     0.221 C 
ATOM      9  O   UNL A   1      46.913  45.942  27.709  1.00  0.00    -0.275 OA
ATOM     10  H   UNL A   1      45.328  45.845  29.654  1.00  0.00     0.164 HD
BRANCH   8  11
ATOM     11  C   UNL A   1      45.730  43.991  26.963  1.00  0.00     0.116 C 
BRANCH  11  12
ATOM     12  C   UNL A   1      46.792  43.270  26.096  1.00  0.00     0.116 C 
ATOM     13  C   UNL A   1      44.862  44.159  22.954  1.00  0.00     0.126 A 
ATOM     14  C   UNL A   1      43.515  43.934  22.623  1.00  0.00     0.050 A 
ATOM     15  C   UNL A   1      45.461  43.433  23.989  1.00  0.00     0.041 A 
ATOM     16  C   UNL A   1      42.748  42.977  23.307  1.00  0.00    -0.044 A 
ATOM     17  C   UNL A   1      44.721  42.373  24.535  1.00  0.00     0.138 A 
ATOM     18  C   UNL A   1      46.830  43.709  24.598  1.00  0.00     0.038 C 
ATOM     19  C   UNL A   1      41.295  42.789  22.986  1.00  0.00     0.044 C 
ATOM     20  C   UNL A   1      43.379  42.152  24.234  1.00  0.00     0.051 A 
ATOM     21  O   UNL A   1      45.318  41.455  25.419  1.00  0.00    -0.426 OA
ATOM     22  C   UNL A   1      47.372  45.137  24.478  1.00  0.00     0.014 C 
ATOM     23  C   UNL A   1      46.537  41.789  25.987  1.00  0.00     0.315 C 
ATOM     24  O   UNL A   1      47.312  40.938  26.405  1.00  0.00    -0.251 OA
BRANCH  13  25
ATOM     25  O   UNL A   1      45.665  44.989  22.224  1.00  0.00    -0.496 OA
ATOM     26  C   UNL A   1      45.890  44.599  20.875  1.00  0.00     0.278 C 
ENDBRANCH  13  25
ENDBRANCH  11  12
ENDBRANCH   8  11
ENDBRANCH   6   7
BRANCH   6  27
ATOM     27  C   UNL A   1      44.003  43.182  29.717  1.00  0.00     0.074 C 
BRANCH  27  28
ATOM     28  C   UNL A   1      43.118  42.562  30.758  1.00  0.00    -0.020 A 
ATOM     29  C   UNL A   1      42.775  41.221  30.694  1.00  0.00     0.087 A 
ATOM     30  C   UNL A   1      42.724  43.005  32.073  1.00  0.00     0.003 A 
ATOM     31  N   UNL A   1      42.726  40.775  31.983  1.00  0.00    -0.361 N 
ATOM     32  C   UNL A   1      42.605  41.839  32.840  1.00  0.00     0.046 A 
ATOM     33  C   UNL A   1      42.552  44.232  32.754  1.00  0.00     0.010 A 
ATOM     34  H   UNL A   1      42.771  39.830  32.256  1.00  0.00     0.166 HD
ATOM     35  C   UNL A   1      42.432  41.838  34.229  1.00  0.00     0.026 A 
ATOM     36  C   UNL A   1      42.253  44.245  34.127  1.00  0.00     0.001 A 
ATOM     37  C   UNL A   1      42.227  43.064  34.858  1.00  0.00     0.002 A 
ENDBRANCH  27  28
ENDBRANCH   6  27
ENDBRANCH   4   6
ENDBRANCH   3   4
ENDBRANCH   2   3
ENDBRANCH   1   2
BRANCH   1  38
ATOM     38  O   UNL A   1      47.527  39.870  33.465  1.00  0.00    -0.374 OA
BRANCH  38  39
ATOM     39  C   UNL A   1      48.066  38.860  32.608  1.00  0.00     0.202 C 
BRANCH  39  40
ATOM     40  C   UNL A   1      47.076  37.995  31.805  1.00  0.00     0.261 C 
BRANCH  40  41
ATOM     41  O   UNL A   1      47.700  36.883  31.128  1.00  0.00    -0.460 OA
BRANCH  41  42
ATOM     42  C   UNL A   1      47.401  36.772  29.806  1.00  0.00     0.338 C 
ATOM     43  O   UNL A   1      47.401  37.669  28.982  1.00  0.00    -0.246 OA
BRANCH  42  44
ATOM     44  C   UNL A   1      47.265  35.353  29.420  1.00  0.00     0.060 A 
ATOM     45  C   UNL A   1      47.618  34.318  30.286  1.00  0.00     0.016 A 
ATOM     46  C   UNL A   1      46.638  35.069  28.198  1.00  0.00     0.016 A 
ATOM     47  C   UNL A   1      47.292  32.996  29.946  1.00  0.00     0.010 A 
ATOM     48  C   UNL A   1      46.326  33.753  27.857  1.00  0.00     0.010 A 
ATOM     49  C   UNL A   1      46.618  32.708  28.744  1.00  0.00    -0.014 A 
BRANCH  49  50
ATOM     50  C   UNL A   1      46.057  31.357  28.481  1.00  0.00     0.031 A 
ATOM     51  C   UNL A   1      44.658  30.993  28.882  1.00  0.00     0.074 A 
ATOM     52  C   UNL A   1      46.862  30.427  27.928  1.00  0.00     0.049 A 
ATOM     53  N   UNL A   1      44.028  29.860  28.707  1.00  0.00    -0.248 NA
ATOM     54  C   UNL A   1      43.866  32.023  29.572  1.00  0.00     0.031 C 
ATOM     55  C   UNL A   1      48.253  30.653  27.533  1.00  0.00     0.029 A 
ATOM     56  N   UNL A   1      46.635  29.111  27.606  1.00  0.00    -0.354 N 
ATOM     57  C   UNL A   1      42.758  30.043  29.238  1.00  0.00     0.074 A 
ATOM     58  C   UNL A   1      42.723  31.382  29.789  1.00  0.00     0.031 C 
ATOM     59  C   UNL A   1      48.748  29.526  26.999  1.00  0.00     0.029 A 
ATOM     60  C   UNL A   1      47.723  28.486  27.041  1.00  0.00     0.049 A 
ATOM     61  H   UNL A   1      45.776  28.658  27.764  1.00  0.00     0.167 HD
ATOM     62  C   UNL A   1      41.715  29.179  29.242  1.00  0.00     0.031 A 
ATOM     63  C   UNL A   1      47.884  27.222  26.599  1.00  0.00     0.031 A 
ATOM     64  C   UNL A   1      41.767  27.842  28.704  1.00  0.00     0.049 A 
ATOM     65  C   UNL A   1      46.726  26.265  26.667  1.00  0.00     0.074 A 
ATOM     66  C   UNL A   1      40.740  26.917  28.618  1.00  0.00     0.029 A 
ATOM     67  N   UNL A   1      42.895  27.234  28.175  1.00  0.00    -0.354 N 
ATOM     68  N   UNL A   1      45.506  26.485  27.093  1.00  0.00    -0.248 NA
ATOM     69  C   UNL A   1      46.959  24.894  26.190  1.00  0.00     0.031 C 
ATOM     70  C   UNL A   1      41.262  25.728  28.105  1.00  0.00     0.029 A 
ATOM     71  C   UNL A   1      42.597  25.933  27.799  1.00  0.00     0.049 A 
ATOM     72  H   UNL A   1      43.776  27.662  28.079  1.00  0.00     0.167 HD
ATOM     73  C   UNL A   1      44.822  25.288  26.919  1.00  0.00     0.074 A 
ATOM     74  C   UNL A   1      45.756  24.351  26.332  1.00  0.00     0.031 C 
ATOM     75  C   UNL A   1      43.533  24.998  27.223  1.00  0.00     0.031 A 
BRANCH  62  76
ATOM     76  C   UNL A   1      40.397  29.640  29.809  1.00  0.00    -0.014 A 
ATOM     77  C   UNL A   1      39.528  30.424  29.027  1.00  0.00     0.010 A 
ATOM     78  C   UNL A   1      40.103  29.444  31.170  1.00  0.00     0.010 A 
ATOM     79  C   UNL A   1      38.413  31.039  29.605  1.00  0.00     0.020 A 
ATOM     80  C   UNL A   1      38.975  30.036  31.746  1.00  0.00     0.020 A 
ATOM     81  C   UNL A   1      38.152  30.852  30.966  1.00  0.00     0.054 A 
BRANCH  81  82
ATOM     82  S   UNL A   1      36.737  31.707  31.713  1.00  0.00     0.124 S 
ATOM     83  O   UNL A   1      36.185  32.440  30.578  1.00  0.00    -0.237 OA
ATOM     84  O   UNL A   1      35.922  30.601  32.209  1.00  0.00    -0.237 OA
ATOM     85  O   UNL A   1      37.347  32.533  32.753  1.00  0.00    -0.744 OA
ENDBRANCH  81  82
ENDBRANCH  62  76
BRANCH  63  86
ATOM     86  C   UNL A   1      49.190  26.819  26.007  1.00  0.00    -0.014 A 
ATOM     87  C   UNL A   1      50.199  26.258  26.811  1.00  0.00     0.010 A 
ATOM     88  C   UNL A   1      49.458  27.064  24.649  1.00  0.00     0.010 A 
ATOM     89  C   UNL A   1      51.466  26.000  26.283  1.00  0.00     0.020 A 
ATOM     90  C   UNL A   1      50.716  26.780  24.109  1.00  0.00     0.020 A 
ATOM     91  C   UNL A   1      51.721  26.276  24.938  1.00  0.00     0.054 A 
BRANCH  91  92
ATOM     92  S   UNL A   1      53.387  25.977  24.283  1.00  0.00     0.124 S 
ATOM     93  O   UNL A   1      54.198  26.861  25.115  1.00  0.00    -0.237 OA
ATOM     94  O   UNL A   1      53.571  24.547  24.519  1.00  0.00    -0.237 OA
ATOM     95  O   UNL A   1      53.278  26.366  22.880  1.00  0.00    -0.744 OA
ENDBRANCH  91  92
ENDBRANCH  63  86
BRANCH  75  96
ATOM     96  C   UNL A   1      43.029  23.603  26.950  1.00  0.00    -0.014 A 
ATOM     97  C   UNL A   1      42.942  22.670  28.000  1.00  0.00     0.010 A 
ATOM     98  C   UNL A   1      42.786  23.174  25.633  1.00  0.00     0.010 A 
ATOM     99  C   UNL A   1      42.670  21.325  27.736  1.00  0.00     0.020 A 
ATOM    100  C   UNL A   1      42.484  21.836  25.368  1.00  0.00     0.020 A 
ATOM    101  C   UNL A   1      42.457  20.914  26.417  1.00  0.00     0.054 A 
BRANCH 101 102
ATOM    102  S   UNL A   1      42.163  19.155  26.086  1.00  0.00     0.124 S 
ATOM    103  O   UNL A   1      42.578  18.533  27.340  1.00  0.00    -0.237 OA
ATOM    104  O   UNL A   1      40.728  19.116  25.809  1.00  0.00    -0.237 OA
ATOM    105  O   UNL A   1      43.019  18.873  24.936  1.00  0.00    -0.744 OA
ENDBRANCH 101 102
ENDBRANCH  75  96
ENDBRANCH  49  50
ENDBRANCH  42  44
ENDBRANCH  41  42
ENDBRANCH  40  41
ENDBRANCH  39  40
ENDBRANCH  38  39
ENDBRANCH   1  38
TORSDOF 23
ENDMDL
