MODEL 1
REMARK VINA RESULT:     -10.3      0.000      0.000
REMARK SMILES O=C(OCCOCCOC(=O)c1cccc(NC(=S)N/N=C\c2c[nH]c3ccccc23)c1)c1ccc(-c2c3nc(c(-c4ccc(S(=O)(=O)[O-])cc4)c4ccc([nH]4)c(-c4ccc(S(=O)(=O)[O-])cc4)c4nc(c(-c5ccc(S(=O)(=O)[O-])cc5)c5ccc2[nH]5)C=C4)C=C3)cc1
REMARK SMILES IDX 7 1 6 2 5 3 4 4 3 5 2 6 1 7 33 8 34 9 92 10 35 11 91 12
REMARK SMILES IDX 36 13 37 14 38 15 85 16 39 17 90 18 84 19 86 20 40 21 89 22
REMARK SMILES IDX 83 23 82 24 41 26 71 27 52 28 70 29 53 30 56 31 69 32 87 33
REMARK SMILES IDX 54 34 55 35 68 37 88 38 57 39 42 40 43 41 51 42 44 43 50 44
REMARK SMILES IDX 45 45 46 46 47 47 48 48 49 49 72 50 73 51 81 52 74 53 80 54
REMARK SMILES IDX 75 55 76 56 77 57 78 58 79 59 58 60 59 61 67 62 60 63 66 64
REMARK SMILES IDX 61 65 62 66 63 67 64 68 65 69 8 70 9 71 10 72 11 73 12 74
REMARK SMILES IDX 13 75 32 76 14 77 16 78 15 79 17 80 18 82 19 83 20 84 21 86
REMARK SMILES IDX 22 87 23 88 24 89 31 90 25 91 26 92 30 93 27 95 29 96 28 97
REMARK H PARENT 86 25 56 36 17 81 20 85 25 94
REMARK Flexibility Score: inf
ROOT
ATOM      1  C   UNL A   1      32.123  31.783  27.139  1.00  0.00     0.202 C 
ENDROOT
BRANCH   1   2
ATOM      2  O   UNL A   1      33.133  32.636  27.697  1.00  0.00    -0.374 OA
BRANCH   2   3
ATOM      3  C   UNL A   1      34.363  32.001  28.058  1.00  0.00     0.202 C 
BRANCH   3   4
ATOM      4  C   UNL A   1      34.791  32.183  29.513  1.00  0.00     0.261 C 
BRANCH   4   5
ATOM      5  O   UNL A   1      36.120  31.672  29.702  1.00  0.00    -0.460 OA
BRANCH   5   6
ATOM      6  C   UNL A   1      36.503  30.381  29.834  1.00  0.00     0.338 C 
ATOM      7  O   UNL A   1      35.688  29.569  30.268  1.00  0.00    -0.246 OA
BRANCH   6   8
ATOM      8  C   UNL A   1      37.866  29.887  29.472  1.00  0.00     0.060 A 
ATOM      9  C   UNL A   1      38.841  29.495  30.391  1.00  0.00     0.016 A 
ATOM     10  C   UNL A   1      38.144  29.728  28.105  1.00  0.00     0.016 A 
ATOM     11  C   UNL A   1      40.089  29.052  29.980  1.00  0.00     0.010 A 
ATOM     12  C   UNL A   1      39.381  29.232  27.681  1.00  0.00     0.010 A 
ATOM     13  C   UNL A   1      40.366  28.923  28.623  1.00  0.00    -0.014 A 
BRANCH  13  14
ATOM     14  C   UNL A   1      41.743  28.571  28.237  1.00  0.00     0.031 A 
ATOM     15  C   UNL A   1      42.807  29.616  28.378  1.00  0.00     0.074 A 
ATOM     16  C   UNL A   1      42.035  27.298  27.913  1.00  0.00     0.049 A 
ATOM     17  N   UNL A   1      44.084  29.533  28.126  1.00  0.00    -0.248 NA
ATOM     18  C   UNL A   1      42.376  30.928  28.892  1.00  0.00     0.031 C 
ATOM     19  C   UNL A   1      41.071  26.193  27.882  1.00  0.00     0.029 A 
ATOM     20  N   UNL A   1      43.227  26.708  27.596  1.00  0.00    -0.354 N 
ATOM     21  C   UNL A   1      44.603  30.789  28.414  1.00  0.00     0.074 A 
ATOM     22  C   UNL A   1      43.506  31.616  28.863  1.00  0.00     0.031 C 
ATOM     23  C   UNL A   1      41.722  25.052  27.605  1.00  0.00     0.029 A 
ATOM     24  C   UNL A   1      43.129  25.355  27.374  1.00  0.00     0.049 A 
ATOM     25  H   UNL A   1      44.075  27.204  27.532  1.00  0.00     0.167 HD
ATOM     26  C   UNL A   1      45.883  31.212  28.296  1.00  0.00     0.031 A 
ATOM     27  C   UNL A   1      44.075  24.470  27.008  1.00  0.00     0.031 A 
ATOM     28  C   UNL A   1      46.947  30.368  27.828  1.00  0.00     0.049 A 
ATOM     29  C   UNL A   1      45.474  24.983  26.804  1.00  0.00     0.074 A 
ATOM     30  C   UNL A   1      48.269  30.689  27.592  1.00  0.00     0.029 A 
ATOM     31  N   UNL A   1      46.798  29.020  27.525  1.00  0.00    -0.354 N 
ATOM     32  N   UNL A   1      45.943  26.195  27.004  1.00  0.00    -0.248 NA
ATOM     33  C   UNL A   1      46.469  24.022  26.316  1.00  0.00     0.031 C 
ATOM     34  C   UNL A   1      48.910  29.545  27.102  1.00  0.00     0.029 A 
ATOM     35  C   UNL A   1      48.000  28.497  27.090  1.00  0.00     0.049 A 
ATOM     36  H   UNL A   1      45.958  28.512  27.608  1.00  0.00     0.167 HD
ATOM     37  C   UNL A   1      47.293  26.138  26.685  1.00  0.00     0.074 A 
ATOM     38  C   UNL A   1      47.567  24.767  26.293  1.00  0.00     0.031 C 
ATOM     39  C   UNL A   1      48.225  27.123  26.711  1.00  0.00     0.031 A 
BRANCH  26  40
ATOM     40  C   UNL A   1      46.146  32.665  28.583  1.00  0.00    -0.014 A 
ATOM     41  C   UNL A   1      45.954  33.660  27.607  1.00  0.00     0.010 A 
ATOM     42  C   UNL A   1      46.659  33.031  29.840  1.00  0.00     0.010 A 
ATOM     43  C   UNL A   1      46.332  34.983  27.864  1.00  0.00     0.020 A 
ATOM     44  C   UNL A   1      47.013  34.355  30.110  1.00  0.00     0.020 A 
ATOM     45  C   UNL A   1      46.873  35.318  29.109  1.00  0.00     0.054 A 
BRANCH  45  46
ATOM     46  S   UNL A   1      47.396  37.030  29.406  1.00  0.00     0.124 S 
ATOM     47  O   UNL A   1      46.645  37.755  28.384  1.00  0.00    -0.237 OA
ATOM     48  O   UNL A   1      46.969  37.264  30.783  1.00  0.00    -0.237 OA
ATOM     49  O   UNL A   1      48.842  36.989  29.205  1.00  0.00    -0.744 OA
ENDBRANCH  45  46
ENDBRANCH  26  40
BRANCH  27  50
ATOM     50  C   UNL A   1      43.724  23.039  26.785  1.00  0.00    -0.014 A 
ATOM     51  C   UNL A   1      42.943  22.331  27.715  1.00  0.00     0.010 A 
ATOM     52  C   UNL A   1      44.158  22.377  25.620  1.00  0.00     0.010 A 
ATOM     53  C   UNL A   1      42.614  20.989  27.491  1.00  0.00     0.020 A 
ATOM     54  C   UNL A   1      43.809  21.045  25.380  1.00  0.00     0.020 A 
ATOM     55  C   UNL A   1      43.047  20.355  26.323  1.00  0.00     0.054 A 
BRANCH  55  56
ATOM     56  S   UNL A   1      42.571  18.628  26.029  1.00  0.00     0.124 S 
ATOM     57  O   UNL A   1      42.855  18.011  27.321  1.00  0.00    -0.237 OA
ATOM     58  O   UNL A   1      41.158  18.744  25.680  1.00  0.00    -0.237 OA
ATOM     59  O   UNL A   1      43.444  18.215  24.933  1.00  0.00    -0.744 OA
ENDBRANCH  55  56
ENDBRANCH  27  50
BRANCH  39  60
ATOM     60  C   UNL A   1      49.631  26.735  26.348  1.00  0.00    -0.014 A 
ATOM     61  C   UNL A   1      50.131  26.944  25.053  1.00  0.00     0.010 A 
ATOM     62  C   UNL A   1      50.474  26.208  27.343  1.00  0.00     0.010 A 
ATOM     63  C   UNL A   1      51.449  26.601  24.748  1.00  0.00     0.020 A 
ATOM     64  C   UNL A   1      51.799  25.888  27.048  1.00  0.00     0.020 A 
ATOM     65  C   UNL A   1      52.274  26.073  25.747  1.00  0.00     0.054 A 
BRANCH  65  66
ATOM     66  S   UNL A   1      53.996  25.677  25.343  1.00  0.00     0.124 S 
ATOM     67  O   UNL A   1      54.704  26.848  25.855  1.00  0.00    -0.237 OA
ATOM     68  O   UNL A   1      54.223  24.434  26.077  1.00  0.00    -0.237 OA
ATOM     69  O   UNL A   1      53.986  25.540  23.888  1.00  0.00    -0.744 OA
ENDBRANCH  65  66
ENDBRANCH  39  60
ENDBRANCH  13  14
ENDBRANCH   6   8
ENDBRANCH   5   6
ENDBRANCH   4   5
ENDBRANCH   3   4
ENDBRANCH   2   3
ENDBRANCH   1   2
BRANCH   1  70
ATOM     70  C   UNL A   1      32.779  30.516  26.577  1.00  0.00     0.261 C 
BRANCH  70  71
ATOM     71  O   UNL A   1      31.749  29.525  26.425  1.00  0.00    -0.460 OA
BRANCH  71  72
ATOM     72  C   UNL A   1      31.289  29.430  25.144  1.00  0.00     0.338 C 
ATOM     73  O   UNL A   1      30.631  30.243  24.553  1.00  0.00    -0.246 OA
BRANCH  72  74
ATOM     74  C   UNL A   1      31.930  28.243  24.511  1.00  0.00     0.062 A 
ATOM     75  C   UNL A   1      32.432  28.387  23.211  1.00  0.00     0.016 A 
ATOM     76  C   UNL A   1      32.154  27.060  25.221  1.00  0.00     0.041 A 
ATOM     77  C   UNL A   1      33.173  27.359  22.631  1.00  0.00     0.003 A 
ATOM     78  C   UNL A   1      32.824  26.006  24.601  1.00  0.00     0.041 A 
ATOM     79  C   UNL A   1      33.364  26.169  23.326  1.00  0.00     0.026 A 
BRANCH  78  80
ATOM     80  N   UNL A   1      32.970  24.802  25.295  1.00  0.00    -0.331 N 
ATOM     81  H   UNL A   1      33.749  24.742  25.894  1.00  0.00     0.169 HD
BRANCH  80  82
ATOM     82  C   UNL A   1      32.171  23.701  25.250  1.00  0.00     0.191 C 
ATOM     83  S   UNL A   1      30.664  23.785  25.986  1.00  0.00    -0.039 S 
BRANCH  82  84
ATOM     84  N   UNL A   1      32.491  22.593  24.510  1.00  0.00    -0.254 N 
ATOM     85  H   UNL A   1      33.056  22.755  23.721  1.00  0.00     0.193 HD
BRANCH  84  86
ATOM     86  N   UNL A   1      32.124  21.277  24.729  1.00  0.00    -0.181 NA
ATOM     87  C   UNL A   1      32.845  20.521  25.519  1.00  0.00     0.143 C 
BRANCH  87  88
ATOM     88  C   UNL A   1      33.992  21.021  26.245  1.00  0.00     0.020 A 
ATOM     89  C   UNL A   1      33.940  21.514  27.533  1.00  0.00     0.093 A 
ATOM     90  C   UNL A   1      35.298  21.340  25.793  1.00  0.00     0.008 A 
ATOM     91  N   UNL A   1      34.725  22.635  27.497  1.00  0.00    -0.361 N 
ATOM     92  C   UNL A   1      35.553  22.567  26.406  1.00  0.00     0.046 A 
ATOM     93  C   UNL A   1      36.220  20.862  24.848  1.00  0.00     0.011 A 
ATOM     94  H   UNL A   1      34.699  23.371  28.151  1.00  0.00     0.166 HD
ATOM     95  C   UNL A   1      36.490  23.475  25.924  1.00  0.00     0.027 A 
ATOM     96  C   UNL A   1      37.318  21.670  24.525  1.00  0.00     0.001 A 
ATOM     97  C   UNL A   1      37.396  22.986  24.984  1.00  0.00     0.002 A 
ENDBRANCH  87  88
ENDBRANCH  84  86
ENDBRANCH  82  84
ENDBRANCH  80  82
ENDBRANCH  78  80
ENDBRANCH  72  74
ENDBRANCH  71  72
ENDBRANCH  70  71
ENDBRANCH   1  70
TORSDOF 22
ENDMDL
MODEL 2
REMARK VINA RESULT:      -9.6      5.130      8.447
REMARK SMILES O=C(OCCOCCOC(=O)c1cccc(NC(=S)N/N=C\c2c[nH]c3ccccc23)c1)c1ccc(-c2c3nc(c(-c4ccc(S(=O)(=O)[O-])cc4)c4ccc([nH]4)c(-c4ccc(S(=O)(=O)[O-])cc4)c4nc(c(-c5ccc(S(=O)(=O)[O-])cc5)c5ccc2[nH]5)C=C4)C=C3)cc1
REMARK SMILES IDX 7 1 6 2 5 3 4 4 3 5 2 6 1 7 33 8 34 9 92 10 35 11 91 12
REMARK SMILES IDX 36 13 37 14 38 15 85 16 39 17 90 18 84 19 86 20 40 21 89 22
REMARK SMILES IDX 83 23 82 24 41 26 71 27 52 28 70 29 53 30 56 31 69 32 87 33
REMARK SMILES IDX 54 34 55 35 68 37 88 38 57 39 42 40 43 41 51 42 44 43 50 44
REMARK SMILES IDX 45 45 46 46 47 47 48 48 49 49 72 50 73 51 81 52 74 53 80 54
REMARK SMILES IDX 75 55 76 56 77 57 78 58 79 59 58 60 59 61 67 62 60 63 66 64
REMARK SMILES IDX 61 65 62 66 63 67 64 68 65 69 8 70 9 71 10 72 11 73 12 74
REMARK SMILES IDX 13 75 32 76 14 77 16 78 15 79 17 80 18 82 19 83 20 84 21 86
REMARK SMILES IDX 22 87 23 88 24 89 31 90 25 91 26 92 30 93 27 95 29 96 28 97
REMARK H PARENT 86 25 56 36 17 81 20 85 25 94
REMARK Flexibility Score: inf
ROOT
ATOM      1  C   UNL A   1      36.736  33.946  34.756  1.00  0.00     0.202 C 
ENDROOT
BRANCH   1   2
ATOM      2  O   UNL A   1      36.206  34.445  33.520  1.00  0.00    -0.374 OA
BRANCH   2   3
ATOM      3  C   UNL A   1      34.789  34.630  33.472  1.00  0.00     0.202 C 
BRANCH   3   4
ATOM      4  C   UNL A   1      34.259  35.300  32.205  1.00  0.00     0.261 C 
BRANCH   4   5
ATOM      5  O   UNL A   1      33.637  34.322  31.356  1.00  0.00    -0.460 OA
BRANCH   5   6
ATOM      6  C   UNL A   1      34.154  33.728  30.255  1.00  0.00     0.338 C 
ATOM      7  O   UNL A   1      33.458  33.661  29.244  1.00  0.00    -0.246 OA
BRANCH   6   8
ATOM      8  C   UNL A   1      35.532  33.155  30.201  1.00  0.00     0.060 A 
ATOM      9  C   UNL A   1      36.021  32.172  31.064  1.00  0.00     0.016 A 
ATOM     10  C   UNL A   1      36.359  33.579  29.148  1.00  0.00     0.016 A 
ATOM     11  C   UNL A   1      37.317  31.691  30.957  1.00  0.00     0.010 A 
ATOM     12  C   UNL A   1      37.649  33.061  29.000  1.00  0.00     0.010 A 
ATOM     13  C   UNL A   1      38.139  32.137  29.927  1.00  0.00    -0.014 A 
BRANCH  13  14
ATOM     14  C   UNL A   1      39.542  31.692  29.932  1.00  0.00     0.031 A 
ATOM     15  C   UNL A   1      40.566  32.586  30.563  1.00  0.00     0.074 A 
ATOM     16  C   UNL A   1      39.846  30.452  29.509  1.00  0.00     0.049 A 
ATOM     17  N   UNL A   1      41.849  32.399  30.706  1.00  0.00    -0.248 NA
ATOM     18  C   UNL A   1      40.073  33.855  31.127  1.00  0.00     0.031 C 
ATOM     19  C   UNL A   1      38.878  29.473  29.003  1.00  0.00     0.029 A 
ATOM     20  N   UNL A   1      41.039  29.783  29.482  1.00  0.00    -0.354 N 
ATOM     21  C   UNL A   1      42.322  33.540  31.341  1.00  0.00     0.074 A 
ATOM     22  C   UNL A   1      41.191  34.413  31.561  1.00  0.00     0.031 C 
ATOM     23  C   UNL A   1      39.513  28.316  28.756  1.00  0.00     0.029 A 
ATOM     24  C   UNL A   1      40.935  28.492  29.023  1.00  0.00     0.049 A 
ATOM     25  H   UNL A   1      41.891  30.188  29.765  1.00  0.00     0.167 HD
ATOM     26  C   UNL A   1      43.596  33.833  31.694  1.00  0.00     0.031 A 
ATOM     27  C   UNL A   1      41.894  27.567  28.827  1.00  0.00     0.031 A 
ATOM     28  C   UNL A   1      44.700  32.950  31.445  1.00  0.00     0.049 A 
ATOM     29  C   UNL A   1      43.312  27.948  29.150  1.00  0.00     0.074 A 
ATOM     30  C   UNL A   1      46.045  33.154  31.683  1.00  0.00     0.029 A 
ATOM     31  N   UNL A   1      44.576  31.680  30.895  1.00  0.00    -0.354 N 
ATOM     32  N   UNL A   1      43.764  29.062  29.680  1.00  0.00    -0.248 NA
ATOM     33  C   UNL A   1      44.352  26.959  28.842  1.00  0.00     0.031 C 
ATOM     34  C   UNL A   1      46.739  32.024  31.234  1.00  0.00     0.029 A 
ATOM     35  C   UNL A   1      45.820  31.093  30.771  1.00  0.00     0.049 A 
ATOM     36  H   UNL A   1      43.725  31.260  30.631  1.00  0.00     0.167 HD
ATOM     37  C   UNL A   1      45.140  28.902  29.788  1.00  0.00     0.074 A 
ATOM     38  C   UNL A   1      45.441  27.576  29.280  1.00  0.00     0.031 C 
ATOM     39  C   UNL A   1      46.071  29.767  30.261  1.00  0.00     0.031 A 
BRANCH  26  40
ATOM     40  C   UNL A   1      43.840  35.196  32.282  1.00  0.00    -0.014 A 
ATOM     41  C   UNL A   1      43.809  35.421  33.671  1.00  0.00     0.010 A 
ATOM     42  C   UNL A   1      44.040  36.287  31.418  1.00  0.00     0.010 A 
ATOM     43  C   UNL A   1      43.911  36.721  34.178  1.00  0.00     0.020 A 
ATOM     44  C   UNL A   1      44.168  37.584  31.921  1.00  0.00     0.020 A 
ATOM     45  C   UNL A   1      44.075  37.796  33.298  1.00  0.00     0.054 A 
BRANCH  45  46
ATOM     46  S   UNL A   1      44.159  39.478  33.974  1.00  0.00     0.124 S 
ATOM     47  O   UNL A   1      44.424  39.220  35.387  1.00  0.00    -0.237 OA
ATOM     48  O   UNL A   1      45.265  40.071  33.225  1.00  0.00    -0.237 OA
ATOM     49  O   UNL A   1      42.842  40.036  33.678  1.00  0.00    -0.744 OA
ENDBRANCH  45  46
ENDBRANCH  26  40
BRANCH  27  50
ATOM     50  C   UNL A   1      41.547  26.227  28.275  1.00  0.00    -0.014 A 
ATOM     51  C   UNL A   1      42.089  25.054  28.828  1.00  0.00     0.010 A 
ATOM     52  C   UNL A   1      40.651  26.117  27.194  1.00  0.00     0.010 A 
ATOM     53  C   UNL A   1      41.751  23.800  28.305  1.00  0.00     0.020 A 
ATOM     54  C   UNL A   1      40.290  24.865  26.686  1.00  0.00     0.020 A 
ATOM     55  C   UNL A   1      40.851  23.714  27.238  1.00  0.00     0.054 A 
BRANCH  55  56
ATOM     56  S   UNL A   1      40.391  22.076  26.605  1.00  0.00     0.124 S 
ATOM     57  O   UNL A   1      41.413  21.844  25.590  1.00  0.00    -0.237 OA
ATOM     58  O   UNL A   1      40.480  21.238  27.797  1.00  0.00    -0.237 OA
ATOM     59  O   UNL A   1      39.036  22.277  26.093  1.00  0.00    -0.744 OA
ENDBRANCH  55  56
ENDBRANCH  27  50
BRANCH  39  60
ATOM     60  C   UNL A   1      47.493  29.282  30.290  1.00  0.00    -0.014 A 
ATOM     61  C   UNL A   1      48.365  29.520  29.215  1.00  0.00     0.010 A 
ATOM     62  C   UNL A   1      47.970  28.628  31.440  1.00  0.00     0.010 A 
ATOM     63  C   UNL A   1      49.689  29.082  29.278  1.00  0.00     0.020 A 
ATOM     64  C   UNL A   1      49.299  28.213  31.516  1.00  0.00     0.020 A 
ATOM     65  C   UNL A   1      50.147  28.430  30.428  1.00  0.00     0.054 A 
BRANCH  65  66
ATOM     66  S   UNL A   1      51.882  27.911  30.508  1.00  0.00     0.124 S 
ATOM     67  O   UNL A   1      52.294  28.434  31.808  1.00  0.00    -0.237 OA
ATOM     68  O   UNL A   1      51.788  26.455  30.417  1.00  0.00    -0.237 OA
ATOM     69  O   UNL A   1      52.491  28.563  29.351  1.00  0.00    -0.744 OA
ENDBRANCH  65  66
ENDBRANCH  39  60
ENDBRANCH  13  14
ENDBRANCH   6   8
ENDBRANCH   5   6
ENDBRANCH   4   5
ENDBRANCH   3   4
ENDBRANCH   2   3
ENDBRANCH   1   2
BRANCH   1  70
ATOM     70  C   UNL A   1      38.268  33.939  34.689  1.00  0.00     0.261 C 
BRANCH  70  71
ATOM     71  O   UNL A   1      38.675  32.653  34.195  1.00  0.00    -0.460 OA
BRANCH  71  72
ATOM     72  C   UNL A   1      39.987  32.377  34.452  1.00  0.00     0.338 C 
ATOM     73  O   UNL A   1      40.731  33.007  35.154  1.00  0.00    -0.246 OA
BRANCH  72  74
ATOM     74  C   UNL A   1      40.291  31.030  33.895  1.00  0.00     0.062 A 
ATOM     75  C   UNL A   1      39.212  30.202  33.560  1.00  0.00     0.016 A 
ATOM     76  C   UNL A   1      41.596  30.638  33.582  1.00  0.00     0.041 A 
ATOM     77  C   UNL A   1      39.435  28.996  32.897  1.00  0.00     0.003 A 
ATOM     78  C   UNL A   1      41.815  29.393  32.995  1.00  0.00     0.041 A 
ATOM     79  C   UNL A   1      40.736  28.592  32.620  1.00  0.00     0.026 A 
BRANCH  78  80
ATOM     80  N   UNL A   1      43.131  28.982  32.761  1.00  0.00    -0.331 N 
ATOM     81  H   UNL A   1      43.601  29.441  32.028  1.00  0.00     0.169 HD
BRANCH  80  82
ATOM     82  C   UNL A   1      43.844  28.028  33.419  1.00  0.00     0.191 C 
ATOM     83  S   UNL A   1      43.987  26.514  32.708  1.00  0.00    -0.039 S 
BRANCH  82  84
ATOM     84  N   UNL A   1      44.561  28.302  34.555  1.00  0.00    -0.254 N 
ATOM     85  H   UNL A   1      45.426  27.840  34.636  1.00  0.00     0.193 HD
BRANCH  84  86
ATOM     86  N   UNL A   1      44.226  29.143  35.601  1.00  0.00    -0.181 NA
ATOM     87  C   UNL A   1      43.935  28.639  36.775  1.00  0.00     0.143 C 
BRANCH  87  88
ATOM     88  C   UNL A   1      44.015  27.223  37.058  1.00  0.00     0.020 A 
ATOM     89  C   UNL A   1      45.156  26.584  37.500  1.00  0.00     0.093 A 
ATOM     90  C   UNL A   1      43.113  26.172  36.754  1.00  0.00     0.008 A 
ATOM     91  N   UNL A   1      45.199  25.426  36.770  1.00  0.00    -0.361 N 
ATOM     92  C   UNL A   1      43.950  25.168  36.267  1.00  0.00     0.046 A 
ATOM     93  C   UNL A   1      41.724  25.983  36.670  1.00  0.00     0.011 A 
ATOM     94  H   UNL A   1      45.999  24.869  36.629  1.00  0.00     0.166 HD
ATOM     95  C   UNL A   1      43.502  24.144  35.438  1.00  0.00     0.027 A 
ATOM     96  C   UNL A   1      41.250  24.821  36.044  1.00  0.00     0.001 A 
ATOM     97  C   UNL A   1      42.122  23.971  35.361  1.00  0.00     0.002 A 
ENDBRANCH  87  88
ENDBRANCH  84  86
ENDBRANCH  82  84
ENDBRANCH  80  82
ENDBRANCH  78  80
ENDBRANCH  72  74
ENDBRANCH  71  72
ENDBRANCH  70  71
ENDBRANCH   1  70
TORSDOF 22
ENDMDL
MODEL 3
REMARK VINA RESULT:      -9.4      5.194      9.217
REMARK SMILES O=C(OCCOCCOC(=O)c1cccc(NC(=S)N/N=C\c2c[nH]c3ccccc23)c1)c1ccc(-c2c3nc(c(-c4ccc(S(=O)(=O)[O-])cc4)c4ccc([nH]4)c(-c4ccc(S(=O)(=O)[O-])cc4)c4nc(c(-c5ccc(S(=O)(=O)[O-])cc5)c5ccc2[nH]5)C=C4)C=C3)cc1
REMARK SMILES IDX 7 1 6 2 5 3 4 4 3 5 2 6 1 7 33 8 34 9 92 10 35 11 91 12
REMARK SMILES IDX 36 13 37 14 38 15 85 16 39 17 90 18 84 19 86 20 40 21 89 22
REMARK SMILES IDX 83 23 82 24 41 26 71 27 52 28 70 29 53 30 56 31 69 32 87 33
REMARK SMILES IDX 54 34 55 35 68 37 88 38 57 39 42 40 43 41 51 42 44 43 50 44
REMARK SMILES IDX 45 45 46 46 47 47 48 48 49 49 72 50 73 51 81 52 74 53 80 54
REMARK SMILES IDX 75 55 76 56 77 57 78 58 79 59 58 60 59 61 67 62 60 63 66 64
REMARK SMILES IDX 61 65 62 66 63 67 64 68 65 69 8 70 9 71 10 72 11 73 12 74
REMARK SMILES IDX 13 75 32 76 14 77 16 78 15 79 17 80 18 82 19 83 20 84 21 86
REMARK SMILES IDX 22 87 23 88 24 89 31 90 25 91 26 92 30 93 27 95 29 96 28 97
REMARK H PARENT 86 25 56 36 17 81 20 85 25 94
REMARK Flexibility Score: inf
ROOT
ATOM      1  C   UNL A   1      30.982  31.955  26.244  1.00  0.00     0.202 C 
ENDROOT
BRANCH   1   2
ATOM      2  O   UNL A   1      31.788  33.005  26.798  1.00  0.00    -0.374 OA
BRANCH   2   3
ATOM      3  C   UNL A   1      32.612  32.644  27.911  1.00  0.00     0.202 C 
BRANCH   3   4
ATOM      4  C   UNL A   1      33.948  33.381  28.002  1.00  0.00     0.261 C 
BRANCH   4   5
ATOM      5  O   UNL A   1      35.020  32.501  27.627  1.00  0.00    -0.460 OA
BRANCH   5   6
ATOM      6  C   UNL A   1      35.181  31.199  27.958  1.00  0.00     0.338 C 
ATOM      7  O   UNL A   1      34.298  30.401  27.649  1.00  0.00    -0.246 OA
BRANCH   6   8
ATOM      8  C   UNL A   1      36.382  30.676  28.677  1.00  0.00     0.060 A 
ATOM      9  C   UNL A   1      36.394  29.538  29.485  1.00  0.00     0.016 A 
ATOM     10  C   UNL A   1      37.600  31.336  28.448  1.00  0.00     0.016 A 
ATOM     11  C   UNL A   1      37.548  29.115  30.127  1.00  0.00     0.010 A 
ATOM     12  C   UNL A   1      38.780  30.887  29.048  1.00  0.00     0.010 A 
ATOM     13  C   UNL A   1      38.746  29.791  29.915  1.00  0.00    -0.014 A 
BRANCH  13  14
ATOM     14  C   UNL A   1      39.912  29.382  30.716  1.00  0.00     0.031 A 
ATOM     15  C   UNL A   1      40.791  28.292  30.181  1.00  0.00     0.074 A 
ATOM     16  C   UNL A   1      40.238  30.082  31.817  1.00  0.00     0.049 A 
ATOM     17  N   UNL A   1      41.877  27.783  30.692  1.00  0.00    -0.248 NA
ATOM     18  C   UNL A   1      40.403  27.712  28.883  1.00  0.00     0.031 C 
ATOM     19  C   UNL A   1      39.500  31.242  32.328  1.00  0.00     0.029 A 
ATOM     20  N   UNL A   1      41.294  29.956  32.677  1.00  0.00    -0.354 N 
ATOM     21  C   UNL A   1      42.282  26.798  29.800  1.00  0.00     0.074 A 
ATOM     22  C   UNL A   1      41.329  26.783  28.713  1.00  0.00     0.031 C 
ATOM     23  C   UNL A   1      40.154  31.746  33.387  1.00  0.00     0.029 A 
ATOM     24  C   UNL A   1      41.313  30.907  33.668  1.00  0.00     0.049 A 
ATOM     25  H   UNL A   1      41.976  29.250  32.593  1.00  0.00     0.167 HD
ATOM     26  C   UNL A   1      43.350  25.972  29.894  1.00  0.00     0.031 A 
ATOM     27  C   UNL A   1      42.168  31.064  34.696  1.00  0.00     0.031 A 
ATOM     28  C   UNL A   1      44.268  26.003  30.998  1.00  0.00     0.049 A 
ATOM     29  C   UNL A   1      43.299  30.081  34.824  1.00  0.00     0.074 A 
ATOM     30  C   UNL A   1      45.345  25.176  31.254  1.00  0.00     0.029 A 
ATOM     31  N   UNL A   1      44.210  26.923  32.037  1.00  0.00    -0.354 N 
ATOM     32  N   UNL A   1      43.632  29.100  34.015  1.00  0.00    -0.248 NA
ATOM     33  C   UNL A   1      44.164  30.214  36.002  1.00  0.00     0.031 C 
ATOM     34  C   UNL A   1      45.910  25.570  32.473  1.00  0.00     0.029 A 
ATOM     35  C   UNL A   1      45.221  26.678  32.946  1.00  0.00     0.049 A 
ATOM     36  H   UNL A   1      43.544  27.645  32.115  1.00  0.00     0.167 HD
ATOM     37  C   UNL A   1      44.757  28.510  34.576  1.00  0.00     0.074 A 
ATOM     38  C   UNL A   1      45.054  29.255  35.785  1.00  0.00     0.031 C 
ATOM     39  C   UNL A   1      45.480  27.450  34.137  1.00  0.00     0.031 A 
BRANCH  26  40
ATOM     40  C   UNL A   1      43.493  24.923  28.825  1.00  0.00    -0.014 A 
ATOM     41  C   UNL A   1      44.124  25.196  27.598  1.00  0.00     0.010 A 
ATOM     42  C   UNL A   1      42.923  23.655  29.033  1.00  0.00     0.010 A 
ATOM     43  C   UNL A   1      44.125  24.240  26.576  1.00  0.00     0.020 A 
ATOM     44  C   UNL A   1      42.944  22.688  28.025  1.00  0.00     0.020 A 
ATOM     45  C   UNL A   1      43.522  22.997  26.792  1.00  0.00     0.054 A 
BRANCH  45  46
ATOM     46  S   UNL A   1      43.495  21.788  25.439  1.00  0.00     0.124 S 
ATOM     47  O   UNL A   1      42.293  21.019  25.748  1.00  0.00    -0.237 OA
ATOM     48  O   UNL A   1      43.411  22.635  24.252  1.00  0.00    -0.237 OA
ATOM     49  O   UNL A   1      44.755  21.066  25.597  1.00  0.00    -0.744 OA
ENDBRANCH  45  46
ENDBRANCH  26  40
BRANCH  27  50
ATOM     50  C   UNL A   1      41.965  32.160  35.685  1.00  0.00    -0.014 A 
ATOM     51  C   UNL A   1      41.154  31.973  36.818  1.00  0.00     0.010 A 
ATOM     52  C   UNL A   1      42.603  33.403  35.505  1.00  0.00     0.010 A 
ATOM     53  C   UNL A   1      40.976  33.008  37.744  1.00  0.00     0.020 A 
ATOM     54  C   UNL A   1      42.449  34.431  36.441  1.00  0.00     0.020 A 
ATOM     55  C   UNL A   1      41.627  34.230  37.550  1.00  0.00     0.054 A 
BRANCH  55  56
ATOM     56  S   UNL A   1      41.420  35.543  38.786  1.00  0.00     0.124 S 
ATOM     57  O   UNL A   1      41.569  34.809  40.038  1.00  0.00    -0.237 OA
ATOM     58  O   UNL A   1      42.506  36.462  38.458  1.00  0.00    -0.237 OA
ATOM     59  O   UNL A   1      40.078  36.056  38.517  1.00  0.00    -0.744 OA
ENDBRANCH  55  56
ENDBRANCH  27  50
BRANCH  39  60
ATOM     60  C   UNL A   1      46.686  27.070  34.949  1.00  0.00    -0.014 A 
ATOM     61  C   UNL A   1      47.951  27.611  34.669  1.00  0.00     0.010 A 
ATOM     62  C   UNL A   1      46.528  26.201  36.043  1.00  0.00     0.010 A 
ATOM     63  C   UNL A   1      49.051  27.263  35.455  1.00  0.00     0.020 A 
ATOM     64  C   UNL A   1      47.620  25.871  36.846  1.00  0.00     0.020 A 
ATOM     65  C   UNL A   1      48.878  26.393  36.538  1.00  0.00     0.054 A 
BRANCH  65  66
ATOM     66  S   UNL A   1      50.310  25.991  37.574  1.00  0.00     0.124 S 
ATOM     67  O   UNL A   1      49.672  25.513  38.798  1.00  0.00    -0.237 OA
ATOM     68  O   UNL A   1      51.001  24.972  36.787  1.00  0.00    -0.237 OA
ATOM     69  O   UNL A   1      51.018  27.263  37.694  1.00  0.00    -0.744 OA
ENDBRANCH  65  66
ENDBRANCH  39  60
ENDBRANCH  13  14
ENDBRANCH   6   8
ENDBRANCH   5   6
ENDBRANCH   4   5
ENDBRANCH   3   4
ENDBRANCH   2   3
ENDBRANCH   1   2
BRANCH   1  70
ATOM     70  C   UNL A   1      31.884  30.789  25.820  1.00  0.00     0.261 C 
BRANCH  70  71
ATOM     71  O   UNL A   1      31.053  29.626  25.682  1.00  0.00    -0.460 OA
BRANCH  71  72
ATOM     72  C   UNL A   1      30.887  29.244  24.382  1.00  0.00     0.338 C 
ATOM     73  O   UNL A   1      30.302  29.847  23.523  1.00  0.00    -0.246 OA
BRANCH  72  74
ATOM     74  C   UNL A   1      31.750  28.054  24.138  1.00  0.00     0.062 A 
ATOM     75  C   UNL A   1      32.603  28.083  23.027  1.00  0.00     0.016 A 
ATOM     76  C   UNL A   1      31.821  26.995  25.047  1.00  0.00     0.041 A 
ATOM     77  C   UNL A   1      33.538  27.066  22.838  1.00  0.00     0.003 A 
ATOM     78  C   UNL A   1      32.700  25.941  24.804  1.00  0.00     0.041 A 
ATOM     79  C   UNL A   1      33.581  25.995  23.724  1.00  0.00     0.026 A 
BRANCH  78  80
ATOM     80  N   UNL A   1      32.702  24.852  25.680  1.00  0.00    -0.331 N 
ATOM     81  H   UNL A   1      33.339  24.903  26.429  1.00  0.00     0.169 HD
BRANCH  80  82
ATOM     82  C   UNL A   1      31.934  23.729  25.629  1.00  0.00     0.191 C 
ATOM     83  S   UNL A   1      30.489  23.718  26.485  1.00  0.00    -0.039 S 
BRANCH  82  84
ATOM     84  N   UNL A   1      32.226  22.678  24.799  1.00  0.00    -0.254 N 
ATOM     85  H   UNL A   1      32.707  22.908  23.972  1.00  0.00     0.193 HD
BRANCH  84  86
ATOM     86  N   UNL A   1      31.933  21.338  24.974  1.00  0.00    -0.181 NA
ATOM     87  C   UNL A   1      32.760  20.570  25.640  1.00  0.00     0.143 C 
BRANCH  87  88
ATOM     88  C   UNL A   1      33.955  21.078  26.275  1.00  0.00     0.020 A 
ATOM     89  C   UNL A   1      34.029  21.454  27.601  1.00  0.00     0.093 A 
ATOM     90  C   UNL A   1      35.180  21.518  25.711  1.00  0.00     0.008 A 
ATOM     91  N   UNL A   1      34.744  22.622  27.582  1.00  0.00    -0.361 N 
ATOM     92  C   UNL A   1      35.440  22.701  26.403  1.00  0.00     0.046 A 
ATOM     93  C   UNL A   1      36.009  21.181  24.629  1.00  0.00     0.011 A 
ATOM     94  H   UNL A   1      34.756  23.296  28.300  1.00  0.00     0.166 HD
ATOM     95  C   UNL A   1      36.264  23.705  25.905  1.00  0.00     0.027 A 
ATOM     96  C   UNL A   1      37.017  22.083  24.261  1.00  0.00     0.001 A 
ATOM     97  C   UNL A   1      37.078  23.357  24.828  1.00  0.00     0.002 A 
ENDBRANCH  87  88
ENDBRANCH  84  86
ENDBRANCH  82  84
ENDBRANCH  80  82
ENDBRANCH  78  80
ENDBRANCH  72  74
ENDBRANCH  71  72
ENDBRANCH  70  71
ENDBRANCH   1  70
TORSDOF 22
ENDMDL
