MODEL 1
REMARK VINA RESULT:      -9.9      0.000      0.000
REMARK SMILES NC(=O)c1ccsc1NS(=O)(=O)c1ccc(C(=O)OCCOCCOC(=O)c2ccc(-c3c4nc(c(-c5ccc(S(=O)(=O)[O-])cc5)c5ccc([nH]5)c(-c5ccc(S(=O)(=O)[O-])cc5)c5nc(c(-c6ccc(S(=O)(=O)[O-])cc6)c6ccc3[nH]6)C=C5)C=C4)cc2)cc1
REMARK SMILES IDX 21 1 20 2 19 3 17 4 18 5 16 6 13 7 14 8 89 9 15 10 88 11
REMARK SMILES IDX 10 12 11 13 12 14 9 15 8 17 4 18 5 19 6 20 7 21 2 22 1 23
REMARK SMILES IDX 3 26 22 27 23 28 24 29 25 30 26 31 27 32 28 33 29 34 87 35
REMARK SMILES IDX 30 36 86 37 31 38 32 39 33 40 80 41 34 42 85 43 79 44 81 45
REMARK SMILES IDX 35 46 84 47 78 48 77 49 36 51 66 52 47 53 65 54 48 55 51 56
REMARK SMILES IDX 64 57 82 58 49 59 50 60 63 62 83 63 52 64 37 65 38 66 46 67
REMARK SMILES IDX 39 68 45 69 40 70 41 71 42 72 43 73 44 74 67 75 68 76 76 77
REMARK SMILES IDX 69 78 75 79 70 80 71 81 72 82 73 83 74 84 53 85 54 86 62 87
REMARK SMILES IDX 55 88 61 89 56 90 57 91 58 92 59 93 60 94
REMARK H PARENT 9 16 1 24 1 25 81 50 51 61
REMARK Flexibility Score: inf
ROOT
ATOM      1  C   UNL A   1      40.096  22.472  26.996  1.00  0.00     0.202 C 
ENDROOT
BRANCH   1   2
ATOM      2  C   UNL A   1      39.020  21.850  26.101  1.00  0.00     0.261 C 
BRANCH   2   3
ATOM      3  O   UNL A   1      37.876  22.705  25.956  1.00  0.00    -0.460 OA
BRANCH   3   4
ATOM      4  C   UNL A   1      36.788  22.118  25.397  1.00  0.00     0.338 C 
ATOM      5  O   UNL A   1      36.530  20.924  25.394  1.00  0.00    -0.246 OA
BRANCH   4   6
ATOM      6  C   UNL A   1      35.844  23.136  24.862  1.00  0.00     0.060 A 
ATOM      7  C   UNL A   1      33.963  24.883  23.747  1.00  0.00     0.087 A 
ATOM      8  C   UNL A   1      34.557  23.908  22.945  1.00  0.00     0.023 A 
ATOM      9  C   UNL A   1      34.337  25.019  25.092  1.00  0.00     0.023 A 
ATOM     10  C   UNL A   1      35.476  23.023  23.511  1.00  0.00     0.017 A 
ATOM     11  C   UNL A   1      35.285  24.153  25.648  1.00  0.00     0.017 A 
BRANCH   7  12
ATOM     12  S   UNL A   1      32.637  25.904  23.142  1.00  0.00     0.262 S 
ATOM     13  O   UNL A   1      31.684  24.993  22.538  1.00  0.00    -0.201 OA
ATOM     14  O   UNL A   1      33.223  26.983  22.377  1.00  0.00    -0.201 OA
BRANCH  12  15
ATOM     15  N   UNL A   1      31.857  26.570  24.452  1.00  0.00    -0.270 N 
ATOM     16  H   UNL A   1      31.181  26.011  24.900  1.00  0.00     0.181 HD
BRANCH  15  17
ATOM     17  C   UNL A   1      32.076  27.870  24.988  1.00  0.00     0.115 A 
ATOM     18  C   UNL A   1      31.391  28.976  24.504  1.00  0.00     0.074 A 
ATOM     19  C   UNL A   1      31.546  30.094  25.399  1.00  0.00     0.028 A 
ATOM     20  C   UNL A   1      32.428  29.834  26.422  1.00  0.00     0.068 A 
ATOM     21  S   UNL A   1      33.141  28.295  26.249  1.00  0.00    -0.125 S 
BRANCH  18  22
ATOM     22  C   UNL A   1      30.593  28.960  23.284  1.00  0.00     0.251 C 
ATOM     23  N   UNL A   1      31.239  29.386  22.160  1.00  0.00    -0.366 N 
ATOM     24  H   UNL A   1      30.766  29.404  21.296  1.00  0.00     0.159 HD
ATOM     25  H   UNL A   1      32.178  29.677  22.212  1.00  0.00     0.159 HD
ATOM     26  O   UNL A   1      29.441  28.537  23.231  1.00  0.00    -0.269 OA
ENDBRANCH  18  22
ENDBRANCH  15  17
ENDBRANCH  12  15
ENDBRANCH   7  12
ENDBRANCH   4   6
ENDBRANCH   3   4
ENDBRANCH   2   3
ENDBRANCH   1   2
BRANCH   1  27
ATOM     27  O   UNL A   1      41.134  21.603  27.448  1.00  0.00    -0.374 OA
BRANCH  27  28
ATOM     28  C   UNL A   1      42.368  21.638  26.725  1.00  0.00     0.202 C 
BRANCH  28  29
ATOM     29  C   UNL A   1      42.653  22.909  25.913  1.00  0.00     0.261 C 
BRANCH  29  30
ATOM     30  O   UNL A   1      43.188  23.968  26.728  1.00  0.00    -0.460 OA
BRANCH  30  31
ATOM     31  C   UNL A   1      42.998  25.220  26.239  1.00  0.00     0.338 C 
ATOM     32  O   UNL A   1      43.064  25.573  25.074  1.00  0.00    -0.246 OA
BRANCH  31  33
ATOM     33  C   UNL A   1      42.496  26.102  27.311  1.00  0.00     0.060 A 
ATOM     34  C   UNL A   1      43.134  27.337  27.487  1.00  0.00     0.016 A 
ATOM     35  C   UNL A   1      41.463  25.708  28.164  1.00  0.00     0.016 A 
ATOM     36  C   UNL A   1      42.764  28.169  28.544  1.00  0.00     0.010 A 
ATOM     37  C   UNL A   1      41.101  26.541  29.229  1.00  0.00     0.010 A 
ATOM     38  C   UNL A   1      41.769  27.762  29.441  1.00  0.00    -0.014 A 
BRANCH  38  39
ATOM     39  C   UNL A   1      41.509  28.556  30.666  1.00  0.00     0.031 A 
ATOM     40  C   UNL A   1      40.365  29.533  30.679  1.00  0.00     0.074 A 
ATOM     41  C   UNL A   1      42.273  28.396  31.762  1.00  0.00     0.049 A 
ATOM     42  N   UNL A   1      39.984  30.349  31.628  1.00  0.00    -0.248 NA
ATOM     43  C   UNL A   1      39.543  29.602  29.461  1.00  0.00     0.031 C 
ATOM     44  C   UNL A   1      43.384  27.452  31.888  1.00  0.00     0.029 A 
ATOM     45  N   UNL A   1      42.232  29.033  32.977  1.00  0.00    -0.354 N 
ATOM     46  C   UNL A   1      38.888  31.035  31.120  1.00  0.00     0.074 A 
ATOM     47  C   UNL A   1      38.680  30.559  29.770  1.00  0.00     0.031 C 
ATOM     48  C   UNL A   1      43.926  27.579  33.111  1.00  0.00     0.029 A 
ATOM     49  C   UNL A   1      43.225  28.633  33.840  1.00  0.00     0.049 A 
ATOM     50  H   UNL A   1      41.557  29.710  33.209  1.00  0.00     0.167 HD
ATOM     51  C   UNL A   1      38.120  31.975  31.724  1.00  0.00     0.031 A 
ATOM     52  C   UNL A   1      43.545  29.081  35.071  1.00  0.00     0.031 A 
ATOM     53  C   UNL A   1      38.340  32.458  33.063  1.00  0.00     0.049 A 
ATOM     54  C   UNL A   1      42.724  30.177  35.695  1.00  0.00     0.074 A 
ATOM     55  C   UNL A   1      37.605  33.393  33.770  1.00  0.00     0.029 A 
ATOM     56  N   UNL A   1      39.375  32.052  33.892  1.00  0.00    -0.354 N 
ATOM     57  N   UNL A   1      41.671  30.795  35.214  1.00  0.00    -0.248 NA
ATOM     58  C   UNL A   1      43.127  30.630  37.034  1.00  0.00     0.031 C 
ATOM     59  C   UNL A   1      38.231  33.598  35.005  1.00  0.00     0.029 A 
ATOM     60  C   UNL A   1      39.318  32.741  35.092  1.00  0.00     0.049 A 
ATOM     61  H   UNL A   1      40.051  31.375  33.661  1.00  0.00     0.167 HD
ATOM     62  C   UNL A   1      41.272  31.692  36.199  1.00  0.00     0.074 A 
ATOM     63  C   UNL A   1      42.188  31.525  37.310  1.00  0.00     0.031 C 
ATOM     64  C   UNL A   1      40.239  32.571  36.188  1.00  0.00     0.031 A 
BRANCH  51  65
ATOM     65  C   UNL A   1      36.993  32.571  30.925  1.00  0.00    -0.014 A 
ATOM     66  C   UNL A   1      35.672  32.106  31.062  1.00  0.00     0.010 A 
ATOM     67  C   UNL A   1      37.253  33.640  30.046  1.00  0.00     0.010 A 
ATOM     68  C   UNL A   1      34.641  32.670  30.306  1.00  0.00     0.020 A 
ATOM     69  C   UNL A   1      36.220  34.225  29.309  1.00  0.00     0.020 A 
ATOM     70  C   UNL A   1      34.922  33.724  29.430  1.00  0.00     0.054 A 
BRANCH  70  71
ATOM     71  S   UNL A   1      33.562  34.448  28.473  1.00  0.00     0.124 S 
ATOM     72  O   UNL A   1      33.145  33.321  27.644  1.00  0.00    -0.237 OA
ATOM     73  O   UNL A   1      32.616  34.848  29.512  1.00  0.00    -0.237 OA
ATOM     74  O   UNL A   1      34.193  35.551  27.753  1.00  0.00    -0.744 OA
ENDBRANCH  70  71
ENDBRANCH  51  65
BRANCH  52  75
ATOM     75  C   UNL A   1      44.717  28.504  35.786  1.00  0.00    -0.014 A 
ATOM     76  C   UNL A   1      45.998  29.062  35.632  1.00  0.00     0.010 A 
ATOM     77  C   UNL A   1      44.552  27.396  36.637  1.00  0.00     0.010 A 
ATOM     78  C   UNL A   1      47.094  28.515  36.307  1.00  0.00     0.020 A 
ATOM     79  C   UNL A   1      45.639  26.863  37.335  1.00  0.00     0.020 A 
ATOM     80  C   UNL A   1      46.906  27.422  37.158  1.00  0.00     0.054 A 
BRANCH  80  81
ATOM     81  S   UNL A   1      48.331  26.768  38.072  1.00  0.00     0.124 S 
ATOM     82  O   UNL A   1      48.073  25.332  38.051  1.00  0.00    -0.237 OA
ATOM     83  O   UNL A   1      49.459  27.222  37.262  1.00  0.00    -0.237 OA
ATOM     84  O   UNL A   1      48.218  27.407  39.382  1.00  0.00    -0.744 OA
ENDBRANCH  80  81
ENDBRANCH  52  75
BRANCH  64  85
ATOM     85  C   UNL A   1      40.019  33.402  37.425  1.00  0.00    -0.014 A 
ATOM     86  C   UNL A   1      40.748  34.582  37.654  1.00  0.00     0.010 A 
ATOM     87  C   UNL A   1      39.026  33.021  38.347  1.00  0.00     0.010 A 
ATOM     88  C   UNL A   1      40.509  35.350  38.797  1.00  0.00     0.020 A 
ATOM     89  C   UNL A   1      38.764  33.802  39.476  1.00  0.00     0.020 A 
ATOM     90  C   UNL A   1      39.519  34.954  39.702  1.00  0.00     0.054 A 
BRANCH  90  91
ATOM     91  S   UNL A   1      39.200  35.990  41.157  1.00  0.00     0.124 S 
ATOM     92  O   UNL A   1      38.536  37.148  40.567  1.00  0.00    -0.237 OA
ATOM     93  O   UNL A   1      38.352  35.132  41.982  1.00  0.00    -0.237 OA
ATOM     94  O   UNL A   1      40.532  36.245  41.700  1.00  0.00    -0.744 OA
ENDBRANCH  90  91
ENDBRANCH  64  85
ENDBRANCH  38  39
ENDBRANCH  31  33
ENDBRANCH  30  31
ENDBRANCH  29  30
ENDBRANCH  28  29
ENDBRANCH  27  28
ENDBRANCH   1  27
TORSDOF 21
ENDMDL
MODEL 2
REMARK VINA RESULT:      -9.6      1.189      8.137
REMARK SMILES NC(=O)c1ccsc1NS(=O)(=O)c1ccc(C(=O)OCCOCCOC(=O)c2ccc(-c3c4nc(c(-c5ccc(S(=O)(=O)[O-])cc5)c5ccc([nH]5)c(-c5ccc(S(=O)(=O)[O-])cc5)c5nc(c(-c6ccc(S(=O)(=O)[O-])cc6)c6ccc3[nH]6)C=C5)C=C4)cc2)cc1
REMARK SMILES IDX 21 1 20 2 19 3 17 4 18 5 16 6 13 7 14 8 89 9 15 10 88 11
REMARK SMILES IDX 10 12 11 13 12 14 9 15 8 17 4 18 5 19 6 20 7 21 2 22 1 23
REMARK SMILES IDX 3 26 22 27 23 28 24 29 25 30 26 31 27 32 28 33 29 34 87 35
REMARK SMILES IDX 30 36 86 37 31 38 32 39 33 40 80 41 34 42 85 43 79 44 81 45
REMARK SMILES IDX 35 46 84 47 78 48 77 49 36 51 66 52 47 53 65 54 48 55 51 56
REMARK SMILES IDX 64 57 82 58 49 59 50 60 63 62 83 63 52 64 37 65 38 66 46 67
REMARK SMILES IDX 39 68 45 69 40 70 41 71 42 72 43 73 44 74 67 75 68 76 76 77
REMARK SMILES IDX 69 78 75 79 70 80 71 81 72 82 73 83 74 84 53 85 54 86 62 87
REMARK SMILES IDX 55 88 61 89 56 90 57 91 58 92 59 93 60 94
REMARK H PARENT 9 16 1 24 1 25 81 50 51 61
REMARK Flexibility Score: inf
ROOT
ATOM      1  C   UNL A   1      39.745  21.762  26.501  1.00  0.00     0.202 C 
ENDROOT
BRANCH   1   2
ATOM      2  C   UNL A   1      38.633  21.020  25.753  1.00  0.00     0.261 C 
BRANCH   2   3
ATOM      3  O   UNL A   1      37.447  21.817  25.617  1.00  0.00    -0.460 OA
BRANCH   3   4
ATOM      4  C   UNL A   1      36.371  21.166  25.109  1.00  0.00     0.338 C 
ATOM      5  O   UNL A   1      36.049  20.010  25.339  1.00  0.00    -0.246 OA
BRANCH   4   6
ATOM      6  C   UNL A   1      35.526  22.078  24.293  1.00  0.00     0.060 A 
ATOM      7  C   UNL A   1      33.771  23.765  22.910  1.00  0.00     0.087 A 
ATOM      8  C   UNL A   1      33.307  22.546  23.406  1.00  0.00     0.023 A 
ATOM      9  C   UNL A   1      35.118  24.125  23.063  1.00  0.00     0.023 A 
ATOM     10  C   UNL A   1      34.179  21.719  24.116  1.00  0.00     0.017 A 
ATOM     11  C   UNL A   1      35.998  23.278  23.745  1.00  0.00     0.017 A 
BRANCH   7  12
ATOM     12  S   UNL A   1      32.666  24.953  22.180  1.00  0.00     0.262 S 
ATOM     13  O   UNL A   1      31.340  24.593  22.643  1.00  0.00    -0.201 OA
ATOM     14  O   UNL A   1      32.967  25.027  20.767  1.00  0.00    -0.201 OA
BRANCH  12  15
ATOM     15  N   UNL A   1      32.990  26.441  22.852  1.00  0.00    -0.270 N 
ATOM     16  H   UNL A   1      33.478  27.087  22.291  1.00  0.00     0.181 HD
BRANCH  15  17
ATOM     17  C   UNL A   1      32.626  26.869  24.159  1.00  0.00     0.115 A 
ATOM     18  C   UNL A   1      31.540  27.707  24.370  1.00  0.00     0.074 A 
ATOM     19  C   UNL A   1      31.192  27.739  25.767  1.00  0.00     0.028 A 
ATOM     20  C   UNL A   1      32.090  27.050  26.550  1.00  0.00     0.068 A 
ATOM     21  S   UNL A   1      33.394  26.458  25.625  1.00  0.00    -0.125 S 
BRANCH  18  22
ATOM     22  C   UNL A   1      30.839  28.404  23.297  1.00  0.00     0.251 C 
ATOM     23  N   UNL A   1      30.713  29.752  23.462  1.00  0.00    -0.366 N 
ATOM     24  H   UNL A   1      30.252  30.292  22.779  1.00  0.00     0.159 HD
ATOM     25  H   UNL A   1      31.083  30.186  24.265  1.00  0.00     0.159 HD
ATOM     26  O   UNL A   1      30.437  27.850  22.277  1.00  0.00    -0.269 OA
ENDBRANCH  18  22
ENDBRANCH  15  17
ENDBRANCH  12  15
ENDBRANCH   7  12
ENDBRANCH   4   6
ENDBRANCH   3   4
ENDBRANCH   2   3
ENDBRANCH   1   2
BRANCH   1  27
ATOM     27  O   UNL A   1      40.453  21.021  27.494  1.00  0.00    -0.374 OA
BRANCH  27  28
ATOM     28  C   UNL A   1      41.797  20.643  27.184  1.00  0.00     0.202 C 
BRANCH  28  29
ATOM     29  C   UNL A   1      42.533  21.507  26.150  1.00  0.00     0.261 C 
BRANCH  29  30
ATOM     30  O   UNL A   1      43.126  22.678  26.743  1.00  0.00    -0.460 OA
BRANCH  30  31
ATOM     31  C   UNL A   1      42.895  23.837  26.077  1.00  0.00     0.338 C 
ATOM     32  O   UNL A   1      42.903  24.006  24.869  1.00  0.00    -0.246 OA
BRANCH  31  33
ATOM     33  C   UNL A   1      42.427  24.870  27.023  1.00  0.00     0.060 A 
ATOM     34  C   UNL A   1      42.936  26.167  26.872  1.00  0.00     0.016 A 
ATOM     35  C   UNL A   1      41.554  24.568  28.069  1.00  0.00     0.016 A 
ATOM     36  C   UNL A   1      42.603  27.159  27.794  1.00  0.00     0.010 A 
ATOM     37  C   UNL A   1      41.229  25.563  28.997  1.00  0.00     0.010 A 
ATOM     38  C   UNL A   1      41.774  26.855  28.881  1.00  0.00    -0.014 A 
BRANCH  38  39
ATOM     39  C   UNL A   1      41.573  27.855  29.958  1.00  0.00     0.031 A 
ATOM     40  C   UNL A   1      42.478  27.831  31.160  1.00  0.00     0.074 A 
ATOM     41  C   UNL A   1      40.605  28.783  29.860  1.00  0.00     0.049 A 
ATOM     42  N   UNL A   1      42.456  28.587  32.227  1.00  0.00    -0.248 NA
ATOM     43  C   UNL A   1      43.549  26.821  31.159  1.00  0.00     0.031 C 
ATOM     44  C   UNL A   1      39.691  28.935  28.728  1.00  0.00     0.029 A 
ATOM     45  N   UNL A   1      40.226  29.771  30.734  1.00  0.00    -0.354 N 
ATOM     46  C   UNL A   1      43.499  28.139  33.030  1.00  0.00     0.074 A 
ATOM     47  C   UNL A   1      44.118  27.029  32.338  1.00  0.00     0.031 C 
ATOM     48  C   UNL A   1      38.849  29.952  28.982  1.00  0.00     0.029 A 
ATOM     49  C   UNL A   1      39.142  30.500  30.304  1.00  0.00     0.049 A 
ATOM     50  H   UNL A   1      40.687  29.943  31.587  1.00  0.00     0.167 HD
ATOM     51  C   UNL A   1      43.907  28.611  34.233  1.00  0.00     0.031 A 
ATOM     52  C   UNL A   1      38.451  31.482  30.917  1.00  0.00     0.031 A 
ATOM     53  C   UNL A   1      43.279  29.706  34.926  1.00  0.00     0.049 A 
ATOM     54  C   UNL A   1      38.877  31.942  32.285  1.00  0.00     0.074 A 
ATOM     55  C   UNL A   1      43.631  30.270  36.139  1.00  0.00     0.029 A 
ATOM     56  N   UNL A   1      42.164  30.395  34.472  1.00  0.00    -0.354 N 
ATOM     57  N   UNL A   1      39.884  31.529  33.018  1.00  0.00    -0.248 NA
ATOM     58  C   UNL A   1      38.079  33.010  32.906  1.00  0.00     0.031 C 
ATOM     59  C   UNL A   1      42.693  31.261  36.449  1.00  0.00     0.029 A 
ATOM     60  C   UNL A   1      41.795  31.358  35.397  1.00  0.00     0.049 A 
ATOM     61  H   UNL A   1      41.702  30.224  33.621  1.00  0.00     0.167 HD
ATOM     62  C   UNL A   1      39.855  32.301  34.174  1.00  0.00     0.074 A 
ATOM     63  C   UNL A   1      38.740  33.217  34.037  1.00  0.00     0.031 C 
ATOM     64  C   UNL A   1      40.680  32.260  35.251  1.00  0.00     0.031 A 
BRANCH  51  65
ATOM     65  C   UNL A   1      45.068  27.918  34.895  1.00  0.00    -0.014 A 
ATOM     66  C   UNL A   1      44.873  26.816  35.748  1.00  0.00     0.010 A 
ATOM     67  C   UNL A   1      46.380  28.354  34.631  1.00  0.00     0.010 A 
ATOM     68  C   UNL A   1      45.964  26.190  36.356  1.00  0.00     0.020 A 
ATOM     69  C   UNL A   1      47.476  27.713  35.216  1.00  0.00     0.020 A 
ATOM     70  C   UNL A   1      47.259  26.645  36.090  1.00  0.00     0.054 A 
BRANCH  70  71
ATOM     71  S   UNL A   1      48.658  25.804  36.881  1.00  0.00     0.124 S 
ATOM     72  O   UNL A   1      48.004  24.660  37.509  1.00  0.00    -0.237 OA
ATOM     73  O   UNL A   1      49.525  25.489  35.748  1.00  0.00    -0.237 OA
ATOM     74  O   UNL A   1      49.187  26.805  37.805  1.00  0.00    -0.744 OA
ENDBRANCH  70  71
ENDBRANCH  51  65
BRANCH  52  75
ATOM     75  C   UNL A   1      37.266  32.082  30.245  1.00  0.00    -0.014 A 
ATOM     76  C   UNL A   1      37.424  33.074  29.262  1.00  0.00     0.010 A 
ATOM     77  C   UNL A   1      35.969  31.653  30.580  1.00  0.00     0.010 A 
ATOM     78  C   UNL A   1      36.306  33.633  28.634  1.00  0.00     0.020 A 
ATOM     79  C   UNL A   1      34.850  32.189  29.937  1.00  0.00     0.020 A 
ATOM     80  C   UNL A   1      35.026  33.183  28.973  1.00  0.00     0.054 A 
BRANCH  80  81
ATOM     81  S   UNL A   1      33.594  33.878  28.101  1.00  0.00     0.124 S 
ATOM     82  O   UNL A   1      32.867  34.532  29.185  1.00  0.00    -0.237 OA
ATOM     83  O   UNL A   1      34.221  34.770  27.128  1.00  0.00    -0.237 OA
ATOM     84  O   UNL A   1      32.941  32.703  27.527  1.00  0.00    -0.744 OA
ENDBRANCH  80  81
ENDBRANCH  52  75
BRANCH  64  85
ATOM     85  C   UNL A   1      40.430  33.253  36.357  1.00  0.00    -0.014 A 
ATOM     86  C   UNL A   1      39.594  32.944  37.443  1.00  0.00     0.010 A 
ATOM     87  C   UNL A   1      41.090  34.496  36.332  1.00  0.00     0.010 A 
ATOM     88  C   UNL A   1      39.398  33.872  38.470  1.00  0.00     0.020 A 
ATOM     89  C   UNL A   1      40.918  35.414  37.371  1.00  0.00     0.020 A 
ATOM     90  C   UNL A   1      40.061  35.102  38.427  1.00  0.00     0.054 A 
BRANCH  90  91
ATOM     91  S   UNL A   1      39.821  36.273  39.792  1.00  0.00     0.124 S 
ATOM     92  O   UNL A   1      39.408  37.482  39.087  1.00  0.00    -0.237 OA
ATOM     93  O   UNL A   1      38.783  35.625  40.592  1.00  0.00    -0.237 OA
ATOM     94  O   UNL A   1      41.136  36.339  40.426  1.00  0.00    -0.744 OA
ENDBRANCH  90  91
ENDBRANCH  64  85
ENDBRANCH  38  39
ENDBRANCH  31  33
ENDBRANCH  30  31
ENDBRANCH  29  30
ENDBRANCH  28  29
ENDBRANCH  27  28
ENDBRANCH   1  27
TORSDOF 21
ENDMDL
MODEL 3
REMARK VINA RESULT:      -8.8      5.348     10.854
REMARK SMILES NC(=O)c1ccsc1NS(=O)(=O)c1ccc(C(=O)OCCOCCOC(=O)c2ccc(-c3c4nc(c(-c5ccc(S(=O)(=O)[O-])cc5)c5ccc([nH]5)c(-c5ccc(S(=O)(=O)[O-])cc5)c5nc(c(-c6ccc(S(=O)(=O)[O-])cc6)c6ccc3[nH]6)C=C5)C=C4)cc2)cc1
REMARK SMILES IDX 21 1 20 2 19 3 17 4 18 5 16 6 13 7 14 8 89 9 15 10 88 11
REMARK SMILES IDX 10 12 11 13 12 14 9 15 8 17 4 18 5 19 6 20 7 21 2 22 1 23
REMARK SMILES IDX 3 26 22 27 23 28 24 29 25 30 26 31 27 32 28 33 29 34 87 35
REMARK SMILES IDX 30 36 86 37 31 38 32 39 33 40 80 41 34 42 85 43 79 44 81 45
REMARK SMILES IDX 35 46 84 47 78 48 77 49 36 51 66 52 47 53 65 54 48 55 51 56
REMARK SMILES IDX 64 57 82 58 49 59 50 60 63 62 83 63 52 64 37 65 38 66 46 67
REMARK SMILES IDX 39 68 45 69 40 70 41 71 42 72 43 73 44 74 67 75 68 76 76 77
REMARK SMILES IDX 69 78 75 79 70 80 71 81 72 82 73 83 74 84 53 85 54 86 62 87
REMARK SMILES IDX 55 88 61 89 56 90 57 91 58 92 59 93 60 94
REMARK H PARENT 9 16 1 24 1 25 81 50 51 61
REMARK Flexibility Score: inf
ROOT
ATOM      1  C   UNL A   1      38.337  32.816  32.361  1.00  0.00     0.202 C 
ENDROOT
BRANCH   1   2
ATOM      2  C   UNL A   1      38.251  32.261  30.935  1.00  0.00     0.261 C 
BRANCH   2   3
ATOM      3  O   UNL A   1      37.017  31.567  30.698  1.00  0.00    -0.460 OA
BRANCH   3   4
ATOM      4  C   UNL A   1      36.997  30.275  31.108  1.00  0.00     0.338 C 
ATOM      5  O   UNL A   1      36.278  29.800  31.975  1.00  0.00    -0.246 OA
BRANCH   4   6
ATOM      6  C   UNL A   1      37.902  29.434  30.279  1.00  0.00     0.060 A 
ATOM      7  C   UNL A   1      39.552  27.678  28.854  1.00  0.00     0.087 A 
ATOM      8  C   UNL A   1      39.572  27.662  30.250  1.00  0.00     0.023 A 
ATOM      9  C   UNL A   1      38.745  28.598  28.168  1.00  0.00     0.023 A 
ATOM     10  C   UNL A   1      38.729  28.522  30.956  1.00  0.00     0.017 A 
ATOM     11  C   UNL A   1      37.928  29.483  28.880  1.00  0.00     0.017 A 
BRANCH   7  12
ATOM     12  S   UNL A   1      40.443  26.471  27.898  1.00  0.00     0.262 S 
ATOM     13  O   UNL A   1      39.431  25.649  27.262  1.00  0.00    -0.201 OA
ATOM     14  O   UNL A   1      41.450  25.884  28.753  1.00  0.00    -0.201 OA
BRANCH  12  15
ATOM     15  N   UNL A   1      41.221  27.265  26.659  1.00  0.00    -0.270 N 
ATOM     16  H   UNL A   1      40.693  27.922  26.150  1.00  0.00     0.181 HD
BRANCH  15  17
ATOM     17  C   UNL A   1      42.577  27.086  26.268  1.00  0.00     0.115 A 
ATOM     18  C   UNL A   1      43.569  27.972  26.667  1.00  0.00     0.074 A 
ATOM     19  C   UNL A   1      44.872  27.415  26.416  1.00  0.00     0.028 A 
ATOM     20  C   UNL A   1      44.814  26.222  25.732  1.00  0.00     0.068 A 
ATOM     21  S   UNL A   1      43.210  25.829  25.306  1.00  0.00    -0.125 S 
BRANCH  18  22
ATOM     22  C   UNL A   1      43.294  29.259  27.296  1.00  0.00     0.251 C 
ATOM     23  N   UNL A   1      43.492  30.350  26.501  1.00  0.00    -0.366 N 
ATOM     24  H   UNL A   1      43.327  31.255  26.855  1.00  0.00     0.159 HD
ATOM     25  H   UNL A   1      43.800  30.234  25.573  1.00  0.00     0.159 HD
ATOM     26  O   UNL A   1      42.854  29.377  28.437  1.00  0.00    -0.269 OA
ENDBRANCH  18  22
ENDBRANCH  15  17
ENDBRANCH  12  15
ENDBRANCH   7  12
ENDBRANCH   4   6
ENDBRANCH   3   4
ENDBRANCH   2   3
ENDBRANCH   1   2
BRANCH   1  27
ATOM     27  O   UNL A   1      37.104  33.167  32.986  1.00  0.00    -0.374 OA
BRANCH  27  28
ATOM     28  C   UNL A   1      37.142  34.230  33.942  1.00  0.00     0.202 C 
BRANCH  28  29
ATOM     29  C   UNL A   1      37.579  33.859  35.366  1.00  0.00     0.261 C 
BRANCH  29  30
ATOM     30  O   UNL A   1      37.005  32.614  35.804  1.00  0.00    -0.460 OA
BRANCH  30  31
ATOM     31  C   UNL A   1      37.779  31.894  36.656  1.00  0.00     0.338 C 
ATOM     32  O   UNL A   1      37.551  31.645  37.827  1.00  0.00    -0.246 OA
BRANCH  31  33
ATOM     33  C   UNL A   1      38.886  31.263  35.909  1.00  0.00     0.060 A 
ATOM     34  C   UNL A   1      40.194  31.567  36.308  1.00  0.00     0.016 A 
ATOM     35  C   UNL A   1      38.654  30.439  34.806  1.00  0.00     0.016 A 
ATOM     36  C   UNL A   1      41.279  31.076  35.580  1.00  0.00     0.010 A 
ATOM     37  C   UNL A   1      39.743  29.956  34.073  1.00  0.00     0.010 A 
ATOM     38  C   UNL A   1      41.059  30.295  34.439  1.00  0.00    -0.014 A 
BRANCH  38  39
ATOM     39  C   UNL A   1      42.199  29.932  33.562  1.00  0.00     0.031 A 
ATOM     40  C   UNL A   1      42.663  30.911  32.518  1.00  0.00     0.074 A 
ATOM     41  C   UNL A   1      42.824  28.750  33.705  1.00  0.00     0.049 A 
ATOM     42  N   UNL A   1      43.613  30.783  31.628  1.00  0.00    -0.248 NA
ATOM     43  C   UNL A   1      41.963  32.204  32.469  1.00  0.00     0.031 C 
ATOM     44  C   UNL A   1      42.495  27.734  34.705  1.00  0.00     0.029 A 
ATOM     45  N   UNL A   1      43.866  28.202  32.998  1.00  0.00    -0.354 N 
ATOM     46  C   UNL A   1      43.619  31.971  30.907  1.00  0.00     0.074 A 
ATOM     47  C   UNL A   1      42.561  32.797  31.446  1.00  0.00     0.031 C 
ATOM     48  C   UNL A   1      43.313  26.681  34.542  1.00  0.00     0.029 A 
ATOM     49  C   UNL A   1      44.199  26.932  33.408  1.00  0.00     0.049 A 
ATOM     50  H   UNL A   1      44.330  28.672  32.269  1.00  0.00     0.167 HD
ATOM     51  C   UNL A   1      44.433  32.342  29.890  1.00  0.00     0.031 A 
ATOM     52  C   UNL A   1      45.102  26.063  32.910  1.00  0.00     0.031 A 
ATOM     53  C   UNL A   1      45.475  31.511  29.345  1.00  0.00     0.049 A 
ATOM     54  C   UNL A   1      45.947  26.469  31.732  1.00  0.00     0.074 A 
ATOM     55  C   UNL A   1      46.366  31.806  28.328  1.00  0.00     0.029 A 
ATOM     56  N   UNL A   1      45.759  30.220  29.764  1.00  0.00    -0.354 N 
ATOM     57  N   UNL A   1      45.961  27.607  31.080  1.00  0.00    -0.248 NA
ATOM     58  C   UNL A   1      46.907  25.475  31.229  1.00  0.00     0.031 C 
ATOM     59  C   UNL A   1      47.150  30.671  28.091  1.00  0.00     0.029 A 
ATOM     60  C   UNL A   1      46.791  29.692  29.005  1.00  0.00     0.049 A 
ATOM     61  H   UNL A   1      45.295  29.748  30.493  1.00  0.00     0.167 HD
ATOM     62  C   UNL A   1      46.945  27.476  30.106  1.00  0.00     0.074 A 
ATOM     63  C   UNL A   1      47.514  26.153  30.264  1.00  0.00     0.031 C 
ATOM     64  C   UNL A   1      47.345  28.372  29.169  1.00  0.00     0.031 A 
BRANCH  51  65
ATOM     65  C   UNL A   1      44.203  33.697  29.273  1.00  0.00    -0.014 A 
ATOM     66  C   UNL A   1      43.395  33.853  28.131  1.00  0.00     0.010 A 
ATOM     67  C   UNL A   1      44.776  34.837  29.866  1.00  0.00     0.010 A 
ATOM     68  C   UNL A   1      43.199  35.119  27.572  1.00  0.00     0.020 A 
ATOM     69  C   UNL A   1      44.560  36.107  29.326  1.00  0.00     0.020 A 
ATOM     70  C   UNL A   1      43.786  36.238  28.170  1.00  0.00     0.054 A 
BRANCH  70  71
ATOM     71  S   UNL A   1      43.502  37.870  27.432  1.00  0.00     0.124 S 
ATOM     72  O   UNL A   1      44.796  38.152  26.818  1.00  0.00    -0.237 OA
ATOM     73  O   UNL A   1      42.406  37.615  26.501  1.00  0.00    -0.237 OA
ATOM     74  O   UNL A   1      43.158  38.713  28.575  1.00  0.00    -0.744 OA
ENDBRANCH  70  71
ENDBRANCH  51  65
BRANCH  52  75
ATOM     75  C   UNL A   1      45.236  24.709  33.514  1.00  0.00    -0.014 A 
ATOM     76  C   UNL A   1      44.327  23.686  33.193  1.00  0.00     0.010 A 
ATOM     77  C   UNL A   1      46.285  24.434  34.410  1.00  0.00     0.010 A 
ATOM     78  C   UNL A   1      44.459  22.417  33.765  1.00  0.00     0.020 A 
ATOM     79  C   UNL A   1      46.438  23.159  34.962  1.00  0.00     0.020 A 
ATOM     80  C   UNL A   1      45.517  22.161  34.643  1.00  0.00     0.054 A 
BRANCH  80  81
ATOM     81  S   UNL A   1      45.705  20.489  35.324  1.00  0.00     0.124 S 
ATOM     82  O   UNL A   1      47.009  20.093  34.802  1.00  0.00    -0.237 OA
ATOM     83  O   UNL A   1      45.643  20.727  36.764  1.00  0.00    -0.237 OA
ATOM     84  O   UNL A   1      44.562  19.765  34.771  1.00  0.00    -0.744 OA
ENDBRANCH  80  81
ENDBRANCH  52  75
BRANCH  64  85
ATOM     85  C   UNL A   1      48.474  27.966  28.256  1.00  0.00    -0.014 A 
ATOM     86  C   UNL A   1      48.228  27.367  27.009  1.00  0.00     0.010 A 
ATOM     87  C   UNL A   1      49.802  28.242  28.633  1.00  0.00     0.010 A 
ATOM     88  C   UNL A   1      49.291  27.022  26.169  1.00  0.00     0.020 A 
ATOM     89  C   UNL A   1      50.864  27.925  27.784  1.00  0.00     0.020 A 
ATOM     90  C   UNL A   1      50.603  27.303  26.562  1.00  0.00     0.054 A 
BRANCH  90  91
ATOM     91  S   UNL A   1      51.962  26.883  25.436  1.00  0.00     0.124 S 
ATOM     92  O   UNL A   1      52.793  28.081  25.502  1.00  0.00    -0.237 OA
ATOM     93  O   UNL A   1      52.533  25.687  26.053  1.00  0.00    -0.237 OA
ATOM     94  O   UNL A   1      51.294  26.657  24.156  1.00  0.00    -0.744 OA
ENDBRANCH  90  91
ENDBRANCH  64  85
ENDBRANCH  38  39
ENDBRANCH  31  33
ENDBRANCH  30  31
ENDBRANCH  29  30
ENDBRANCH  28  29
ENDBRANCH  27  28
ENDBRANCH   1  27
TORSDOF 21
ENDMDL
