MODEL 1
REMARK VINA RESULT:      -8.2      0.000      0.000
REMARK SMILES CCOc1cccc(OCC)c1-c1ccc([C@@H](C)C(=O)OCCOCCOC(=O)c2ccc(-c3c4nc(c(-c5ccc(S(=O)(=O)[O-])cc5)c5ccc([nH]5)c(-c5ccc(S(=O)(=O)[O-])cc5)c5nc(c(-c6ccc(S(=O)(=O)[O-])cc6)c6ccc3[nH]6)C=C5)C=C4)cc2)cc1F
REMARK SMILES IDX 23 1 22 2 21 3 19 4 20 5 17 6 18 7 16 8 13 9 14 10 91 11
REMARK SMILES IDX 15 12 90 13 92 14 12 15 4 16 5 17 6 18 8 19 7 20 3 21 2 22
REMARK SMILES IDX 1 23 9 24 10 25 11 26 24 27 25 28 26 29 27 30 28 31 29 32
REMARK SMILES IDX 30 33 31 34 89 35 32 36 88 37 33 38 34 39 35 40 82 41 36 42
REMARK SMILES IDX 87 43 81 44 83 45 37 46 86 47 80 48 79 49 38 51 68 52 49 53
REMARK SMILES IDX 67 54 50 55 53 56 66 57 84 58 51 59 52 60 65 62 85 63 54 64
REMARK SMILES IDX 39 65 40 66 48 67 41 68 47 69 42 70 43 71 44 72 45 73 46 74
REMARK SMILES IDX 69 75 70 76 78 77 71 78 77 79 72 80 73 81 74 82 75 83 76 84
REMARK SMILES IDX 55 85 56 86 64 87 57 88 63 89 58 90 59 91 60 92 61 93 62 94
REMARK H PARENT 83 50 53 61
REMARK Flexibility Score: inf
ROOT
ATOM      1  C   UNL A   1      42.006  19.236  26.184  1.00  0.00     0.202 C 
ENDROOT
BRANCH   1   2
ATOM      2  C   UNL A   1      41.034  19.986  27.101  1.00  0.00     0.261 C 
BRANCH   2   3
ATOM      3  O   UNL A   1      40.201  20.921  26.381  1.00  0.00    -0.463 OA
BRANCH   3   4
ATOM      4  C   UNL A   1      39.953  22.103  26.999  1.00  0.00     0.313 C 
ATOM      5  O   UNL A   1      40.366  22.388  28.121  1.00  0.00    -0.252 OA
BRANCH   4   6
ATOM      6  C   UNL A   1      39.063  23.067  26.230  1.00  0.00     0.126 C 
ATOM      7  C   UNL A   1      38.916  24.346  27.057  1.00  0.00     0.025 C 
BRANCH   6   8
ATOM      8  C   UNL A   1      37.705  22.642  25.681  1.00  0.00    -0.031 A 
ATOM      9  C   UNL A   1      35.091  22.353  24.549  1.00  0.00     0.025 A 
ATOM     10  C   UNL A   1      35.338  22.106  25.910  1.00  0.00     0.012 A 
ATOM     11  C   UNL A   1      36.197  22.647  23.748  1.00  0.00     0.131 A 
ATOM     12  C   UNL A   1      36.612  22.285  26.474  1.00  0.00     0.005 A 
ATOM     13  C   UNL A   1      37.477  22.782  24.295  1.00  0.00     0.044 A 
ATOM     14  F   UNL A   1      36.045  22.869  22.434  1.00  0.00    -0.206 F 
BRANCH   9  15
ATOM     15  C   UNL A   1      33.715  22.311  24.015  1.00  0.00     0.069 A 
ATOM     16  C   UNL A   1      33.064  23.546  23.744  1.00  0.00     0.130 A 
ATOM     17  C   UNL A   1      31.799  23.618  23.149  1.00  0.00     0.047 A 
ATOM     18  C   UNL A   1      31.146  22.453  22.792  1.00  0.00     0.008 A 
ATOM     19  C   UNL A   1      33.003  21.131  23.703  1.00  0.00     0.130 A 
ATOM     20  C   UNL A   1      31.737  21.228  23.084  1.00  0.00     0.047 A 
BRANCH  16  21
ATOM     21  O   UNL A   1      33.653  24.709  24.180  1.00  0.00    -0.493 OA
BRANCH  21  22
ATOM     22  C   UNL A   1      33.885  25.657  23.137  1.00  0.00     0.226 C 
ATOM     23  C   UNL A   1      33.380  26.991  23.639  1.00  0.00     0.049 C 
ENDBRANCH  21  22
ENDBRANCH  16  21
BRANCH  19  24
ATOM     24  O   UNL A   1      33.290  19.813  23.926  1.00  0.00    -0.493 OA
BRANCH  24  25
ATOM     25  C   UNL A   1      33.235  19.171  25.187  1.00  0.00     0.226 C 
ATOM     26  C   UNL A   1      32.477  17.861  25.058  1.00  0.00     0.049 C 
ENDBRANCH  24  25
ENDBRANCH  19  24
ENDBRANCH   9  15
ENDBRANCH   6   8
ENDBRANCH   4   6
ENDBRANCH   3   4
ENDBRANCH   2   3
ENDBRANCH   1   2
BRANCH   1  27
ATOM     27  O   UNL A   1      42.894  20.041  25.409  1.00  0.00    -0.374 OA
BRANCH  27  28
ATOM     28  C   UNL A   1      44.222  19.562  25.228  1.00  0.00     0.202 C 
BRANCH  28  29
ATOM     29  C   UNL A   1      45.237  20.565  24.677  1.00  0.00     0.261 C 
BRANCH  29  30
ATOM     30  O   UNL A   1      45.250  21.811  25.396  1.00  0.00    -0.460 OA
BRANCH  30  31
ATOM     31  C   UNL A   1      44.828  22.881  24.680  1.00  0.00     0.338 C 
ATOM     32  O   UNL A   1      44.822  23.000  23.462  1.00  0.00    -0.246 OA
BRANCH  31  33
ATOM     33  C   UNL A   1      44.257  23.905  25.569  1.00  0.00     0.060 A 
ATOM     34  C   UNL A   1      44.423  25.253  25.230  1.00  0.00     0.016 A 
ATOM     35  C   UNL A   1      43.704  23.550  26.800  1.00  0.00     0.016 A 
ATOM     36  C   UNL A   1      44.064  26.251  26.141  1.00  0.00     0.010 A 
ATOM     37  C   UNL A   1      43.340  24.554  27.709  1.00  0.00     0.010 A 
ATOM     38  C   UNL A   1      43.549  25.910  27.401  1.00  0.00    -0.014 A 
BRANCH  38  39
ATOM     39  C   UNL A   1      43.333  26.967  28.426  1.00  0.00     0.031 A 
ATOM     40  C   UNL A   1      41.983  27.630  28.544  1.00  0.00     0.074 A 
ATOM     41  C   UNL A   1      44.326  27.328  29.262  1.00  0.00     0.049 A 
ATOM     42  N   UNL A   1      41.592  28.564  29.374  1.00  0.00    -0.248 NA
ATOM     43  C   UNL A   1      40.939  27.185  27.606  1.00  0.00     0.031 C 
ATOM     44  C   UNL A   1      45.675  26.764  29.269  1.00  0.00     0.029 A 
ATOM     45  N   UNL A   1      44.351  28.266  30.267  1.00  0.00    -0.354 N 
ATOM     46  C   UNL A   1      40.265  28.827  29.054  1.00  0.00     0.074 A 
ATOM     47  C   UNL A   1      39.922  27.968  27.942  1.00  0.00     0.031 C 
ATOM     48  C   UNL A   1      46.400  27.376  30.222  1.00  0.00     0.029 A 
ATOM     49  C   UNL A   1      45.575  28.388  30.879  1.00  0.00     0.049 A 
ATOM     50  H   UNL A   1      43.564  28.801  30.523  1.00  0.00     0.167 HD
ATOM     51  C   UNL A   1      39.408  29.701  29.633  1.00  0.00     0.031 A 
ATOM     52  C   UNL A   1      45.993  29.229  31.846  1.00  0.00     0.031 A 
ATOM     53  C   UNL A   1      39.735  30.551  30.747  1.00  0.00     0.049 A 
ATOM     54  C   UNL A   1      45.027  30.216  32.451  1.00  0.00     0.074 A 
ATOM     55  C   UNL A   1      38.906  31.424  31.433  1.00  0.00     0.029 A 
ATOM     56  N   UNL A   1      40.986  30.650  31.331  1.00  0.00    -0.354 N 
ATOM     57  N   UNL A   1      43.756  30.396  32.180  1.00  0.00    -0.248 NA
ATOM     58  C   UNL A   1      45.551  31.107  33.498  1.00  0.00     0.031 C 
ATOM     59  C   UNL A   1      39.670  32.088  32.398  1.00  0.00     0.029 A 
ATOM     60  C   UNL A   1      40.962  31.592  32.345  1.00  0.00     0.049 A 
ATOM     61  H   UNL A   1      41.777  30.128  31.063  1.00  0.00     0.167 HD
ATOM     62  C   UNL A   1      43.326  31.401  33.042  1.00  0.00     0.074 A 
ATOM     63  C   UNL A   1      44.464  31.780  33.851  1.00  0.00     0.031 C 
ATOM     64  C   UNL A   1      42.095  31.958  33.153  1.00  0.00     0.031 A 
BRANCH  51  65
ATOM     65  C   UNL A   1      38.019  29.808  29.065  1.00  0.00    -0.014 A 
ATOM     66  C   UNL A   1      37.808  30.176  27.725  1.00  0.00     0.010 A 
ATOM     67  C   UNL A   1      36.916  29.440  29.859  1.00  0.00     0.010 A 
ATOM     68  C   UNL A   1      36.515  30.190  27.194  1.00  0.00     0.020 A 
ATOM     69  C   UNL A   1      35.625  29.435  29.325  1.00  0.00     0.020 A 
ATOM     70  C   UNL A   1      35.432  29.819  27.997  1.00  0.00     0.054 A 
BRANCH  70  71
ATOM     71  S   UNL A   1      33.772  29.791  27.265  1.00  0.00     0.124 S 
ATOM     72  O   UNL A   1      34.074  29.725  25.838  1.00  0.00    -0.237 OA
ATOM     73  O   UNL A   1      33.188  28.581  27.840  1.00  0.00    -0.237 OA
ATOM     74  O   UNL A   1      33.173  31.044  27.718  1.00  0.00    -0.744 OA
ENDBRANCH  70  71
ENDBRANCH  51  65
BRANCH  52  75
ATOM     75  C   UNL A   1      47.412  29.208  32.294  1.00  0.00    -0.014 A 
ATOM     76  C   UNL A   1      48.386  29.992  31.651  1.00  0.00     0.010 A 
ATOM     77  C   UNL A   1      47.801  28.364  33.351  1.00  0.00     0.010 A 
ATOM     78  C   UNL A   1      49.729  29.907  32.034  1.00  0.00     0.020 A 
ATOM     79  C   UNL A   1      49.136  28.297  33.754  1.00  0.00     0.020 A 
ATOM     80  C   UNL A   1      50.095  29.055  33.081  1.00  0.00     0.054 A 
BRANCH  80  81
ATOM     81  S   UNL A   1      51.837  28.972  33.582  1.00  0.00     0.124 S 
ATOM     82  O   UNL A   1      52.055  27.533  33.678  1.00  0.00    -0.237 OA
ATOM     83  O   UNL A   1      52.519  29.646  32.479  1.00  0.00    -0.237 OA
ATOM     84  O   UNL A   1      51.859  29.698  34.850  1.00  0.00    -0.744 OA
ENDBRANCH  80  81
ENDBRANCH  52  75
BRANCH  64  85
ATOM     85  C   UNL A   1      41.897  33.015  34.207  1.00  0.00    -0.014 A 
ATOM     86  C   UNL A   1      41.345  32.698  35.461  1.00  0.00     0.010 A 
ATOM     87  C   UNL A   1      42.323  34.332  33.959  1.00  0.00     0.010 A 
ATOM     88  C   UNL A   1      41.197  33.687  36.438  1.00  0.00     0.020 A 
ATOM     89  C   UNL A   1      42.198  35.318  34.941  1.00  0.00     0.020 A 
ATOM     90  C   UNL A   1      41.622  34.992  36.171  1.00  0.00     0.054 A 
BRANCH  90  91
ATOM     91  S   UNL A   1      41.463  36.250  37.468  1.00  0.00     0.124 S 
ATOM     92  O   UNL A   1      42.513  37.198  37.102  1.00  0.00    -0.237 OA
ATOM     93  O   UNL A   1      40.095  36.729  37.290  1.00  0.00    -0.237 OA
ATOM     94  O   UNL A   1      41.699  35.505  38.703  1.00  0.00    -0.744 OA
ENDBRANCH  90  91
ENDBRANCH  64  85
ENDBRANCH  38  39
ENDBRANCH  31  33
ENDBRANCH  30  31
ENDBRANCH  29  30
ENDBRANCH  28  29
ENDBRANCH  27  28
ENDBRANCH   1  27
TORSDOF 23
ENDMDL
MODEL 2
REMARK VINA RESULT:      -8.1      1.665      2.799
REMARK SMILES CCOc1cccc(OCC)c1-c1ccc([C@@H](C)C(=O)OCCOCCOC(=O)c2ccc(-c3c4nc(c(-c5ccc(S(=O)(=O)[O-])cc5)c5ccc([nH]5)c(-c5ccc(S(=O)(=O)[O-])cc5)c5nc(c(-c6ccc(S(=O)(=O)[O-])cc6)c6ccc3[nH]6)C=C5)C=C4)cc2)cc1F
REMARK SMILES IDX 23 1 22 2 21 3 19 4 20 5 17 6 18 7 16 8 13 9 14 10 91 11
REMARK SMILES IDX 15 12 90 13 92 14 12 15 4 16 5 17 6 18 8 19 7 20 3 21 2 22
REMARK SMILES IDX 1 23 9 24 10 25 11 26 24 27 25 28 26 29 27 30 28 31 29 32
REMARK SMILES IDX 30 33 31 34 89 35 32 36 88 37 33 38 34 39 35 40 82 41 36 42
REMARK SMILES IDX 87 43 81 44 83 45 37 46 86 47 80 48 79 49 38 51 68 52 49 53
REMARK SMILES IDX 67 54 50 55 53 56 66 57 84 58 51 59 52 60 65 62 85 63 54 64
REMARK SMILES IDX 39 65 40 66 48 67 41 68 47 69 42 70 43 71 44 72 45 73 46 74
REMARK SMILES IDX 69 75 70 76 78 77 71 78 77 79 72 80 73 81 74 82 75 83 76 84
REMARK SMILES IDX 55 85 56 86 64 87 57 88 63 89 58 90 59 91 60 92 61 93 62 94
REMARK H PARENT 83 50 53 61
REMARK Flexibility Score: inf
ROOT
ATOM      1  C   UNL A   1      41.446  19.585  26.002  1.00  0.00     0.202 C 
ENDROOT
BRANCH   1   2
ATOM      2  C   UNL A   1      40.329  20.281  26.786  1.00  0.00     0.261 C 
BRANCH   2   3
ATOM      3  O   UNL A   1      39.780  21.416  26.080  1.00  0.00    -0.463 OA
BRANCH   3   4
ATOM      4  C   UNL A   1      39.928  22.624  26.681  1.00  0.00     0.313 C 
ATOM      5  O   UNL A   1      40.670  22.825  27.641  1.00  0.00    -0.252 OA
BRANCH   4   6
ATOM      6  C   UNL A   1      39.061  23.741  26.122  1.00  0.00     0.126 C 
ATOM      7  C   UNL A   1      39.289  24.994  26.969  1.00  0.00     0.025 C 
BRANCH   6   8
ATOM      8  C   UNL A   1      37.569  23.548  25.868  1.00  0.00    -0.031 A 
ATOM      9  C   UNL A   1      34.787  23.674  25.205  1.00  0.00     0.025 A 
ATOM     10  C   UNL A   1      35.225  23.596  26.537  1.00  0.00     0.012 A 
ATOM     11  C   UNL A   1      35.763  23.584  24.210  1.00  0.00     0.131 A 
ATOM     12  C   UNL A   1      36.591  23.573  26.866  1.00  0.00     0.005 A 
ATOM     13  C   UNL A   1      37.123  23.516  24.530  1.00  0.00     0.044 A 
ATOM     14  F   UNL A   1      35.420  23.625  22.914  1.00  0.00    -0.206 F 
BRANCH   9  15
ATOM     15  C   UNL A   1      33.355  23.856  24.894  1.00  0.00     0.069 A 
ATOM     16  C   UNL A   1      32.493  22.733  25.026  1.00  0.00     0.130 A 
ATOM     17  C   UNL A   1      31.107  22.819  24.848  1.00  0.00     0.047 A 
ATOM     18  C   UNL A   1      30.533  24.040  24.543  1.00  0.00     0.008 A 
ATOM     19  C   UNL A   1      32.757  25.080  24.517  1.00  0.00     0.130 A 
ATOM     20  C   UNL A   1      31.354  25.148  24.364  1.00  0.00     0.047 A 
BRANCH  16  21
ATOM     21  O   UNL A   1      33.054  21.494  25.231  1.00  0.00    -0.493 OA
BRANCH  21  22
ATOM     22  C   UNL A   1      32.963  20.632  24.094  1.00  0.00     0.226 C 
ATOM     23  C   UNL A   1      32.586  19.264  24.616  1.00  0.00     0.049 C 
ENDBRANCH  21  22
ENDBRANCH  16  21
BRANCH  19  24
ATOM     24  O   UNL A   1      33.298  26.298  24.212  1.00  0.00    -0.493 OA
BRANCH  24  25
ATOM     25  C   UNL A   1      32.944  27.087  23.090  1.00  0.00     0.226 C 
ATOM     26  C   UNL A   1      33.371  26.379  21.816  1.00  0.00     0.049 C 
ENDBRANCH  24  25
ENDBRANCH  19  24
ENDBRANCH   9  15
ENDBRANCH   6   8
ENDBRANCH   4   6
ENDBRANCH   3   4
ENDBRANCH   2   3
ENDBRANCH   1   2
BRANCH   1  27
ATOM     27  O   UNL A   1      42.485  20.425  25.501  1.00  0.00    -0.374 OA
BRANCH  27  28
ATOM     28  C   UNL A   1      43.788  19.860  25.396  1.00  0.00     0.202 C 
BRANCH  28  29
ATOM     29  C   UNL A   1      44.846  20.718  24.698  1.00  0.00     0.261 C 
BRANCH  29  30
ATOM     30  O   UNL A   1      45.387  21.749  25.543  1.00  0.00    -0.460 OA
BRANCH  30  31
ATOM     31  C   UNL A   1      45.253  23.006  25.057  1.00  0.00     0.338 C 
ATOM     32  O   UNL A   1      45.438  23.378  23.906  1.00  0.00    -0.246 OA
BRANCH  31  33
ATOM     33  C   UNL A   1      44.740  23.910  26.099  1.00  0.00     0.060 A 
ATOM     34  C   UNL A   1      44.954  25.286  25.955  1.00  0.00     0.016 A 
ATOM     35  C   UNL A   1      44.196  23.400  27.279  1.00  0.00     0.016 A 
ATOM     36  C   UNL A   1      44.651  26.154  27.010  1.00  0.00     0.010 A 
ATOM     37  C   UNL A   1      43.889  24.273  28.332  1.00  0.00     0.010 A 
ATOM     38  C   UNL A   1      44.147  25.652  28.218  1.00  0.00    -0.014 A 
BRANCH  38  39
ATOM     39  C   UNL A   1      43.992  26.555  29.390  1.00  0.00     0.031 A 
ATOM     40  C   UNL A   1      42.748  27.397  29.528  1.00  0.00     0.074 A 
ATOM     41  C   UNL A   1      44.945  26.618  30.341  1.00  0.00     0.049 A 
ATOM     42  N   UNL A   1      42.421  28.239  30.475  1.00  0.00    -0.248 NA
ATOM     43  C   UNL A   1      41.742  27.276  28.459  1.00  0.00     0.031 C 
ATOM     44  C   UNL A   1      46.191  25.854  30.344  1.00  0.00     0.029 A 
ATOM     45  N   UNL A   1      45.012  27.371  31.490  1.00  0.00    -0.354 N 
ATOM     46  C   UNL A   1      41.182  28.756  30.116  1.00  0.00     0.074 A 
ATOM     47  C   UNL A   1      40.823  28.147  28.853  1.00  0.00     0.031 C 
ATOM     48  C   UNL A   1      46.906  26.186  31.434  1.00  0.00     0.029 A 
ATOM     49  C   UNL A   1      46.180  27.200  32.196  1.00  0.00     0.049 A 
ATOM     50  H   UNL A   1      44.292  27.976  31.779  1.00  0.00     0.167 HD
ATOM     51  C   UNL A   1      40.411  29.653  30.775  1.00  0.00     0.031 A 
ATOM     52  C   UNL A   1      46.623  27.801  33.317  1.00  0.00     0.031 A 
ATOM     53  C   UNL A   1      40.753  30.255  32.036  1.00  0.00     0.049 A 
ATOM     54  C   UNL A   1      45.759  28.822  34.013  1.00  0.00     0.074 A 
ATOM     55  C   UNL A   1      40.000  31.130  32.802  1.00  0.00     0.029 A 
ATOM     56  N   UNL A   1      41.946  30.061  32.712  1.00  0.00    -0.354 N 
ATOM     57  N   UNL A   1      44.558  29.241  33.692  1.00  0.00    -0.248 NA
ATOM     58  C   UNL A   1      46.307  29.442  35.229  1.00  0.00     0.031 C 
ATOM     59  C   UNL A   1      40.758  31.504  33.915  1.00  0.00     0.029 A 
ATOM     60  C   UNL A   1      41.964  30.824  33.867  1.00  0.00     0.049 A 
ATOM     61  H   UNL A   1      42.674  29.468  32.414  1.00  0.00     0.167 HD
ATOM     62  C   UNL A   1      44.201  30.154  34.680  1.00  0.00     0.074 A 
ATOM     63  C   UNL A   1      45.302  30.216  35.617  1.00  0.00     0.031 C 
ATOM     64  C   UNL A   1      43.059  30.875  34.800  1.00  0.00     0.031 A 
BRANCH  51  65
ATOM     65  C   UNL A   1      39.111  30.066  30.140  1.00  0.00    -0.014 A 
ATOM     66  C   UNL A   1      37.944  29.302  30.310  1.00  0.00     0.010 A 
ATOM     67  C   UNL A   1      39.038  31.288  29.446  1.00  0.00     0.010 A 
ATOM     68  C   UNL A   1      36.729  29.745  29.780  1.00  0.00     0.020 A 
ATOM     69  C   UNL A   1      37.821  31.743  28.932  1.00  0.00     0.020 A 
ATOM     70  C   UNL A   1      36.674  30.964  29.096  1.00  0.00     0.054 A 
BRANCH  70  71
ATOM     71  S   UNL A   1      35.073  31.542  28.469  1.00  0.00     0.124 S 
ATOM     72  O   UNL A   1      34.493  30.310  27.941  1.00  0.00    -0.237 OA
ATOM     73  O   UNL A   1      34.431  32.074  29.669  1.00  0.00    -0.237 OA
ATOM     74  O   UNL A   1      35.434  32.541  27.466  1.00  0.00    -0.744 OA
ENDBRANCH  70  71
ENDBRANCH  51  65
BRANCH  52  75
ATOM     75  C   UNL A   1      47.977  27.486  33.850  1.00  0.00    -0.014 A 
ATOM     76  C   UNL A   1      48.161  26.466  34.800  1.00  0.00     0.010 A 
ATOM     77  C   UNL A   1      49.088  28.241  33.432  1.00  0.00     0.010 A 
ATOM     78  C   UNL A   1      49.426  26.229  35.347  1.00  0.00     0.020 A 
ATOM     79  C   UNL A   1      50.357  27.989  33.956  1.00  0.00     0.020 A 
ATOM     80  C   UNL A   1      50.516  26.996  34.925  1.00  0.00     0.054 A 
BRANCH  80  81
ATOM     81  S   UNL A   1      52.155  26.663  35.626  1.00  0.00     0.124 S 
ATOM     82  O   UNL A   1      52.061  27.305  36.933  1.00  0.00    -0.237 OA
ATOM     83  O   UNL A   1      52.205  25.202  35.639  1.00  0.00    -0.237 OA
ATOM     84  O   UNL A   1      53.065  27.299  34.676  1.00  0.00    -0.744 OA
ENDBRANCH  80  81
ENDBRANCH  52  75
BRANCH  64  85
ATOM     85  C   UNL A   1      42.919  31.770  36.002  1.00  0.00    -0.014 A 
ATOM     86  C   UNL A   1      42.409  31.283  37.218  1.00  0.00     0.010 A 
ATOM     87  C   UNL A   1      43.359  33.105  35.929  1.00  0.00     0.010 A 
ATOM     88  C   UNL A   1      42.315  32.122  38.332  1.00  0.00     0.020 A 
ATOM     89  C   UNL A   1      43.289  33.940  37.047  1.00  0.00     0.020 A 
ATOM     90  C   UNL A   1      42.753  33.447  38.239  1.00  0.00     0.054 A 
BRANCH  90  91
ATOM     91  S   UNL A   1      42.665  34.507  39.709  1.00  0.00     0.124 S 
ATOM     92  O   UNL A   1      44.051  34.947  39.848  1.00  0.00    -0.237 OA
ATOM     93  O   UNL A   1      41.715  35.541  39.307  1.00  0.00    -0.237 OA
ATOM     94  O   UNL A   1      42.190  33.606  40.756  1.00  0.00    -0.744 OA
ENDBRANCH  90  91
ENDBRANCH  64  85
ENDBRANCH  38  39
ENDBRANCH  31  33
ENDBRANCH  30  31
ENDBRANCH  29  30
ENDBRANCH  28  29
ENDBRANCH  27  28
ENDBRANCH   1  27
TORSDOF 23
ENDMDL
MODEL 3
REMARK VINA RESULT:      -8.0      5.005     10.108
REMARK SMILES CCOc1cccc(OCC)c1-c1ccc([C@@H](C)C(=O)OCCOCCOC(=O)c2ccc(-c3c4nc(c(-c5ccc(S(=O)(=O)[O-])cc5)c5ccc([nH]5)c(-c5ccc(S(=O)(=O)[O-])cc5)c5nc(c(-c6ccc(S(=O)(=O)[O-])cc6)c6ccc3[nH]6)C=C5)C=C4)cc2)cc1F
REMARK SMILES IDX 23 1 22 2 21 3 19 4 20 5 17 6 18 7 16 8 13 9 14 10 91 11
REMARK SMILES IDX 15 12 90 13 92 14 12 15 4 16 5 17 6 18 8 19 7 20 3 21 2 22
REMARK SMILES IDX 1 23 9 24 10 25 11 26 24 27 25 28 26 29 27 30 28 31 29 32
REMARK SMILES IDX 30 33 31 34 89 35 32 36 88 37 33 38 34 39 35 40 82 41 36 42
REMARK SMILES IDX 87 43 81 44 83 45 37 46 86 47 80 48 79 49 38 51 68 52 49 53
REMARK SMILES IDX 67 54 50 55 53 56 66 57 84 58 51 59 52 60 65 62 85 63 54 64
REMARK SMILES IDX 39 65 40 66 48 67 41 68 47 69 42 70 43 71 44 72 45 73 46 74
REMARK SMILES IDX 69 75 70 76 78 77 71 78 77 79 72 80 73 81 74 82 75 83 76 84
REMARK SMILES IDX 55 85 56 86 64 87 57 88 63 89 58 90 59 91 60 92 61 93 62 94
REMARK H PARENT 83 50 53 61
REMARK Flexibility Score: inf
ROOT
ATOM      1  C   UNL A   1      36.744  31.549  29.493  1.00  0.00     0.202 C 
ENDROOT
BRANCH   1   2
ATOM      2  C   UNL A   1      35.869  30.416  28.948  1.00  0.00     0.261 C 
BRANCH   2   3
ATOM      3  O   UNL A   1      35.387  30.680  27.613  1.00  0.00    -0.463 OA
BRANCH   3   4
ATOM      4  C   UNL A   1      34.120  31.156  27.515  1.00  0.00     0.313 C 
ATOM      5  O   UNL A   1      33.661  32.033  28.243  1.00  0.00    -0.252 OA
BRANCH   4   6
ATOM      6  C   UNL A   1      33.252  30.489  26.460  1.00  0.00     0.126 C 
ATOM      7  C   UNL A   1      31.786  30.684  26.853  1.00  0.00     0.025 C 
BRANCH   6   8
ATOM      8  C   UNL A   1      33.486  29.046  26.023  1.00  0.00    -0.031 A 
ATOM      9  C   UNL A   1      33.490  26.403  24.921  1.00  0.00     0.025 A 
ATOM     10  C   UNL A   1      33.279  26.632  26.291  1.00  0.00     0.012 A 
ATOM     11  C   UNL A   1      33.800  27.515  24.134  1.00  0.00     0.131 A 
ATOM     12  C   UNL A   1      33.239  27.930  26.827  1.00  0.00     0.005 A 
ATOM     13  C   UNL A   1      33.806  28.808  24.670  1.00  0.00     0.044 A 
ATOM     14  F   UNL A   1      34.040  27.375  22.821  1.00  0.00    -0.206 F 
BRANCH   9  15
ATOM     15  C   UNL A   1      33.371  25.044  24.358  1.00  0.00     0.069 A 
ATOM     16  C   UNL A   1      32.112  24.644  23.832  1.00  0.00     0.130 A 
ATOM     17  C   UNL A   1      31.916  23.415  23.191  1.00  0.00     0.047 A 
ATOM     18  C   UNL A   1      32.982  22.546  23.044  1.00  0.00     0.008 A 
ATOM     19  C   UNL A   1      34.431  24.114  24.256  1.00  0.00     0.130 A 
ATOM     20  C   UNL A   1      34.216  22.889  23.586  1.00  0.00     0.047 A 
BRANCH  16  21
ATOM     21  O   UNL A   1      31.020  25.450  24.056  1.00  0.00    -0.493 OA
BRANCH  21  22
ATOM     22  C   UNL A   1      30.622  26.203  22.908  1.00  0.00     0.226 C 
ATOM     23  C   UNL A   1      30.226  27.575  23.404  1.00  0.00     0.049 C 
ENDBRANCH  21  22
ENDBRANCH  16  21
BRANCH  19  24
ATOM     24  O   UNL A   1      35.710  24.140  24.737  1.00  0.00    -0.493 OA
BRANCH  24  25
ATOM     25  C   UNL A   1      36.701  23.165  24.466  1.00  0.00     0.226 C 
ATOM     26  C   UNL A   1      37.734  23.167  25.579  1.00  0.00     0.049 C 
ENDBRANCH  24  25
ENDBRANCH  19  24
ENDBRANCH   9  15
ENDBRANCH   6   8
ENDBRANCH   4   6
ENDBRANCH   3   4
ENDBRANCH   2   3
ENDBRANCH   1   2
BRANCH   1  27
ATOM     27  O   UNL A   1      36.646  31.806  30.894  1.00  0.00    -0.374 OA
BRANCH  27  28
ATOM     28  C   UNL A   1      35.446  32.412  31.364  1.00  0.00     0.202 C 
BRANCH  28  29
ATOM     29  C   UNL A   1      35.360  32.669  32.870  1.00  0.00     0.261 C 
BRANCH  29  30
ATOM     30  O   UNL A   1      36.409  32.024  33.616  1.00  0.00    -0.460 OA
BRANCH  30  31
ATOM     31  C   UNL A   1      37.067  32.833  34.479  1.00  0.00     0.338 C 
ATOM     32  O   UNL A   1      36.712  33.160  35.604  1.00  0.00    -0.246 OA
BRANCH  31  33
ATOM     33  C   UNL A   1      38.374  33.224  33.927  1.00  0.00     0.060 A 
ATOM     34  C   UNL A   1      38.408  34.168  32.894  1.00  0.00     0.016 A 
ATOM     35  C   UNL A   1      39.537  32.555  34.310  1.00  0.00     0.016 A 
ATOM     36  C   UNL A   1      39.607  34.421  32.219  1.00  0.00     0.010 A 
ATOM     37  C   UNL A   1      40.738  32.815  33.636  1.00  0.00     0.010 A 
ATOM     38  C   UNL A   1      40.774  33.724  32.563  1.00  0.00    -0.014 A 
BRANCH  38  39
ATOM     39  C   UNL A   1      41.999  33.870  31.729  1.00  0.00     0.031 A 
ATOM     40  C   UNL A   1      42.333  32.820  30.700  1.00  0.00     0.074 A 
ATOM     41  C   UNL A   1      42.805  34.940  31.873  1.00  0.00     0.049 A 
ATOM     42  N   UNL A   1      43.346  32.768  29.872  1.00  0.00    -0.248 NA
ATOM     43  C   UNL A   1      41.408  31.680  30.587  1.00  0.00     0.031 C 
ATOM     44  C   UNL A   1      42.599  36.036  32.819  1.00  0.00     0.029 A 
ATOM     45  N   UNL A   1      43.970  35.275  31.223  1.00  0.00    -0.354 N 
ATOM     46  C   UNL A   1      43.189  31.591  29.150  1.00  0.00     0.074 A 
ATOM     47  C   UNL A   1      41.993  30.948  29.648  1.00  0.00     0.031 C 
ATOM     48  C   UNL A   1      43.609  36.915  32.697  1.00  0.00     0.029 A 
ATOM     49  C   UNL A   1      44.545  36.436  31.681  1.00  0.00     0.049 A 
ATOM     50  H   UNL A   1      44.356  34.732  30.497  1.00  0.00     0.167 HD
ATOM     51  C   UNL A   1      43.966  31.090  28.160  1.00  0.00     0.031 A 
ATOM     52  C   UNL A   1      45.700  37.039  31.336  1.00  0.00     0.031 A 
ATOM     53  C   UNL A   1      45.151  31.727  27.649  1.00  0.00     0.049 A 
ATOM     54  C   UNL A   1      46.564  36.442  30.254  1.00  0.00     0.074 A 
ATOM     55  C   UNL A   1      45.964  31.315  26.605  1.00  0.00     0.029 A 
ATOM     56  N   UNL A   1      45.702  32.896  28.145  1.00  0.00    -0.354 N 
ATOM     57  N   UNL A   1      46.357  35.365  29.536  1.00  0.00    -0.248 NA
ATOM     58  C   UNL A   1      47.813  37.149  29.932  1.00  0.00     0.031 C 
ATOM     59  C   UNL A   1      47.034  32.208  26.504  1.00  0.00     0.029 A 
ATOM     60  C   UNL A   1      46.861  33.203  27.453  1.00  0.00     0.049 A 
ATOM     61  H   UNL A   1      45.325  33.430  28.882  1.00  0.00     0.167 HD
ATOM     62  C   UNL A   1      47.436  35.282  28.661  1.00  0.00     0.074 A 
ATOM     63  C   UNL A   1      48.285  36.423  28.928  1.00  0.00     0.031 C 
ATOM     64  C   UNL A   1      47.697  34.344  27.718  1.00  0.00     0.031 A 
BRANCH  51  65
ATOM     65  C   UNL A   1      43.578  29.766  27.561  1.00  0.00    -0.014 A 
ATOM     66  C   UNL A   1      44.047  28.557  28.104  1.00  0.00     0.010 A 
ATOM     67  C   UNL A   1      42.655  29.731  26.499  1.00  0.00     0.010 A 
ATOM     68  C   UNL A   1      43.611  27.335  27.584  1.00  0.00     0.020 A 
ATOM     69  C   UNL A   1      42.202  28.511  25.990  1.00  0.00     0.020 A 
ATOM     70  C   UNL A   1      42.690  27.319  26.531  1.00  0.00     0.054 A 
BRANCH  70  71
ATOM     71  S   UNL A   1      42.096  25.720  25.914  1.00  0.00     0.124 S 
ATOM     72  O   UNL A   1      42.544  24.808  26.963  1.00  0.00    -0.237 OA
ATOM     73  O   UNL A   1      40.652  25.922  25.833  1.00  0.00    -0.237 OA
ATOM     74  O   UNL A   1      42.774  25.572  24.628  1.00  0.00    -0.744 OA
ENDBRANCH  70  71
ENDBRANCH  51  65
BRANCH  52  75
ATOM     75  C   UNL A   1      46.140  38.273  32.043  1.00  0.00    -0.014 A 
ATOM     76  C   UNL A   1      45.798  39.547  31.559  1.00  0.00     0.010 A 
ATOM     77  C   UNL A   1      46.945  38.171  33.193  1.00  0.00     0.010 A 
ATOM     78  C   UNL A   1      46.279  40.697  32.191  1.00  0.00     0.020 A 
ATOM     79  C   UNL A   1      47.406  39.318  33.843  1.00  0.00     0.020 A 
ATOM     80  C   UNL A   1      47.085  40.575  33.327  1.00  0.00     0.054 A 
BRANCH  80  81
ATOM     81  S   UNL A   1      47.685  42.076  34.150  1.00  0.00     0.124 S 
ATOM     82  O   UNL A   1      48.553  41.527  35.186  1.00  0.00    -0.237 OA
ATOM     83  O   UNL A   1      48.360  42.787  33.066  1.00  0.00    -0.237 OA
ATOM     84  O   UNL A   1      46.459  42.711  34.629  1.00  0.00    -0.744 OA
ENDBRANCH  80  81
ENDBRANCH  52  75
BRANCH  64  85
ATOM     85  C   UNL A   1      48.933  34.521  26.877  1.00  0.00    -0.014 A 
ATOM     86  C   UNL A   1      48.868  35.101  25.598  1.00  0.00     0.010 A 
ATOM     87  C   UNL A   1      50.187  34.155  27.399  1.00  0.00     0.010 A 
ATOM     88  C   UNL A   1      50.031  35.285  24.845  1.00  0.00     0.020 A 
ATOM     89  C   UNL A   1      51.355  34.359  26.659  1.00  0.00     0.020 A 
ATOM     90  C   UNL A   1      51.268  34.910  25.379  1.00  0.00     0.054 A 
BRANCH  90  91
ATOM     91  S   UNL A   1      52.770  35.200  24.404  1.00  0.00     0.124 S 
ATOM     92  O   UNL A   1      52.758  34.063  23.486  1.00  0.00    -0.237 OA
ATOM     93  O   UNL A   1      52.515  36.502  23.794  1.00  0.00    -0.237 OA
ATOM     94  O   UNL A   1      53.837  35.184  25.401  1.00  0.00    -0.744 OA
ENDBRANCH  90  91
ENDBRANCH  64  85
ENDBRANCH  38  39
ENDBRANCH  31  33
ENDBRANCH  30  31
ENDBRANCH  29  30
ENDBRANCH  28  29
ENDBRANCH  27  28
ENDBRANCH   1  27
TORSDOF 23
ENDMDL
