MODEL 1
REMARK VINA RESULT:     -12.1      0.000      0.000
REMARK SMILES Cc1c(CC(=O)OCCOCCOC(=O)c2ccc(-c3c4nc(c(-c5ccc(S(=O)(=O)[O-])cc5)c5ccc([nH]5)c(-c5ccc(S(=O)(=O)[O-])cc5)c5nc(c(-c6ccc(S(=O)(=O)[O-])cc6)c6ccc3[nH]6)C=C5)C=C4)cc2)c2cc(O)ccc2n1C(=O)c1ccc(Cl)cc1
REMARK SMILES IDX 10 1 9 2 8 3 7 4 5 5 6 6 4 7 3 8 1 9 2 10 83 11 76 12 82 13
REMARK SMILES IDX 77 14 81 15 78 16 80 17 84 18 85 19 86 20 87 21 92 22 88 23
REMARK SMILES IDX 91 24 89 25 90 26 79 27 11 29 12 30 13 31 14 32 15 33 16 34
REMARK SMILES IDX 17 35 75 36 18 37 74 38 19 39 20 40 21 41 68 42 22 43 73 44
REMARK SMILES IDX 67 45 69 46 23 47 72 48 66 49 65 50 24 52 54 53 35 54 53 55
REMARK SMILES IDX 36 56 39 57 52 58 70 59 37 60 38 61 51 63 71 64 40 65 25 66
REMARK SMILES IDX 26 67 34 68 27 69 33 70 28 71 29 72 30 73 31 74 32 75 55 76
REMARK SMILES IDX 56 77 64 78 57 79 63 80 58 81 59 82 60 83 61 84 62 85 41 86
REMARK SMILES IDX 42 87 50 88 43 89 49 90 44 91 45 92 46 93 47 94 48 95
REMARK H PARENT 79 28 69 51 39 62
REMARK Flexibility Score: inf
ROOT
ATOM      1  O   UNL A   1      41.181  20.788  27.178  1.00  0.00    -0.374 OA
ENDROOT
BRANCH   1   2
ATOM      2  C   UNL A   1      40.557  22.028  26.872  1.00  0.00     0.202 C 
BRANCH   2   3
ATOM      3  C   UNL A   1      39.196  22.089  26.158  1.00  0.00     0.261 C 
BRANCH   3   4
ATOM      4  O   UNL A   1      38.378  23.225  26.493  1.00  0.00    -0.463 OA
BRANCH   4   5
ATOM      5  C   UNL A   1      37.242  23.324  25.753  1.00  0.00     0.310 C 
ATOM      6  O   UNL A   1      37.228  23.519  24.539  1.00  0.00    -0.252 OA
BRANCH   5   7
ATOM      7  C   UNL A   1      35.942  23.166  26.511  1.00  0.00     0.160 C 
BRANCH   7   8
ATOM      8  C   UNL A   1      34.707  22.671  25.795  1.00  0.00    -0.008 A 
ATOM      9  C   UNL A   1      35.642  20.467  24.810  1.00  0.00     0.065 C 
ATOM     10  C   UNL A   1      34.578  21.491  25.072  1.00  0.00     0.028 A 
ATOM     11  N   UNL A   1      33.254  21.356  24.622  1.00  0.00    -0.280 N 
ATOM     12  C   UNL A   1      33.408  23.263  25.846  1.00  0.00     0.008 A 
ATOM     13  C   UNL A   1      32.537  22.480  25.076  1.00  0.00     0.057 A 
ATOM     14  C   UNL A   1      32.905  24.425  26.482  1.00  0.00     0.056 A 
ATOM     15  C   UNL A   1      31.195  22.891  24.904  1.00  0.00     0.031 A 
ATOM     16  C   UNL A   1      31.615  24.867  26.200  1.00  0.00     0.116 A 
ATOM     17  C   UNL A   1      30.761  24.113  25.424  1.00  0.00     0.048 A 
BRANCH  11  18
ATOM     18  C   UNL A   1      32.737  20.251  23.876  1.00  0.00     0.262 C 
ATOM     19  O   UNL A   1      32.208  20.455  22.783  1.00  0.00    -0.268 OA
BRANCH  18  20
ATOM     20  C   UNL A   1      32.816  18.831  24.259  1.00  0.00     0.040 A 
ATOM     21  C   UNL A   1      32.502  18.423  25.560  1.00  0.00     0.015 A 
ATOM     22  C   UNL A   1      33.174  17.891  23.284  1.00  0.00     0.015 A 
ATOM     23  C   UNL A   1      32.645  17.077  25.909  1.00  0.00     0.021 A 
ATOM     24  C   UNL A   1      33.295  16.544  23.634  1.00  0.00     0.021 A 
ATOM     25  C   UNL A   1      33.050  16.147  24.949  1.00  0.00     0.041 A 
ATOM     26  Cl  UNL A   1      33.260  14.497  25.392  1.00  0.00    -0.084 Cl
ENDBRANCH  18  20
ENDBRANCH  11  18
BRANCH  16  27
ATOM     27  O   UNL A   1      31.253  26.107  26.637  1.00  0.00    -0.508 OA
ATOM     28  H   UNL A   1      30.347  26.322  26.738  1.00  0.00     0.293 HD
ENDBRANCH  16  27
ENDBRANCH   7   8
ENDBRANCH   5   7
ENDBRANCH   4   5
ENDBRANCH   3   4
ENDBRANCH   2   3
ENDBRANCH   1   2
BRANCH   1  29
ATOM     29  C   UNL A   1      41.244  19.815  26.144  1.00  0.00     0.202 C 
BRANCH  29  30
ATOM     30  C   UNL A   1      42.615  19.383  25.590  1.00  0.00     0.261 C 
BRANCH  30  31
ATOM     31  O   UNL A   1      43.682  20.239  25.989  1.00  0.00    -0.460 OA
BRANCH  31  32
ATOM     32  C   UNL A   1      44.297  20.893  24.969  1.00  0.00     0.338 C 
ATOM     33  O   UNL A   1      44.461  20.509  23.823  1.00  0.00    -0.246 OA
BRANCH  32  34
ATOM     34  C   UNL A   1      44.331  22.293  25.417  1.00  0.00     0.060 A 
ATOM     35  C   UNL A   1      44.960  22.619  26.622  1.00  0.00     0.016 A 
ATOM     36  C   UNL A   1      43.373  23.137  24.832  1.00  0.00     0.016 A 
ATOM     37  C   UNL A   1      44.528  23.744  27.308  1.00  0.00     0.010 A 
ATOM     38  C   UNL A   1      42.930  24.249  25.535  1.00  0.00     0.010 A 
ATOM     39  C   UNL A   1      43.469  24.519  26.793  1.00  0.00    -0.014 A 
BRANCH  39  40
ATOM     40  C   UNL A   1      43.130  25.756  27.496  1.00  0.00     0.031 A 
ATOM     41  C   UNL A   1      44.152  26.801  27.233  1.00  0.00     0.074 A 
ATOM     42  C   UNL A   1      42.000  26.019  28.185  1.00  0.00     0.049 A 
ATOM     43  N   UNL A   1      44.985  27.318  28.071  1.00  0.00    -0.248 NA
ATOM     44  C   UNL A   1      44.407  27.162  25.827  1.00  0.00     0.031 C 
ATOM     45  C   UNL A   1      40.781  25.212  28.270  1.00  0.00     0.029 A 
ATOM     46  N   UNL A   1      41.662  27.139  28.895  1.00  0.00    -0.354 N 
ATOM     47  C   UNL A   1      45.742  28.221  27.332  1.00  0.00     0.074 A 
ATOM     48  C   UNL A   1      45.478  27.943  25.946  1.00  0.00     0.031 C 
ATOM     49  C   UNL A   1      39.772  25.958  28.780  1.00  0.00     0.029 A 
ATOM     50  C   UNL A   1      40.306  27.241  29.200  1.00  0.00     0.049 A 
ATOM     51  H   UNL A   1      42.323  27.815  29.169  1.00  0.00     0.167 HD
ATOM     52  C   UNL A   1      46.334  29.297  27.918  1.00  0.00     0.031 A 
ATOM     53  C   UNL A   1      39.664  28.311  29.737  1.00  0.00     0.031 A 
ATOM     54  C   UNL A   1      46.347  29.175  29.348  1.00  0.00     0.049 A 
ATOM     55  C   UNL A   1      40.683  29.127  30.432  1.00  0.00     0.074 A 
ATOM     56  C   UNL A   1      47.123  28.529  30.283  1.00  0.00     0.029 A 
ATOM     57  N   UNL A   1      45.152  29.490  29.945  1.00  0.00    -0.354 N 
ATOM     58  N   UNL A   1      41.349  28.706  31.471  1.00  0.00    -0.248 NA
ATOM     59  C   UNL A   1      41.229  30.305  29.768  1.00  0.00     0.031 C 
ATOM     60  C   UNL A   1      46.276  28.296  31.405  1.00  0.00     0.029 A 
ATOM     61  C   UNL A   1      45.024  28.858  31.154  1.00  0.00     0.049 A 
ATOM     62  H   UNL A   1      44.477  30.090  29.555  1.00  0.00     0.167 HD
ATOM     63  C   UNL A   1      42.591  29.292  31.339  1.00  0.00     0.074 A 
ATOM     64  C   UNL A   1      42.410  30.379  30.385  1.00  0.00     0.031 C 
ATOM     65  C   UNL A   1      43.722  28.664  31.767  1.00  0.00     0.031 A 
BRANCH  52  66
ATOM     66  C   UNL A   1      46.515  30.626  27.228  1.00  0.00    -0.014 A 
ATOM     67  C   UNL A   1      45.432  31.440  26.836  1.00  0.00     0.010 A 
ATOM     68  C   UNL A   1      47.798  31.208  27.175  1.00  0.00     0.010 A 
ATOM     69  C   UNL A   1      45.611  32.740  26.360  1.00  0.00     0.020 A 
ATOM     70  C   UNL A   1      47.986  32.529  26.737  1.00  0.00     0.020 A 
ATOM     71  C   UNL A   1      46.890  33.279  26.315  1.00  0.00     0.054 A 
BRANCH  71  72
ATOM     72  S   UNL A   1      47.068  34.984  25.741  1.00  0.00     0.124 S 
ATOM     73  O   UNL A   1      47.396  35.684  26.981  1.00  0.00    -0.237 OA
ATOM     74  O   UNL A   1      48.156  34.877  24.773  1.00  0.00    -0.237 OA
ATOM     75  O   UNL A   1      45.758  35.297  25.176  1.00  0.00    -0.744 OA
ENDBRANCH  71  72
ENDBRANCH  52  66
BRANCH  53  76
ATOM     76  C   UNL A   1      38.340  28.883  29.373  1.00  0.00    -0.014 A 
ATOM     77  C   UNL A   1      38.097  29.255  28.035  1.00  0.00     0.010 A 
ATOM     78  C   UNL A   1      37.468  29.385  30.361  1.00  0.00     0.010 A 
ATOM     79  C   UNL A   1      37.084  30.165  27.706  1.00  0.00     0.020 A 
ATOM     80  C   UNL A   1      36.443  30.295  30.035  1.00  0.00     0.020 A 
ATOM     81  C   UNL A   1      36.285  30.708  28.712  1.00  0.00     0.054 A 
BRANCH  81  82
ATOM     82  S   UNL A   1      35.114  32.028  28.265  1.00  0.00     0.124 S 
ATOM     83  O   UNL A   1      34.212  31.337  27.349  1.00  0.00    -0.237 OA
ATOM     84  O   UNL A   1      34.538  32.389  29.558  1.00  0.00    -0.237 OA
ATOM     85  O   UNL A   1      35.959  33.052  27.657  1.00  0.00    -0.744 OA
ENDBRANCH  81  82
ENDBRANCH  53  76
BRANCH  65  86
ATOM     86  C   UNL A   1      43.610  27.601  32.828  1.00  0.00    -0.014 A 
ATOM     87  C   UNL A   1      44.222  26.367  32.536  1.00  0.00     0.010 A 
ATOM     88  C   UNL A   1      42.833  27.708  33.997  1.00  0.00     0.010 A 
ATOM     89  C   UNL A   1      44.015  25.253  33.344  1.00  0.00     0.020 A 
ATOM     90  C   UNL A   1      42.644  26.592  34.832  1.00  0.00     0.020 A 
ATOM     91  C   UNL A   1      43.214  25.364  34.480  1.00  0.00     0.054 A 
BRANCH  91  92
ATOM     92  S   UNL A   1      42.924  23.863  35.454  1.00  0.00     0.124 S 
ATOM     93  O   UNL A   1      43.025  22.814  34.441  1.00  0.00    -0.237 OA
ATOM     94  O   UNL A   1      44.014  23.895  36.427  1.00  0.00    -0.237 OA
ATOM     95  O   UNL A   1      41.589  24.057  36.015  1.00  0.00    -0.744 OA
ENDBRANCH  91  92
ENDBRANCH  65  86
ENDBRANCH  39  40
ENDBRANCH  32  34
ENDBRANCH  31  32
ENDBRANCH  30  31
ENDBRANCH  29  30
ENDBRANCH   1  29
TORSDOF 21
ENDMDL
MODEL 2
REMARK VINA RESULT:     -11.8      2.831      4.413
REMARK SMILES Cc1c(CC(=O)OCCOCCOC(=O)c2ccc(-c3c4nc(c(-c5ccc(S(=O)(=O)[O-])cc5)c5ccc([nH]5)c(-c5ccc(S(=O)(=O)[O-])cc5)c5nc(c(-c6ccc(S(=O)(=O)[O-])cc6)c6ccc3[nH]6)C=C5)C=C4)cc2)c2cc(O)ccc2n1C(=O)c1ccc(Cl)cc1
REMARK SMILES IDX 10 1 9 2 8 3 7 4 5 5 6 6 4 7 3 8 1 9 2 10 83 11 76 12 82 13
REMARK SMILES IDX 77 14 81 15 78 16 80 17 84 18 85 19 86 20 87 21 92 22 88 23
REMARK SMILES IDX 91 24 89 25 90 26 79 27 11 29 12 30 13 31 14 32 15 33 16 34
REMARK SMILES IDX 17 35 75 36 18 37 74 38 19 39 20 40 21 41 68 42 22 43 73 44
REMARK SMILES IDX 67 45 69 46 23 47 72 48 66 49 65 50 24 52 54 53 35 54 53 55
REMARK SMILES IDX 36 56 39 57 52 58 70 59 37 60 38 61 51 63 71 64 40 65 25 66
REMARK SMILES IDX 26 67 34 68 27 69 33 70 28 71 29 72 30 73 31 74 32 75 55 76
REMARK SMILES IDX 56 77 64 78 57 79 63 80 58 81 59 82 60 83 61 84 62 85 41 86
REMARK SMILES IDX 42 87 50 88 43 89 49 90 44 91 45 92 46 93 47 94 48 95
REMARK H PARENT 79 28 69 51 39 62
REMARK Flexibility Score: inf
ROOT
ATOM      1  O   UNL A   1      41.607  21.308  27.225  1.00  0.00    -0.374 OA
ENDROOT
BRANCH   1   2
ATOM      2  C   UNL A   1      40.273  21.796  27.258  1.00  0.00     0.202 C 
BRANCH   2   3
ATOM      3  C   UNL A   1      39.308  21.580  26.079  1.00  0.00     0.261 C 
BRANCH   3   4
ATOM      4  O   UNL A   1      38.479  22.708  25.749  1.00  0.00    -0.463 OA
BRANCH   4   5
ATOM      5  C   UNL A   1      37.285  22.373  25.192  1.00  0.00     0.310 C 
ATOM      6  O   UNL A   1      36.902  22.775  24.095  1.00  0.00    -0.252 OA
BRANCH   5   7
ATOM      7  C   UNL A   1      36.417  21.436  26.003  1.00  0.00     0.160 C 
BRANCH   7   8
ATOM      8  C   UNL A   1      34.948  21.298  25.679  1.00  0.00    -0.008 A 
ATOM      9  C   UNL A   1      34.118  23.616  26.479  1.00  0.00     0.065 C 
ATOM     10  C   UNL A   1      33.958  22.254  25.871  1.00  0.00     0.028 A 
ATOM     11  N   UNL A   1      32.734  21.772  25.376  1.00  0.00    -0.280 N 
ATOM     12  C   UNL A   1      34.335  20.209  24.987  1.00  0.00     0.008 A 
ATOM     13  C   UNL A   1      32.967  20.484  24.858  1.00  0.00     0.057 A 
ATOM     14  C   UNL A   1      34.841  18.990  24.471  1.00  0.00     0.056 A 
ATOM     15  C   UNL A   1      32.113  19.522  24.268  1.00  0.00     0.031 A 
ATOM     16  C   UNL A   1      33.963  18.016  24.004  1.00  0.00     0.116 A 
ATOM     17  C   UNL A   1      32.613  18.272  23.895  1.00  0.00     0.048 A 
BRANCH  11  18
ATOM     18  C   UNL A   1      31.498  22.492  25.368  1.00  0.00     0.262 C 
ATOM     19  O   UNL A   1      30.543  22.056  26.011  1.00  0.00    -0.268 OA
BRANCH  18  20
ATOM     20  C   UNL A   1      31.244  23.775  24.692  1.00  0.00     0.040 A 
ATOM     21  C   UNL A   1      30.573  24.811  25.350  1.00  0.00     0.015 A 
ATOM     22  C   UNL A   1      31.725  23.953  23.388  1.00  0.00     0.015 A 
ATOM     23  C   UNL A   1      30.295  25.995  24.660  1.00  0.00     0.021 A 
ATOM     24  C   UNL A   1      31.463  25.147  22.711  1.00  0.00     0.021 A 
ATOM     25  C   UNL A   1      30.732  26.153  23.343  1.00  0.00     0.041 A 
ATOM     26  Cl  UNL A   1      30.356  27.597  22.485  1.00  0.00    -0.084 Cl
ENDBRANCH  18  20
ENDBRANCH  11  18
BRANCH  16  27
ATOM     27  O   UNL A   1      34.464  16.775  23.742  1.00  0.00    -0.508 OA
ATOM     28  H   UNL A   1      35.156  16.429  24.269  1.00  0.00     0.293 HD
ENDBRANCH  16  27
ENDBRANCH   7   8
ENDBRANCH   5   7
ENDBRANCH   4   5
ENDBRANCH   3   4
ENDBRANCH   2   3
ENDBRANCH   1   2
BRANCH   1  29
ATOM     29  C   UNL A   1      42.641  22.247  26.959  1.00  0.00     0.202 C 
BRANCH  29  30
ATOM     30  C   UNL A   1      42.903  22.698  25.510  1.00  0.00     0.261 C 
BRANCH  30  31
ATOM     31  O   UNL A   1      42.813  24.108  25.330  1.00  0.00    -0.460 OA
BRANCH  31  32
ATOM     32  C   UNL A   1      44.002  24.733  25.127  1.00  0.00     0.338 C 
ATOM     33  O   UNL A   1      44.884  24.426  24.342  1.00  0.00    -0.246 OA
BRANCH  32  34
ATOM     34  C   UNL A   1      43.811  26.061  25.726  1.00  0.00     0.060 A 
ATOM     35  C   UNL A   1      44.393  26.351  26.964  1.00  0.00     0.016 A 
ATOM     36  C   UNL A   1      42.721  26.795  25.232  1.00  0.00     0.016 A 
ATOM     37  C   UNL A   1      43.790  27.308  27.767  1.00  0.00     0.010 A 
ATOM     38  C   UNL A   1      42.110  27.736  26.050  1.00  0.00     0.010 A 
ATOM     39  C   UNL A   1      42.612  27.950  27.334  1.00  0.00    -0.014 A 
BRANCH  39  40
ATOM     40  C   UNL A   1      42.083  29.030  28.167  1.00  0.00     0.031 A 
ATOM     41  C   UNL A   1      43.043  30.162  28.222  1.00  0.00     0.074 A 
ATOM     42  C   UNL A   1      40.854  29.107  28.719  1.00  0.00     0.049 A 
ATOM     43  N   UNL A   1      43.712  30.580  29.243  1.00  0.00    -0.248 NA
ATOM     44  C   UNL A   1      43.452  30.768  26.943  1.00  0.00     0.031 C 
ATOM     45  C   UNL A   1      39.704  28.227  28.498  1.00  0.00     0.029 A 
ATOM     46  N   UNL A   1      40.335  30.070  29.540  1.00  0.00    -0.354 N 
ATOM     47  C   UNL A   1      44.484  31.637  28.773  1.00  0.00     0.074 A 
ATOM     48  C   UNL A   1      44.431  31.580  27.337  1.00  0.00     0.031 C 
ATOM     49  C   UNL A   1      38.579  28.817  28.968  1.00  0.00     0.029 A 
ATOM     50  C   UNL A   1      38.946  30.040  29.658  1.00  0.00     0.049 A 
ATOM     51  H   UNL A   1      40.895  30.729  30.009  1.00  0.00     0.167 HD
ATOM     52  C   UNL A   1      44.903  32.632  29.600  1.00  0.00     0.031 A 
ATOM     53  C   UNL A   1      38.154  30.966  30.258  1.00  0.00     0.031 A 
ATOM     54  C   UNL A   1      44.736  32.273  30.980  1.00  0.00     0.049 A 
ATOM     55  C   UNL A   1      39.001  31.712  31.213  1.00  0.00     0.074 A 
ATOM     56  C   UNL A   1      45.431  31.526  31.903  1.00  0.00     0.029 A 
ATOM     57  N   UNL A   1      43.451  32.412  31.440  1.00  0.00    -0.354 N 
ATOM     58  N   UNL A   1      39.555  31.163  32.258  1.00  0.00    -0.248 NA
ATOM     59  C   UNL A   1      39.533  33.014  30.829  1.00  0.00     0.031 C 
ATOM     60  C   UNL A   1      44.464  31.059  32.841  1.00  0.00     0.029 A 
ATOM     61  C   UNL A   1      43.215  31.580  32.503  1.00  0.00     0.049 A 
ATOM     62  H   UNL A   1      42.787  33.029  31.057  1.00  0.00     0.167 HD
ATOM     63  C   UNL A   1      40.752  31.835  32.401  1.00  0.00     0.074 A 
ATOM     64  C   UNL A   1      40.612  33.054  31.614  1.00  0.00     0.031 C 
ATOM     65  C   UNL A   1      41.863  31.210  32.883  1.00  0.00     0.031 A 
BRANCH  52  66
ATOM     66  C   UNL A   1      45.066  34.066  29.162  1.00  0.00    -0.014 A 
ATOM     67  C   UNL A   1      46.208  34.534  28.480  1.00  0.00     0.010 A 
ATOM     68  C   UNL A   1      43.956  34.934  29.210  1.00  0.00     0.010 A 
ATOM     69  C   UNL A   1      46.274  35.813  27.926  1.00  0.00     0.020 A 
ATOM     70  C   UNL A   1      43.996  36.209  28.622  1.00  0.00     0.020 A 
ATOM     71  C   UNL A   1      45.164  36.644  27.999  1.00  0.00     0.054 A 
BRANCH  71  72
ATOM     72  S   UNL A   1      45.278  38.274  27.222  1.00  0.00     0.124 S 
ATOM     73  O   UNL A   1      46.317  38.054  26.218  1.00  0.00    -0.237 OA
ATOM     74  O   UNL A   1      43.928  38.466  26.698  1.00  0.00    -0.237 OA
ATOM     75  O   UNL A   1      45.652  39.156  28.324  1.00  0.00    -0.744 OA
ENDBRANCH  71  72
ENDBRANCH  52  66
BRANCH  53  76
ATOM     76  C   UNL A   1      36.847  31.512  29.801  1.00  0.00    -0.014 A 
ATOM     77  C   UNL A   1      36.773  32.157  28.551  1.00  0.00     0.010 A 
ATOM     78  C   UNL A   1      35.788  31.719  30.709  1.00  0.00     0.010 A 
ATOM     79  C   UNL A   1      35.732  33.045  28.251  1.00  0.00     0.020 A 
ATOM     80  C   UNL A   1      34.735  32.605  30.412  1.00  0.00     0.020 A 
ATOM     81  C   UNL A   1      34.737  33.293  29.197  1.00  0.00     0.054 A 
BRANCH  81  82
ATOM     82  S   UNL A   1      33.515  34.595  28.844  1.00  0.00     0.124 S 
ATOM     83  O   UNL A   1      32.958  34.856  30.168  1.00  0.00    -0.237 OA
ATOM     84  O   UNL A   1      34.344  35.664  28.291  1.00  0.00    -0.237 OA
ATOM     85  O   UNL A   1      32.601  33.967  27.894  1.00  0.00    -0.744 OA
ENDBRANCH  81  82
ENDBRANCH  53  76
BRANCH  65  86
ATOM     86  C   UNL A   1      41.699  29.980  33.736  1.00  0.00    -0.014 A 
ATOM     87  C   UNL A   1      41.696  30.186  35.128  1.00  0.00     0.010 A 
ATOM     88  C   UNL A   1      41.695  28.659  33.249  1.00  0.00     0.010 A 
ATOM     89  C   UNL A   1      41.754  29.114  36.014  1.00  0.00     0.020 A 
ATOM     90  C   UNL A   1      41.725  27.571  34.141  1.00  0.00     0.020 A 
ATOM     91  C   UNL A   1      41.785  27.811  35.518  1.00  0.00     0.054 A 
BRANCH  91  92
ATOM     92  S   UNL A   1      41.932  26.459  36.717  1.00  0.00     0.124 S 
ATOM     93  O   UNL A   1      40.598  26.431  37.314  1.00  0.00    -0.237 OA
ATOM     94  O   UNL A   1      42.259  25.313  35.871  1.00  0.00    -0.237 OA
ATOM     95  O   UNL A   1      43.003  26.893  37.611  1.00  0.00    -0.744 OA
ENDBRANCH  91  92
ENDBRANCH  65  86
ENDBRANCH  39  40
ENDBRANCH  32  34
ENDBRANCH  31  32
ENDBRANCH  30  31
ENDBRANCH  29  30
ENDBRANCH   1  29
TORSDOF 21
ENDMDL
MODEL 3
REMARK VINA RESULT:     -11.8      3.015      4.774
REMARK SMILES Cc1c(CC(=O)OCCOCCOC(=O)c2ccc(-c3c4nc(c(-c5ccc(S(=O)(=O)[O-])cc5)c5ccc([nH]5)c(-c5ccc(S(=O)(=O)[O-])cc5)c5nc(c(-c6ccc(S(=O)(=O)[O-])cc6)c6ccc3[nH]6)C=C5)C=C4)cc2)c2cc(O)ccc2n1C(=O)c1ccc(Cl)cc1
REMARK SMILES IDX 10 1 9 2 8 3 7 4 5 5 6 6 4 7 3 8 1 9 2 10 83 11 76 12 82 13
REMARK SMILES IDX 77 14 81 15 78 16 80 17 84 18 85 19 86 20 87 21 92 22 88 23
REMARK SMILES IDX 91 24 89 25 90 26 79 27 11 29 12 30 13 31 14 32 15 33 16 34
REMARK SMILES IDX 17 35 75 36 18 37 74 38 19 39 20 40 21 41 68 42 22 43 73 44
REMARK SMILES IDX 67 45 69 46 23 47 72 48 66 49 65 50 24 52 54 53 35 54 53 55
REMARK SMILES IDX 36 56 39 57 52 58 70 59 37 60 38 61 51 63 71 64 40 65 25 66
REMARK SMILES IDX 26 67 34 68 27 69 33 70 28 71 29 72 30 73 31 74 32 75 55 76
REMARK SMILES IDX 56 77 64 78 57 79 63 80 58 81 59 82 60 83 61 84 62 85 41 86
REMARK SMILES IDX 42 87 50 88 43 89 49 90 44 91 45 92 46 93 47 94 48 95
REMARK H PARENT 79 28 69 51 39 62
REMARK Flexibility Score: inf
ROOT
ATOM      1  O   UNL A   1      40.097  20.821  25.485  1.00  0.00    -0.374 OA
ENDROOT
BRANCH   1   2
ATOM      2  C   UNL A   1      38.913  21.402  26.017  1.00  0.00     0.202 C 
BRANCH   2   3
ATOM      3  C   UNL A   1      37.552  21.236  25.319  1.00  0.00     0.261 C 
BRANCH   3   4
ATOM      4  O   UNL A   1      36.518  22.128  25.772  1.00  0.00    -0.463 OA
BRANCH   4   5
ATOM      5  C   UNL A   1      36.046  22.961  24.807  1.00  0.00     0.310 C 
ATOM      6  O   UNL A   1      35.933  22.646  23.624  1.00  0.00    -0.252 OA
BRANCH   5   7
ATOM      7  C   UNL A   1      35.635  24.342  25.268  1.00  0.00     0.160 C 
BRANCH   7   8
ATOM      8  C   UNL A   1      34.179  24.647  25.532  1.00  0.00    -0.008 A 
ATOM      9  C   UNL A   1      34.317  27.224  25.738  1.00  0.00     0.065 C 
ATOM     10  C   UNL A   1      33.610  25.901  25.719  1.00  0.00     0.028 A 
ATOM     11  N   UNL A   1      32.219  25.771  25.864  1.00  0.00    -0.280 N 
ATOM     12  C   UNL A   1      33.102  23.710  25.501  1.00  0.00     0.008 A 
ATOM     13  C   UNL A   1      31.910  24.401  25.764  1.00  0.00     0.057 A 
ATOM     14  C   UNL A   1      33.049  22.311  25.285  1.00  0.00     0.056 A 
ATOM     15  C   UNL A   1      30.694  23.684  25.861  1.00  0.00     0.031 A 
ATOM     16  C   UNL A   1      31.861  21.618  25.503  1.00  0.00     0.116 A 
ATOM     17  C   UNL A   1      30.690  22.290  25.784  1.00  0.00     0.048 A 
BRANCH  11  18
ATOM     18  C   UNL A   1      31.295  26.849  26.039  1.00  0.00     0.262 C 
ATOM     19  O   UNL A   1      30.925  27.148  27.174  1.00  0.00    -0.268 OA
BRANCH  18  20
ATOM     20  C   UNL A   1      30.757  27.711  24.973  1.00  0.00     0.040 A 
ATOM     21  C   UNL A   1      29.984  27.173  23.939  1.00  0.00     0.015 A 
ATOM     22  C   UNL A   1      31.000  29.090  25.038  1.00  0.00     0.015 A 
ATOM     23  C   UNL A   1      29.538  28.008  22.910  1.00  0.00     0.021 A 
ATOM     24  C   UNL A   1      30.533  29.923  24.018  1.00  0.00     0.021 A 
ATOM     25  C   UNL A   1      29.822  29.375  22.950  1.00  0.00     0.041 A 
ATOM     26  Cl  UNL A   1      29.303  30.394  21.663  1.00  0.00    -0.084 Cl
ENDBRANCH  18  20
ENDBRANCH  11  18
BRANCH  16  27
ATOM     27  O   UNL A   1      31.908  20.255  25.519  1.00  0.00    -0.508 OA
ATOM     28  H   UNL A   1      32.436  19.812  26.154  1.00  0.00     0.293 HD
ENDBRANCH  16  27
ENDBRANCH   7   8
ENDBRANCH   5   7
ENDBRANCH   4   5
ENDBRANCH   3   4
ENDBRANCH   2   3
ENDBRANCH   1   2
BRANCH   1  29
ATOM     29  C   UNL A   1      41.248  20.803  26.320  1.00  0.00     0.202 C 
BRANCH  29  30
ATOM     30  C   UNL A   1      41.878  22.132  26.775  1.00  0.00     0.261 C 
BRANCH  30  31
ATOM     31  O   UNL A   1      41.758  23.176  25.812  1.00  0.00    -0.460 OA
BRANCH  31  32
ATOM     32  C   UNL A   1      42.936  23.730  25.426  1.00  0.00     0.338 C 
ATOM     33  O   UNL A   1      43.683  23.360  24.535  1.00  0.00    -0.246 OA
BRANCH  32  34
ATOM     34  C   UNL A   1      42.898  25.081  26.006  1.00  0.00     0.060 A 
ATOM     35  C   UNL A   1      43.535  25.328  27.226  1.00  0.00     0.016 A 
ATOM     36  C   UNL A   1      41.879  25.917  25.522  1.00  0.00     0.016 A 
ATOM     37  C   UNL A   1      43.053  26.354  28.024  1.00  0.00     0.010 A 
ATOM     38  C   UNL A   1      41.388  26.928  26.336  1.00  0.00     0.010 A 
ATOM     39  C   UNL A   1      41.939  27.109  27.606  1.00  0.00    -0.014 A 
BRANCH  39  40
ATOM     40  C   UNL A   1      41.544  28.250  28.430  1.00  0.00     0.031 A 
ATOM     41  C   UNL A   1      42.590  29.304  28.396  1.00  0.00     0.074 A 
ATOM     42  C   UNL A   1      40.358  28.441  29.046  1.00  0.00     0.049 A 
ATOM     43  N   UNL A   1      43.347  29.695  29.364  1.00  0.00    -0.248 NA
ATOM     44  C   UNL A   1      42.971  29.839  27.077  1.00  0.00     0.031 C 
ATOM     45  C   UNL A   1      39.133  27.649  28.917  1.00  0.00     0.029 A 
ATOM     46  N   UNL A   1      39.963  29.465  29.862  1.00  0.00    -0.354 N 
ATOM     47  C   UNL A   1      44.171  30.674  28.817  1.00  0.00     0.074 A 
ATOM     48  C   UNL A   1      44.031  30.581  27.389  1.00  0.00     0.031 C 
ATOM     49  C   UNL A   1      38.085  28.339  29.429  1.00  0.00     0.029 A 
ATOM     50  C   UNL A   1      38.585  29.549  30.057  1.00  0.00     0.049 A 
ATOM     51  H   UNL A   1      40.599  30.090  30.278  1.00  0.00     0.167 HD
ATOM     52  C   UNL A   1      44.713  31.656  29.588  1.00  0.00     0.031 A 
ATOM     53  C   UNL A   1      37.903  30.551  30.670  1.00  0.00     0.031 A 
ATOM     54  C   UNL A   1      44.598  31.351  30.986  1.00  0.00     0.049 A 
ATOM     55  C   UNL A   1      38.859  31.254  31.552  1.00  0.00     0.074 A 
ATOM     56  C   UNL A   1      45.284  30.577  31.893  1.00  0.00     0.029 A 
ATOM     57  N   UNL A   1      43.356  31.605  31.511  1.00  0.00    -0.354 N 
ATOM     58  N   UNL A   1      39.428  30.692  32.582  1.00  0.00    -0.248 NA
ATOM     59  C   UNL A   1      39.468  32.499  31.097  1.00  0.00     0.031 C 
ATOM     60  C   UNL A   1      44.339  30.215  32.897  1.00  0.00     0.029 A 
ATOM     61  C   UNL A   1      43.117  30.825  32.612  1.00  0.00     0.049 A 
ATOM     62  H   UNL A   1      42.721  32.261  31.144  1.00  0.00     0.167 HD
ATOM     63  C   UNL A   1      40.679  31.271  32.636  1.00  0.00     0.074 A 
ATOM     64  C   UNL A   1      40.590  32.474  31.819  1.00  0.00     0.031 C 
ATOM     65  C   UNL A   1      41.764  30.574  33.077  1.00  0.00     0.031 A 
BRANCH  52  66
ATOM     66  C   UNL A   1      44.961  33.059  29.094  1.00  0.00    -0.014 A 
ATOM     67  C   UNL A   1      46.255  33.589  28.910  1.00  0.00     0.010 A 
ATOM     68  C   UNL A   1      43.889  33.807  28.566  1.00  0.00     0.010 A 
ATOM     69  C   UNL A   1      46.476  34.820  28.290  1.00  0.00     0.020 A 
ATOM     70  C   UNL A   1      44.102  35.027  27.904  1.00  0.00     0.020 A 
ATOM     71  C   UNL A   1      45.396  35.533  27.787  1.00  0.00     0.054 A 
BRANCH  71  72
ATOM     72  S   UNL A   1      45.734  37.098  26.947  1.00  0.00     0.124 S 
ATOM     73  O   UNL A   1      44.388  37.646  26.785  1.00  0.00    -0.237 OA
ATOM     74  O   UNL A   1      46.583  37.793  27.909  1.00  0.00    -0.237 OA
ATOM     75  O   UNL A   1      46.393  36.689  25.710  1.00  0.00    -0.744 OA
ENDBRANCH  71  72
ENDBRANCH  52  66
BRANCH  53  76
ATOM     76  C   UNL A   1      36.619  31.186  30.267  1.00  0.00    -0.014 A 
ATOM     77  C   UNL A   1      36.398  31.485  28.908  1.00  0.00     0.010 A 
ATOM     78  C   UNL A   1      35.786  31.809  31.220  1.00  0.00     0.010 A 
ATOM     79  C   UNL A   1      35.447  32.439  28.519  1.00  0.00     0.020 A 
ATOM     80  C   UNL A   1      34.824  32.763  30.834  1.00  0.00     0.020 A 
ATOM     81  C   UNL A   1      34.690  33.099  29.486  1.00  0.00     0.054 A 
BRANCH  81  82
ATOM     82  S   UNL A   1      33.609  34.463  28.953  1.00  0.00     0.124 S 
ATOM     83  O   UNL A   1      32.915  34.802  30.192  1.00  0.00    -0.237 OA
ATOM     84  O   UNL A   1      34.568  35.458  28.480  1.00  0.00    -0.237 OA
ATOM     85  O   UNL A   1      32.777  33.862  27.914  1.00  0.00    -0.744 OA
ENDBRANCH  81  82
ENDBRANCH  53  76
BRANCH  65  86
ATOM     86  C   UNL A   1      41.554  29.385  33.978  1.00  0.00    -0.014 A 
ATOM     87  C   UNL A   1      41.623  29.635  35.361  1.00  0.00     0.010 A 
ATOM     88  C   UNL A   1      41.442  28.053  33.538  1.00  0.00     0.010 A 
ATOM     89  C   UNL A   1      41.646  28.591  36.280  1.00  0.00     0.020 A 
ATOM     90  C   UNL A   1      41.437  26.995  34.464  1.00  0.00     0.020 A 
ATOM     91  C   UNL A   1      41.570  27.273  35.829  1.00  0.00     0.054 A 
BRANCH  91  92
ATOM     92  S   UNL A   1      41.676  25.953  37.067  1.00  0.00     0.124 S 
ATOM     93  O   UNL A   1      42.788  26.403  37.902  1.00  0.00    -0.237 OA
ATOM     94  O   UNL A   1      40.361  26.001  37.702  1.00  0.00    -0.237 OA
ATOM     95  O   UNL A   1      41.938  24.750  36.280  1.00  0.00    -0.744 OA
ENDBRANCH  91  92
ENDBRANCH  65  86
ENDBRANCH  39  40
ENDBRANCH  32  34
ENDBRANCH  31  32
ENDBRANCH  30  31
ENDBRANCH  29  30
ENDBRANCH   1  29
TORSDOF 21
ENDMDL
