MODEL 1
REMARK VINA RESULT:     -11.2      0.000      0.000
REMARK SMILES C/C(=N\NC(N)=S)c1nnn(-c2ccc(C(=O)OCCOCCOC(=O)c3ccc(-c4c5nc(c(-c6ccc(S(=O)(=O)[O-])cc6)c6ccc([nH]6)c(-c6ccc(S(=O)(=O)[O-])cc6)c6nc(c(-c7ccc(S(=O)(=O)[O-])cc7)c7ccc4[nH]7)C=C6)C=C5)cc3)cc2)c1C
REMARK SMILES IDX 20 1 19 2 18 3 16 4 17 5 15 6 12 7 13 8 88 9 14 10 87 11
REMARK SMILES IDX 11 12 8 13 9 14 89 15 10 16 90 17 2 18 1 19 3 20 4 21 5 23
REMARK SMILES IDX 7 24 6 25 21 28 22 29 23 30 24 31 25 32 26 33 27 34 28 35
REMARK SMILES IDX 86 36 29 37 85 38 30 39 31 40 32 41 79 42 33 43 84 44 78 45
REMARK SMILES IDX 80 46 34 47 83 48 77 49 76 50 35 52 65 53 46 54 64 55 47 56
REMARK SMILES IDX 50 57 63 58 81 59 48 60 49 61 62 63 82 64 51 65 36 66 37 67
REMARK SMILES IDX 45 68 38 69 44 70 39 71 40 72 41 73 42 74 43 75 66 76 67 77
REMARK SMILES IDX 75 78 68 79 74 80 69 81 70 82 71 83 72 84 73 85 52 86 53 87
REMARK SMILES IDX 61 88 54 89 60 90 55 91 56 92 57 93 58 94 59 95
REMARK H PARENT 4 22 6 26 6 27 80 51 50 62
REMARK Flexibility Score: inf
ROOT
ATOM      1  C   UNL A   1      39.495  21.346  25.969  1.00  0.00     0.202 C 
ENDROOT
BRANCH   1   2
ATOM      2  C   UNL A   1      38.175  22.111  25.874  1.00  0.00     0.261 C 
BRANCH   2   3
ATOM      3  O   UNL A   1      37.392  21.715  24.739  1.00  0.00    -0.460 OA
BRANCH   3   4
ATOM      4  C   UNL A   1      36.437  20.793  25.006  1.00  0.00     0.338 C 
ATOM      5  O   UNL A   1      36.567  19.581  25.024  1.00  0.00    -0.246 OA
BRANCH   4   6
ATOM      6  C   UNL A   1      35.185  21.461  25.416  1.00  0.00     0.060 A 
ATOM      7  C   UNL A   1      33.078  23.123  26.092  1.00  0.00     0.067 A 
ATOM      8  C   UNL A   1      33.285  22.813  24.745  1.00  0.00     0.029 A 
ATOM      9  C   UNL A   1      33.811  22.487  27.102  1.00  0.00     0.029 A 
ATOM     10  C   UNL A   1      34.365  21.998  24.409  1.00  0.00     0.018 A 
ATOM     11  C   UNL A   1      34.864  21.642  26.764  1.00  0.00     0.018 A 
BRANCH   7  12
ATOM     12  N   UNL A   1      32.309  24.263  26.411  1.00  0.00    -0.217 N 
ATOM     13  C   UNL A   1      31.557  26.309  26.390  1.00  0.00     0.132 A 
ATOM     14  N   UNL A   1      30.506  25.456  26.598  1.00  0.00    -0.128 NA
ATOM     15  C   UNL A   1      32.721  25.580  26.251  1.00  0.00     0.071 A 
ATOM     16  N   UNL A   1      30.965  24.213  26.537  1.00  0.00    -0.061 NA
ATOM     17  C   UNL A   1      34.060  26.003  25.773  1.00  0.00     0.069 C 
BRANCH  13  18
ATOM     18  C   UNL A   1      31.363  27.708  26.051  1.00  0.00     0.087 C 
ATOM     19  C   UNL A   1      31.598  28.672  27.181  1.00  0.00     0.071 C 
ATOM     20  N   UNL A   1      31.036  27.950  24.818  1.00  0.00    -0.176 NA
BRANCH  20  21
ATOM     21  N   UNL A   1      30.893  29.201  24.295  1.00  0.00    -0.254 N 
ATOM     22  H   UNL A   1      31.399  29.901  24.768  1.00  0.00     0.193 HD
BRANCH  21  23
ATOM     23  C   UNL A   1      30.160  29.653  23.216  1.00  0.00     0.184 C 
ATOM     24  S   UNL A   1      28.934  30.772  23.133  1.00  0.00    -0.040 S 
BRANCH  23  25
ATOM     25  N   UNL A   1      30.542  29.039  22.051  1.00  0.00    -0.375 N 
ATOM     26  H   UNL A   1      31.486  29.055  21.773  1.00  0.00     0.159 HD
ATOM     27  H   UNL A   1      29.871  28.583  21.494  1.00  0.00     0.159 HD
ENDBRANCH  23  25
ENDBRANCH  21  23
ENDBRANCH  20  21
ENDBRANCH  13  18
ENDBRANCH   7  12
ENDBRANCH   4   6
ENDBRANCH   3   4
ENDBRANCH   2   3
ENDBRANCH   1   2
BRANCH   1  28
ATOM     28  O   UNL A   1      40.310  21.549  27.121  1.00  0.00    -0.374 OA
BRANCH  28  29
ATOM     29  C   UNL A   1      41.449  20.727  27.342  1.00  0.00     0.202 C 
BRANCH  29  30
ATOM     30  C   UNL A   1      42.008  19.912  26.186  1.00  0.00     0.261 C 
BRANCH  30  31
ATOM     31  O   UNL A   1      43.427  19.863  26.175  1.00  0.00    -0.460 OA
BRANCH  31  32
ATOM     32  C   UNL A   1      43.967  20.408  25.058  1.00  0.00     0.338 C 
ATOM     33  O   UNL A   1      44.368  19.815  24.074  1.00  0.00    -0.246 OA
BRANCH  32  34
ATOM     34  C   UNL A   1      44.186  21.837  25.297  1.00  0.00     0.060 A 
ATOM     35  C   UNL A   1      44.870  22.163  26.468  1.00  0.00     0.016 A 
ATOM     36  C   UNL A   1      43.448  22.787  24.573  1.00  0.00     0.016 A 
ATOM     37  C   UNL A   1      44.613  23.385  27.044  1.00  0.00     0.010 A 
ATOM     38  C   UNL A   1      43.182  24.001  25.159  1.00  0.00     0.010 A 
ATOM     39  C   UNL A   1      43.694  24.244  26.428  1.00  0.00    -0.014 A 
BRANCH  39  40
ATOM     40  C   UNL A   1      43.409  25.504  27.072  1.00  0.00     0.031 A 
ATOM     41  C   UNL A   1      44.461  26.496  26.784  1.00  0.00     0.074 A 
ATOM     42  C   UNL A   1      42.306  25.762  27.796  1.00  0.00     0.049 A 
ATOM     43  N   UNL A   1      45.477  26.761  27.534  1.00  0.00    -0.248 NA
ATOM     44  C   UNL A   1      44.547  27.050  25.425  1.00  0.00     0.031 C 
ATOM     45  C   UNL A   1      41.091  24.962  27.950  1.00  0.00     0.029 A 
ATOM     46  N   UNL A   1      42.020  26.884  28.507  1.00  0.00    -0.354 N 
ATOM     47  C   UNL A   1      46.186  27.731  26.847  1.00  0.00     0.074 A 
ATOM     48  C   UNL A   1      45.726  27.673  25.483  1.00  0.00     0.031 C 
ATOM     49  C   UNL A   1      40.121  25.728  28.508  1.00  0.00     0.029 A 
ATOM     50  C   UNL A   1      40.689  27.015  28.882  1.00  0.00     0.049 A 
ATOM     51  H   UNL A   1      42.704  27.553  28.737  1.00  0.00     0.167 HD
ATOM     52  C   UNL A   1      46.845  28.712  27.521  1.00  0.00     0.031 A 
ATOM     53  C   UNL A   1      40.113  28.125  29.417  1.00  0.00     0.031 A 
ATOM     54  C   UNL A   1      46.954  28.406  28.927  1.00  0.00     0.049 A 
ATOM     55  C   UNL A   1      41.208  28.938  30.007  1.00  0.00     0.074 A 
ATOM     56  C   UNL A   1      47.507  27.375  29.662  1.00  0.00     0.029 A 
ATOM     57  N   UNL A   1      46.054  29.033  29.760  1.00  0.00    -0.354 N 
ATOM     58  N   UNL A   1      41.897  28.551  31.044  1.00  0.00    -0.248 NA
ATOM     59  C   UNL A   1      41.857  29.933  29.167  1.00  0.00     0.031 C 
ATOM     60  C   UNL A   1      46.592  27.152  30.732  1.00  0.00     0.029 A 
ATOM     61  C   UNL A   1      45.575  28.106  30.648  1.00  0.00     0.049 A 
ATOM     62  H   UNL A   1      45.801  29.984  29.725  1.00  0.00     0.167 HD
ATOM     63  C   UNL A   1      43.209  28.888  30.741  1.00  0.00     0.074 A 
ATOM     64  C   UNL A   1      43.110  29.819  29.617  1.00  0.00     0.031 C 
ATOM     65  C   UNL A   1      44.254  28.161  31.239  1.00  0.00     0.031 A 
BRANCH  52  66
ATOM     66  C   UNL A   1      46.959  30.120  27.003  1.00  0.00    -0.014 A 
ATOM     67  C   UNL A   1      48.175  30.804  27.185  1.00  0.00     0.010 A 
ATOM     68  C   UNL A   1      45.844  30.886  26.601  1.00  0.00     0.010 A 
ATOM     69  C   UNL A   1      48.255  32.191  27.028  1.00  0.00     0.020 A 
ATOM     70  C   UNL A   1      45.923  32.262  26.397  1.00  0.00     0.020 A 
ATOM     71  C   UNL A   1      47.123  32.911  26.639  1.00  0.00     0.054 A 
BRANCH  71  72
ATOM     72  S   UNL A   1      47.222  34.708  26.500  1.00  0.00     0.124 S 
ATOM     73  O   UNL A   1      48.603  34.965  26.895  1.00  0.00    -0.237 OA
ATOM     74  O   UNL A   1      46.913  34.922  25.088  1.00  0.00    -0.237 OA
ATOM     75  O   UNL A   1      46.203  35.180  27.434  1.00  0.00    -0.744 OA
ENDBRANCH  71  72
ENDBRANCH  52  66
BRANCH  53  76
ATOM     76  C   UNL A   1      38.765  28.694  29.147  1.00  0.00    -0.014 A 
ATOM     77  C   UNL A   1      37.856  28.938  30.198  1.00  0.00     0.010 A 
ATOM     78  C   UNL A   1      38.488  29.285  27.899  1.00  0.00     0.010 A 
ATOM     79  C   UNL A   1      36.757  29.800  30.025  1.00  0.00     0.020 A 
ATOM     80  C   UNL A   1      37.393  30.141  27.718  1.00  0.00     0.020 A 
ATOM     81  C   UNL A   1      36.547  30.417  28.789  1.00  0.00     0.054 A 
BRANCH  81  82
ATOM     82  S   UNL A   1      35.247  31.681  28.624  1.00  0.00     0.124 S 
ATOM     83  O   UNL A   1      34.185  30.950  27.941  1.00  0.00    -0.237 OA
ATOM     84  O   UNL A   1      34.975  32.043  30.012  1.00  0.00    -0.237 OA
ATOM     85  O   UNL A   1      35.887  32.729  27.830  1.00  0.00    -0.744 OA
ENDBRANCH  81  82
ENDBRANCH  53  76
BRANCH  65  86
ATOM     86  C   UNL A   1      43.984  27.202  32.377  1.00  0.00    -0.014 A 
ATOM     87  C   UNL A   1      44.081  25.798  32.284  1.00  0.00     0.010 A 
ATOM     88  C   UNL A   1      43.733  27.771  33.638  1.00  0.00     0.010 A 
ATOM     89  C   UNL A   1      43.886  24.991  33.417  1.00  0.00     0.020 A 
ATOM     90  C   UNL A   1      43.560  26.976  34.771  1.00  0.00     0.020 A 
ATOM     91  C   UNL A   1      43.620  25.588  34.654  1.00  0.00     0.054 A 
BRANCH  91  92
ATOM     92  S   UNL A   1      43.366  24.549  36.120  1.00  0.00     0.124 S 
ATOM     93  O   UNL A   1      41.984  24.107  35.959  1.00  0.00    -0.237 OA
ATOM     94  O   UNL A   1      44.383  23.512  35.963  1.00  0.00    -0.237 OA
ATOM     95  O   UNL A   1      43.594  25.463  37.239  1.00  0.00    -0.744 OA
ENDBRANCH  91  92
ENDBRANCH  65  86
ENDBRANCH  39  40
ENDBRANCH  32  34
ENDBRANCH  31  32
ENDBRANCH  30  31
ENDBRANCH  29  30
ENDBRANCH  28  29
ENDBRANCH   1  28
TORSDOF 22
ENDMDL
MODEL 2
REMARK VINA RESULT:     -10.7      3.462     10.394
REMARK SMILES C/C(=N\NC(N)=S)c1nnn(-c2ccc(C(=O)OCCOCCOC(=O)c3ccc(-c4c5nc(c(-c6ccc(S(=O)(=O)[O-])cc6)c6ccc([nH]6)c(-c6ccc(S(=O)(=O)[O-])cc6)c6nc(c(-c7ccc(S(=O)(=O)[O-])cc7)c7ccc4[nH]7)C=C6)C=C5)cc3)cc2)c1C
REMARK SMILES IDX 20 1 19 2 18 3 16 4 17 5 15 6 12 7 13 8 88 9 14 10 87 11
REMARK SMILES IDX 11 12 8 13 9 14 89 15 10 16 90 17 2 18 1 19 3 20 4 21 5 23
REMARK SMILES IDX 7 24 6 25 21 28 22 29 23 30 24 31 25 32 26 33 27 34 28 35
REMARK SMILES IDX 86 36 29 37 85 38 30 39 31 40 32 41 79 42 33 43 84 44 78 45
REMARK SMILES IDX 80 46 34 47 83 48 77 49 76 50 35 52 65 53 46 54 64 55 47 56
REMARK SMILES IDX 50 57 63 58 81 59 48 60 49 61 62 63 82 64 51 65 36 66 37 67
REMARK SMILES IDX 45 68 38 69 44 70 39 71 40 72 41 73 42 74 43 75 66 76 67 77
REMARK SMILES IDX 75 78 68 79 74 80 69 81 70 82 71 83 72 84 73 85 52 86 53 87
REMARK SMILES IDX 61 88 54 89 60 90 55 91 56 92 57 93 58 94 59 95
REMARK H PARENT 4 22 6 26 6 27 80 51 50 62
REMARK Flexibility Score: inf
ROOT
ATOM      1  C   UNL A   1      33.472  34.992  28.686  1.00  0.00     0.202 C 
ENDROOT
BRANCH   1   2
ATOM      2  C   UNL A   1      32.953  33.712  28.030  1.00  0.00     0.261 C 
BRANCH   2   3
ATOM      3  O   UNL A   1      34.005  32.931  27.445  1.00  0.00    -0.460 OA
BRANCH   3   4
ATOM      4  C   UNL A   1      34.273  31.772  28.092  1.00  0.00     0.338 C 
ATOM      5  O   UNL A   1      34.752  31.641  29.205  1.00  0.00    -0.246 OA
BRANCH   4   6
ATOM      6  C   UNL A   1      33.779  30.623  27.303  1.00  0.00     0.060 A 
ATOM      7  C   UNL A   1      32.547  28.408  26.195  1.00  0.00     0.067 A 
ATOM      8  C   UNL A   1      31.947  29.661  26.037  1.00  0.00     0.029 A 
ATOM      9  C   UNL A   1      33.824  28.282  26.758  1.00  0.00     0.029 A 
ATOM     10  C   UNL A   1      32.559  30.768  26.623  1.00  0.00     0.018 A 
ATOM     11  C   UNL A   1      34.450  29.397  27.306  1.00  0.00     0.018 A 
BRANCH   7  12
ATOM     12  N   UNL A   1      31.754  27.254  26.018  1.00  0.00    -0.217 N 
ATOM     13  C   UNL A   1      31.175  25.210  25.528  1.00  0.00     0.132 A 
ATOM     14  N   UNL A   1      30.459  25.619  26.622  1.00  0.00    -0.128 NA
ATOM     15  C   UNL A   1      32.023  26.223  25.127  1.00  0.00     0.071 A 
ATOM     16  N   UNL A   1      30.871  26.836  26.953  1.00  0.00    -0.061 NA
ATOM     17  C   UNL A   1      33.157  26.195  24.172  1.00  0.00     0.069 C 
BRANCH  13  18
ATOM     18  C   UNL A   1      31.229  23.819  25.116  1.00  0.00     0.087 C 
ATOM     19  C   UNL A   1      30.878  23.571  23.675  1.00  0.00     0.071 C 
ATOM     20  N   UNL A   1      31.592  22.972  26.030  1.00  0.00    -0.176 NA
BRANCH  20  21
ATOM     21  N   UNL A   1      31.779  21.639  25.809  1.00  0.00    -0.254 N 
ATOM     22  H   UNL A   1      30.984  21.082  25.975  1.00  0.00     0.193 HD
BRANCH  21  23
ATOM     23  C   UNL A   1      32.893  20.939  25.392  1.00  0.00     0.184 C 
ATOM     24  S   UNL A   1      33.066  19.349  24.943  1.00  0.00    -0.040 S 
BRANCH  23  25
ATOM     25  N   UNL A   1      34.013  21.730  25.373  1.00  0.00    -0.375 N 
ATOM     26  H   UNL A   1      33.928  22.699  25.219  1.00  0.00     0.159 HD
ATOM     27  H   UNL A   1      34.901  21.330  25.515  1.00  0.00     0.159 HD
ENDBRANCH  23  25
ENDBRANCH  21  23
ENDBRANCH  20  21
ENDBRANCH  13  18
ENDBRANCH   7  12
ENDBRANCH   4   6
ENDBRANCH   3   4
ENDBRANCH   2   3
ENDBRANCH   1   2
BRANCH   1  28
ATOM     28  O   UNL A   1      32.568  35.755  29.481  1.00  0.00    -0.374 OA
BRANCH  28  29
ATOM     29  C   UNL A   1      33.047  36.484  30.604  1.00  0.00     0.202 C 
BRANCH  29  30
ATOM     30  C   UNL A   1      32.643  36.041  32.001  1.00  0.00     0.261 C 
BRANCH  30  31
ATOM     31  O   UNL A   1      33.164  34.769  32.354  1.00  0.00    -0.460 OA
BRANCH  31  32
ATOM     32  C   UNL A   1      34.440  34.827  32.808  1.00  0.00     0.338 C 
ATOM     33  O   UNL A   1      34.908  35.645  33.577  1.00  0.00    -0.246 OA
BRANCH  32  34
ATOM     34  C   UNL A   1      35.243  33.855  32.061  1.00  0.00     0.060 A 
ATOM     35  C   UNL A   1      35.094  32.520  32.438  1.00  0.00     0.016 A 
ATOM     36  C   UNL A   1      36.324  34.294  31.281  1.00  0.00     0.016 A 
ATOM     37  C   UNL A   1      36.158  31.672  32.238  1.00  0.00     0.010 A 
ATOM     38  C   UNL A   1      37.391  33.448  31.096  1.00  0.00     0.010 A 
ATOM     39  C   UNL A   1      37.328  32.179  31.659  1.00  0.00    -0.014 A 
BRANCH  39  40
ATOM     40  C   UNL A   1      38.446  31.281  31.496  1.00  0.00     0.031 A 
ATOM     41  C   UNL A   1      39.148  31.070  32.776  1.00  0.00     0.074 A 
ATOM     42  C   UNL A   1      38.776  30.671  30.344  1.00  0.00     0.049 A 
ATOM     43  N   UNL A   1      40.193  31.710  33.179  1.00  0.00    -0.248 NA
ATOM     44  C   UNL A   1      38.481  30.276  33.817  1.00  0.00     0.031 C 
ATOM     45  C   UNL A   1      38.032  30.600  29.087  1.00  0.00     0.029 A 
ATOM     46  N   UNL A   1      39.864  29.896  30.095  1.00  0.00    -0.354 N 
ATOM     47  C   UNL A   1      40.472  31.188  34.430  1.00  0.00     0.074 A 
ATOM     48  C   UNL A   1      39.268  30.525  34.865  1.00  0.00     0.031 C 
ATOM     49  C   UNL A   1      38.577  29.638  28.301  1.00  0.00     0.029 A 
ATOM     50  C   UNL A   1      39.786  29.135  28.936  1.00  0.00     0.049 A 
ATOM     51  H   UNL A   1      40.647  29.874  30.692  1.00  0.00     0.167 HD
ATOM     52  C   UNL A   1      41.758  31.062  34.854  1.00  0.00     0.031 A 
ATOM     53  C   UNL A   1      40.641  28.142  28.570  1.00  0.00     0.031 A 
ATOM     54  C   UNL A   1      42.668  31.801  34.012  1.00  0.00     0.049 A 
ATOM     55  C   UNL A   1      41.910  28.370  29.309  1.00  0.00     0.074 A 
ATOM     56  C   UNL A   1      42.800  33.127  33.647  1.00  0.00     0.029 A 
ATOM     57  N   UNL A   1      43.360  31.072  33.072  1.00  0.00    -0.354 N 
ATOM     58  N   UNL A   1      42.686  29.394  29.085  1.00  0.00    -0.248 NA
ATOM     59  C   UNL A   1      42.069  27.744  30.613  1.00  0.00     0.031 C 
ATOM     60  C   UNL A   1      43.173  33.096  32.272  1.00  0.00     0.029 A 
ATOM     61  C   UNL A   1      43.331  31.762  31.888  1.00  0.00     0.049 A 
ATOM     62  H   UNL A   1      43.802  30.204  33.224  1.00  0.00     0.167 HD
ATOM     63  C   UNL A   1      43.082  29.819  30.346  1.00  0.00     0.074 A 
ATOM     64  C   UNL A   1      42.748  28.710  31.240  1.00  0.00     0.031 C 
ATOM     65  C   UNL A   1      43.374  31.133  30.585  1.00  0.00     0.031 A 
BRANCH  52  66
ATOM     66  C   UNL A   1      42.224  29.917  35.713  1.00  0.00    -0.014 A 
ATOM     67  C   UNL A   1      43.514  29.979  36.270  1.00  0.00     0.010 A 
ATOM     68  C   UNL A   1      41.560  28.673  35.764  1.00  0.00     0.010 A 
ATOM     69  C   UNL A   1      44.129  28.839  36.798  1.00  0.00     0.020 A 
ATOM     70  C   UNL A   1      42.146  27.542  36.329  1.00  0.00     0.020 A 
ATOM     71  C   UNL A   1      43.439  27.626  36.818  1.00  0.00     0.054 A 
BRANCH  71  72
ATOM     72  S   UNL A   1      44.266  26.148  37.446  1.00  0.00     0.124 S 
ATOM     73  O   UNL A   1      43.839  25.135  36.486  1.00  0.00    -0.237 OA
ATOM     74  O   UNL A   1      45.673  26.535  37.382  1.00  0.00    -0.237 OA
ATOM     75  O   UNL A   1      43.726  26.003  38.796  1.00  0.00    -0.744 OA
ENDBRANCH  71  72
ENDBRANCH  52  66
BRANCH  53  76
ATOM     76  C   UNL A   1      40.329  26.840  27.920  1.00  0.00    -0.014 A 
ATOM     77  C   UNL A   1      41.112  26.356  26.852  1.00  0.00     0.010 A 
ATOM     78  C   UNL A   1      39.457  25.931  28.550  1.00  0.00     0.010 A 
ATOM     79  C   UNL A   1      41.079  24.998  26.481  1.00  0.00     0.020 A 
ATOM     80  C   UNL A   1      39.414  24.579  28.183  1.00  0.00     0.020 A 
ATOM     81  C   UNL A   1      40.245  24.112  27.168  1.00  0.00     0.054 A 
BRANCH  81  82
ATOM     82  S   UNL A   1      40.349  22.328  26.821  1.00  0.00     0.124 S 
ATOM     83  O   UNL A   1      40.589  21.765  28.146  1.00  0.00    -0.237 OA
ATOM     84  O   UNL A   1      39.041  22.039  26.239  1.00  0.00    -0.237 OA
ATOM     85  O   UNL A   1      41.473  22.224  25.891  1.00  0.00    -0.744 OA
ENDBRANCH  81  82
ENDBRANCH  53  76
BRANCH  65  86
ATOM     86  C   UNL A   1      43.581  32.050  29.400  1.00  0.00    -0.014 A 
ATOM     87  C   UNL A   1      42.960  33.305  29.237  1.00  0.00     0.010 A 
ATOM     88  C   UNL A   1      44.552  31.660  28.461  1.00  0.00     0.010 A 
ATOM     89  C   UNL A   1      43.273  34.122  28.139  1.00  0.00     0.020 A 
ATOM     90  C   UNL A   1      44.885  32.476  27.380  1.00  0.00     0.020 A 
ATOM     91  C   UNL A   1      44.231  33.697  27.213  1.00  0.00     0.054 A 
BRANCH  91  92
ATOM     92  S   UNL A   1      44.639  34.748  25.791  1.00  0.00     0.124 S 
ATOM     93  O   UNL A   1      45.025  36.004  26.426  1.00  0.00    -0.237 OA
ATOM     94  O   UNL A   1      45.720  34.011  25.142  1.00  0.00    -0.237 OA
ATOM     95  O   UNL A   1      43.392  34.802  25.028  1.00  0.00    -0.744 OA
ENDBRANCH  91  92
ENDBRANCH  65  86
ENDBRANCH  39  40
ENDBRANCH  32  34
ENDBRANCH  31  32
ENDBRANCH  30  31
ENDBRANCH  29  30
ENDBRANCH  28  29
ENDBRANCH   1  28
TORSDOF 22
ENDMDL
MODEL 3
REMARK VINA RESULT:     -10.5      3.564     10.261
REMARK SMILES C/C(=N\NC(N)=S)c1nnn(-c2ccc(C(=O)OCCOCCOC(=O)c3ccc(-c4c5nc(c(-c6ccc(S(=O)(=O)[O-])cc6)c6ccc([nH]6)c(-c6ccc(S(=O)(=O)[O-])cc6)c6nc(c(-c7ccc(S(=O)(=O)[O-])cc7)c7ccc4[nH]7)C=C6)C=C5)cc3)cc2)c1C
REMARK SMILES IDX 20 1 19 2 18 3 16 4 17 5 15 6 12 7 13 8 88 9 14 10 87 11
REMARK SMILES IDX 11 12 8 13 9 14 89 15 10 16 90 17 2 18 1 19 3 20 4 21 5 23
REMARK SMILES IDX 7 24 6 25 21 28 22 29 23 30 24 31 25 32 26 33 27 34 28 35
REMARK SMILES IDX 86 36 29 37 85 38 30 39 31 40 32 41 79 42 33 43 84 44 78 45
REMARK SMILES IDX 80 46 34 47 83 48 77 49 76 50 35 52 65 53 46 54 64 55 47 56
REMARK SMILES IDX 50 57 63 58 81 59 48 60 49 61 62 63 82 64 51 65 36 66 37 67
REMARK SMILES IDX 45 68 38 69 44 70 39 71 40 72 41 73 42 74 43 75 66 76 67 77
REMARK SMILES IDX 75 78 68 79 74 80 69 81 70 82 71 83 72 84 73 85 52 86 53 87
REMARK SMILES IDX 61 88 54 89 60 90 55 91 56 92 57 93 58 94 59 95
REMARK H PARENT 4 22 6 26 6 27 80 51 50 62
REMARK Flexibility Score: inf
ROOT
ATOM      1  C   UNL A   1      35.143  31.883  28.152  1.00  0.00     0.202 C 
ENDROOT
BRANCH   1   2
ATOM      2  C   UNL A   1      33.759  31.560  27.590  1.00  0.00     0.261 C 
BRANCH   2   3
ATOM      3  O   UNL A   1      33.711  30.274  26.955  1.00  0.00    -0.460 OA
BRANCH   3   4
ATOM      4  C   UNL A   1      32.525  29.976  26.374  1.00  0.00     0.338 C 
ATOM      5  O   UNL A   1      31.550  30.700  26.273  1.00  0.00    -0.246 OA
BRANCH   4   6
ATOM      6  C   UNL A   1      32.592  28.644  25.735  1.00  0.00     0.060 A 
ATOM      7  C   UNL A   1      32.346  26.042  24.828  1.00  0.00     0.067 A 
ATOM      8  C   UNL A   1      31.512  27.026  24.286  1.00  0.00     0.029 A 
ATOM      9  C   UNL A   1      33.395  26.379  25.692  1.00  0.00     0.029 A 
ATOM     10  C   UNL A   1      31.623  28.329  24.769  1.00  0.00     0.018 A 
ATOM     11  C   UNL A   1      33.528  27.689  26.141  1.00  0.00     0.018 A 
BRANCH   7  12
ATOM     12  N   UNL A   1      31.963  24.690  24.700  1.00  0.00    -0.217 N 
ATOM     13  C   UNL A   1      32.070  22.551  24.293  1.00  0.00     0.132 A 
ATOM     14  N   UNL A   1      31.252  22.752  25.372  1.00  0.00    -0.128 NA
ATOM     15  C   UNL A   1      32.555  23.765  23.849  1.00  0.00     0.071 A 
ATOM     16  N   UNL A   1      31.251  24.049  25.654  1.00  0.00    -0.061 NA
ATOM     17  C   UNL A   1      33.647  24.063  22.892  1.00  0.00     0.069 C 
BRANCH  13  18
ATOM     18  C   UNL A   1      32.569  21.235  23.936  1.00  0.00     0.087 C 
ATOM     19  C   UNL A   1      32.153  20.748  22.575  1.00  0.00     0.071 C 
ATOM     20  N   UNL A   1      33.323  20.656  24.821  1.00  0.00    -0.176 NA
BRANCH  20  21
ATOM     21  N   UNL A   1      33.947  19.459  24.630  1.00  0.00    -0.254 N 
ATOM     22  H   UNL A   1      34.797  19.516  24.136  1.00  0.00     0.193 HD
BRANCH  21  23
ATOM     23  C   UNL A   1      33.591  18.181  25.012  1.00  0.00     0.184 C 
ATOM     24  S   UNL A   1      33.929  16.710  24.319  1.00  0.00    -0.040 S 
BRANCH  23  25
ATOM     25  N   UNL A   1      32.827  18.187  26.151  1.00  0.00    -0.375 N 
ATOM     26  H   UNL A   1      32.433  17.348  26.484  1.00  0.00     0.159 HD
ATOM     27  H   UNL A   1      32.673  19.030  26.636  1.00  0.00     0.159 HD
ENDBRANCH  23  25
ENDBRANCH  21  23
ENDBRANCH  20  21
ENDBRANCH  13  18
ENDBRANCH   7  12
ENDBRANCH   4   6
ENDBRANCH   3   4
ENDBRANCH   2   3
ENDBRANCH   1   2
BRANCH   1  28
ATOM     28  O   UNL A   1      35.363  33.183  28.695  1.00  0.00    -0.374 OA
BRANCH  28  29
ATOM     29  C   UNL A   1      34.609  34.291  28.219  1.00  0.00     0.202 C 
BRANCH  29  30
ATOM     30  C   UNL A   1      33.719  35.051  29.190  1.00  0.00     0.261 C 
BRANCH  30  31
ATOM     31  O   UNL A   1      34.385  35.410  30.391  1.00  0.00    -0.460 OA
BRANCH  31  32
ATOM     32  C   UNL A   1      33.947  34.715  31.469  1.00  0.00     0.338 C 
ATOM     33  O   UNL A   1      32.884  34.851  32.046  1.00  0.00    -0.246 OA
BRANCH  32  34
ATOM     34  C   UNL A   1      35.050  33.891  31.971  1.00  0.00     0.060 A 
ATOM     35  C   UNL A   1      36.320  34.465  31.905  1.00  0.00     0.016 A 
ATOM     36  C   UNL A   1      34.862  32.513  32.163  1.00  0.00     0.016 A 
ATOM     37  C   UNL A   1      37.401  33.623  31.788  1.00  0.00     0.010 A 
ATOM     38  C   UNL A   1      35.943  31.676  32.033  1.00  0.00     0.010 A 
ATOM     39  C   UNL A   1      37.182  32.240  31.754  1.00  0.00    -0.014 A 
BRANCH  39  40
ATOM     40  C   UNL A   1      38.328  31.377  31.590  1.00  0.00     0.031 A 
ATOM     41  C   UNL A   1      38.995  31.131  32.882  1.00  0.00     0.074 A 
ATOM     42  C   UNL A   1      38.709  30.824  30.426  1.00  0.00     0.049 A 
ATOM     43  N   UNL A   1      40.009  31.780  33.345  1.00  0.00    -0.248 NA
ATOM     44  C   UNL A   1      38.317  30.278  33.868  1.00  0.00     0.031 C 
ATOM     45  C   UNL A   1      38.007  30.787  29.144  1.00  0.00     0.029 A 
ATOM     46  N   UNL A   1      39.824  30.088  30.180  1.00  0.00    -0.354 N 
ATOM     47  C   UNL A   1      40.264  31.213  34.581  1.00  0.00     0.074 A 
ATOM     48  C   UNL A   1      39.065  30.503  34.950  1.00  0.00     0.031 C 
ATOM     49  C   UNL A   1      38.601  29.872  28.336  1.00  0.00     0.029 A 
ATOM     50  C   UNL A   1      39.802  29.375  28.989  1.00  0.00     0.049 A 
ATOM     51  H   UNL A   1      40.588  30.061  30.800  1.00  0.00     0.167 HD
ATOM     52  C   UNL A   1      41.539  31.101  35.041  1.00  0.00     0.031 A 
ATOM     53  C   UNL A   1      40.694  28.419  28.611  1.00  0.00     0.031 A 
ATOM     54  C   UNL A   1      42.454  31.897  34.260  1.00  0.00     0.049 A 
ATOM     55  C   UNL A   1      41.933  28.647  29.399  1.00  0.00     0.074 A 
ATOM     56  C   UNL A   1      42.563  33.240  33.954  1.00  0.00     0.029 A 
ATOM     57  N   UNL A   1      43.194  31.226  33.313  1.00  0.00    -0.354 N 
ATOM     58  N   UNL A   1      42.688  29.699  29.242  1.00  0.00    -0.248 NA
ATOM     59  C   UNL A   1      42.068  27.972  30.681  1.00  0.00     0.031 C 
ATOM     60  C   UNL A   1      42.979  33.276  32.591  1.00  0.00     0.029 A 
ATOM     61  C   UNL A   1      43.183  31.963  32.158  1.00  0.00     0.049 A 
ATOM     62  H   UNL A   1      43.654  30.364  33.444  1.00  0.00     0.167 HD
ATOM     63  C   UNL A   1      43.033  30.081  30.531  1.00  0.00     0.074 A 
ATOM     64  C   UNL A   1      42.701  28.928  31.367  1.00  0.00     0.031 C 
ATOM     65  C   UNL A   1      43.284  31.390  30.832  1.00  0.00     0.031 A 
BRANCH  52  66
ATOM     66  C   UNL A   1      42.007  29.934  35.867  1.00  0.00    -0.014 A 
ATOM     67  C   UNL A   1      43.179  30.082  36.631  1.00  0.00     0.010 A 
ATOM     68  C   UNL A   1      41.505  28.625  35.706  1.00  0.00     0.010 A 
ATOM     69  C   UNL A   1      43.844  28.969  37.157  1.00  0.00     0.020 A 
ATOM     70  C   UNL A   1      42.134  27.514  36.264  1.00  0.00     0.020 A 
ATOM     71  C   UNL A   1      43.317  27.691  36.963  1.00  0.00     0.054 A 
BRANCH  71  72
ATOM     72  S   UNL A   1      44.216  26.257  37.594  1.00  0.00     0.124 S 
ATOM     73  O   UNL A   1      44.288  26.552  39.021  1.00  0.00    -0.237 OA
ATOM     74  O   UNL A   1      43.337  25.155  37.214  1.00  0.00    -0.237 OA
ATOM     75  O   UNL A   1      45.488  26.310  36.876  1.00  0.00    -0.744 OA
ENDBRANCH  71  72
ENDBRANCH  52  66
BRANCH  53  76
ATOM     76  C   UNL A   1      40.436  27.138  27.898  1.00  0.00    -0.014 A 
ATOM     77  C   UNL A   1      41.372  26.616  26.981  1.00  0.00     0.010 A 
ATOM     78  C   UNL A   1      39.419  26.274  28.351  1.00  0.00     0.010 A 
ATOM     79  C   UNL A   1      41.335  25.264  26.593  1.00  0.00     0.020 A 
ATOM     80  C   UNL A   1      39.373  24.928  27.964  1.00  0.00     0.020 A 
ATOM     81  C   UNL A   1      40.347  24.421  27.108  1.00  0.00     0.054 A 
BRANCH  81  82
ATOM     82  S   UNL A   1      40.418  22.635  26.761  1.00  0.00     0.124 S 
ATOM     83  O   UNL A   1      40.856  22.085  28.041  1.00  0.00    -0.237 OA
ATOM     84  O   UNL A   1      39.043  22.328  26.379  1.00  0.00    -0.237 OA
ATOM     85  O   UNL A   1      41.395  22.534  25.678  1.00  0.00    -0.744 OA
ENDBRANCH  81  82
ENDBRANCH  53  76
BRANCH  65  86
ATOM     86  C   UNL A   1      43.503  32.360  29.693  1.00  0.00    -0.014 A 
ATOM     87  C   UNL A   1      44.578  32.299  28.782  1.00  0.00     0.010 A 
ATOM     88  C   UNL A   1      42.494  33.313  29.471  1.00  0.00     0.010 A 
ATOM     89  C   UNL A   1      44.657  33.199  27.707  1.00  0.00     0.020 A 
ATOM     90  C   UNL A   1      42.555  34.196  28.392  1.00  0.00     0.020 A 
ATOM     91  C   UNL A   1      43.645  34.148  27.524  1.00  0.00     0.054 A 
BRANCH  91  92
ATOM     92  S   UNL A   1      43.744  35.314  26.137  1.00  0.00     0.124 S 
ATOM     93  O   UNL A   1      45.146  35.718  26.162  1.00  0.00    -0.237 OA
ATOM     94  O   UNL A   1      43.343  34.495  24.996  1.00  0.00    -0.237 OA
ATOM     95  O   UNL A   1      42.793  36.366  26.498  1.00  0.00    -0.744 OA
ENDBRANCH  91  92
ENDBRANCH  65  86
ENDBRANCH  39  40
ENDBRANCH  32  34
ENDBRANCH  31  32
ENDBRANCH  30  31
ENDBRANCH  29  30
ENDBRANCH  28  29
ENDBRANCH   1  28
TORSDOF 22
ENDMDL
