MODEL 1
REMARK VINA RESULT:     -10.9      0.000      0.000
REMARK SMILES CCc1cc(C(=O)c2[nH]c3cc(Cl)ccc3c2CC(=O)OCCOCCOC(=O)c2ccc(-c3c4nc(c(-c5ccc(S(=O)(=O)[O-])cc5)c5ccc([nH]5)c(-c5ccc(S(=O)(=O)[O-])cc5)c5nc(c(-c6ccc(S(=O)(=O)[O-])cc6)c6ccc3[nH]6)C=C5)C=C4)cc2)ncc1Cl
REMARK SMILES IDX 23 1 22 2 21 3 19 4 20 5 18 6 17 7 8 8 9 9 10 10 16 12 11 13
REMARK SMILES IDX 15 14 12 15 14 16 13 17 6 18 7 19 5 20 3 21 4 22 92 23 91 24
REMARK SMILES IDX 93 25 90 26 2 27 1 28 24 29 25 30 26 31 27 32 28 33 29 34
REMARK SMILES IDX 30 35 31 36 89 37 32 38 88 39 33 40 34 41 35 42 82 43 36 44
REMARK SMILES IDX 87 45 81 46 83 47 37 48 86 49 80 50 79 51 38 53 68 54 49 55
REMARK SMILES IDX 67 56 50 57 53 58 66 59 84 60 51 61 52 62 65 64 85 65 54 66
REMARK SMILES IDX 39 67 40 68 48 69 41 70 47 71 42 72 43 73 44 74 45 75 46 76
REMARK SMILES IDX 69 77 70 78 78 79 71 80 77 81 72 82 73 83 74 84 75 85 76 86
REMARK SMILES IDX 55 87 56 88 64 89 57 90 63 91 58 92 59 93 60 94 61 95 62 96
REMARK H PARENT 9 11 83 52 53 63
REMARK Flexibility Score: inf
ROOT
ATOM      1  C   UNL A   1      33.737  31.064  27.500  1.00  0.00     0.202 C 
ENDROOT
BRANCH   1   2
ATOM      2  C   UNL A   1      34.302  29.725  27.013  1.00  0.00     0.261 C 
BRANCH   2   3
ATOM      3  O   UNL A   1      33.311  28.671  27.018  1.00  0.00    -0.463 OA
BRANCH   3   4
ATOM      4  C   UNL A   1      33.490  27.698  26.084  1.00  0.00     0.310 C 
ATOM      5  O   UNL A   1      33.720  26.520  26.353  1.00  0.00    -0.252 OA
BRANCH   4   6
ATOM      6  C   UNL A   1      33.487  28.173  24.648  1.00  0.00     0.161 C 
BRANCH   6   7
ATOM      7  C   UNL A   1      32.226  28.042  23.831  1.00  0.00     0.000 A 
ATOM      8  C   UNL A   1      31.983  27.154  22.779  1.00  0.00     0.093 A 
ATOM      9  N   UNL A   1      30.693  27.395  22.352  1.00  0.00    -0.351 N 
ATOM     10  C   UNL A   1      30.220  28.571  22.882  1.00  0.00     0.048 A 
ATOM     11  H   UNL A   1      30.182  26.806  21.751  1.00  0.00     0.167 HD
ATOM     12  C   UNL A   1      31.139  28.979  23.846  1.00  0.00     0.004 A 
ATOM     13  C   UNL A   1      29.063  29.302  22.578  1.00  0.00     0.047 A 
ATOM     14  C   UNL A   1      30.886  30.175  24.552  1.00  0.00     0.012 A 
ATOM     15  C   UNL A   1      28.864  30.505  23.262  1.00  0.00     0.043 A 
ATOM     16  C   UNL A   1      29.754  30.937  24.240  1.00  0.00     0.021 A 
ATOM     17  Cl  UNL A   1      27.504  31.484  22.863  1.00  0.00    -0.084 Cl
BRANCH   8  18
ATOM     18  C   UNL A   1      32.888  26.152  22.227  1.00  0.00     0.227 C 
ATOM     19  O   UNL A   1      33.651  26.400  21.295  1.00  0.00    -0.285 OA
BRANCH  18  20
ATOM     20  C   UNL A   1      32.873  24.747  22.736  1.00  0.00     0.113 A 
ATOM     21  C   UNL A   1      33.987  22.868  23.767  1.00  0.00    -0.026 A 
ATOM     22  C   UNL A   1      34.054  24.115  23.119  1.00  0.00     0.037 A 
ATOM     23  C   UNL A   1      32.721  22.314  24.008  1.00  0.00     0.062 A 
ATOM     24  C   UNL A   1      31.600  23.008  23.566  1.00  0.00     0.132 A 
ATOM     25  Cl  UNL A   1      32.498  20.837  24.863  1.00  0.00    -0.082 Cl
ATOM     26  N   UNL A   1      31.646  24.203  22.931  1.00  0.00    -0.251 NA
BRANCH  21  27
ATOM     27  C   UNL A   1      35.267  22.233  24.252  1.00  0.00     0.034 C 
ATOM     28  C   UNL A   1      36.230  23.272  24.807  1.00  0.00     0.009 C 
ENDBRANCH  21  27
ENDBRANCH  18  20
ENDBRANCH   8  18
ENDBRANCH   6   7
ENDBRANCH   4   6
ENDBRANCH   3   4
ENDBRANCH   2   3
ENDBRANCH   1   2
BRANCH   1  29
ATOM     29  O   UNL A   1      32.350  31.302  27.247  1.00  0.00    -0.374 OA
BRANCH  29  30
ATOM     30  C   UNL A   1      31.964  32.662  27.056  1.00  0.00     0.202 C 
BRANCH  30  31
ATOM     31  C   UNL A   1      32.920  33.717  27.623  1.00  0.00     0.261 C 
BRANCH  31  32
ATOM     32  O   UNL A   1      32.513  34.197  28.914  1.00  0.00    -0.460 OA
BRANCH  32  33
ATOM     33  C   UNL A   1      33.429  34.987  29.523  1.00  0.00     0.338 C 
ATOM     34  O   UNL A   1      33.280  36.147  29.883  1.00  0.00    -0.246 OA
BRANCH  33  35
ATOM     35  C   UNL A   1      34.636  34.214  29.857  1.00  0.00     0.060 A 
ATOM     36  C   UNL A   1      34.495  33.203  30.814  1.00  0.00     0.016 A 
ATOM     37  C   UNL A   1      35.890  34.512  29.314  1.00  0.00     0.016 A 
ATOM     38  C   UNL A   1      35.617  32.527  31.280  1.00  0.00     0.010 A 
ATOM     39  C   UNL A   1      37.018  33.832  29.788  1.00  0.00     0.010 A 
ATOM     40  C   UNL A   1      36.890  32.866  30.801  1.00  0.00    -0.014 A 
BRANCH  40  41
ATOM     41  C   UNL A   1      38.076  32.286  31.475  1.00  0.00     0.031 A 
ATOM     42  C   UNL A   1      38.482  32.809  32.825  1.00  0.00     0.074 A 
ATOM     43  C   UNL A   1      38.723  31.244  30.925  1.00  0.00     0.049 A 
ATOM     44  N   UNL A   1      39.400  32.364  33.644  1.00  0.00    -0.248 NA
ATOM     45  C   UNL A   1      37.752  33.986  33.322  1.00  0.00     0.031 C 
ATOM     46  C   UNL A   1      38.398  30.636  29.634  1.00  0.00     0.029 A 
ATOM     47  N   UNL A   1      39.774  30.499  31.394  1.00  0.00    -0.354 N 
ATOM     48  C   UNL A   1      39.353  33.198  34.755  1.00  0.00     0.074 A 
ATOM     49  C   UNL A   1      38.345  34.202  34.488  1.00  0.00     0.031 C 
ATOM     50  C   UNL A   1      39.221  29.594  29.425  1.00  0.00     0.029 A 
ATOM     51  C   UNL A   1      40.140  29.475  30.555  1.00  0.00     0.049 A 
ATOM     52  H   UNL A   1      40.224  30.680  32.251  1.00  0.00     0.167 HD
ATOM     53  C   UNL A   1      40.075  33.129  35.899  1.00  0.00     0.031 A 
ATOM     54  C   UNL A   1      41.102  28.541  30.686  1.00  0.00     0.031 A 
ATOM     55  C   UNL A   1      41.096  32.145  36.146  1.00  0.00     0.049 A 
ATOM     56  C   UNL A   1      41.933  28.518  31.940  1.00  0.00     0.074 A 
ATOM     57  C   UNL A   1      41.883  31.981  37.273  1.00  0.00     0.029 A 
ATOM     58  N   UNL A   1      41.481  31.164  35.244  1.00  0.00    -0.354 N 
ATOM     59  N   UNL A   1      41.852  29.292  32.997  1.00  0.00    -0.248 NA
ATOM     60  C   UNL A   1      42.975  27.486  32.025  1.00  0.00     0.031 C 
ATOM     61  C   UNL A   1      42.781  30.935  37.029  1.00  0.00     0.029 A 
ATOM     62  C   UNL A   1      42.514  30.409  35.774  1.00  0.00     0.049 A 
ATOM     63  H   UNL A   1      41.079  31.024  34.357  1.00  0.00     0.167 HD
ATOM     64  C   UNL A   1      42.823  28.832  33.880  1.00  0.00     0.074 A 
ATOM     65  C   UNL A   1      43.461  27.698  33.241  1.00  0.00     0.031 C 
ATOM     66  C   UNL A   1      43.155  29.302  35.109  1.00  0.00     0.031 A 
BRANCH  53  67
ATOM     67  C   UNL A   1      39.804  34.177  36.948  1.00  0.00    -0.014 A 
ATOM     68  C   UNL A   1      40.334  35.477  36.836  1.00  0.00     0.010 A 
ATOM     69  C   UNL A   1      39.012  33.859  38.066  1.00  0.00     0.010 A 
ATOM     70  C   UNL A   1      40.124  36.418  37.849  1.00  0.00     0.020 A 
ATOM     71  C   UNL A   1      38.776  34.806  39.067  1.00  0.00     0.020 A 
ATOM     72  C   UNL A   1      39.355  36.072  38.963  1.00  0.00     0.054 A 
BRANCH  72  73
ATOM     73  S   UNL A   1      39.109  37.306  40.271  1.00  0.00     0.124 S 
ATOM     74  O   UNL A   1      38.191  38.245  39.629  1.00  0.00    -0.237 OA
ATOM     75  O   UNL A   1      38.539  36.515  41.358  1.00  0.00    -0.237 OA
ATOM     76  O   UNL A   1      40.452  37.822  40.518  1.00  0.00    -0.744 OA
ENDBRANCH  72  73
ENDBRANCH  53  67
BRANCH  54  77
ATOM     77  C   UNL A   1      41.315  27.545  29.601  1.00  0.00    -0.014 A 
ATOM     78  C   UNL A   1      42.523  27.509  28.885  1.00  0.00     0.010 A 
ATOM     79  C   UNL A   1      40.317  26.599  29.305  1.00  0.00     0.010 A 
ATOM     80  C   UNL A   1      42.731  26.546  27.892  1.00  0.00     0.020 A 
ATOM     81  C   UNL A   1      40.529  25.619  28.331  1.00  0.00     0.020 A 
ATOM     82  C   UNL A   1      41.734  25.602  27.627  1.00  0.00     0.054 A 
BRANCH  82  83
ATOM     83  S   UNL A   1      42.057  24.310  26.394  1.00  0.00     0.124 S 
ATOM     84  O   UNL A   1      42.155  25.083  25.161  1.00  0.00    -0.237 OA
ATOM     85  O   UNL A   1      43.304  23.720  26.873  1.00  0.00    -0.237 OA
ATOM     86  O   UNL A   1      40.886  23.440  26.498  1.00  0.00    -0.744 OA
ENDBRANCH  82  83
ENDBRANCH  54  77
BRANCH  66  87
ATOM     87  C   UNL A   1      44.257  28.581  35.839  1.00  0.00    -0.014 A 
ATOM     88  C   UNL A   1      45.609  28.908  35.620  1.00  0.00     0.010 A 
ATOM     89  C   UNL A   1      43.937  27.579  36.773  1.00  0.00     0.010 A 
ATOM     90  C   UNL A   1      46.620  28.213  36.286  1.00  0.00     0.020 A 
ATOM     91  C   UNL A   1      44.946  26.902  37.463  1.00  0.00     0.020 A 
ATOM     92  C   UNL A   1      46.283  27.209  37.199  1.00  0.00     0.054 A 
BRANCH  92  93
ATOM     93  S   UNL A   1      47.613  26.329  38.062  1.00  0.00     0.124 S 
ATOM     94  O   UNL A   1      47.165  24.942  37.974  1.00  0.00    -0.237 OA
ATOM     95  O   UNL A   1      48.791  26.660  37.264  1.00  0.00    -0.237 OA
ATOM     96  O   UNL A   1      47.596  26.906  39.404  1.00  0.00    -0.744 OA
ENDBRANCH  92  93
ENDBRANCH  66  87
ENDBRANCH  40  41
ENDBRANCH  33  35
ENDBRANCH  32  33
ENDBRANCH  31  32
ENDBRANCH  30  31
ENDBRANCH  29  30
ENDBRANCH   1  29
TORSDOF 21
ENDMDL
MODEL 2
REMARK VINA RESULT:     -10.9      2.079      8.035
REMARK SMILES CCc1cc(C(=O)c2[nH]c3cc(Cl)ccc3c2CC(=O)OCCOCCOC(=O)c2ccc(-c3c4nc(c(-c5ccc(S(=O)(=O)[O-])cc5)c5ccc([nH]5)c(-c5ccc(S(=O)(=O)[O-])cc5)c5nc(c(-c6ccc(S(=O)(=O)[O-])cc6)c6ccc3[nH]6)C=C5)C=C4)cc2)ncc1Cl
REMARK SMILES IDX 23 1 22 2 21 3 19 4 20 5 18 6 17 7 8 8 9 9 10 10 16 12 11 13
REMARK SMILES IDX 15 14 12 15 14 16 13 17 6 18 7 19 5 20 3 21 4 22 92 23 91 24
REMARK SMILES IDX 93 25 90 26 2 27 1 28 24 29 25 30 26 31 27 32 28 33 29 34
REMARK SMILES IDX 30 35 31 36 89 37 32 38 88 39 33 40 34 41 35 42 82 43 36 44
REMARK SMILES IDX 87 45 81 46 83 47 37 48 86 49 80 50 79 51 38 53 68 54 49 55
REMARK SMILES IDX 67 56 50 57 53 58 66 59 84 60 51 61 52 62 65 64 85 65 54 66
REMARK SMILES IDX 39 67 40 68 48 69 41 70 47 71 42 72 43 73 44 74 45 75 46 76
REMARK SMILES IDX 69 77 70 78 78 79 71 80 77 81 72 82 73 83 74 84 75 85 76 86
REMARK SMILES IDX 55 87 56 88 64 89 57 90 63 91 58 92 59 93 60 94 61 95 62 96
REMARK H PARENT 9 11 83 52 53 63
REMARK Flexibility Score: inf
ROOT
ATOM      1  C   UNL A   1      36.975  23.927  25.654  1.00  0.00     0.202 C 
ENDROOT
BRANCH   1   2
ATOM      2  C   UNL A   1      35.695  24.081  24.825  1.00  0.00     0.261 C 
BRANCH   2   3
ATOM      3  O   UNL A   1      34.570  24.521  25.619  1.00  0.00    -0.463 OA
BRANCH   3   4
ATOM      4  C   UNL A   1      33.829  25.524  25.075  1.00  0.00     0.310 C 
ATOM      5  O   UNL A   1      34.004  25.971  23.942  1.00  0.00    -0.252 OA
BRANCH   4   6
ATOM      6  C   UNL A   1      32.808  26.149  25.999  1.00  0.00     0.161 C 
BRANCH   6   7
ATOM      7  C   UNL A   1      31.378  26.278  25.538  1.00  0.00     0.000 A 
ATOM      8  C   UNL A   1      30.345  25.351  25.703  1.00  0.00     0.093 A 
ATOM      9  N   UNL A   1      29.220  25.911  25.133  1.00  0.00    -0.351 N 
ATOM     10  C   UNL A   1      29.557  27.004  24.371  1.00  0.00     0.048 A 
ATOM     11  H   UNL A   1      28.303  25.575  25.254  1.00  0.00     0.167 HD
ATOM     12  C   UNL A   1      30.894  27.286  24.639  1.00  0.00     0.004 A 
ATOM     13  C   UNL A   1      28.788  27.751  23.467  1.00  0.00     0.047 A 
ATOM     14  C   UNL A   1      31.496  28.379  23.977  1.00  0.00     0.012 A 
ATOM     15  C   UNL A   1      29.425  28.799  22.794  1.00  0.00     0.043 A 
ATOM     16  C   UNL A   1      30.756  29.118  23.046  1.00  0.00     0.021 A 
ATOM     17  Cl  UNL A   1      28.549  29.692  21.610  1.00  0.00    -0.084 Cl
BRANCH   8  18
ATOM     18  C   UNL A   1      30.408  24.047  26.354  1.00  0.00     0.227 C 
ATOM     19  O   UNL A   1      29.744  23.781  27.354  1.00  0.00    -0.285 OA
BRANCH  18  20
ATOM     20  C   UNL A   1      31.348  22.994  25.864  1.00  0.00     0.113 A 
ATOM     21  C   UNL A   1      32.542  21.908  24.067  1.00  0.00    -0.026 A 
ATOM     22  C   UNL A   1      31.518  22.770  24.498  1.00  0.00     0.037 A 
ATOM     23  C   UNL A   1      33.360  21.312  25.037  1.00  0.00     0.062 A 
ATOM     24  C   UNL A   1      33.098  21.577  26.377  1.00  0.00     0.132 A 
ATOM     25  Cl  UNL A   1      34.698  20.304  24.638  1.00  0.00    -0.082 Cl
ATOM     26  N   UNL A   1      32.110  22.394  26.812  1.00  0.00    -0.251 NA
BRANCH  21  27
ATOM     27  C   UNL A   1      32.770  21.738  22.584  1.00  0.00     0.034 C 
ATOM     28  C   UNL A   1      33.241  23.034  21.940  1.00  0.00     0.009 C 
ENDBRANCH  21  27
ENDBRANCH  18  20
ENDBRANCH   8  18
ENDBRANCH   6   7
ENDBRANCH   4   6
ENDBRANCH   3   4
ENDBRANCH   2   3
ENDBRANCH   1   2
BRANCH   1  29
ATOM     29  O   UNL A   1      37.886  22.905  25.239  1.00  0.00    -0.374 OA
BRANCH  29  30
ATOM     30  C   UNL A   1      38.556  22.192  26.277  1.00  0.00     0.202 C 
BRANCH  30  31
ATOM     31  C   UNL A   1      40.021  22.574  26.516  1.00  0.00     0.261 C 
BRANCH  31  32
ATOM     32  O   UNL A   1      40.170  23.604  27.507  1.00  0.00    -0.460 OA
BRANCH  32  33
ATOM     33  C   UNL A   1      40.748  24.737  27.042  1.00  0.00     0.338 C 
ATOM     34  O   UNL A   1      41.310  24.890  25.965  1.00  0.00    -0.246 OA
BRANCH  33  35
ATOM     35  C   UNL A   1      40.482  25.864  27.951  1.00  0.00     0.060 A 
ATOM     36  C   UNL A   1      41.400  26.920  27.934  1.00  0.00     0.016 A 
ATOM     37  C   UNL A   1      39.413  25.863  28.851  1.00  0.00     0.016 A 
ATOM     38  C   UNL A   1      41.290  27.950  28.861  1.00  0.00     0.010 A 
ATOM     39  C   UNL A   1      39.306  26.899  29.786  1.00  0.00     0.010 A 
ATOM     40  C   UNL A   1      40.268  27.925  29.820  1.00  0.00    -0.014 A 
BRANCH  40  41
ATOM     41  C   UNL A   1      40.310  28.913  30.924  1.00  0.00     0.031 A 
ATOM     42  C   UNL A   1      39.318  30.042  30.936  1.00  0.00     0.074 A 
ATOM     43  C   UNL A   1      41.166  28.746  31.947  1.00  0.00     0.049 A 
ATOM     44  N   UNL A   1      39.093  30.937  31.864  1.00  0.00    -0.248 NA
ATOM     45  C   UNL A   1      38.460  30.178  29.749  1.00  0.00     0.031 C 
ATOM     46  C   UNL A   1      42.152  27.670  32.055  1.00  0.00     0.029 A 
ATOM     47  N   UNL A   1      41.326  29.468  33.102  1.00  0.00    -0.354 N 
ATOM     48  C   UNL A   1      38.064  31.736  31.378  1.00  0.00     0.074 A 
ATOM     49  C   UNL A   1      37.737  31.246  30.056  1.00  0.00     0.031 C 
ATOM     50  C   UNL A   1      42.801  27.790  33.226  1.00  0.00     0.029 A 
ATOM     51  C   UNL A   1      42.290  28.959  33.939  1.00  0.00     0.049 A 
ATOM     52  H   UNL A   1      40.801  30.273  33.312  1.00  0.00     0.167 HD
ATOM     53  C   UNL A   1      37.439  32.776  31.981  1.00  0.00     0.031 A 
ATOM     54  C   UNL A   1      42.708  29.384  35.147  1.00  0.00     0.031 A 
ATOM     55  C   UNL A   1      37.790  33.277  33.285  1.00  0.00     0.049 A 
ATOM     56  C   UNL A   1      42.041  30.578  35.774  1.00  0.00     0.074 A 
ATOM     57  C   UNL A   1      37.219  34.320  33.992  1.00  0.00     0.029 A 
ATOM     58  N   UNL A   1      38.816  32.774  34.073  1.00  0.00    -0.354 N 
ATOM     59  N   UNL A   1      41.045  31.300  35.316  1.00  0.00    -0.248 NA
ATOM     60  C   UNL A   1      42.545  31.004  37.086  1.00  0.00     0.031 C 
ATOM     61  C   UNL A   1      37.935  34.483  35.183  1.00  0.00     0.029 A 
ATOM     62  C   UNL A   1      38.916  33.504  35.245  1.00  0.00     0.049 A 
ATOM     63  H   UNL A   1      39.389  32.011  33.834  1.00  0.00     0.167 HD
ATOM     64  C   UNL A   1      40.793  32.259  36.292  1.00  0.00     0.074 A 
ATOM     65  C   UNL A   1      41.726  32.007  37.373  1.00  0.00     0.031 C 
ATOM     66  C   UNL A   1      39.871  33.255  36.296  1.00  0.00     0.031 A 
BRANCH  53  67
ATOM     67  C   UNL A   1      36.341  33.460  31.209  1.00  0.00    -0.014 A 
ATOM     68  C   UNL A   1      36.545  33.911  29.891  1.00  0.00     0.010 A 
ATOM     69  C   UNL A   1      35.085  33.661  31.810  1.00  0.00     0.010 A 
ATOM     70  C   UNL A   1      35.535  34.599  29.213  1.00  0.00     0.020 A 
ATOM     71  C   UNL A   1      34.063  34.324  31.124  1.00  0.00     0.020 A 
ATOM     72  C   UNL A   1      34.303  34.810  29.838  1.00  0.00     0.054 A 
BRANCH  72  73
ATOM     73  S   UNL A   1      33.013  35.718  28.942  1.00  0.00     0.124 S 
ATOM     74  O   UNL A   1      32.414  34.663  28.128  1.00  0.00    -0.237 OA
ATOM     75  O   UNL A   1      32.173  36.233  30.020  1.00  0.00    -0.237 OA
ATOM     76  O   UNL A   1      33.755  36.732  28.197  1.00  0.00    -0.744 OA
ENDBRANCH  72  73
ENDBRANCH  53  67
BRANCH  54  77
ATOM     77  C   UNL A   1      43.807  28.660  35.842  1.00  0.00    -0.014 A 
ATOM     78  C   UNL A   1      43.540  27.514  36.610  1.00  0.00     0.010 A 
ATOM     79  C   UNL A   1      45.138  29.097  35.706  1.00  0.00     0.010 A 
ATOM     80  C   UNL A   1      44.583  26.818  37.230  1.00  0.00     0.020 A 
ATOM     81  C   UNL A   1      46.185  28.390  36.302  1.00  0.00     0.020 A 
ATOM     82  C   UNL A   1      45.900  27.257  37.065  1.00  0.00     0.054 A 
BRANCH  82  83
ATOM     83  S   UNL A   1      47.245  26.290  37.808  1.00  0.00     0.124 S 
ATOM     84  O   UNL A   1      48.345  27.248  37.807  1.00  0.00    -0.237 OA
ATOM     85  O   UNL A   1      46.702  25.950  39.121  1.00  0.00    -0.237 OA
ATOM     86  O   UNL A   1      47.396  25.159  36.895  1.00  0.00    -0.744 OA
ENDBRANCH  82  83
ENDBRANCH  54  77
BRANCH  66  87
ATOM     87  C   UNL A   1      39.830  34.141  37.513  1.00  0.00    -0.014 A 
ATOM     88  C   UNL A   1      38.998  33.836  38.606  1.00  0.00     0.010 A 
ATOM     89  C   UNL A   1      40.652  35.280  37.575  1.00  0.00     0.010 A 
ATOM     90  C   UNL A   1      38.953  34.682  39.717  1.00  0.00     0.020 A 
ATOM     91  C   UNL A   1      40.632  36.113  38.697  1.00  0.00     0.020 A 
ATOM     92  C   UNL A   1      39.766  35.819  39.752  1.00  0.00     0.054 A 
BRANCH  92  93
ATOM     93  S   UNL A   1      39.700  36.895  41.211  1.00  0.00     0.124 S 
ATOM     94  O   UNL A   1      41.114  37.182  41.439  1.00  0.00    -0.237 OA
ATOM     95  O   UNL A   1      38.897  38.023  40.745  1.00  0.00    -0.237 OA
ATOM     96  O   UNL A   1      39.062  36.062  42.227  1.00  0.00    -0.744 OA
ENDBRANCH  92  93
ENDBRANCH  66  87
ENDBRANCH  40  41
ENDBRANCH  33  35
ENDBRANCH  32  33
ENDBRANCH  31  32
ENDBRANCH  30  31
ENDBRANCH  29  30
ENDBRANCH   1  29
TORSDOF 21
ENDMDL
MODEL 3
REMARK VINA RESULT:     -10.9      2.487      8.638
REMARK SMILES CCc1cc(C(=O)c2[nH]c3cc(Cl)ccc3c2CC(=O)OCCOCCOC(=O)c2ccc(-c3c4nc(c(-c5ccc(S(=O)(=O)[O-])cc5)c5ccc([nH]5)c(-c5ccc(S(=O)(=O)[O-])cc5)c5nc(c(-c6ccc(S(=O)(=O)[O-])cc6)c6ccc3[nH]6)C=C5)C=C4)cc2)ncc1Cl
REMARK SMILES IDX 23 1 22 2 21 3 19 4 20 5 18 6 17 7 8 8 9 9 10 10 16 12 11 13
REMARK SMILES IDX 15 14 12 15 14 16 13 17 6 18 7 19 5 20 3 21 4 22 92 23 91 24
REMARK SMILES IDX 93 25 90 26 2 27 1 28 24 29 25 30 26 31 27 32 28 33 29 34
REMARK SMILES IDX 30 35 31 36 89 37 32 38 88 39 33 40 34 41 35 42 82 43 36 44
REMARK SMILES IDX 87 45 81 46 83 47 37 48 86 49 80 50 79 51 38 53 68 54 49 55
REMARK SMILES IDX 67 56 50 57 53 58 66 59 84 60 51 61 52 62 65 64 85 65 54 66
REMARK SMILES IDX 39 67 40 68 48 69 41 70 47 71 42 72 43 73 44 74 45 75 46 76
REMARK SMILES IDX 69 77 70 78 78 79 71 80 77 81 72 82 73 83 74 84 75 85 76 86
REMARK SMILES IDX 55 87 56 88 64 89 57 90 63 91 58 92 59 93 60 94 61 95 62 96
REMARK H PARENT 9 11 83 52 53 63
REMARK Flexibility Score: inf
ROOT
ATOM      1  C   UNL A   1      36.860  24.125  25.829  1.00  0.00     0.202 C 
ENDROOT
BRANCH   1   2
ATOM      2  C   UNL A   1      35.478  24.154  25.166  1.00  0.00     0.261 C 
BRANCH   2   3
ATOM      3  O   UNL A   1      34.479  24.790  25.996  1.00  0.00    -0.463 OA
BRANCH   3   4
ATOM      4  C   UNL A   1      33.675  25.684  25.359  1.00  0.00     0.310 C 
ATOM      5  O   UNL A   1      33.851  26.065  24.202  1.00  0.00    -0.252 OA
BRANCH   4   6
ATOM      6  C   UNL A   1      32.571  26.278  26.204  1.00  0.00     0.161 C 
BRANCH   6   7
ATOM      7  C   UNL A   1      31.167  26.329  25.655  1.00  0.00     0.000 A 
ATOM      8  C   UNL A   1      30.186  25.336  25.735  1.00  0.00     0.093 A 
ATOM      9  N   UNL A   1      29.067  25.839  25.104  1.00  0.00    -0.351 N 
ATOM     10  C   UNL A   1      29.382  26.968  24.387  1.00  0.00     0.048 A 
ATOM     11  H   UNL A   1      28.167  25.444  25.160  1.00  0.00     0.167 HD
ATOM     12  C   UNL A   1      30.679  27.326  24.746  1.00  0.00     0.004 A 
ATOM     13  C   UNL A   1      28.626  27.687  23.450  1.00  0.00     0.047 A 
ATOM     14  C   UNL A   1      31.250  28.469  24.146  1.00  0.00     0.012 A 
ATOM     15  C   UNL A   1      29.236  28.787  22.840  1.00  0.00     0.043 A 
ATOM     16  C   UNL A   1      30.525  29.182  23.183  1.00  0.00     0.021 A 
ATOM     17  Cl  UNL A   1      28.382  29.653  21.619  1.00  0.00    -0.084 Cl
BRANCH   8  18
ATOM     18  C   UNL A   1      30.291  24.024  26.363  1.00  0.00     0.227 C 
ATOM     19  O   UNL A   1      29.631  23.717  27.355  1.00  0.00    -0.285 OA
BRANCH  18  20
ATOM     20  C   UNL A   1      31.269  23.012  25.859  1.00  0.00     0.113 A 
ATOM     21  C   UNL A   1      32.509  22.000  24.051  1.00  0.00    -0.026 A 
ATOM     22  C   UNL A   1      31.454  22.819  24.491  1.00  0.00     0.037 A 
ATOM     23  C   UNL A   1      33.341  21.414  25.016  1.00  0.00     0.062 A 
ATOM     24  C   UNL A   1      33.061  21.644  26.358  1.00  0.00     0.132 A 
ATOM     25  Cl  UNL A   1      34.714  20.459  24.606  1.00  0.00    -0.082 Cl
ATOM     26  N   UNL A   1      32.045  22.420  26.802  1.00  0.00    -0.251 NA
BRANCH  21  27
ATOM     27  C   UNL A   1      32.752  21.866  22.567  1.00  0.00     0.034 C 
ATOM     28  C   UNL A   1      33.308  23.152  21.975  1.00  0.00     0.009 C 
ENDBRANCH  21  27
ENDBRANCH  18  20
ENDBRANCH   8  18
ENDBRANCH   6   7
ENDBRANCH   4   6
ENDBRANCH   3   4
ENDBRANCH   2   3
ENDBRANCH   1   2
BRANCH   1  29
ATOM     29  O   UNL A   1      37.803  23.188  25.299  1.00  0.00    -0.374 OA
BRANCH  29  30
ATOM     30  C   UNL A   1      38.689  22.581  26.237  1.00  0.00     0.202 C 
BRANCH  30  31
ATOM     31  C   UNL A   1      39.988  23.342  26.524  1.00  0.00     0.261 C 
BRANCH  31  32
ATOM     32  O   UNL A   1      39.845  24.303  27.582  1.00  0.00    -0.460 OA
BRANCH  32  33
ATOM     33  C   UNL A   1      40.172  25.567  27.226  1.00  0.00     0.338 C 
ATOM     34  O   UNL A   1      40.538  25.952  26.123  1.00  0.00    -0.246 OA
BRANCH  33  35
ATOM     35  C   UNL A   1      39.883  26.505  28.323  1.00  0.00     0.060 A 
ATOM     36  C   UNL A   1      40.674  27.656  28.397  1.00  0.00     0.016 A 
ATOM     37  C   UNL A   1      38.919  26.239  29.300  1.00  0.00     0.016 A 
ATOM     38  C   UNL A   1      40.551  28.515  29.483  1.00  0.00     0.010 A 
ATOM     39  C   UNL A   1      38.799  27.104  30.394  1.00  0.00     0.010 A 
ATOM     40  C   UNL A   1      39.642  28.223  30.509  1.00  0.00    -0.014 A 
BRANCH  40  41
ATOM     41  C   UNL A   1      39.692  29.033  31.750  1.00  0.00     0.031 A 
ATOM     42  C   UNL A   1      40.829  28.829  32.714  1.00  0.00     0.074 A 
ATOM     43  C   UNL A   1      38.783  29.999  31.963  1.00  0.00     0.049 A 
ATOM     44  N   UNL A   1      41.137  29.512  33.786  1.00  0.00    -0.248 NA
ATOM     45  C   UNL A   1      41.742  27.712  32.428  1.00  0.00     0.031 C 
ATOM     46  C   UNL A   1      37.656  30.305  31.081  1.00  0.00     0.029 A 
ATOM     47  N   UNL A   1      38.678  30.917  32.976  1.00  0.00    -0.354 N 
ATOM     48  C   UNL A   1      42.284  28.915  34.298  1.00  0.00     0.074 A 
ATOM     49  C   UNL A   1      42.592  27.789  33.443  1.00  0.00     0.031 C 
ATOM     50  C   UNL A   1      36.984  31.356  31.582  1.00  0.00     0.029 A 
ATOM     51  C   UNL A   1      37.622  31.783  32.826  1.00  0.00     0.049 A 
ATOM     52  H   UNL A   1      39.300  30.953  33.738  1.00  0.00     0.167 HD
ATOM     53  C   UNL A   1      43.020  29.277  35.376  1.00  0.00     0.031 A 
ATOM     54  C   UNL A   1      37.219  32.809  33.600  1.00  0.00     0.031 A 
ATOM     55  C   UNL A   1      42.691  30.380  36.240  1.00  0.00     0.049 A 
ATOM     56  C   UNL A   1      38.018  33.158  34.826  1.00  0.00     0.074 A 
ATOM     57  C   UNL A   1      43.371  30.838  37.354  1.00  0.00     0.029 A 
ATOM     58  N   UNL A   1      41.576  31.194  36.090  1.00  0.00    -0.354 N 
ATOM     59  N   UNL A   1      39.120  32.606  35.276  1.00  0.00    -0.248 NA
ATOM     60  C   UNL A   1      37.527  34.279  35.639  1.00  0.00     0.031 C 
ATOM     61  C   UNL A   1      42.638  31.893  37.910  1.00  0.00     0.029 A 
ATOM     62  C   UNL A   1      41.532  32.131  37.109  1.00  0.00     0.049 A 
ATOM     63  H   UNL A   1      40.914  31.116  35.367  1.00  0.00     0.167 HD
ATOM     64  C   UNL A   1      39.463  33.321  36.419  1.00  0.00     0.074 A 
ATOM     65  C   UNL A   1      38.463  34.359  36.575  1.00  0.00     0.031 C 
ATOM     66  C   UNL A   1      40.511  33.138  37.261  1.00  0.00     0.031 A 
BRANCH  53  67
ATOM     67  C   UNL A   1      44.231  28.438  35.695  1.00  0.00    -0.014 A 
ATOM     68  C   UNL A   1      44.173  27.405  36.650  1.00  0.00     0.010 A 
ATOM     69  C   UNL A   1      45.448  28.688  35.035  1.00  0.00     0.010 A 
ATOM     70  C   UNL A   1      45.321  26.678  36.978  1.00  0.00     0.020 A 
ATOM     71  C   UNL A   1      46.592  27.944  35.340  1.00  0.00     0.020 A 
ATOM     72  C   UNL A   1      46.526  26.960  36.328  1.00  0.00     0.054 A 
BRANCH  72  73
ATOM     73  S   UNL A   1      48.006  26.013  36.782  1.00  0.00     0.124 S 
ATOM     74  O   UNL A   1      47.488  24.647  36.819  1.00  0.00    -0.237 OA
ATOM     75  O   UNL A   1      48.926  26.306  35.686  1.00  0.00    -0.237 OA
ATOM     76  O   UNL A   1      48.389  26.567  38.078  1.00  0.00    -0.744 OA
ENDBRANCH  72  73
ENDBRANCH  53  67
BRANCH  54  77
ATOM     77  C   UNL A   1      36.006  33.584  33.223  1.00  0.00    -0.014 A 
ATOM     78  C   UNL A   1      34.721  33.101  33.524  1.00  0.00     0.010 A 
ATOM     79  C   UNL A   1      36.134  34.835  32.591  1.00  0.00     0.010 A 
ATOM     80  C   UNL A   1      33.587  33.853  33.201  1.00  0.00     0.020 A 
ATOM     81  C   UNL A   1      35.005  35.601  32.288  1.00  0.00     0.020 A 
ATOM     82  C   UNL A   1      33.737  35.102  32.591  1.00  0.00     0.054 A 
BRANCH  82  83
ATOM     83  S   UNL A   1      32.258  36.097  32.256  1.00  0.00     0.124 S 
ATOM     84  O   UNL A   1      32.435  36.445  30.850  1.00  0.00    -0.237 OA
ATOM     85  O   UNL A   1      31.174  35.161  32.546  1.00  0.00    -0.237 OA
ATOM     86  O   UNL A   1      32.376  37.210  33.197  1.00  0.00    -0.744 OA
ENDBRANCH  82  83
ENDBRANCH  54  77
BRANCH  66  87
ATOM     87  C   UNL A   1      40.625  34.089  38.424  1.00  0.00    -0.014 A 
ATOM     88  C   UNL A   1      40.315  33.676  39.733  1.00  0.00     0.010 A 
ATOM     89  C   UNL A   1      41.070  35.406  38.208  1.00  0.00     0.010 A 
ATOM     90  C   UNL A   1      40.402  34.577  40.797  1.00  0.00     0.020 A 
ATOM     91  C   UNL A   1      41.185  36.302  39.274  1.00  0.00     0.020 A 
ATOM     92  C   UNL A   1      40.830  35.887  40.559  1.00  0.00     0.054 A 
BRANCH  92  93
ATOM     93  S   UNL A   1      40.947  37.035  41.958  1.00  0.00     0.124 S 
ATOM     94  O   UNL A   1      41.407  38.259  41.306  1.00  0.00    -0.237 OA
ATOM     95  O   UNL A   1      39.577  37.070  42.464  1.00  0.00    -0.237 OA
ATOM     96  O   UNL A   1      41.917  36.401  42.847  1.00  0.00    -0.744 OA
ENDBRANCH  92  93
ENDBRANCH  66  87
ENDBRANCH  40  41
ENDBRANCH  33  35
ENDBRANCH  32  33
ENDBRANCH  31  32
ENDBRANCH  30  31
ENDBRANCH  29  30
ENDBRANCH   1  29
TORSDOF 21
ENDMDL
