MODEL 1
REMARK VINA RESULT:     -11.6      0.000      0.000
REMARK SMILES CS(=O)(=O)c1ccc(C2=NN(c3ccc(C(=O)OCCOCCOC(=O)c4ccc(-c5c6nc(c(-c7ccc(S(=O)(=O)[O-])cc7)c7ccc([nH]7)c(-c7ccc(S(=O)(=O)[O-])cc7)c7nc(c(-c8ccc(S(=O)(=O)[O-])cc8)c8ccc5[nH]8)C=C7)C=C6)cc4)cc3)[C@H](c3ccc(F)cc3)C2)cc1
REMARK SMILES IDX 21 1 20 2 19 3 18 4 16 5 17 6 15 7 12 8 13 9 88 10 14 11
REMARK SMILES IDX 87 12 11 13 9 14 10 15 97 16 89 17 8 18 5 19 6 20 99 21 7 22
REMARK SMILES IDX 98 23 2 24 1 25 3 26 4 27 90 28 91 29 96 30 92 31 95 32
REMARK SMILES IDX 93 33 94 34 22 35 23 36 24 37 25 38 26 39 27 40 28 41 86 42
REMARK SMILES IDX 29 43 85 44 30 45 31 46 32 47 79 48 33 49 84 50 78 51 80 52
REMARK SMILES IDX 34 53 83 54 77 55 76 56 35 58 65 59 46 60 64 61 47 62 50 63
REMARK SMILES IDX 63 64 81 65 48 66 49 67 62 69 82 70 51 71 36 72 37 73 45 74
REMARK SMILES IDX 38 75 44 76 39 77 40 78 41 79 42 80 43 81 66 82 67 83 75 84
REMARK SMILES IDX 68 85 74 86 69 87 70 88 71 89 72 90 73 91 52 92 53 93 61 94
REMARK SMILES IDX 54 95 60 96 55 97 56 98 57 99 58 100 59 101
REMARK H PARENT 80 57 50 68
REMARK Flexibility Score: inf
ROOT
ATOM      1  O   UNL A   1      41.996  19.439  25.440  1.00  0.00    -0.374 OA
ENDROOT
BRANCH   1   2
ATOM      2  C   UNL A   1      41.827  20.682  26.124  1.00  0.00     0.202 C 
BRANCH   2   3
ATOM      3  C   UNL A   1      40.465  20.898  26.787  1.00  0.00     0.261 C 
BRANCH   3   4
ATOM      4  O   UNL A   1      39.521  21.423  25.839  1.00  0.00    -0.460 OA
BRANCH   4   5
ATOM      5  C   UNL A   1      39.021  22.646  26.127  1.00  0.00     0.338 C 
ATOM      6  O   UNL A   1      39.656  23.629  26.483  1.00  0.00    -0.246 OA
BRANCH   5   7
ATOM      7  C   UNL A   1      37.562  22.692  25.856  1.00  0.00     0.060 A 
ATOM      8  C   UNL A   1      34.870  22.823  25.070  1.00  0.00     0.060 A 
ATOM      9  C   UNL A   1      35.705  21.825  24.558  1.00  0.00     0.029 A 
ATOM     10  C   UNL A   1      35.363  23.670  26.073  1.00  0.00     0.029 A 
ATOM     11  C   UNL A   1      37.045  21.764  24.940  1.00  0.00     0.018 A 
ATOM     12  C   UNL A   1      36.704  23.615  26.463  1.00  0.00     0.018 A 
BRANCH   8  13
ATOM     13  N   UNL A   1      33.639  23.112  24.468  1.00  0.00    -0.257 N 
ATOM     14  C   UNL A   1      32.059  24.521  24.195  1.00  0.00     0.071 C 
ATOM     15  N   UNL A   1      33.346  24.392  24.106  1.00  0.00    -0.176 NA
ATOM     16  C   UNL A   1      31.323  23.353  24.790  1.00  0.00     0.091 C 
ATOM     17  C   UNL A   1      32.472  22.353  24.949  1.00  0.00     0.144 C 
BRANCH  14  18
ATOM     18  C   UNL A   1      31.336  25.722  23.731  1.00  0.00    -0.002 A 
ATOM     19  C   UNL A   1      29.944  28.033  23.028  1.00  0.00     0.067 A 
ATOM     20  C   UNL A   1      29.287  27.018  23.730  1.00  0.00     0.021 A 
ATOM     21  C   UNL A   1      31.289  27.898  22.668  1.00  0.00     0.021 A 
ATOM     22  C   UNL A   1      29.985  25.858  24.071  1.00  0.00     0.011 A 
ATOM     23  C   UNL A   1      31.987  26.738  23.021  1.00  0.00     0.011 A 
BRANCH  19  24
ATOM     24  S   UNL A   1      29.080  29.538  22.642  1.00  0.00     0.175 S 
ATOM     25  C   UNL A   1      27.369  29.142  22.877  1.00  0.00     0.163 C 
ATOM     26  O   UNL A   1      29.294  29.786  21.223  1.00  0.00    -0.224 OA
ATOM     27  O   UNL A   1      29.437  30.526  23.633  1.00  0.00    -0.224 OA
ENDBRANCH  19  24
ENDBRANCH  14  18
BRANCH  17  28
ATOM     28  C   UNL A   1      32.369  21.015  24.228  1.00  0.00    -0.023 A 
ATOM     29  C   UNL A   1      32.197  20.889  22.841  1.00  0.00     0.009 A 
ATOM     30  C   UNL A   1      32.536  19.834  24.985  1.00  0.00     0.009 A 
ATOM     31  C   UNL A   1      32.188  19.627  22.237  1.00  0.00     0.039 A 
ATOM     32  C   UNL A   1      32.566  18.578  24.377  1.00  0.00     0.039 A 
ATOM     33  C   UNL A   1      32.386  18.488  23.006  1.00  0.00     0.123 A 
ATOM     34  F   UNL A   1      32.413  17.287  22.413  1.00  0.00    -0.207 F 
ENDBRANCH  17  28
ENDBRANCH   8  13
ENDBRANCH   5   7
ENDBRANCH   4   5
ENDBRANCH   3   4
ENDBRANCH   2   3
ENDBRANCH   1   2
BRANCH   1  35
ATOM     35  C   UNL A   1      43.232  18.750  25.632  1.00  0.00     0.202 C 
BRANCH  35  36
ATOM     36  C   UNL A   1      44.114  18.561  24.394  1.00  0.00     0.261 C 
BRANCH  36  37
ATOM     37  O   UNL A   1      44.516  19.814  23.815  1.00  0.00    -0.460 OA
BRANCH  37  38
ATOM     38  C   UNL A   1      45.620  20.355  24.381  1.00  0.00     0.338 C 
ATOM     39  O   UNL A   1      46.768  19.947  24.286  1.00  0.00    -0.246 OA
BRANCH  38  40
ATOM     40  C   UNL A   1      45.300  21.641  25.030  1.00  0.00     0.060 A 
ATOM     41  C   UNL A   1      45.060  22.732  24.187  1.00  0.00     0.016 A 
ATOM     42  C   UNL A   1      45.335  21.812  26.418  1.00  0.00     0.016 A 
ATOM     43  C   UNL A   1      44.947  24.013  24.718  1.00  0.00     0.010 A 
ATOM     44  C   UNL A   1      45.223  23.103  26.950  1.00  0.00     0.010 A 
ATOM     45  C   UNL A   1      45.088  24.213  26.097  1.00  0.00    -0.014 A 
BRANCH  45  46
ATOM     46  C   UNL A   1      45.308  25.595  26.591  1.00  0.00     0.031 A 
ATOM     47  C   UNL A   1      46.685  26.197  26.465  1.00  0.00     0.074 A 
ATOM     48  C   UNL A   1      44.287  26.335  27.060  1.00  0.00     0.049 A 
ATOM     49  N   UNL A   1      47.090  27.406  26.754  1.00  0.00    -0.248 NA
ATOM     50  C   UNL A   1      47.742  25.319  25.935  1.00  0.00     0.031 C 
ATOM     51  C   UNL A   1      42.903  25.882  27.192  1.00  0.00     0.029 A 
ATOM     52  N   UNL A   1      44.260  27.636  27.497  1.00  0.00    -0.354 N 
ATOM     53  C   UNL A   1      48.446  27.435  26.442  1.00  0.00     0.074 A 
ATOM     54  C   UNL A   1      48.801  26.113  25.978  1.00  0.00     0.031 C 
ATOM     55  C   UNL A   1      42.159  26.894  27.673  1.00  0.00     0.029 A 
ATOM     56  C   UNL A   1      43.016  28.057  27.898  1.00  0.00     0.049 A 
ATOM     57  H   UNL A   1      45.058  28.213  27.521  1.00  0.00     0.167 HD
ATOM     58  C   UNL A   1      49.315  28.470  26.523  1.00  0.00     0.031 A 
ATOM     59  C   UNL A   1      42.614  29.246  28.390  1.00  0.00     0.031 A 
ATOM     60  C   UNL A   1      48.966  29.783  26.993  1.00  0.00     0.049 A 
ATOM     61  C   UNL A   1      43.609  30.369  28.517  1.00  0.00     0.074 A 
ATOM     62  C   UNL A   1      49.775  30.899  27.112  1.00  0.00     0.029 A 
ATOM     63  N   UNL A   1      47.701  30.157  27.421  1.00  0.00    -0.354 N 
ATOM     64  N   UNL A   1      44.883  30.383  28.200  1.00  0.00    -0.248 NA
ATOM     65  C   UNL A   1      43.107  31.644  29.048  1.00  0.00     0.031 C 
ATOM     66  C   UNL A   1      49.009  31.938  27.654  1.00  0.00     0.029 A 
ATOM     67  C   UNL A   1      47.710  31.483  27.819  1.00  0.00     0.049 A 
ATOM     68  H   UNL A   1      46.913  29.567  27.440  1.00  0.00     0.167 HD
ATOM     69  C   UNL A   1      45.324  31.677  28.461  1.00  0.00     0.074 A 
ATOM     70  C   UNL A   1      44.180  32.418  28.952  1.00  0.00     0.031 C 
ATOM     71  C   UNL A   1      46.561  32.207  28.300  1.00  0.00     0.031 A 
BRANCH  58  72
ATOM     72  C   UNL A   1      50.740  28.207  26.116  1.00  0.00    -0.014 A 
ATOM     73  C   UNL A   1      51.712  27.835  27.063  1.00  0.00     0.010 A 
ATOM     74  C   UNL A   1      51.109  28.312  24.762  1.00  0.00     0.010 A 
ATOM     75  C   UNL A   1      53.034  27.614  26.671  1.00  0.00     0.020 A 
ATOM     76  C   UNL A   1      52.425  28.067  24.362  1.00  0.00     0.020 A 
ATOM     77  C   UNL A   1      53.384  27.736  25.322  1.00  0.00     0.054 A 
BRANCH  77  78
ATOM     78  S   UNL A   1      55.104  27.430  24.835  1.00  0.00     0.124 S 
ATOM     79  O   UNL A   1      55.566  28.775  24.501  1.00  0.00    -0.237 OA
ATOM     80  O   UNL A   1      55.683  26.849  26.044  1.00  0.00    -0.237 OA
ATOM     81  O   UNL A   1      54.986  26.514  23.703  1.00  0.00    -0.744 OA
ENDBRANCH  77  78
ENDBRANCH  58  72
BRANCH  59  82
ATOM     82  C   UNL A   1      41.194  29.439  28.796  1.00  0.00    -0.014 A 
ATOM     83  C   UNL A   1      40.852  29.654  30.143  1.00  0.00     0.010 A 
ATOM     84  C   UNL A   1      40.174  29.404  27.829  1.00  0.00     0.010 A 
ATOM     85  C   UNL A   1      39.513  29.810  30.516  1.00  0.00     0.020 A 
ATOM     86  C   UNL A   1      38.838  29.586  28.195  1.00  0.00     0.020 A 
ATOM     87  C   UNL A   1      38.515  29.775  29.540  1.00  0.00     0.054 A 
BRANCH  87  88
ATOM     88  S   UNL A   1      36.789  30.028  30.040  1.00  0.00     0.124 S 
ATOM     89  O   UNL A   1      36.791  31.432  30.436  1.00  0.00    -0.237 OA
ATOM     90  O   UNL A   1      36.055  29.715  28.816  1.00  0.00    -0.237 OA
ATOM     91  O   UNL A   1      36.606  29.068  31.127  1.00  0.00    -0.744 OA
ENDBRANCH  87  88
ENDBRANCH  59  82
BRANCH  71  92
ATOM     92  C   UNL A   1      46.736  33.672  28.608  1.00  0.00    -0.014 A 
ATOM     93  C   UNL A   1      47.174  34.110  29.869  1.00  0.00     0.010 A 
ATOM     94  C   UNL A   1      46.495  34.621  27.598  1.00  0.00     0.010 A 
ATOM     95  C   UNL A   1      47.329  35.475  30.127  1.00  0.00     0.020 A 
ATOM     96  C   UNL A   1      46.675  35.984  27.843  1.00  0.00     0.020 A 
ATOM     97  C   UNL A   1      47.074  36.404  29.114  1.00  0.00     0.054 A 
BRANCH  97  98
ATOM     98  S   UNL A   1      47.306  38.169  29.462  1.00  0.00     0.124 S 
ATOM     99  O   UNL A   1      48.694  38.377  29.060  1.00  0.00    -0.237 OA
ATOM    100  O   UNL A   1      46.302  38.801  28.608  1.00  0.00    -0.237 OA
ATOM    101  O   UNL A   1      47.050  38.276  30.896  1.00  0.00    -0.744 OA
ENDBRANCH  97  98
ENDBRANCH  71  92
ENDBRANCH  45  46
ENDBRANCH  38  40
ENDBRANCH  37  38
ENDBRANCH  36  37
ENDBRANCH  35  36
ENDBRANCH   1  35
TORSDOF 21
ENDMDL
MODEL 2
REMARK VINA RESULT:     -10.2      6.209     10.072
REMARK SMILES CS(=O)(=O)c1ccc(C2=NN(c3ccc(C(=O)OCCOCCOC(=O)c4ccc(-c5c6nc(c(-c7ccc(S(=O)(=O)[O-])cc7)c7ccc([nH]7)c(-c7ccc(S(=O)(=O)[O-])cc7)c7nc(c(-c8ccc(S(=O)(=O)[O-])cc8)c8ccc5[nH]8)C=C7)C=C6)cc4)cc3)[C@H](c3ccc(F)cc3)C2)cc1
REMARK SMILES IDX 21 1 20 2 19 3 18 4 16 5 17 6 15 7 12 8 13 9 88 10 14 11
REMARK SMILES IDX 87 12 11 13 9 14 10 15 97 16 89 17 8 18 5 19 6 20 99 21 7 22
REMARK SMILES IDX 98 23 2 24 1 25 3 26 4 27 90 28 91 29 96 30 92 31 95 32
REMARK SMILES IDX 93 33 94 34 22 35 23 36 24 37 25 38 26 39 27 40 28 41 86 42
REMARK SMILES IDX 29 43 85 44 30 45 31 46 32 47 79 48 33 49 84 50 78 51 80 52
REMARK SMILES IDX 34 53 83 54 77 55 76 56 35 58 65 59 46 60 64 61 47 62 50 63
REMARK SMILES IDX 63 64 81 65 48 66 49 67 62 69 82 70 51 71 36 72 37 73 45 74
REMARK SMILES IDX 38 75 44 76 39 77 40 78 41 79 42 80 43 81 66 82 67 83 75 84
REMARK SMILES IDX 68 85 74 86 69 87 70 88 71 89 72 90 73 91 52 92 53 93 61 94
REMARK SMILES IDX 54 95 60 96 55 97 56 98 57 99 58 100 59 101
REMARK H PARENT 80 57 50 68
REMARK Flexibility Score: inf
ROOT
ATOM      1  O   UNL A   1      41.925  25.525  26.847  1.00  0.00    -0.374 OA
ENDROOT
BRANCH   1   2
ATOM      2  C   UNL A   1      40.583  25.060  27.004  1.00  0.00     0.202 C 
BRANCH   2   3
ATOM      3  C   UNL A   1      40.423  23.556  27.236  1.00  0.00     0.261 C 
BRANCH   3   4
ATOM      4  O   UNL A   1      39.044  23.170  27.106  1.00  0.00    -0.460 OA
BRANCH   4   5
ATOM      5  C   UNL A   1      38.754  22.379  26.049  1.00  0.00     0.338 C 
ATOM      6  O   UNL A   1      39.355  21.370  25.705  1.00  0.00    -0.246 OA
BRANCH   5   7
ATOM      7  C   UNL A   1      37.510  22.836  25.380  1.00  0.00     0.060 A 
ATOM      8  C   UNL A   1      35.022  23.641  24.359  1.00  0.00     0.060 A 
ATOM      9  C   UNL A   1      35.585  24.312  25.449  1.00  0.00     0.029 A 
ATOM     10  C   UNL A   1      35.774  22.652  23.709  1.00  0.00     0.029 A 
ATOM     11  C   UNL A   1      36.817  23.906  25.964  1.00  0.00     0.018 A 
ATOM     12  C   UNL A   1      37.010  22.242  24.217  1.00  0.00     0.018 A 
BRANCH   8  13
ATOM     13  N   UNL A   1      33.668  23.800  24.037  1.00  0.00    -0.257 N 
ATOM     14  C   UNL A   1      31.930  25.036  24.138  1.00  0.00     0.071 C 
ATOM     15  N   UNL A   1      33.176  25.043  23.777  1.00  0.00    -0.176 NA
ATOM     16  C   UNL A   1      31.461  23.795  24.847  1.00  0.00     0.091 C 
ATOM     17  C   UNL A   1      32.713  22.921  24.735  1.00  0.00     0.144 C 
BRANCH  14  18
ATOM     18  C   UNL A   1      31.007  26.155  23.867  1.00  0.00    -0.002 A 
ATOM     19  C   UNL A   1      29.322  28.269  23.183  1.00  0.00     0.067 A 
ATOM     20  C   UNL A   1      30.708  28.433  23.093  1.00  0.00     0.021 A 
ATOM     21  C   UNL A   1      28.773  27.059  23.622  1.00  0.00     0.021 A 
ATOM     22  C   UNL A   1      31.548  27.376  23.445  1.00  0.00     0.011 A 
ATOM     23  C   UNL A   1      29.619  25.999  23.965  1.00  0.00     0.011 A 
BRANCH  19  24
ATOM     24  S   UNL A   1      28.244  29.590  22.679  1.00  0.00     0.175 S 
ATOM     25  C   UNL A   1      28.879  31.023  23.505  1.00  0.00     0.163 C 
ATOM     26  O   UNL A   1      26.933  29.291  23.240  1.00  0.00    -0.224 OA
ATOM     27  O   UNL A   1      28.418  29.793  21.260  1.00  0.00    -0.224 OA
ENDBRANCH  19  24
ENDBRANCH  14  18
BRANCH  17  28
ATOM     28  C   UNL A   1      32.598  21.582  24.019  1.00  0.00    -0.023 A 
ATOM     29  C   UNL A   1      32.792  20.342  24.649  1.00  0.00     0.009 A 
ATOM     30  C   UNL A   1      32.194  21.581  22.665  1.00  0.00     0.009 A 
ATOM     31  C   UNL A   1      32.594  19.149  23.947  1.00  0.00     0.039 A 
ATOM     32  C   UNL A   1      31.959  20.390  21.978  1.00  0.00     0.039 A 
ATOM     33  C   UNL A   1      32.167  19.183  22.626  1.00  0.00     0.123 A 
ATOM     34  F   UNL A   1      31.945  18.035  21.973  1.00  0.00    -0.207 F 
ENDBRANCH  17  28
ENDBRANCH   8  13
ENDBRANCH   5   7
ENDBRANCH   4   5
ENDBRANCH   3   4
ENDBRANCH   2   3
ENDBRANCH   1   2
BRANCH   1  35
ATOM     35  C   UNL A   1      42.373  25.791  25.517  1.00  0.00     0.202 C 
BRANCH  35  36
ATOM     36  C   UNL A   1      43.504  24.906  24.983  1.00  0.00     0.261 C 
BRANCH  36  37
ATOM     37  O   UNL A   1      44.727  25.639  24.797  1.00  0.00    -0.460 OA
BRANCH  37  38
ATOM     38  C   UNL A   1      45.845  24.925  25.069  1.00  0.00     0.338 C 
ATOM     39  O   UNL A   1      46.464  24.209  24.296  1.00  0.00    -0.246 OA
BRANCH  38  40
ATOM     40  C   UNL A   1      46.352  25.239  26.419  1.00  0.00     0.060 A 
ATOM     41  C   UNL A   1      46.043  24.330  27.437  1.00  0.00     0.016 A 
ATOM     42  C   UNL A   1      47.017  26.434  26.713  1.00  0.00     0.016 A 
ATOM     43  C   UNL A   1      46.312  24.651  28.764  1.00  0.00     0.010 A 
ATOM     44  C   UNL A   1      47.286  26.756  28.049  1.00  0.00     0.010 A 
ATOM     45  C   UNL A   1      46.880  25.891  29.082  1.00  0.00    -0.014 A 
BRANCH  45  46
ATOM     46  C   UNL A   1      46.838  26.346  30.494  1.00  0.00     0.031 A 
ATOM     47  C   UNL A   1      45.571  26.980  31.011  1.00  0.00     0.074 A 
ATOM     48  C   UNL A   1      47.869  26.119  31.327  1.00  0.00     0.049 A 
ATOM     49  N   UNL A   1      45.279  27.379  32.222  1.00  0.00    -0.248 NA
ATOM     50  C   UNL A   1      44.489  27.185  30.033  1.00  0.00     0.031 C 
ATOM     51  C   UNL A   1      49.130  25.477  30.959  1.00  0.00     0.029 A 
ATOM     52  N   UNL A   1      48.007  26.392  32.665  1.00  0.00    -0.354 N 
ATOM     53  C   UNL A   1      43.983  27.881  32.152  1.00  0.00     0.074 A 
ATOM     54  C   UNL A   1      43.560  27.770  30.773  1.00  0.00     0.031 C 
ATOM     55  C   UNL A   1      49.913  25.400  32.050  1.00  0.00     0.029 A 
ATOM     56  C   UNL A   1      49.216  26.002  33.186  1.00  0.00     0.049 A 
ATOM     57  H   UNL A   1      47.305  26.828  33.201  1.00  0.00     0.167 HD
ATOM     58  C   UNL A   1      43.209  28.377  33.145  1.00  0.00     0.031 A 
ATOM     59  C   UNL A   1      49.706  26.117  34.437  1.00  0.00     0.031 A 
ATOM     60  C   UNL A   1      43.630  28.496  34.514  1.00  0.00     0.049 A 
ATOM     61  C   UNL A   1      48.844  26.717  35.516  1.00  0.00     0.074 A 
ATOM     62  C   UNL A   1      42.918  28.987  35.595  1.00  0.00     0.029 A 
ATOM     63  N   UNL A   1      44.875  28.119  34.992  1.00  0.00    -0.354 N 
ATOM     64  N   UNL A   1      47.615  27.169  35.435  1.00  0.00    -0.248 NA
ATOM     65  C   UNL A   1      49.429  26.803  36.862  1.00  0.00     0.031 C 
ATOM     66  C   UNL A   1      43.750  28.947  36.720  1.00  0.00     0.029 A 
ATOM     67  C   UNL A   1      44.959  28.379  36.350  1.00  0.00     0.049 A 
ATOM     68  H   UNL A   1      45.595  27.726  34.447  1.00  0.00     0.167 HD
ATOM     69  C   UNL A   1      47.268  27.560  36.725  1.00  0.00     0.074 A 
ATOM     70  C   UNL A   1      48.414  27.282  37.568  1.00  0.00     0.031 C 
ATOM     71  C   UNL A   1      46.105  28.091  37.175  1.00  0.00     0.031 A 
BRANCH  58  72
ATOM     72  C   UNL A   1      41.831  28.856  32.772  1.00  0.00    -0.014 A 
ATOM     73  C   UNL A   1      41.621  30.151  32.264  1.00  0.00     0.010 A 
ATOM     74  C   UNL A   1      40.731  27.988  32.910  1.00  0.00     0.010 A 
ATOM     75  C   UNL A   1      40.333  30.585  31.942  1.00  0.00     0.020 A 
ATOM     76  C   UNL A   1      39.444  28.410  32.564  1.00  0.00     0.020 A 
ATOM     77  C   UNL A   1      39.251  29.713  32.099  1.00  0.00     0.054 A 
BRANCH  77  78
ATOM     78  S   UNL A   1      37.590  30.294  31.659  1.00  0.00     0.124 S 
ATOM     79  O   UNL A   1      37.609  30.185  30.202  1.00  0.00    -0.237 OA
ATOM     80  O   UNL A   1      36.723  29.342  32.348  1.00  0.00    -0.237 OA
ATOM     81  O   UNL A   1      37.551  31.658  32.181  1.00  0.00    -0.744 OA
ENDBRANCH  77  78
ENDBRANCH  58  72
BRANCH  59  82
ATOM     82  C   UNL A   1      51.085  25.644  34.741  1.00  0.00    -0.014 A 
ATOM     83  C   UNL A   1      52.185  26.512  34.626  1.00  0.00     0.010 A 
ATOM     84  C   UNL A   1      51.301  24.314  35.143  1.00  0.00     0.010 A 
ATOM     85  C   UNL A   1      53.479  26.051  34.890  1.00  0.00     0.020 A 
ATOM     86  C   UNL A   1      52.590  23.858  35.433  1.00  0.00     0.020 A 
ATOM     87  C   UNL A   1      53.674  24.727  35.291  1.00  0.00     0.054 A 
BRANCH  87  88
ATOM     88  S   UNL A   1      55.355  24.163  35.675  1.00  0.00     0.124 S 
ATOM     89  O   UNL A   1      55.158  23.462  36.940  1.00  0.00    -0.237 OA
ATOM     90  O   UNL A   1      55.677  23.320  34.527  1.00  0.00    -0.237 OA
ATOM     91  O   UNL A   1      56.120  25.406  35.758  1.00  0.00    -0.744 OA
ENDBRANCH  87  88
ENDBRANCH  59  82
BRANCH  71  92
ATOM     92  C   UNL A   1      45.989  28.362  38.652  1.00  0.00    -0.014 A 
ATOM     93  C   UNL A   1      46.272  29.629  39.191  1.00  0.00     0.010 A 
ATOM     94  C   UNL A   1      45.545  27.337  39.506  1.00  0.00     0.010 A 
ATOM     95  C   UNL A   1      46.155  29.853  40.566  1.00  0.00     0.020 A 
ATOM     96  C   UNL A   1      45.400  27.564  40.877  1.00  0.00     0.020 A 
ATOM     97  C   UNL A   1      45.723  28.817  41.401  1.00  0.00     0.054 A 
BRANCH  97  98
ATOM     98  S   UNL A   1      45.553  29.136  43.179  1.00  0.00     0.124 S 
ATOM     99  O   UNL A   1      44.504  30.152  43.205  1.00  0.00    -0.237 OA
ATOM    100  O   UNL A   1      45.174  27.827  43.706  1.00  0.00    -0.237 OA
ATOM    101  O   UNL A   1      46.880  29.600  43.577  1.00  0.00    -0.744 OA
ENDBRANCH  97  98
ENDBRANCH  71  92
ENDBRANCH  45  46
ENDBRANCH  38  40
ENDBRANCH  37  38
ENDBRANCH  36  37
ENDBRANCH  35  36
ENDBRANCH   1  35
TORSDOF 21
ENDMDL
MODEL 3
REMARK VINA RESULT:      -9.9      3.243      5.337
REMARK SMILES CS(=O)(=O)c1ccc(C2=NN(c3ccc(C(=O)OCCOCCOC(=O)c4ccc(-c5c6nc(c(-c7ccc(S(=O)(=O)[O-])cc7)c7ccc([nH]7)c(-c7ccc(S(=O)(=O)[O-])cc7)c7nc(c(-c8ccc(S(=O)(=O)[O-])cc8)c8ccc5[nH]8)C=C7)C=C6)cc4)cc3)[C@H](c3ccc(F)cc3)C2)cc1
REMARK SMILES IDX 21 1 20 2 19 3 18 4 16 5 17 6 15 7 12 8 13 9 88 10 14 11
REMARK SMILES IDX 87 12 11 13 9 14 10 15 97 16 89 17 8 18 5 19 6 20 99 21 7 22
REMARK SMILES IDX 98 23 2 24 1 25 3 26 4 27 90 28 91 29 96 30 92 31 95 32
REMARK SMILES IDX 93 33 94 34 22 35 23 36 24 37 25 38 26 39 27 40 28 41 86 42
REMARK SMILES IDX 29 43 85 44 30 45 31 46 32 47 79 48 33 49 84 50 78 51 80 52
REMARK SMILES IDX 34 53 83 54 77 55 76 56 35 58 65 59 46 60 64 61 47 62 50 63
REMARK SMILES IDX 63 64 81 65 48 66 49 67 62 69 82 70 51 71 36 72 37 73 45 74
REMARK SMILES IDX 38 75 44 76 39 77 40 78 41 79 42 80 43 81 66 82 67 83 75 84
REMARK SMILES IDX 68 85 74 86 69 87 70 88 71 89 72 90 73 91 52 92 53 93 61 94
REMARK SMILES IDX 54 95 60 96 55 97 56 98 57 99 58 100 59 101
REMARK H PARENT 80 57 50 68
REMARK Flexibility Score: inf
ROOT
ATOM      1  O   UNL A   1      42.461  24.640  26.480  1.00  0.00    -0.374 OA
ENDROOT
BRANCH   1   2
ATOM      2  C   UNL A   1      41.134  24.605  27.009  1.00  0.00     0.202 C 
BRANCH   2   3
ATOM      3  C   UNL A   1      40.705  23.281  27.645  1.00  0.00     0.261 C 
BRANCH   3   4
ATOM      4  O   UNL A   1      39.327  23.002  27.348  1.00  0.00    -0.460 OA
BRANCH   4   5
ATOM      5  C   UNL A   1      39.106  22.237  26.255  1.00  0.00     0.338 C 
ATOM      6  O   UNL A   1      39.744  21.251  25.913  1.00  0.00    -0.246 OA
BRANCH   5   7
ATOM      7  C   UNL A   1      37.888  22.691  25.537  1.00  0.00     0.060 A 
ATOM      8  C   UNL A   1      35.447  23.521  24.427  1.00  0.00     0.060 A 
ATOM      9  C   UNL A   1      36.046  24.267  25.448  1.00  0.00     0.029 A 
ATOM     10  C   UNL A   1      36.145  22.433  23.884  1.00  0.00     0.029 A 
ATOM     11  C   UNL A   1      37.255  23.850  26.007  1.00  0.00     0.018 A 
ATOM     12  C   UNL A   1      37.357  22.010  24.437  1.00  0.00     0.018 A 
BRANCH   8  13
ATOM     13  N   UNL A   1      34.104  23.720  24.084  1.00  0.00    -0.257 N 
ATOM     14  C   UNL A   1      32.431  25.046  24.063  1.00  0.00     0.071 C 
ATOM     15  N   UNL A   1      33.676  24.957  23.710  1.00  0.00    -0.176 NA
ATOM     16  C   UNL A   1      31.898  23.900  24.877  1.00  0.00     0.091 C 
ATOM     17  C   UNL A   1      33.104  22.957  24.853  1.00  0.00     0.144 C 
BRANCH  14  18
ATOM     18  C   UNL A   1      31.567  26.183  23.686  1.00  0.00    -0.002 A 
ATOM     19  C   UNL A   1      29.898  28.350  23.150  1.00  0.00     0.067 A 
ATOM     20  C   UNL A   1      29.366  27.198  23.737  1.00  0.00     0.021 A 
ATOM     21  C   UNL A   1      31.256  28.423  22.820  1.00  0.00     0.021 A 
ATOM     22  C   UNL A   1      30.203  26.111  23.995  1.00  0.00     0.011 A 
ATOM     23  C   UNL A   1      32.092  27.334  23.090  1.00  0.00     0.011 A 
BRANCH  19  24
ATOM     24  S   UNL A   1      28.852  29.761  22.873  1.00  0.00     0.175 S 
ATOM     25  C   UNL A   1      29.397  30.420  21.321  1.00  0.00     0.163 C 
ATOM     26  O   UNL A   1      29.177  30.728  23.912  1.00  0.00    -0.224 OA
ATOM     27  O   UNL A   1      27.499  29.287  22.693  1.00  0.00    -0.224 OA
ENDBRANCH  19  24
ENDBRANCH  14  18
BRANCH  17  28
ATOM     28  C   UNL A   1      32.921  21.566  24.260  1.00  0.00    -0.023 A 
ATOM     29  C   UNL A   1      33.171  20.379  24.966  1.00  0.00     0.009 A 
ATOM     30  C   UNL A   1      32.394  21.461  22.953  1.00  0.00     0.009 A 
ATOM     31  C   UNL A   1      32.907  19.135  24.383  1.00  0.00     0.039 A 
ATOM     32  C   UNL A   1      32.095  20.221  22.387  1.00  0.00     0.039 A 
ATOM     33  C   UNL A   1      32.360  19.069  23.108  1.00  0.00     0.123 A 
ATOM     34  F   UNL A   1      32.077  17.874  22.572  1.00  0.00    -0.207 F 
ENDBRANCH  17  28
ENDBRANCH   8  13
ENDBRANCH   5   7
ENDBRANCH   4   5
ENDBRANCH   3   4
ENDBRANCH   2   3
ENDBRANCH   1   2
BRANCH   1  35
ATOM     35  C   UNL A   1      42.658  24.100  25.174  1.00  0.00     0.202 C 
BRANCH  35  36
ATOM     36  C   UNL A   1      43.310  22.716  25.093  1.00  0.00     0.261 C 
BRANCH  36  37
ATOM     37  O   UNL A   1      44.625  22.766  24.515  1.00  0.00    -0.460 OA
BRANCH  37  38
ATOM     38  C   UNL A   1      45.630  22.643  25.415  1.00  0.00     0.338 C 
ATOM     39  O   UNL A   1      46.205  21.613  25.734  1.00  0.00    -0.246 OA
BRANCH  38  40
ATOM     40  C   UNL A   1      46.085  23.968  25.878  1.00  0.00     0.060 A 
ATOM     41  C   UNL A   1      46.304  24.939  24.894  1.00  0.00     0.016 A 
ATOM     42  C   UNL A   1      46.393  24.231  27.216  1.00  0.00     0.016 A 
ATOM     43  C   UNL A   1      46.919  26.142  25.228  1.00  0.00     0.010 A 
ATOM     44  C   UNL A   1      47.013  25.442  27.549  1.00  0.00     0.010 A 
ATOM     45  C   UNL A   1      47.331  26.376  26.546  1.00  0.00    -0.014 A 
BRANCH  45  46
ATOM     46  C   UNL A   1      48.275  27.491  26.804  1.00  0.00     0.031 A 
ATOM     47  C   UNL A   1      49.750  27.187  26.874  1.00  0.00     0.074 A 
ATOM     48  C   UNL A   1      47.843  28.762  26.883  1.00  0.00     0.049 A 
ATOM     49  N   UNL A   1      50.760  28.007  27.010  1.00  0.00    -0.248 NA
ATOM     50  C   UNL A   1      50.137  25.770  26.771  1.00  0.00     0.031 C 
ATOM     51  C   UNL A   1      46.447  29.190  26.788  1.00  0.00     0.029 A 
ATOM     52  N   UNL A   1      48.543  29.931  27.047  1.00  0.00    -0.354 N 
ATOM     53  C   UNL A   1      51.899  27.208  27.009  1.00  0.00     0.074 A 
ATOM     54  C   UNL A   1      51.454  25.837  26.896  1.00  0.00     0.031 C 
ATOM     55  C   UNL A   1      46.396  30.530  26.889  1.00  0.00     0.029 A 
ATOM     56  C   UNL A   1      47.750  31.051  27.073  1.00  0.00     0.049 A 
ATOM     57  H   UNL A   1      49.524  29.963  27.138  1.00  0.00     0.167 HD
ATOM     58  C   UNL A   1      53.198  27.580  27.082  1.00  0.00     0.031 A 
ATOM     59  C   UNL A   1      48.077  32.350  27.227  1.00  0.00     0.031 A 
ATOM     60  C   UNL A   1      53.643  28.942  27.203  1.00  0.00     0.049 A 
ATOM     61  C   UNL A   1      49.527  32.736  27.355  1.00  0.00     0.074 A 
ATOM     62  C   UNL A   1      54.938  29.422  27.285  1.00  0.00     0.029 A 
ATOM     63  N   UNL A   1      52.803  30.044  27.259  1.00  0.00    -0.354 N 
ATOM     64  N   UNL A   1      50.591  31.969  27.334  1.00  0.00    -0.248 NA
ATOM     65  C   UNL A   1      49.821  34.169  27.508  1.00  0.00     0.031 C 
ATOM     66  C   UNL A   1      54.881  30.812  27.434  1.00  0.00     0.029 A 
ATOM     67  C   UNL A   1      53.551  31.202  27.389  1.00  0.00     0.049 A 
ATOM     68  H   UNL A   1      51.820  30.008  27.214  1.00  0.00     0.167 HD
ATOM     69  C   UNL A   1      51.681  32.828  27.434  1.00  0.00     0.074 A 
ATOM     70  C   UNL A   1      51.147  34.173  27.508  1.00  0.00     0.031 C 
ATOM     71  C   UNL A   1      53.005  32.533  27.455  1.00  0.00     0.031 A 
BRANCH  58  72
ATOM     72  C   UNL A   1      54.232  26.485  27.061  1.00  0.00    -0.014 A 
ATOM     73  C   UNL A   1      54.762  25.960  28.253  1.00  0.00     0.010 A 
ATOM     74  C   UNL A   1      54.663  25.959  25.830  1.00  0.00     0.010 A 
ATOM     75  C   UNL A   1      55.735  24.958  28.215  1.00  0.00     0.020 A 
ATOM     76  C   UNL A   1      55.617  24.938  25.787  1.00  0.00     0.020 A 
ATOM     77  C   UNL A   1      56.160  24.456  26.980  1.00  0.00     0.054 A 
BRANCH  77  78
ATOM     78  S   UNL A   1      57.413  23.145  26.956  1.00  0.00     0.124 S 
ATOM     79  O   UNL A   1      57.904  23.225  25.582  1.00  0.00    -0.237 OA
ATOM     80  O   UNL A   1      58.353  23.579  27.985  1.00  0.00    -0.237 OA
ATOM     81  O   UNL A   1      56.656  21.937  27.277  1.00  0.00    -0.744 OA
ENDBRANCH  77  78
ENDBRANCH  58  72
BRANCH  59  82
ATOM     82  C   UNL A   1      47.009  33.386  27.261  1.00  0.00    -0.014 A 
ATOM     83  C   UNL A   1      46.548  33.986  26.076  1.00  0.00     0.010 A 
ATOM     84  C   UNL A   1      46.450  33.782  28.489  1.00  0.00     0.010 A 
ATOM     85  C   UNL A   1      45.562  34.976  26.121  1.00  0.00     0.020 A 
ATOM     86  C   UNL A   1      45.446  34.752  28.537  1.00  0.00     0.020 A 
ATOM     87  C   UNL A   1      45.017  35.354  27.351  1.00  0.00     0.054 A 
BRANCH  87  88
ATOM     88  S   UNL A   1      43.705  36.606  27.384  1.00  0.00     0.124 S 
ATOM     89  O   UNL A   1      42.684  35.997  26.538  1.00  0.00    -0.237 OA
ATOM     90  O   UNL A   1      43.382  36.691  28.806  1.00  0.00    -0.237 OA
ATOM     91  O   UNL A   1      44.354  37.793  26.829  1.00  0.00    -0.744 OA
ENDBRANCH  87  88
ENDBRANCH  59  82
BRANCH  71  92
ATOM     92  C   UNL A   1      53.973  33.686  27.509  1.00  0.00    -0.014 A 
ATOM     93  C   UNL A   1      54.446  34.191  28.732  1.00  0.00     0.010 A 
ATOM     94  C   UNL A   1      54.449  34.241  26.307  1.00  0.00     0.010 A 
ATOM     95  C   UNL A   1      55.346  35.260  28.753  1.00  0.00     0.020 A 
ATOM     96  C   UNL A   1      55.370  35.292  26.323  1.00  0.00     0.020 A 
ATOM     97  C   UNL A   1      55.799  35.807  27.548  1.00  0.00     0.054 A 
BRANCH  97  98
ATOM     98  S   UNL A   1      56.987  37.178  27.597  1.00  0.00     0.124 S 
ATOM     99  O   UNL A   1      56.153  38.314  27.212  1.00  0.00    -0.237 OA
ATOM    100  O   UNL A   1      57.433  37.168  28.988  1.00  0.00    -0.237 OA
ATOM    101  O   UNL A   1      58.003  36.791  26.621  1.00  0.00    -0.744 OA
ENDBRANCH  97  98
ENDBRANCH  71  92
ENDBRANCH  45  46
ENDBRANCH  38  40
ENDBRANCH  37  38
ENDBRANCH  36  37
ENDBRANCH  35  36
ENDBRANCH   1  35
TORSDOF 21
ENDMDL
