MODEL 1
REMARK VINA RESULT:     -11.3      0.000      0.000
REMARK SMILES O=C(OCCOCCOC(=O)C1CC[NH+]([C@H]2CC(=O)N(c3ccc4c(c3)OCCO4)C2=O)CC1)c1ccc(-c2c3nc(c(-c4ccc(S(=O)(=O)[O-])cc4)c4ccc([nH]4)c(-c4ccc(S(=O)(=O)[O-])cc4)c4nc(c(-c5ccc(S(=O)(=O)[O-])cc5)c5ccc2[nH]5)C=C4)C=C3)cc1
REMARK SMILES IDX 5 1 4 2 3 3 2 4 1 5 35 6 36 7 94 8 37 9 93 10 38 11 39 12
REMARK SMILES IDX 40 13 87 14 41 15 92 16 86 17 88 18 42 19 91 20 85 21 84 22
REMARK SMILES IDX 43 24 73 25 54 26 72 27 55 28 58 29 71 30 89 31 56 32 57 33
REMARK SMILES IDX 70 35 90 36 59 37 44 38 45 39 53 40 46 41 52 42 47 43 48 44
REMARK SMILES IDX 49 45 50 46 51 47 74 48 75 49 83 50 76 51 82 52 77 53 78 54
REMARK SMILES IDX 79 55 80 56 81 57 60 58 61 59 69 60 62 61 68 62 63 63 64 64
REMARK SMILES IDX 65 65 66 66 67 67 6 68 7 69 8 70 9 71 10 72 11 73 12 74
REMARK SMILES IDX 13 75 34 76 14 77 33 78 15 79 16 81 17 82 31 83 18 84 20 85
REMARK SMILES IDX 32 86 19 87 21 88 22 89 26 90 23 91 25 92 24 93 27 94 30 95
REMARK SMILES IDX 28 96 29 97
REMARK H PARENT 88 23 58 34 15 80
REMARK Flexibility Score: inf
ROOT
ATOM      1  C   UNL A   1      35.237  32.276  30.961  1.00  0.00     0.202 C 
ENDROOT
BRANCH   1   2
ATOM      2  C   UNL A   1      36.330  31.688  31.865  1.00  0.00     0.261 C 
BRANCH   2   3
ATOM      3  O   UNL A   1      36.353  30.241  31.769  1.00  0.00    -0.460 OA
BRANCH   3   4
ATOM      4  C   UNL A   1      37.313  29.401  32.247  1.00  0.00     0.338 C 
ATOM      5  O   UNL A   1      37.054  28.586  33.124  1.00  0.00    -0.246 OA
BRANCH   4   6
ATOM      6  C   UNL A   1      38.680  29.464  31.683  1.00  0.00     0.060 A 
ATOM      7  C   UNL A   1      38.860  29.640  30.323  1.00  0.00     0.016 A 
ATOM      8  C   UNL A   1      39.809  29.344  32.491  1.00  0.00     0.016 A 
ATOM      9  C   UNL A   1      40.063  29.398  29.720  1.00  0.00     0.010 A 
ATOM     10  C   UNL A   1      41.079  29.295  31.897  1.00  0.00     0.010 A 
ATOM     11  C   UNL A   1      41.199  29.264  30.498  1.00  0.00    -0.014 A 
BRANCH  11  12
ATOM     12  C   UNL A   1      42.451  28.985  29.767  1.00  0.00     0.031 A 
ATOM     13  C   UNL A   1      42.555  27.702  29.002  1.00  0.00     0.074 A 
ATOM     14  C   UNL A   1      43.365  29.969  29.630  1.00  0.00     0.049 A 
ATOM     15  N   UNL A   1      43.576  27.217  28.353  1.00  0.00    -0.248 NA
ATOM     16  C   UNL A   1      41.355  26.846  28.962  1.00  0.00     0.031 C 
ATOM     17  C   UNL A   1      43.252  31.320  30.204  1.00  0.00     0.029 A 
ATOM     18  N   UNL A   1      44.517  30.030  28.897  1.00  0.00    -0.354 N 
ATOM     19  C   UNL A   1      43.173  25.963  27.910  1.00  0.00     0.074 A 
ATOM     20  C   UNL A   1      41.806  25.773  28.331  1.00  0.00     0.031 C 
ATOM     21  C   UNL A   1      44.223  32.098  29.707  1.00  0.00     0.029 A 
ATOM     22  C   UNL A   1      45.114  31.271  28.911  1.00  0.00     0.049 A 
ATOM     23  H   UNL A   1      44.884  29.260  28.404  1.00  0.00     0.167 HD
ATOM     24  C   UNL A   1      43.909  25.050  27.238  1.00  0.00     0.031 A 
ATOM     25  C   UNL A   1      46.284  31.675  28.381  1.00  0.00     0.031 A 
ATOM     26  C   UNL A   1      45.257  25.307  26.813  1.00  0.00     0.049 A 
ATOM     27  C   UNL A   1      47.108  30.627  27.693  1.00  0.00     0.074 A 
ATOM     28  C   UNL A   1      46.158  24.453  26.207  1.00  0.00     0.029 A 
ATOM     29  N   UNL A   1      45.889  26.540  26.939  1.00  0.00    -0.354 N 
ATOM     30  N   UNL A   1      46.790  29.382  27.421  1.00  0.00    -0.248 NA
ATOM     31  C   UNL A   1      48.461  31.014  27.283  1.00  0.00     0.031 C 
ATOM     32  C   UNL A   1      47.348  25.161  26.003  1.00  0.00     0.029 A 
ATOM     33  C   UNL A   1      47.170  26.470  26.431  1.00  0.00     0.049 A 
ATOM     34  H   UNL A   1      45.481  27.344  27.333  1.00  0.00     0.167 HD
ATOM     35  C   UNL A   1      47.905  28.832  26.808  1.00  0.00     0.074 A 
ATOM     36  C   UNL A   1      48.893  29.893  26.722  1.00  0.00     0.031 C 
ATOM     37  C   UNL A   1      48.107  27.565  26.368  1.00  0.00     0.031 A 
BRANCH  24  38
ATOM     38  C   UNL A   1      43.303  23.686  27.057  1.00  0.00    -0.014 A 
ATOM     39  C   UNL A   1      43.149  22.784  28.125  1.00  0.00     0.010 A 
ATOM     40  C   UNL A   1      42.940  23.276  25.760  1.00  0.00     0.010 A 
ATOM     41  C   UNL A   1      42.694  21.481  27.889  1.00  0.00     0.020 A 
ATOM     42  C   UNL A   1      42.462  21.985  25.524  1.00  0.00     0.020 A 
ATOM     43  C   UNL A   1      42.366  21.086  26.588  1.00  0.00     0.054 A 
BRANCH  43  44
ATOM     44  S   UNL A   1      41.806  19.385  26.300  1.00  0.00     0.124 S 
ATOM     45  O   UNL A   1      40.361  19.562  26.172  1.00  0.00    -0.237 OA
ATOM     46  O   UNL A   1      42.504  19.020  25.070  1.00  0.00    -0.237 OA
ATOM     47  O   UNL A   1      42.242  18.669  27.496  1.00  0.00    -0.744 OA
ENDBRANCH  43  44
ENDBRANCH  24  38
BRANCH  25  48
ATOM     48  C   UNL A   1      46.770  33.071  28.577  1.00  0.00    -0.014 A 
ATOM     49  C   UNL A   1      47.561  33.416  29.688  1.00  0.00     0.010 A 
ATOM     50  C   UNL A   1      46.455  34.072  27.637  1.00  0.00     0.010 A 
ATOM     51  C   UNL A   1      48.013  34.731  29.858  1.00  0.00     0.020 A 
ATOM     52  C   UNL A   1      46.934  35.377  27.784  1.00  0.00     0.020 A 
ATOM     53  C   UNL A   1      47.698  35.703  28.903  1.00  0.00     0.054 A 
BRANCH  53  54
ATOM     54  S   UNL A   1      48.326  37.392  29.118  1.00  0.00     0.124 S 
ATOM     55  O   UNL A   1      47.705  38.091  27.996  1.00  0.00    -0.237 OA
ATOM     56  O   UNL A   1      47.827  37.752  30.442  1.00  0.00    -0.237 OA
ATOM     57  O   UNL A   1      49.776  37.232  29.029  1.00  0.00    -0.744 OA
ENDBRANCH  53  54
ENDBRANCH  25  48
BRANCH  37  58
ATOM     58  C   UNL A   1      49.430  27.291  25.721  1.00  0.00    -0.014 A 
ATOM     59  C   UNL A   1      49.573  27.312  24.323  1.00  0.00     0.010 A 
ATOM     60  C   UNL A   1      50.552  27.054  26.533  1.00  0.00     0.010 A 
ATOM     61  C   UNL A   1      50.817  27.066  23.745  1.00  0.00     0.020 A 
ATOM     62  C   UNL A   1      51.803  26.834  25.959  1.00  0.00     0.020 A 
ATOM     63  C   UNL A   1      51.924  26.827  24.568  1.00  0.00     0.054 A 
BRANCH  63  64
ATOM     64  S   UNL A   1      53.541  26.553  23.798  1.00  0.00     0.124 S 
ATOM     65  O   UNL A   1      53.180  26.372  22.395  1.00  0.00    -0.237 OA
ATOM     66  O   UNL A   1      54.259  27.787  24.109  1.00  0.00    -0.237 OA
ATOM     67  O   UNL A   1      54.045  25.360  24.473  1.00  0.00    -0.744 OA
ENDBRANCH  63  64
ENDBRANCH  37  58
ENDBRANCH  11  12
ENDBRANCH   4   6
ENDBRANCH   3   4
ENDBRANCH   2   3
ENDBRANCH   1   2
BRANCH   1  68
ATOM     68  O   UNL A   1      35.563  32.480  29.592  1.00  0.00    -0.374 OA
BRANCH  68  69
ATOM     69  C   UNL A   1      35.242  31.388  28.718  1.00  0.00     0.202 C 
BRANCH  69  70
ATOM     70  C   UNL A   1      34.158  31.822  27.744  1.00  0.00     0.261 C 
BRANCH  70  71
ATOM     71  O   UNL A   1      33.514  30.636  27.255  1.00  0.00    -0.463 OA
BRANCH  71  72
ATOM     72  C   UNL A   1      32.274  30.800  26.732  1.00  0.00     0.309 C 
ATOM     73  O   UNL A   1      31.620  31.834  26.764  1.00  0.00    -0.252 OA
BRANCH  72  74
ATOM     74  C   UNL A   1      31.775  29.535  26.051  1.00  0.00     0.110 C 
ATOM     75  C   UNL A   1      31.627  28.321  26.984  1.00  0.00     0.077 C 
ATOM     76  C   UNL A   1      32.563  29.276  24.745  1.00  0.00     0.077 C 
ATOM     77  C   UNL A   1      32.792  27.345  26.901  1.00  0.00     0.263 C 
ATOM     78  C   UNL A   1      33.515  28.072  24.729  1.00  0.00     0.263 C 
ATOM     79  N   UNL A   1      33.097  26.932  25.531  1.00  0.00    -0.324 N 
ATOM     80  H   UNL A   1      33.914  26.321  25.565  1.00  0.00     0.348 HD
BRANCH  79  81
ATOM     81  C   UNL A   1      32.127  25.996  24.928  1.00  0.00     0.284 C 
ATOM     82  C   UNL A   1      32.102  25.853  23.415  1.00  0.00     0.176 C 
ATOM     83  C   UNL A   1      32.417  24.556  25.361  1.00  0.00     0.292 C 
ATOM     84  C   UNL A   1      32.986  24.678  23.154  1.00  0.00     0.240 C 
ATOM     85  N   UNL A   1      33.015  23.915  24.295  1.00  0.00    -0.245 N 
ATOM     86  O   UNL A   1      32.182  24.105  26.475  1.00  0.00    -0.267 OA
ATOM     87  O   UNL A   1      33.466  24.440  22.054  1.00  0.00    -0.274 OA
BRANCH  85  88
ATOM     88  C   UNL A   1      33.473  22.583  24.302  1.00  0.00     0.056 A 
ATOM     89  C   UNL A   1      34.823  22.315  24.558  1.00  0.00     0.031 A 
ATOM     90  C   UNL A   1      32.574  21.515  24.166  1.00  0.00     0.077 A 
ATOM     91  C   UNL A   1      35.253  21.002  24.759  1.00  0.00     0.052 A 
ATOM     92  C   UNL A   1      33.017  20.202  24.316  1.00  0.00     0.163 A 
ATOM     93  C   UNL A   1      34.353  19.948  24.632  1.00  0.00     0.161 A 
ATOM     94  O   UNL A   1      32.083  19.215  24.137  1.00  0.00    -0.486 OA
ATOM     95  O   UNL A   1      34.847  18.689  24.849  1.00  0.00    -0.486 OA
ATOM     96  C   UNL A   1      32.530  17.960  24.655  1.00  0.00     0.271 C 
ATOM     97  C   UNL A   1      33.984  17.693  24.294  1.00  0.00     0.271 C 
ENDBRANCH  85  88
ENDBRANCH  79  81
ENDBRANCH  72  74
ENDBRANCH  71  72
ENDBRANCH  70  71
ENDBRANCH  69  70
ENDBRANCH  68  69
ENDBRANCH   1  68
TORSDOF 19
ENDMDL
MODEL 2
REMARK VINA RESULT:     -11.2      6.387     11.801
REMARK SMILES O=C(OCCOCCOC(=O)C1CC[NH+]([C@H]2CC(=O)N(c3ccc4c(c3)OCCO4)C2=O)CC1)c1ccc(-c2c3nc(c(-c4ccc(S(=O)(=O)[O-])cc4)c4ccc([nH]4)c(-c4ccc(S(=O)(=O)[O-])cc4)c4nc(c(-c5ccc(S(=O)(=O)[O-])cc5)c5ccc2[nH]5)C=C4)C=C3)cc1
REMARK SMILES IDX 5 1 4 2 3 3 2 4 1 5 35 6 36 7 94 8 37 9 93 10 38 11 39 12
REMARK SMILES IDX 40 13 87 14 41 15 92 16 86 17 88 18 42 19 91 20 85 21 84 22
REMARK SMILES IDX 43 24 73 25 54 26 72 27 55 28 58 29 71 30 89 31 56 32 57 33
REMARK SMILES IDX 70 35 90 36 59 37 44 38 45 39 53 40 46 41 52 42 47 43 48 44
REMARK SMILES IDX 49 45 50 46 51 47 74 48 75 49 83 50 76 51 82 52 77 53 78 54
REMARK SMILES IDX 79 55 80 56 81 57 60 58 61 59 69 60 62 61 68 62 63 63 64 64
REMARK SMILES IDX 65 65 66 66 67 67 6 68 7 69 8 70 9 71 10 72 11 73 12 74
REMARK SMILES IDX 13 75 34 76 14 77 33 78 15 79 16 81 17 82 31 83 18 84 20 85
REMARK SMILES IDX 32 86 19 87 21 88 22 89 26 90 23 91 25 92 24 93 27 94 30 95
REMARK SMILES IDX 28 96 29 97
REMARK H PARENT 88 23 58 34 15 80
REMARK Flexibility Score: inf
ROOT
ATOM      1  C   UNL A   1      37.785  22.709  25.262  1.00  0.00     0.202 C 
ENDROOT
BRANCH   1   2
ATOM      2  C   UNL A   1      38.901  23.175  26.208  1.00  0.00     0.261 C 
BRANCH   2   3
ATOM      3  O   UNL A   1      38.607  24.493  26.738  1.00  0.00    -0.460 OA
BRANCH   3   4
ATOM      4  C   UNL A   1      39.495  25.499  26.978  1.00  0.00     0.338 C 
ATOM      5  O   UNL A   1      40.429  25.707  26.213  1.00  0.00    -0.246 OA
BRANCH   4   6
ATOM      6  C   UNL A   1      39.312  26.360  28.167  1.00  0.00     0.060 A 
ATOM      7  C   UNL A   1      39.650  27.700  28.110  1.00  0.00     0.016 A 
ATOM      8  C   UNL A   1      38.808  25.854  29.364  1.00  0.00     0.016 A 
ATOM      9  C   UNL A   1      39.794  28.454  29.241  1.00  0.00     0.010 A 
ATOM     10  C   UNL A   1      38.761  26.681  30.496  1.00  0.00     0.010 A 
ATOM     11  C   UNL A   1      39.313  27.972  30.446  1.00  0.00    -0.014 A 
BRANCH  11  12
ATOM     12  C   UNL A   1      39.527  28.842  31.619  1.00  0.00     0.031 A 
ATOM     13  C   UNL A   1      40.837  28.752  32.339  1.00  0.00     0.074 A 
ATOM     14  C   UNL A   1      38.643  29.829  31.875  1.00  0.00     0.049 A 
ATOM     15  N   UNL A   1      41.216  29.361  33.427  1.00  0.00    -0.248 NA
ATOM     16  C   UNL A   1      41.859  27.859  31.762  1.00  0.00     0.031 C 
ATOM     17  C   UNL A   1      37.418  30.095  31.103  1.00  0.00     0.029 A 
ATOM     18  N   UNL A   1      38.672  30.848  32.786  1.00  0.00    -0.354 N 
ATOM     19  C   UNL A   1      42.477  28.854  33.717  1.00  0.00     0.074 A 
ATOM     20  C   UNL A   1      42.817  27.916  32.674  1.00  0.00     0.031 C 
ATOM     21  C   UNL A   1      36.887  31.260  31.498  1.00  0.00     0.029 A 
ATOM     22  C   UNL A   1      37.634  31.742  32.647  1.00  0.00     0.049 A 
ATOM     23  H   UNL A   1      39.370  30.935  33.475  1.00  0.00     0.167 HD
ATOM     24  C   UNL A   1      43.255  29.137  34.785  1.00  0.00     0.031 A 
ATOM     25  C   UNL A   1      37.298  32.803  33.404  1.00  0.00     0.031 A 
ATOM     26  C   UNL A   1      42.880  30.107  35.776  1.00  0.00     0.049 A 
ATOM     27  C   UNL A   1      38.142  33.059  34.618  1.00  0.00     0.074 A 
ATOM     28  C   UNL A   1      43.515  30.436  36.958  1.00  0.00     0.029 A 
ATOM     29  N   UNL A   1      41.760  30.927  35.676  1.00  0.00    -0.354 N 
ATOM     30  N   UNL A   1      39.253  32.461  34.983  1.00  0.00    -0.248 NA
ATOM     31  C   UNL A   1      37.671  34.090  35.545  1.00  0.00     0.031 C 
ATOM     32  C   UNL A   1      42.756  31.428  37.590  1.00  0.00     0.029 A 
ATOM     33  C   UNL A   1      41.679  31.755  36.777  1.00  0.00     0.049 A 
ATOM     34  H   UNL A   1      41.120  30.917  34.929  1.00  0.00     0.167 HD
ATOM     35  C   UNL A   1      39.616  33.042  36.188  1.00  0.00     0.074 A 
ATOM     36  C   UNL A   1      38.621  34.061  36.470  1.00  0.00     0.031 C 
ATOM     37  C   UNL A   1      40.665  32.756  36.999  1.00  0.00     0.031 A 
BRANCH  24  38
ATOM     38  C   UNL A   1      44.487  28.297  34.973  1.00  0.00    -0.014 A 
ATOM     39  C   UNL A   1      45.754  28.705  34.517  1.00  0.00     0.010 A 
ATOM     40  C   UNL A   1      44.353  27.028  35.568  1.00  0.00     0.010 A 
ATOM     41  C   UNL A   1      46.849  27.839  34.605  1.00  0.00     0.020 A 
ATOM     42  C   UNL A   1      45.450  26.170  35.680  1.00  0.00     0.020 A 
ATOM     43  C   UNL A   1      46.687  26.572  35.175  1.00  0.00     0.054 A 
BRANCH  43  44
ATOM     44  S   UNL A   1      48.113  25.454  35.252  1.00  0.00     0.124 S 
ATOM     45  O   UNL A   1      48.039  24.966  36.628  1.00  0.00    -0.237 OA
ATOM     46  O   UNL A   1      47.806  24.467  34.220  1.00  0.00    -0.237 OA
ATOM     47  O   UNL A   1      49.252  26.322  34.961  1.00  0.00    -0.744 OA
ENDBRANCH  43  44
ENDBRANCH  24  38
BRANCH  25  48
ATOM     48  C   UNL A   1      36.077  33.604  33.099  1.00  0.00    -0.014 A 
ATOM     49  C   UNL A   1      34.793  33.121  33.411  1.00  0.00     0.010 A 
ATOM     50  C   UNL A   1      36.191  34.875  32.501  1.00  0.00     0.010 A 
ATOM     51  C   UNL A   1      33.655  33.884  33.121  1.00  0.00     0.020 A 
ATOM     52  C   UNL A   1      35.062  35.656  32.243  1.00  0.00     0.020 A 
ATOM     53  C   UNL A   1      33.797  35.149  32.540  1.00  0.00     0.054 A 
BRANCH  53  54
ATOM     54  S   UNL A   1      32.315  36.143  32.209  1.00  0.00     0.124 S 
ATOM     55  O   UNL A   1      32.369  36.291  30.757  1.00  0.00    -0.237 OA
ATOM     56  O   UNL A   1      31.242  35.296  32.720  1.00  0.00    -0.237 OA
ATOM     57  O   UNL A   1      32.548  37.368  32.971  1.00  0.00    -0.744 OA
ENDBRANCH  53  54
ENDBRANCH  25  48
BRANCH  37  58
ATOM     58  C   UNL A   1      40.795  33.593  38.235  1.00  0.00    -0.014 A 
ATOM     59  C   UNL A   1      40.349  33.120  39.482  1.00  0.00     0.010 A 
ATOM     60  C   UNL A   1      41.413  34.852  38.146  1.00  0.00     0.010 A 
ATOM     61  C   UNL A   1      40.492  33.912  40.619  1.00  0.00     0.020 A 
ATOM     62  C   UNL A   1      41.581  35.635  39.287  1.00  0.00     0.020 A 
ATOM     63  C   UNL A   1      41.105  35.166  40.513  1.00  0.00     0.054 A 
BRANCH  63  64
ATOM     64  S   UNL A   1      41.321  36.162  42.012  1.00  0.00     0.124 S 
ATOM     65  O   UNL A   1      42.180  37.241  41.535  1.00  0.00    -0.237 OA
ATOM     66  O   UNL A   1      39.950  36.546  42.343  1.00  0.00    -0.237 OA
ATOM     67  O   UNL A   1      41.945  35.235  42.953  1.00  0.00    -0.744 OA
ENDBRANCH  63  64
ENDBRANCH  37  58
ENDBRANCH  11  12
ENDBRANCH   4   6
ENDBRANCH   3   4
ENDBRANCH   2   3
ENDBRANCH   1   2
BRANCH   1  68
ATOM     68  O   UNL A   1      36.446  22.814  25.730  1.00  0.00    -0.374 OA
BRANCH  68  69
ATOM     69  C   UNL A   1      35.899  21.613  26.291  1.00  0.00     0.202 C 
BRANCH  69  70
ATOM     70  C   UNL A   1      34.587  21.284  25.597  1.00  0.00     0.261 C 
BRANCH  70  71
ATOM     71  O   UNL A   1      34.041  22.514  25.095  1.00  0.00    -0.463 OA
BRANCH  71  72
ATOM     72  C   UNL A   1      32.706  22.524  24.859  1.00  0.00     0.309 C 
ATOM     73  O   UNL A   1      32.020  21.541  24.610  1.00  0.00    -0.252 OA
BRANCH  72  74
ATOM     74  C   UNL A   1      32.122  23.923  24.971  1.00  0.00     0.110 C 
ATOM     75  C   UNL A   1      31.060  24.261  23.911  1.00  0.00     0.077 C 
ATOM     76  C   UNL A   1      33.249  24.969  25.139  1.00  0.00     0.077 C 
ATOM     77  C   UNL A   1      31.601  25.087  22.752  1.00  0.00     0.263 C 
ATOM     78  C   UNL A   1      33.498  25.924  23.963  1.00  0.00     0.263 C 
ATOM     79  N   UNL A   1      32.320  26.284  23.187  1.00  0.00    -0.324 N 
ATOM     80  H   UNL A   1      32.687  26.748  22.355  1.00  0.00     0.348 HD
BRANCH  79  81
ATOM     81  C   UNL A   1      31.470  27.372  23.710  1.00  0.00     0.284 C 
ATOM     82  C   UNL A   1      30.590  27.089  24.917  1.00  0.00     0.176 C 
ATOM     83  C   UNL A   1      32.325  28.532  24.226  1.00  0.00     0.292 C 
ATOM     84  C   UNL A   1      31.417  27.547  26.074  1.00  0.00     0.240 C 
ATOM     85  N   UNL A   1      32.316  28.472  25.606  1.00  0.00    -0.245 N 
ATOM     86  O   UNL A   1      32.926  29.325  23.511  1.00  0.00    -0.267 OA
ATOM     87  O   UNL A   1      31.191  27.204  27.227  1.00  0.00    -0.274 OA
BRANCH  85  88
ATOM     88  C   UNL A   1      33.018  29.344  26.461  1.00  0.00     0.056 A 
ATOM     89  C   UNL A   1      34.262  28.959  26.974  1.00  0.00     0.031 A 
ATOM     90  C   UNL A   1      32.540  30.637  26.716  1.00  0.00     0.077 A 
ATOM     91  C   UNL A   1      35.055  29.880  27.661  1.00  0.00     0.052 A 
ATOM     92  C   UNL A   1      33.311  31.539  27.447  1.00  0.00     0.163 A 
ATOM     93  C   UNL A   1      34.578  31.165  27.903  1.00  0.00     0.161 A 
ATOM     94  O   UNL A   1      32.759  32.771  27.680  1.00  0.00    -0.486 OA
ATOM     95  O   UNL A   1      35.414  32.014  28.579  1.00  0.00    -0.486 OA
ATOM     96  C   UNL A   1      33.740  33.721  28.107  1.00  0.00     0.271 C 
ATOM     97  C   UNL A   1      34.692  33.119  29.129  1.00  0.00     0.271 C 
ENDBRANCH  85  88
ENDBRANCH  79  81
ENDBRANCH  72  74
ENDBRANCH  71  72
ENDBRANCH  70  71
ENDBRANCH  69  70
ENDBRANCH  68  69
ENDBRANCH   1  68
TORSDOF 19
ENDMDL
MODEL 3
REMARK VINA RESULT:     -11.0      4.587     12.169
REMARK SMILES O=C(OCCOCCOC(=O)C1CC[NH+]([C@H]2CC(=O)N(c3ccc4c(c3)OCCO4)C2=O)CC1)c1ccc(-c2c3nc(c(-c4ccc(S(=O)(=O)[O-])cc4)c4ccc([nH]4)c(-c4ccc(S(=O)(=O)[O-])cc4)c4nc(c(-c5ccc(S(=O)(=O)[O-])cc5)c5ccc2[nH]5)C=C4)C=C3)cc1
REMARK SMILES IDX 5 1 4 2 3 3 2 4 1 5 35 6 36 7 94 8 37 9 93 10 38 11 39 12
REMARK SMILES IDX 40 13 87 14 41 15 92 16 86 17 88 18 42 19 91 20 85 21 84 22
REMARK SMILES IDX 43 24 73 25 54 26 72 27 55 28 58 29 71 30 89 31 56 32 57 33
REMARK SMILES IDX 70 35 90 36 59 37 44 38 45 39 53 40 46 41 52 42 47 43 48 44
REMARK SMILES IDX 49 45 50 46 51 47 74 48 75 49 83 50 76 51 82 52 77 53 78 54
REMARK SMILES IDX 79 55 80 56 81 57 60 58 61 59 69 60 62 61 68 62 63 63 64 64
REMARK SMILES IDX 65 65 66 66 67 67 6 68 7 69 8 70 9 71 10 72 11 73 12 74
REMARK SMILES IDX 13 75 34 76 14 77 33 78 15 79 16 81 17 82 31 83 18 84 20 85
REMARK SMILES IDX 32 86 19 87 21 88 22 89 26 90 23 91 25 92 24 93 27 94 30 95
REMARK SMILES IDX 28 96 29 97
REMARK H PARENT 88 23 58 34 15 80
REMARK Flexibility Score: inf
ROOT
ATOM      1  C   UNL A   1      38.315  19.604  25.457  1.00  0.00     0.202 C 
ENDROOT
BRANCH   1   2
ATOM      2  C   UNL A   1      37.928  20.951  24.831  1.00  0.00     0.261 C 
BRANCH   2   3
ATOM      3  O   UNL A   1      38.570  22.047  25.532  1.00  0.00    -0.460 OA
BRANCH   3   4
ATOM      4  C   UNL A   1      38.085  23.308  25.705  1.00  0.00     0.338 C 
ATOM      5  O   UNL A   1      37.029  23.651  25.186  1.00  0.00    -0.246 OA
BRANCH   4   6
ATOM      6  C   UNL A   1      38.836  24.266  26.547  1.00  0.00     0.060 A 
ATOM      7  C   UNL A   1      38.668  24.262  27.919  1.00  0.00     0.016 A 
ATOM      8  C   UNL A   1      39.717  25.192  25.990  1.00  0.00     0.016 A 
ATOM      9  C   UNL A   1      39.086  25.304  28.699  1.00  0.00     0.010 A 
ATOM     10  C   UNL A   1      40.318  26.154  26.816  1.00  0.00     0.010 A 
ATOM     11  C   UNL A   1      39.953  26.244  28.169  1.00  0.00    -0.014 A 
BRANCH  11  12
ATOM     12  C   UNL A   1      40.338  27.346  29.073  1.00  0.00     0.031 A 
ATOM     13  C   UNL A   1      41.737  27.369  29.606  1.00  0.00     0.074 A 
ATOM     14  C   UNL A   1      39.505  28.399  29.217  1.00  0.00     0.049 A 
ATOM     15  N   UNL A   1      42.272  28.191  30.465  1.00  0.00    -0.248 NA
ATOM     16  C   UNL A   1      42.660  26.330  29.113  1.00  0.00     0.031 C 
ATOM     17  C   UNL A   1      38.184  28.532  28.580  1.00  0.00     0.029 A 
ATOM     18  N   UNL A   1      39.671  29.594  29.859  1.00  0.00    -0.354 N 
ATOM     19  C   UNL A   1      43.557  27.715  30.686  1.00  0.00     0.074 A 
ATOM     20  C   UNL A   1      43.739  26.554  29.847  1.00  0.00     0.031 C 
ATOM     21  C   UNL A   1      37.723  29.775  28.769  1.00  0.00     0.029 A 
ATOM     22  C   UNL A   1      38.629  30.473  29.665  1.00  0.00     0.049 A 
ATOM     23  H   UNL A   1      40.461  29.806  30.407  1.00  0.00     0.167 HD
ATOM     24  C   UNL A   1      44.482  28.200  31.544  1.00  0.00     0.031 A 
ATOM     25  C   UNL A   1      38.411  31.689  30.199  1.00  0.00     0.031 A 
ATOM     26  C   UNL A   1      44.258  29.381  32.330  1.00  0.00     0.049 A 
ATOM     27  C   UNL A   1      39.422  32.178  31.195  1.00  0.00     0.074 A 
ATOM     28  C   UNL A   1      45.058  29.942  33.307  1.00  0.00     0.029 A 
ATOM     29  N   UNL A   1      43.141  30.200  32.202  1.00  0.00    -0.354 N 
ATOM     30  N   UNL A   1      40.570  31.635  31.530  1.00  0.00    -0.248 NA
ATOM     31  C   UNL A   1      39.095  33.409  31.919  1.00  0.00     0.031 C 
ATOM     32  C   UNL A   1      44.404  31.079  33.795  1.00  0.00     0.029 A 
ATOM     33  C   UNL A   1      43.223  31.257  33.086  1.00  0.00     0.049 A 
ATOM     34  H   UNL A   1      42.400  30.047  31.572  1.00  0.00     0.167 HD
ATOM     35  C   UNL A   1      41.106  32.457  32.509  1.00  0.00     0.074 A 
ATOM     36  C   UNL A   1      40.167  33.551  32.686  1.00  0.00     0.031 C 
ATOM     37  C   UNL A   1      42.258  32.320  33.212  1.00  0.00     0.031 A 
BRANCH  24  38
ATOM     38  C   UNL A   1      45.723  27.377  31.746  1.00  0.00    -0.014 A 
ATOM     39  C   UNL A   1      45.782  26.318  32.671  1.00  0.00     0.010 A 
ATOM     40  C   UNL A   1      46.886  27.722  31.031  1.00  0.00     0.010 A 
ATOM     41  C   UNL A   1      46.992  25.659  32.915  1.00  0.00     0.020 A 
ATOM     42  C   UNL A   1      48.090  27.050  31.253  1.00  0.00     0.020 A 
ATOM     43  C   UNL A   1      48.141  26.038  32.213  1.00  0.00     0.054 A 
BRANCH  43  44
ATOM     44  S   UNL A   1      49.706  25.190  32.564  1.00  0.00     0.124 S 
ATOM     45  O   UNL A   1      50.521  26.275  33.104  1.00  0.00    -0.237 OA
ATOM     46  O   UNL A   1      49.308  24.166  33.527  1.00  0.00    -0.237 OA
ATOM     47  O   UNL A   1      50.127  24.684  31.260  1.00  0.00    -0.744 OA
ENDBRANCH  43  44
ENDBRANCH  24  38
BRANCH  25  48
ATOM     48  C   UNL A   1      37.164  32.447  29.891  1.00  0.00    -0.014 A 
ATOM     49  C   UNL A   1      35.968  32.194  30.585  1.00  0.00     0.010 A 
ATOM     50  C   UNL A   1      37.168  33.450  28.900  1.00  0.00     0.010 A 
ATOM     51  C   UNL A   1      34.805  32.915  30.287  1.00  0.00     0.020 A 
ATOM     52  C   UNL A   1      36.020  34.197  28.624  1.00  0.00     0.020 A 
ATOM     53  C   UNL A   1      34.839  33.914  29.309  1.00  0.00     0.054 A 
BRANCH  53  54
ATOM     54  S   UNL A   1      33.334  34.868  28.963  1.00  0.00     0.124 S 
ATOM     55  O   UNL A   1      32.738  34.984  30.291  1.00  0.00    -0.237 OA
ATOM     56  O   UNL A   1      33.864  36.105  28.398  1.00  0.00    -0.237 OA
ATOM     57  O   UNL A   1      32.604  34.024  28.021  1.00  0.00    -0.744 OA
ENDBRANCH  53  54
ENDBRANCH  25  48
BRANCH  37  58
ATOM     58  C   UNL A   1      42.568  33.408  34.195  1.00  0.00    -0.014 A 
ATOM     59  C   UNL A   1      42.120  33.332  35.525  1.00  0.00     0.010 A 
ATOM     60  C   UNL A   1      43.357  34.496  33.784  1.00  0.00     0.010 A 
ATOM     61  C   UNL A   1      42.432  34.350  36.424  1.00  0.00     0.020 A 
ATOM     62  C   UNL A   1      43.692  35.502  34.688  1.00  0.00     0.020 A 
ATOM     63  C   UNL A   1      43.215  35.430  35.998  1.00  0.00     0.054 A 
BRANCH  63  64
ATOM     64  S   UNL A   1      43.646  36.721  37.194  1.00  0.00     0.124 S 
ATOM     65  O   UNL A   1      42.494  36.698  38.090  1.00  0.00    -0.237 OA
ATOM     66  O   UNL A   1      44.897  36.227  37.765  1.00  0.00    -0.237 OA
ATOM     67  O   UNL A   1      43.775  37.921  36.372  1.00  0.00    -0.744 OA
ENDBRANCH  63  64
ENDBRANCH  37  58
ENDBRANCH  11  12
ENDBRANCH   4   6
ENDBRANCH   3   4
ENDBRANCH   2   3
ENDBRANCH   1   2
BRANCH   1  68
ATOM     68  O   UNL A   1      39.682  19.218  25.381  1.00  0.00    -0.374 OA
BRANCH  68  69
ATOM     69  C   UNL A   1      40.532  19.777  26.392  1.00  0.00     0.202 C 
BRANCH  69  70
ATOM     70  C   UNL A   1      41.971  19.364  26.126  1.00  0.00     0.261 C 
BRANCH  70  71
ATOM     71  O   UNL A   1      42.791  20.534  26.269  1.00  0.00    -0.463 OA
BRANCH  71  72
ATOM     72  C   UNL A   1      43.944  20.548  25.555  1.00  0.00     0.309 C 
ATOM     73  O   UNL A   1      44.647  19.573  25.322  1.00  0.00    -0.252 OA
BRANCH  72  74
ATOM     74  C   UNL A   1      44.269  21.937  25.029  1.00  0.00     0.110 C 
ATOM     75  C   UNL A   1      45.619  22.502  25.503  1.00  0.00     0.077 C 
ATOM     76  C   UNL A   1      43.055  22.881  25.207  1.00  0.00     0.077 C 
ATOM     77  C   UNL A   1      45.495  23.480  26.663  1.00  0.00     0.263 C 
ATOM     78  C   UNL A   1      43.188  24.004  26.244  1.00  0.00     0.263 C 
ATOM     79  N   UNL A   1      44.528  24.549  26.411  1.00  0.00    -0.324 N 
ATOM     80  H   UNL A   1      44.474  25.126  27.251  1.00  0.00     0.348 HD
BRANCH  79  81
ATOM     81  C   UNL A   1      44.967  25.577  25.446  1.00  0.00     0.284 C 
ATOM     82  C   UNL A   1      43.911  26.308  24.633  1.00  0.00     0.176 C 
ATOM     83  C   UNL A   1      45.651  26.742  26.166  1.00  0.00     0.292 C 
ATOM     84  C   UNL A   1      43.649  27.548  25.423  1.00  0.00     0.240 C 
ATOM     85  N   UNL A   1      44.758  27.795  26.194  1.00  0.00    -0.245 N 
ATOM     86  O   UNL A   1      46.775  26.696  26.651  1.00  0.00    -0.267 OA
ATOM     87  O   UNL A   1      42.650  28.236  25.265  1.00  0.00    -0.274 OA
BRANCH  85  88
ATOM     88  C   UNL A   1      44.992  29.043  26.804  1.00  0.00     0.056 A 
ATOM     89  C   UNL A   1      46.021  29.865  26.329  1.00  0.00     0.031 A 
ATOM     90  C   UNL A   1      44.136  29.522  27.806  1.00  0.00     0.077 A 
ATOM     91  C   UNL A   1      46.141  31.177  26.790  1.00  0.00     0.052 A 
ATOM     92  C   UNL A   1      44.292  30.815  28.302  1.00  0.00     0.163 A 
ATOM     93  C   UNL A   1      45.284  31.649  27.779  1.00  0.00     0.161 A 
ATOM     94  O   UNL A   1      43.437  31.196  29.303  1.00  0.00    -0.486 OA
ATOM     95  O   UNL A   1      45.460  32.948  28.177  1.00  0.00    -0.486 OA
ATOM     96  C   UNL A   1      43.432  32.614  29.487  1.00  0.00     0.271 C 
ATOM     97  C   UNL A   1      44.841  33.188  29.444  1.00  0.00     0.271 C 
ENDBRANCH  85  88
ENDBRANCH  79  81
ENDBRANCH  72  74
ENDBRANCH  71  72
ENDBRANCH  70  71
ENDBRANCH  69  70
ENDBRANCH  68  69
ENDBRANCH   1  68
TORSDOF 19
ENDMDL
