MODEL 1
REMARK VINA RESULT:     -10.5      0.000      0.000
REMARK SMILES Cc1nonc1C[C@@H](C(=O)OCCOCCOC(=O)c1ccc(-c2c3nc(c(-c4ccc(S(=O)(=O)[O-])cc4)c4ccc([nH]4)c(-c4ccc(S(=O)(=O)[O-])cc4)c4nc(c(-c5ccc(S(=O)(=O)[O-])cc5)c5ccc2[nH]5)C=C4)C=C3)cc1)c1ccccc1Br
REMARK SMILES IDX 15 1 14 2 13 3 12 4 11 5 9 6 10 7 8 8 7 9 6 10 1 11 2 12
REMARK SMILES IDX 3 13 4 14 5 15 80 16 81 17 85 18 82 19 84 20 86 21 83 22
REMARK SMILES IDX 16 23 17 24 18 25 19 26 20 27 21 28 79 29 22 30 78 31 23 32
REMARK SMILES IDX 24 33 25 34 72 35 26 36 77 37 71 38 73 39 27 40 76 41 70 42
REMARK SMILES IDX 69 43 28 45 58 46 39 47 57 48 40 49 43 50 56 51 74 52 41 53
REMARK SMILES IDX 42 54 55 56 75 57 44 58 29 59 30 60 38 61 31 62 37 63 32 64
REMARK SMILES IDX 33 65 34 66 35 67 36 68 59 69 60 70 68 71 61 72 67 73 62 74
REMARK SMILES IDX 63 75 64 76 65 77 66 78 45 79 46 80 54 81 47 82 53 83 48 84
REMARK SMILES IDX 49 85 50 86 51 87 52 88
REMARK H PARENT 73 44 43 55
REMARK Flexibility Score: inf
ROOT
ATOM      1  C   UNL A   1      36.058  20.955  25.510  1.00  0.00     0.202 C 
ENDROOT
BRANCH   1   2
ATOM      2  O   UNL A   1      35.273  22.113  25.797  1.00  0.00    -0.374 OA
BRANCH   2   3
ATOM      3  C   UNL A   1      34.294  21.973  26.832  1.00  0.00     0.202 C 
BRANCH   3   4
ATOM      4  C   UNL A   1      33.241  23.085  26.995  1.00  0.00     0.261 C 
BRANCH   4   5
ATOM      5  O   UNL A   1      33.467  24.241  26.160  1.00  0.00    -0.463 OA
BRANCH   5   6
ATOM      6  C   UNL A   1      32.426  25.102  26.095  1.00  0.00     0.313 C 
ATOM      7  O   UNL A   1      31.497  25.061  26.893  1.00  0.00    -0.252 OA
BRANCH   6   8
ATOM      8  C   UNL A   1      32.554  26.133  24.945  1.00  0.00     0.136 C 
BRANCH   8   9
ATOM      9  C   UNL A   1      33.769  25.835  24.008  1.00  0.00     0.082 C 
BRANCH   9  10
ATOM     10  C   UNL A   1      33.648  25.299  22.618  1.00  0.00     0.109 A 
ATOM     11  C   UNL A   1      33.254  22.720  22.991  1.00  0.00     0.073 C 
ATOM     12  C   UNL A   1      33.388  23.967  22.207  1.00  0.00     0.105 A 
ATOM     13  N   UNL A   1      33.168  23.939  20.890  1.00  0.00    -0.055 NA
ATOM     14  O   UNL A   1      33.251  25.262  20.484  1.00  0.00    -0.244 OA
ATOM     15  N   UNL A   1      33.478  26.100  21.566  1.00  0.00    -0.055 NA
ENDBRANCH   9  10
ENDBRANCH   8   9
BRANCH   8  16
ATOM     16  C   UNL A   1      32.709  27.580  25.558  1.00  0.00    -0.019 A 
ATOM     17  C   UNL A   1      33.635  27.839  26.596  1.00  0.00     0.006 A 
ATOM     18  C   UNL A   1      31.867  28.660  25.211  1.00  0.00     0.022 A 
ATOM     19  C   UNL A   1      33.583  29.002  27.371  1.00  0.00     0.000 A 
ATOM     20  C   UNL A   1      31.745  29.778  26.051  1.00  0.00     0.016 A 
ATOM     21  Br  UNL A   1      30.940  28.771  23.547  1.00  0.00    -0.051 Br
ATOM     22  C   UNL A   1      32.587  29.936  27.147  1.00  0.00     0.001 A 
ENDBRANCH   8  16
ENDBRANCH   6   8
ENDBRANCH   5   6
ENDBRANCH   4   5
ENDBRANCH   3   4
ENDBRANCH   2   3
ENDBRANCH   1   2
BRANCH   1  23
ATOM     23  C   UNL A   1      37.530  21.191  25.170  1.00  0.00     0.261 C 
BRANCH  23  24
ATOM     24  O   UNL A   1      38.040  22.339  25.867  1.00  0.00    -0.460 OA
BRANCH  24  25
ATOM     25  C   UNL A   1      39.327  22.207  26.276  1.00  0.00     0.338 C 
ATOM     26  O   UNL A   1      40.094  21.308  25.994  1.00  0.00    -0.246 OA
BRANCH  25  27
ATOM     27  C   UNL A   1      39.761  23.437  26.973  1.00  0.00     0.060 A 
ATOM     28  C   UNL A   1      39.106  24.624  26.622  1.00  0.00     0.016 A 
ATOM     29  C   UNL A   1      40.789  23.449  27.918  1.00  0.00     0.016 A 
ATOM     30  C   UNL A   1      39.522  25.839  27.158  1.00  0.00     0.010 A 
ATOM     31  C   UNL A   1      41.212  24.673  28.451  1.00  0.00     0.010 A 
ATOM     32  C   UNL A   1      40.610  25.876  28.038  1.00  0.00    -0.014 A 
BRANCH  32  33
ATOM     33  C   UNL A   1      41.218  27.185  28.380  1.00  0.00     0.031 A 
ATOM     34  C   UNL A   1      42.700  27.369  28.184  1.00  0.00     0.074 A 
ATOM     35  C   UNL A   1      40.460  28.214  28.803  1.00  0.00     0.049 A 
ATOM     36  N   UNL A   1      43.444  28.419  28.418  1.00  0.00    -0.248 NA
ATOM     37  C   UNL A   1      43.442  26.214  27.651  1.00  0.00     0.031 C 
ATOM     38  C   UNL A   1      39.009  28.178  28.981  1.00  0.00     0.029 A 
ATOM     39  N   UNL A   1      40.812  29.492  29.157  1.00  0.00    -0.354 N 
ATOM     40  C   UNL A   1      44.739  28.049  28.075  1.00  0.00     0.074 A 
ATOM     41  C   UNL A   1      44.686  26.669  27.646  1.00  0.00     0.031 C 
ATOM     42  C   UNL A   1      38.595  29.382  29.413  1.00  0.00     0.029 A 
ATOM     43  C   UNL A   1      39.752  30.259  29.579  1.00  0.00     0.049 A 
ATOM     44  H   UNL A   1      41.736  29.829  29.112  1.00  0.00     0.167 HD
ATOM     45  C   UNL A   1      45.871  28.793  28.107  1.00  0.00     0.031 A 
ATOM     46  C   UNL A   1      39.722  31.517  30.065  1.00  0.00     0.031 A 
ATOM     47  C   UNL A   1      45.921  30.163  28.543  1.00  0.00     0.049 A 
ATOM     48  C   UNL A   1      41.007  32.298  30.170  1.00  0.00     0.074 A 
ATOM     49  C   UNL A   1      47.016  31.008  28.597  1.00  0.00     0.029 A 
ATOM     50  N   UNL A   1      44.835  30.887  29.010  1.00  0.00    -0.354 N 
ATOM     51  N   UNL A   1      42.221  31.943  29.818  1.00  0.00    -0.248 NA
ATOM     52  C   UNL A   1      40.917  33.652  30.733  1.00  0.00     0.031 C 
ATOM     53  C   UNL A   1      46.606  32.219  29.162  1.00  0.00     0.029 A 
ATOM     54  C   UNL A   1      45.240  32.157  29.388  1.00  0.00     0.049 A 
ATOM     55  H   UNL A   1      43.912  30.549  29.065  1.00  0.00     0.167 HD
ATOM     56  C   UNL A   1      43.032  33.041  30.091  1.00  0.00     0.074 A 
ATOM     57  C   UNL A   1      42.169  34.076  30.619  1.00  0.00     0.031 C 
ATOM     58  C   UNL A   1      44.371  33.179  29.918  1.00  0.00     0.031 A 
BRANCH  45  59
ATOM     59  C   UNL A   1      47.158  28.125  27.696  1.00  0.00    -0.014 A 
ATOM     60  C   UNL A   1      47.974  27.463  28.632  1.00  0.00     0.010 A 
ATOM     61  C   UNL A   1      47.537  28.127  26.341  1.00  0.00     0.010 A 
ATOM     62  C   UNL A   1      49.162  26.849  28.226  1.00  0.00     0.020 A 
ATOM     63  C   UNL A   1      48.709  27.488  25.926  1.00  0.00     0.020 A 
ATOM     64  C   UNL A   1      49.522  26.865  26.874  1.00  0.00     0.054 A 
BRANCH  64  65
ATOM     65  S   UNL A   1      51.056  26.038  26.372  1.00  0.00     0.124 S 
ATOM     66  O   UNL A   1      50.933  26.031  24.916  1.00  0.00    -0.237 OA
ATOM     67  O   UNL A   1      52.086  26.924  26.910  1.00  0.00    -0.237 OA
ATOM     68  O   UNL A   1      50.971  24.727  27.010  1.00  0.00    -0.744 OA
ENDBRANCH  64  65
ENDBRANCH  45  59
BRANCH  46  69
ATOM     69  C   UNL A   1      38.432  32.110  30.514  1.00  0.00    -0.014 A 
ATOM     70  C   UNL A   1      37.564  32.730  29.600  1.00  0.00     0.010 A 
ATOM     71  C   UNL A   1      38.067  32.061  31.873  1.00  0.00     0.010 A 
ATOM     72  C   UNL A   1      36.365  33.304  30.035  1.00  0.00     0.020 A 
ATOM     73  C   UNL A   1      36.855  32.604  32.308  1.00  0.00     0.020 A 
ATOM     74  C   UNL A   1      36.016  33.233  31.388  1.00  0.00     0.054 A 
BRANCH  74  75
ATOM     75  S   UNL A   1      34.432  33.938  31.920  1.00  0.00     0.124 S 
ATOM     76  O   UNL A   1      34.861  35.031  32.788  1.00  0.00    -0.237 OA
ATOM     77  O   UNL A   1      33.824  34.337  30.653  1.00  0.00    -0.237 OA
ATOM     78  O   UNL A   1      33.771  32.824  32.597  1.00  0.00    -0.744 OA
ENDBRANCH  74  75
ENDBRANCH  46  69
BRANCH  58  79
ATOM     79  C   UNL A   1      44.987  34.509  30.271  1.00  0.00    -0.014 A 
ATOM     80  C   UNL A   1      45.058  35.556  29.333  1.00  0.00     0.010 A 
ATOM     81  C   UNL A   1      45.449  34.734  31.581  1.00  0.00     0.010 A 
ATOM     82  C   UNL A   1      45.610  36.789  29.691  1.00  0.00     0.020 A 
ATOM     83  C   UNL A   1      45.971  35.976  31.951  1.00  0.00     0.020 A 
ATOM     84  C   UNL A   1      46.063  36.993  30.999  1.00  0.00     0.054 A 
BRANCH  84  85
ATOM     85  S   UNL A   1      46.734  38.617  31.448  1.00  0.00     0.124 S 
ATOM     86  O   UNL A   1      46.016  39.504  30.538  1.00  0.00    -0.237 OA
ATOM     87  O   UNL A   1      46.371  38.735  32.858  1.00  0.00    -0.237 OA
ATOM     88  O   UNL A   1      48.166  38.485  31.187  1.00  0.00    -0.744 OA
ENDBRANCH  84  85
ENDBRANCH  58  79
ENDBRANCH  32  33
ENDBRANCH  25  27
ENDBRANCH  24  25
ENDBRANCH  23  24
ENDBRANCH   1  23
TORSDOF 20
ENDMDL
MODEL 2
REMARK VINA RESULT:     -10.2      4.815      7.517
REMARK SMILES Cc1nonc1C[C@@H](C(=O)OCCOCCOC(=O)c1ccc(-c2c3nc(c(-c4ccc(S(=O)(=O)[O-])cc4)c4ccc([nH]4)c(-c4ccc(S(=O)(=O)[O-])cc4)c4nc(c(-c5ccc(S(=O)(=O)[O-])cc5)c5ccc2[nH]5)C=C4)C=C3)cc1)c1ccccc1Br
REMARK SMILES IDX 15 1 14 2 13 3 12 4 11 5 9 6 10 7 8 8 7 9 6 10 1 11 2 12
REMARK SMILES IDX 3 13 4 14 5 15 80 16 81 17 85 18 82 19 84 20 86 21 83 22
REMARK SMILES IDX 16 23 17 24 18 25 19 26 20 27 21 28 79 29 22 30 78 31 23 32
REMARK SMILES IDX 24 33 25 34 72 35 26 36 77 37 71 38 73 39 27 40 76 41 70 42
REMARK SMILES IDX 69 43 28 45 58 46 39 47 57 48 40 49 43 50 56 51 74 52 41 53
REMARK SMILES IDX 42 54 55 56 75 57 44 58 29 59 30 60 38 61 31 62 37 63 32 64
REMARK SMILES IDX 33 65 34 66 35 67 36 68 59 69 60 70 68 71 61 72 67 73 62 74
REMARK SMILES IDX 63 75 64 76 65 77 66 78 45 79 46 80 54 81 47 82 53 83 48 84
REMARK SMILES IDX 49 85 50 86 51 87 52 88
REMARK H PARENT 73 44 43 55
REMARK Flexibility Score: inf
ROOT
ATOM      1  C   UNL A   1      31.934  29.740  25.530  1.00  0.00     0.202 C 
ENDROOT
BRANCH   1   2
ATOM      2  O   UNL A   1      32.961  29.280  24.651  1.00  0.00    -0.374 OA
BRANCH   2   3
ATOM      3  C   UNL A   1      33.108  27.861  24.538  1.00  0.00     0.202 C 
BRANCH   3   4
ATOM      4  C   UNL A   1      33.428  27.057  25.813  1.00  0.00     0.261 C 
BRANCH   4   5
ATOM      5  O   UNL A   1      34.296  25.925  25.595  1.00  0.00    -0.463 OA
BRANCH   5   6
ATOM      6  C   UNL A   1      33.754  24.729  25.920  1.00  0.00     0.313 C 
ATOM      7  O   UNL A   1      32.665  24.636  26.473  1.00  0.00    -0.252 OA
BRANCH   6   8
ATOM      8  C   UNL A   1      34.632  23.522  25.498  1.00  0.00     0.136 C 
BRANCH   8   9
ATOM      9  C   UNL A   1      36.095  23.944  25.142  1.00  0.00     0.082 C 
BRANCH   9  10
ATOM     10  C   UNL A   1      37.316  23.361  25.777  1.00  0.00     0.109 A 
ATOM     11  C   UNL A   1      37.396  20.910  24.811  1.00  0.00     0.073 C 
ATOM     12  C   UNL A   1      37.877  22.072  25.590  1.00  0.00     0.105 A 
ATOM     13  N   UNL A   1      39.068  22.011  26.189  1.00  0.00    -0.055 NA
ATOM     14  O   UNL A   1      39.272  23.277  26.718  1.00  0.00    -0.244 OA
ATOM     15  N   UNL A   1      38.218  24.121  26.399  1.00  0.00    -0.055 NA
ENDBRANCH   9  10
ENDBRANCH   8   9
BRANCH   8  16
ATOM     16  C   UNL A   1      33.975  22.812  24.250  1.00  0.00    -0.019 A 
ATOM     17  C   UNL A   1      33.963  23.431  22.977  1.00  0.00     0.006 A 
ATOM     18  C   UNL A   1      33.261  21.597  24.341  1.00  0.00     0.022 A 
ATOM     19  C   UNL A   1      33.132  22.994  21.942  1.00  0.00     0.000 A 
ATOM     20  C   UNL A   1      32.350  21.218  23.342  1.00  0.00     0.016 A 
ATOM     21  Br  UNL A   1      33.551  20.314  25.724  1.00  0.00    -0.051 Br
ATOM     22  C   UNL A   1      32.268  21.933  22.152  1.00  0.00     0.001 A 
ENDBRANCH   8  16
ENDBRANCH   6   8
ENDBRANCH   5   6
ENDBRANCH   4   5
ENDBRANCH   3   4
ENDBRANCH   2   3
ENDBRANCH   1   2
BRANCH   1  23
ATOM     23  C   UNL A   1      32.390  30.455  26.802  1.00  0.00     0.261 C 
BRANCH  23  24
ATOM     24  O   UNL A   1      33.818  30.598  26.827  1.00  0.00    -0.460 OA
BRANCH  24  25
ATOM     25  C   UNL A   1      34.271  31.434  27.795  1.00  0.00     0.338 C 
ATOM     26  O   UNL A   1      33.645  32.317  28.348  1.00  0.00    -0.246 OA
BRANCH  25  27
ATOM     27  C   UNL A   1      35.608  30.997  28.251  1.00  0.00     0.060 A 
ATOM     28  C   UNL A   1      35.676  29.767  28.918  1.00  0.00     0.016 A 
ATOM     29  C   UNL A   1      36.759  31.766  28.067  1.00  0.00     0.016 A 
ATOM     30  C   UNL A   1      36.878  29.332  29.465  1.00  0.00     0.010 A 
ATOM     31  C   UNL A   1      37.967  31.331  28.626  1.00  0.00     0.010 A 
ATOM     32  C   UNL A   1      38.021  30.135  29.366  1.00  0.00    -0.014 A 
BRANCH  32  33
ATOM     33  C   UNL A   1      39.212  29.801  30.184  1.00  0.00     0.031 A 
ATOM     34  C   UNL A   1      40.124  28.696  29.719  1.00  0.00     0.074 A 
ATOM     35  C   UNL A   1      39.513  30.504  31.292  1.00  0.00     0.049 A 
ATOM     36  N   UNL A   1      41.215  28.233  30.273  1.00  0.00    -0.248 NA
ATOM     37  C   UNL A   1      39.758  28.026  28.460  1.00  0.00     0.031 C 
ATOM     38  C   UNL A   1      38.739  31.629  31.815  1.00  0.00     0.029 A 
ATOM     39  N   UNL A   1      40.555  30.371  32.174  1.00  0.00    -0.354 N 
ATOM     40  C   UNL A   1      41.657  27.211  29.440  1.00  0.00     0.074 A 
ATOM     41  C   UNL A   1      40.701  27.101  28.360  1.00  0.00     0.031 C 
ATOM     42  C   UNL A   1      39.336  32.084  32.931  1.00  0.00     0.029 A 
ATOM     43  C   UNL A   1      40.508  31.260  33.221  1.00  0.00     0.049 A 
ATOM     44  H   UNL A   1      41.271  29.703  32.067  1.00  0.00     0.167 HD
ATOM     45  C   UNL A   1      42.762  26.437  29.559  1.00  0.00     0.031 A 
ATOM     46  C   UNL A   1      41.305  31.381  34.303  1.00  0.00     0.031 A 
ATOM     47  C   UNL A   1      43.706  26.543  30.640  1.00  0.00     0.049 A 
ATOM     48  C   UNL A   1      42.483  30.453  34.457  1.00  0.00     0.074 A 
ATOM     49  C   UNL A   1      44.866  25.816  30.842  1.00  0.00     0.029 A 
ATOM     50  N   UNL A   1      43.594  27.422  31.707  1.00  0.00    -0.354 N 
ATOM     51  N   UNL A   1      42.903  29.508  33.648  1.00  0.00    -0.248 NA
ATOM     52  C   UNL A   1      43.299  30.613  35.668  1.00  0.00     0.031 C 
ATOM     53  C   UNL A   1      45.419  26.207  32.065  1.00  0.00     0.029 A 
ATOM     54  C   UNL A   1      44.646  27.231  32.589  1.00  0.00     0.049 A 
ATOM     55  H   UNL A   1      42.874  28.084  31.821  1.00  0.00     0.167 HD
ATOM     56  C   UNL A   1      44.047  28.982  34.240  1.00  0.00     0.074 A 
ATOM     57  C   UNL A   1      44.263  29.724  35.464  1.00  0.00     0.031 C 
ATOM     58  C   UNL A   1      44.848  27.975  33.808  1.00  0.00     0.031 A 
BRANCH  45  59
ATOM     59  C   UNL A   1      42.990  25.377  28.511  1.00  0.00    -0.014 A 
ATOM     60  C   UNL A   1      43.841  25.601  27.414  1.00  0.00     0.010 A 
ATOM     61  C   UNL A   1      42.370  24.122  28.650  1.00  0.00     0.010 A 
ATOM     62  C   UNL A   1      44.038  24.602  26.456  1.00  0.00     0.020 A 
ATOM     63  C   UNL A   1      42.589  23.110  27.712  1.00  0.00     0.020 A 
ATOM     64  C   UNL A   1      43.410  23.361  26.611  1.00  0.00     0.054 A 
BRANCH  64  65
ATOM     65  S   UNL A   1      43.703  22.075  25.367  1.00  0.00     0.124 S 
ATOM     66  O   UNL A   1      43.540  22.819  24.119  1.00  0.00    -0.237 OA
ATOM     67  O   UNL A   1      45.067  21.646  25.667  1.00  0.00    -0.237 OA
ATOM     68  O   UNL A   1      42.667  21.083  25.640  1.00  0.00    -0.744 OA
ENDBRANCH  64  65
ENDBRANCH  45  59
BRANCH  46  69
ATOM     69  C   UNL A   1      41.001  32.405  35.340  1.00  0.00    -0.014 A 
ATOM     70  C   UNL A   1      40.192  32.096  36.447  1.00  0.00     0.010 A 
ATOM     71  C   UNL A   1      41.521  33.708  35.220  1.00  0.00     0.010 A 
ATOM     72  C   UNL A   1      39.894  33.071  37.403  1.00  0.00     0.020 A 
ATOM     73  C   UNL A   1      41.254  34.677  36.191  1.00  0.00     0.020 A 
ATOM     74  C   UNL A   1      40.432  34.356  37.272  1.00  0.00     0.054 A 
BRANCH  74  75
ATOM     75  S   UNL A   1      40.074  35.589  38.552  1.00  0.00     0.124 S 
ATOM     76  O   UNL A   1      38.891  35.027  39.197  1.00  0.00    -0.237 OA
ATOM     77  O   UNL A   1      41.298  35.576  39.351  1.00  0.00    -0.237 OA
ATOM     78  O   UNL A   1      39.849  36.817  37.792  1.00  0.00    -0.744 OA
ENDBRANCH  74  75
ENDBRANCH  46  69
BRANCH  58  79
ATOM     79  C   UNL A   1      46.055  27.634  34.644  1.00  0.00    -0.014 A 
ATOM     80  C   UNL A   1      47.285  28.293  34.460  1.00  0.00     0.010 A 
ATOM     81  C   UNL A   1      45.940  26.680  35.672  1.00  0.00     0.010 A 
ATOM     82  C   UNL A   1      48.383  27.979  35.264  1.00  0.00     0.020 A 
ATOM     83  C   UNL A   1      47.027  26.387  36.501  1.00  0.00     0.020 A 
ATOM     84  C   UNL A   1      48.247  27.028  36.282  1.00  0.00     0.054 A 
BRANCH  84  85
ATOM     85  S   UNL A   1      49.677  26.672  37.340  1.00  0.00     0.124 S 
ATOM     86  O   UNL A   1      49.295  25.400  37.949  1.00  0.00    -0.237 OA
ATOM     87  O   UNL A   1      50.776  26.603  36.380  1.00  0.00    -0.237 OA
ATOM     88  O   UNL A   1      49.725  27.810  38.254  1.00  0.00    -0.744 OA
ENDBRANCH  84  85
ENDBRANCH  58  79
ENDBRANCH  32  33
ENDBRANCH  25  27
ENDBRANCH  24  25
ENDBRANCH  23  24
ENDBRANCH   1  23
TORSDOF 20
ENDMDL
MODEL 3
REMARK VINA RESULT:     -10.1      5.334      9.543
REMARK SMILES Cc1nonc1C[C@@H](C(=O)OCCOCCOC(=O)c1ccc(-c2c3nc(c(-c4ccc(S(=O)(=O)[O-])cc4)c4ccc([nH]4)c(-c4ccc(S(=O)(=O)[O-])cc4)c4nc(c(-c5ccc(S(=O)(=O)[O-])cc5)c5ccc2[nH]5)C=C4)C=C3)cc1)c1ccccc1Br
REMARK SMILES IDX 15 1 14 2 13 3 12 4 11 5 9 6 10 7 8 8 7 9 6 10 1 11 2 12
REMARK SMILES IDX 3 13 4 14 5 15 80 16 81 17 85 18 82 19 84 20 86 21 83 22
REMARK SMILES IDX 16 23 17 24 18 25 19 26 20 27 21 28 79 29 22 30 78 31 23 32
REMARK SMILES IDX 24 33 25 34 72 35 26 36 77 37 71 38 73 39 27 40 76 41 70 42
REMARK SMILES IDX 69 43 28 45 58 46 39 47 57 48 40 49 43 50 56 51 74 52 41 53
REMARK SMILES IDX 42 54 55 56 75 57 44 58 29 59 30 60 38 61 31 62 37 63 32 64
REMARK SMILES IDX 33 65 34 66 35 67 36 68 59 69 60 70 68 71 61 72 67 73 62 74
REMARK SMILES IDX 63 75 64 76 65 77 66 78 45 79 46 80 54 81 47 82 53 83 48 84
REMARK SMILES IDX 49 85 50 86 51 87 52 88
REMARK H PARENT 73 44 43 55
REMARK Flexibility Score: inf
ROOT
ATOM      1  C   UNL A   1      40.367  22.082  27.035  1.00  0.00     0.202 C 
ENDROOT
BRANCH   1   2
ATOM      2  O   UNL A   1      39.483  21.469  26.095  1.00  0.00    -0.374 OA
BRANCH   2   3
ATOM      3  C   UNL A   1      38.251  22.154  25.846  1.00  0.00     0.202 C 
BRANCH   3   4
ATOM      4  C   UNL A   1      37.207  21.470  24.943  1.00  0.00     0.261 C 
BRANCH   4   5
ATOM      5  O   UNL A   1      35.882  22.034  25.039  1.00  0.00    -0.463 OA
BRANCH   5   6
ATOM      6  C   UNL A   1      35.719  23.205  24.381  1.00  0.00     0.313 C 
ATOM      7  O   UNL A   1      36.177  23.391  23.261  1.00  0.00    -0.252 OA
BRANCH   6   8
ATOM      8  C   UNL A   1      34.886  24.244  25.176  1.00  0.00     0.136 C 
BRANCH   8   9
ATOM      9  C   UNL A   1      34.085  23.595  26.350  1.00  0.00     0.082 C 
BRANCH   9  10
ATOM     10  C   UNL A   1      32.597  23.456  26.377  1.00  0.00     0.109 A 
ATOM     11  C   UNL A   1      32.160  21.285  24.947  1.00  0.00     0.073 C 
ATOM     12  C   UNL A   1      31.796  22.436  25.802  1.00  0.00     0.105 A 
ATOM     13  N   UNL A   1      30.533  22.573  26.213  1.00  0.00    -0.055 NA
ATOM     14  O   UNL A   1      30.552  23.655  27.079  1.00  0.00    -0.244 OA
ATOM     15  N   UNL A   1      31.839  24.149  27.227  1.00  0.00    -0.055 NA
ENDBRANCH   9  10
ENDBRANCH   8   9
BRANCH   8  16
ATOM     16  C   UNL A   1      33.882  24.966  24.193  1.00  0.00    -0.019 A 
ATOM     17  C   UNL A   1      33.353  24.296  23.065  1.00  0.00     0.006 A 
ATOM     18  C   UNL A   1      33.550  26.335  24.299  1.00  0.00     0.022 A 
ATOM     19  C   UNL A   1      32.729  24.978  22.016  1.00  0.00     0.000 A 
ATOM     20  C   UNL A   1      33.017  27.034  23.204  1.00  0.00     0.016 A 
ATOM     21  Br  UNL A   1      33.657  27.314  25.933  1.00  0.00    -0.051 Br
ATOM     22  C   UNL A   1      32.631  26.358  22.052  1.00  0.00     0.001 A 
ENDBRANCH   8  16
ENDBRANCH   6   8
ENDBRANCH   5   6
ENDBRANCH   4   5
ENDBRANCH   3   4
ENDBRANCH   2   3
ENDBRANCH   1   2
BRANCH   1  23
ATOM     23  C   UNL A   1      41.226  23.235  26.516  1.00  0.00     0.261 C 
BRANCH  23  24
ATOM     24  O   UNL A   1      40.432  24.413  26.307  1.00  0.00    -0.460 OA
BRANCH  24  25
ATOM     25  C   UNL A   1      41.159  25.550  26.169  1.00  0.00     0.338 C 
ATOM     26  O   UNL A   1      41.532  26.056  25.129  1.00  0.00    -0.246 OA
BRANCH  25  27
ATOM     27  C   UNL A   1      41.280  26.231  27.477  1.00  0.00     0.060 A 
ATOM     28  C   UNL A   1      40.221  26.060  28.376  1.00  0.00     0.016 A 
ATOM     29  C   UNL A   1      42.372  27.034  27.814  1.00  0.00     0.016 A 
ATOM     30  C   UNL A   1      40.211  26.746  29.586  1.00  0.00     0.010 A 
ATOM     31  C   UNL A   1      42.357  27.730  29.028  1.00  0.00     0.010 A 
ATOM     32  C   UNL A   1      41.256  27.623  29.898  1.00  0.00    -0.014 A 
BRANCH  32  33
ATOM     33  C   UNL A   1      41.102  28.552  31.045  1.00  0.00     0.031 A 
ATOM     34  C   UNL A   1      40.025  29.603  30.986  1.00  0.00     0.074 A 
ATOM     35  C   UNL A   1      41.865  28.428  32.147  1.00  0.00     0.049 A 
ATOM     36  N   UNL A   1      39.711  30.520  31.865  1.00  0.00    -0.248 NA
ATOM     37  C   UNL A   1      39.190  29.623  29.773  1.00  0.00     0.031 C 
ATOM     38  C   UNL A   1      42.903  27.418  32.346  1.00  0.00     0.029 A 
ATOM     39  N   UNL A   1      41.880  29.162  33.306  1.00  0.00    -0.354 N 
ATOM     40  C   UNL A   1      38.655  31.232  31.309  1.00  0.00     0.074 A 
ATOM     41  C   UNL A   1      38.400  30.662  30.004  1.00  0.00     0.031 C 
ATOM     42  C   UNL A   1      43.455  27.597  33.559  1.00  0.00     0.029 A 
ATOM     43  C   UNL A   1      42.838  28.755  34.204  1.00  0.00     0.049 A 
ATOM     44  H   UNL A   1      41.262  29.908  33.480  1.00  0.00     0.167 HD
ATOM     45  C   UNL A   1      37.954  32.263  31.839  1.00  0.00     0.031 A 
ATOM     46  C   UNL A   1      43.194  29.273  35.397  1.00  0.00     0.031 A 
ATOM     47  C   UNL A   1      38.216  32.832  33.134  1.00  0.00     0.049 A 
ATOM     48  C   UNL A   1      42.454  30.473  35.930  1.00  0.00     0.074 A 
ATOM     49  C   UNL A   1      37.551  33.868  33.767  1.00  0.00     0.029 A 
ATOM     50  N   UNL A   1      39.228  32.425  33.989  1.00  0.00    -0.354 N 
ATOM     51  N   UNL A   1      41.440  31.120  35.404  1.00  0.00    -0.248 NA
ATOM     52  C   UNL A   1      42.903  31.010  37.222  1.00  0.00     0.031 C 
ATOM     53  C   UNL A   1      38.205  34.133  34.974  1.00  0.00     0.029 A 
ATOM     54  C   UNL A   1      39.229  33.213  35.129  1.00  0.00     0.049 A 
ATOM     55  H   UNL A   1      39.854  31.686  33.812  1.00  0.00     0.167 HD
ATOM     56  C   UNL A   1      41.114  32.121  36.315  1.00  0.00     0.074 A 
ATOM     57  C   UNL A   1      42.025  31.983  37.431  1.00  0.00     0.031 C 
ATOM     58  C   UNL A   1      40.145  33.068  36.233  1.00  0.00     0.031 A 
BRANCH  45  59
ATOM     59  C   UNL A   1      36.859  32.869  30.998  1.00  0.00    -0.014 A 
ATOM     60  C   UNL A   1      37.149  33.737  29.929  1.00  0.00     0.010 A 
ATOM     61  C   UNL A   1      35.519  32.532  31.259  1.00  0.00     0.010 A 
ATOM     62  C   UNL A   1      36.116  34.285  29.162  1.00  0.00     0.020 A 
ATOM     63  C   UNL A   1      34.485  33.053  30.475  1.00  0.00     0.020 A 
ATOM     64  C   UNL A   1      34.790  33.939  29.440  1.00  0.00     0.054 A 
BRANCH  64  65
ATOM     65  S   UNL A   1      33.473  34.645  28.413  1.00  0.00     0.124 S 
ATOM     66  O   UNL A   1      32.989  33.469  27.692  1.00  0.00    -0.237 OA
ATOM     67  O   UNL A   1      32.553  35.193  29.407  1.00  0.00    -0.237 OA
ATOM     68  O   UNL A   1      34.163  35.637  27.593  1.00  0.00    -0.744 OA
ENDBRANCH  64  65
ENDBRANCH  45  59
BRANCH  46  69
ATOM     69  C   UNL A   1      44.323  28.673  36.162  1.00  0.00    -0.014 A 
ATOM     70  C   UNL A   1      45.639  29.136  35.990  1.00  0.00     0.010 A 
ATOM     71  C   UNL A   1      44.083  27.623  37.068  1.00  0.00     0.010 A 
ATOM     72  C   UNL A   1      46.695  28.551  36.695  1.00  0.00     0.020 A 
ATOM     73  C   UNL A   1      45.131  27.058  37.800  1.00  0.00     0.020 A 
ATOM     74  C   UNL A   1      46.433  27.518  37.601  1.00  0.00     0.054 A 
BRANCH  74  75
ATOM     75  S   UNL A   1      47.812  26.810  38.543  1.00  0.00     0.124 S 
ATOM     76  O   UNL A   1      47.871  27.690  39.705  1.00  0.00    -0.237 OA
ATOM     77  O   UNL A   1      47.349  25.448  38.801  1.00  0.00    -0.237 OA
ATOM     78  O   UNL A   1      48.943  26.911  37.623  1.00  0.00    -0.744 OA
ENDBRANCH  74  75
ENDBRANCH  46  69
BRANCH  58  79
ATOM     79  C   UNL A   1      39.994  34.013  37.398  1.00  0.00    -0.014 A 
ATOM     80  C   UNL A   1      40.579  35.293  37.386  1.00  0.00     0.010 A 
ATOM     81  C   UNL A   1      39.202  33.636  38.499  1.00  0.00     0.010 A 
ATOM     82  C   UNL A   1      40.403  36.161  38.466  1.00  0.00     0.020 A 
ATOM     83  C   UNL A   1      38.997  34.514  39.566  1.00  0.00     0.020 A 
ATOM     84  C   UNL A   1      39.611  35.767  39.551  1.00  0.00     0.054 A 
BRANCH  84  85
ATOM     85  S   UNL A   1      39.364  36.931  40.920  1.00  0.00     0.124 S 
ATOM     86  O   UNL A   1      38.625  36.117  41.881  1.00  0.00    -0.237 OA
ATOM     87  O   UNL A   1      40.733  37.269  41.303  1.00  0.00    -0.237 OA
ATOM     88  O   UNL A   1      38.605  38.023  40.315  1.00  0.00    -0.744 OA
ENDBRANCH  84  85
ENDBRANCH  58  79
ENDBRANCH  32  33
ENDBRANCH  25  27
ENDBRANCH  24  25
ENDBRANCH  23  24
ENDBRANCH   1  23
TORSDOF 20
ENDMDL
