MODEL 1
REMARK VINA RESULT:     -12.8      0.000      0.000
REMARK SMILES COc1ccc(NC(=O)[C@H]2[C@@H](C(=O)OCCOCCOC(=O)c3ccc(-c4c5nc(c(-c6ccc(S(=O)(=O)[O-])cc6)c6ccc([nH]6)c(-c6ccc(S(=O)(=O)[O-])cc6)c6nc(c(-c7ccc(S(=O)(=O)[O-])cc7)c7ccc4[nH]7)C=C6)C=C5)cc3)[C@H]3C=C[C@@H]2C3)c(C)c1
REMARK SMILES IDX 17 1 16 2 15 3 14 4 12 5 13 6 11 7 10 8 86 9 83 10 85 11
REMARK SMILES IDX 87 12 84 13 8 14 7 15 9 17 6 18 3 19 4 20 90 21 5 22 88 23
REMARK SMILES IDX 89 24 2 25 1 26 18 27 19 28 20 29 21 30 22 31 23 32 24 33
REMARK SMILES IDX 82 34 25 35 81 36 26 37 27 38 28 39 75 40 29 41 80 42 74 43
REMARK SMILES IDX 76 44 30 45 79 46 73 47 72 48 31 50 61 51 42 52 60 53 43 54
REMARK SMILES IDX 46 55 59 56 77 57 44 58 45 59 58 61 78 62 47 63 32 64 33 65
REMARK SMILES IDX 41 66 34 67 40 68 35 69 36 70 37 71 38 72 39 73 62 74 63 75
REMARK SMILES IDX 71 76 64 77 70 78 65 79 66 80 67 81 68 82 69 83 48 84 49 85
REMARK SMILES IDX 57 86 50 87 56 88 51 89 52 90 53 91 54 92 55 93
REMARK H PARENT 7 16 76 49 46 60
REMARK Flexibility Score: inf
ROOT
ATOM      1  O   UNL A   1      34.476  21.792  26.405  1.00  0.00    -0.374 OA
ENDROOT
BRANCH   1   2
ATOM      2  C   UNL A   1      33.599  21.905  27.521  1.00  0.00     0.202 C 
BRANCH   2   3
ATOM      3  C   UNL A   1      32.625  22.995  27.141  1.00  0.00     0.261 C 
BRANCH   3   4
ATOM      4  O   UNL A   1      33.308  24.116  26.558  1.00  0.00    -0.463 OA
BRANCH   4   5
ATOM      5  C   UNL A   1      32.590  25.185  26.121  1.00  0.00     0.310 C 
ATOM      6  O   UNL A   1      31.668  25.737  26.703  1.00  0.00    -0.252 OA
BRANCH   5   7
ATOM      7  C   UNL A   1      33.224  25.748  24.870  1.00  0.00     0.119 C 
ATOM      8  C   UNL A   1      32.605  27.014  24.197  1.00  0.00     0.100 C 
ATOM      9  C   UNL A   1      32.384  26.523  22.738  1.00  0.00     0.025 C 
ATOM     10  C   UNL A   1      33.373  24.756  23.679  1.00  0.00     0.027 C 
ATOM     11  C   UNL A   1      31.400  25.375  22.691  1.00  0.00    -0.027 C 
ATOM     12  C   UNL A   1      33.678  25.721  22.531  1.00  0.00     0.017 C 
ATOM     13  C   UNL A   1      32.010  24.305  23.217  1.00  0.00    -0.027 C 
BRANCH   8  14
ATOM     14  C   UNL A   1      31.417  27.744  24.789  1.00  0.00     0.228 C 
ATOM     15  N   UNL A   1      31.537  28.774  25.678  1.00  0.00    -0.326 N 
ATOM     16  H   UNL A   1      30.683  29.238  25.835  1.00  0.00     0.169 HD
ATOM     17  O   UNL A   1      30.268  27.413  24.521  1.00  0.00    -0.274 OA
BRANCH  15  18
ATOM     18  C   UNL A   1      32.596  29.329  26.425  1.00  0.00     0.044 A 
ATOM     19  C   UNL A   1      34.743  30.521  27.805  1.00  0.00     0.119 A 
ATOM     20  C   UNL A   1      34.762  29.166  27.526  1.00  0.00     0.048 A 
ATOM     21  C   UNL A   1      33.611  31.268  27.510  1.00  0.00     0.052 A 
ATOM     22  C   UNL A   1      33.700  28.588  26.845  1.00  0.00     0.030 A 
ATOM     23  C   UNL A   1      32.533  30.689  26.811  1.00  0.00    -0.024 A 
ATOM     24  C   UNL A   1      31.347  31.569  26.515  1.00  0.00     0.047 C 
BRANCH  19  25
ATOM     25  O   UNL A   1      35.809  31.150  28.383  1.00  0.00    -0.497 OA
ATOM     26  C   UNL A   1      35.880  32.511  27.953  1.00  0.00     0.278 C 
ENDBRANCH  19  25
ENDBRANCH  15  18
ENDBRANCH   8  14
ENDBRANCH   5   7
ENDBRANCH   4   5
ENDBRANCH   3   4
ENDBRANCH   2   3
ENDBRANCH   1   2
BRANCH   1  27
ATOM     27  C   UNL A   1      34.270  20.722  25.516  1.00  0.00     0.202 C 
BRANCH  27  28
ATOM     28  C   UNL A   1      35.579  20.186  24.942  1.00  0.00     0.261 C 
BRANCH  28  29
ATOM     29  O   UNL A   1      36.543  21.252  24.852  1.00  0.00    -0.460 OA
BRANCH  29  30
ATOM     30  C   UNL A   1      37.813  20.891  25.215  1.00  0.00     0.338 C 
ATOM     31  O   UNL A   1      38.319  19.833  24.945  1.00  0.00    -0.246 OA
BRANCH  30  32
ATOM     32  C   UNL A   1      38.449  21.991  26.003  1.00  0.00     0.060 A 
ATOM     33  C   UNL A   1      37.901  23.287  25.980  1.00  0.00     0.016 A 
ATOM     34  C   UNL A   1      39.682  21.771  26.615  1.00  0.00     0.016 A 
ATOM     35  C   UNL A   1      38.623  24.372  26.510  1.00  0.00     0.010 A 
ATOM     36  C   UNL A   1      40.419  22.850  27.061  1.00  0.00     0.010 A 
ATOM     37  C   UNL A   1      39.903  24.156  27.019  1.00  0.00    -0.014 A 
BRANCH  37  38
ATOM     38  C   UNL A   1      40.842  25.183  27.480  1.00  0.00     0.031 A 
ATOM     39  C   UNL A   1      40.300  26.520  27.855  1.00  0.00     0.074 A 
ATOM     40  C   UNL A   1      42.097  24.853  27.873  1.00  0.00     0.049 A 
ATOM     41  N   UNL A   1      41.023  27.534  28.192  1.00  0.00    -0.248 NA
ATOM     42  C   UNL A   1      38.871  26.847  27.844  1.00  0.00     0.031 C 
ATOM     43  C   UNL A   1      42.918  25.565  28.850  1.00  0.00     0.029 A 
ATOM     44  N   UNL A   1      42.933  23.805  27.465  1.00  0.00    -0.354 N 
ATOM     45  C   UNL A   1      40.196  28.412  28.851  1.00  0.00     0.074 A 
ATOM     46  C   UNL A   1      38.865  28.045  28.440  1.00  0.00     0.031 C 
ATOM     47  C   UNL A   1      44.173  25.094  28.819  1.00  0.00     0.029 A 
ATOM     48  C   UNL A   1      44.262  24.239  27.654  1.00  0.00     0.049 A 
ATOM     49  H   UNL A   1      42.648  22.932  27.112  1.00  0.00     0.167 HD
ATOM     50  C   UNL A   1      40.723  29.226  29.811  1.00  0.00     0.031 A 
ATOM     51  C   UNL A   1      45.095  24.444  26.593  1.00  0.00     0.031 A 
ATOM     52  C   UNL A   1      42.192  29.154  29.844  1.00  0.00     0.049 A 
ATOM     53  C   UNL A   1      45.499  25.900  26.478  1.00  0.00     0.074 A 
ATOM     54  C   UNL A   1      43.110  28.787  30.809  1.00  0.00     0.029 A 
ATOM     55  N   UNL A   1      42.919  29.256  28.659  1.00  0.00    -0.354 N 
ATOM     56  N   UNL A   1      44.948  26.836  27.203  1.00  0.00    -0.248 NA
ATOM     57  C   UNL A   1      46.516  26.452  25.590  1.00  0.00     0.031 C 
ATOM     58  C   UNL A   1      44.386  28.635  30.187  1.00  0.00     0.029 A 
ATOM     59  C   UNL A   1      44.256  28.960  28.847  1.00  0.00     0.049 A 
ATOM     60  H   UNL A   1      42.527  29.507  27.792  1.00  0.00     0.167 HD
ATOM     61  C   UNL A   1      45.535  28.040  26.989  1.00  0.00     0.074 A 
ATOM     62  C   UNL A   1      46.470  27.763  25.908  1.00  0.00     0.031 C 
ATOM     63  C   UNL A   1      45.198  29.132  27.738  1.00  0.00     0.031 A 
BRANCH  50  64
ATOM     64  C   UNL A   1      39.899  29.942  30.877  1.00  0.00    -0.014 A 
ATOM     65  C   UNL A   1      39.765  31.346  30.841  1.00  0.00     0.010 A 
ATOM     66  C   UNL A   1      39.299  29.306  31.987  1.00  0.00     0.010 A 
ATOM     67  C   UNL A   1      39.075  32.063  31.839  1.00  0.00     0.020 A 
ATOM     68  C   UNL A   1      38.577  30.002  32.971  1.00  0.00     0.020 A 
ATOM     69  C   UNL A   1      38.476  31.384  32.897  1.00  0.00     0.054 A 
BRANCH  69  70
ATOM     70  S   UNL A   1      37.575  32.308  34.171  1.00  0.00     0.124 S 
ATOM     71  O   UNL A   1      37.697  31.435  35.336  1.00  0.00    -0.237 OA
ATOM     72  O   UNL A   1      38.321  33.562  34.243  1.00  0.00    -0.237 OA
ATOM     73  O   UNL A   1      36.224  32.427  33.627  1.00  0.00    -0.744 OA
ENDBRANCH  69  70
ENDBRANCH  50  64
BRANCH  51  74
ATOM     74  C   UNL A   1      44.950  23.383  25.549  1.00  0.00    -0.014 A 
ATOM     75  C   UNL A   1      46.154  22.925  24.956  1.00  0.00     0.010 A 
ATOM     76  C   UNL A   1      43.850  22.505  25.574  1.00  0.00     0.010 A 
ATOM     77  C   UNL A   1      46.312  21.583  24.577  1.00  0.00     0.020 A 
ATOM     78  C   UNL A   1      44.010  21.156  25.197  1.00  0.00     0.020 A 
ATOM     79  C   UNL A   1      45.254  20.692  24.754  1.00  0.00     0.054 A 
BRANCH  79  80
ATOM     80  S   UNL A   1      45.599  18.895  24.708  1.00  0.00     0.124 S 
ATOM     81  O   UNL A   1      46.736  18.768  25.610  1.00  0.00    -0.237 OA
ATOM     82  O   UNL A   1      44.350  18.301  25.185  1.00  0.00    -0.237 OA
ATOM     83  O   UNL A   1      45.873  18.646  23.294  1.00  0.00    -0.744 OA
ENDBRANCH  79  80
ENDBRANCH  51  74
BRANCH  63  84
ATOM     84  C   UNL A   1      45.702  30.523  27.479  1.00  0.00    -0.014 A 
ATOM     85  C   UNL A   1      46.978  30.975  27.831  1.00  0.00     0.010 A 
ATOM     86  C   UNL A   1      44.832  31.449  26.855  1.00  0.00     0.010 A 
ATOM     87  C   UNL A   1      47.422  32.238  27.422  1.00  0.00     0.020 A 
ATOM     88  C   UNL A   1      45.252  32.716  26.468  1.00  0.00     0.020 A 
ATOM     89  C   UNL A   1      46.568  33.081  26.707  1.00  0.00     0.054 A 
BRANCH  89  90
ATOM     90  S   UNL A   1      47.198  34.648  26.070  1.00  0.00     0.124 S 
ATOM     91  O   UNL A   1      46.042  35.188  25.358  1.00  0.00    -0.237 OA
ATOM     92  O   UNL A   1      47.560  35.345  27.301  1.00  0.00    -0.237 OA
ATOM     93  O   UNL A   1      48.319  34.256  25.220  1.00  0.00    -0.744 OA
ENDBRANCH  89  90
ENDBRANCH  63  84
ENDBRANCH  37  38
ENDBRANCH  30  32
ENDBRANCH  29  30
ENDBRANCH  28  29
ENDBRANCH  27  28
ENDBRANCH   1  27
TORSDOF 20
ENDMDL
MODEL 2
REMARK VINA RESULT:     -12.4      1.717      2.801
REMARK SMILES COc1ccc(NC(=O)[C@H]2[C@@H](C(=O)OCCOCCOC(=O)c3ccc(-c4c5nc(c(-c6ccc(S(=O)(=O)[O-])cc6)c6ccc([nH]6)c(-c6ccc(S(=O)(=O)[O-])cc6)c6nc(c(-c7ccc(S(=O)(=O)[O-])cc7)c7ccc4[nH]7)C=C6)C=C5)cc3)[C@H]3C=C[C@@H]2C3)c(C)c1
REMARK SMILES IDX 17 1 16 2 15 3 14 4 12 5 13 6 11 7 10 8 86 9 83 10 85 11
REMARK SMILES IDX 87 12 84 13 8 14 7 15 9 17 6 18 3 19 4 20 90 21 5 22 88 23
REMARK SMILES IDX 89 24 2 25 1 26 18 27 19 28 20 29 21 30 22 31 23 32 24 33
REMARK SMILES IDX 82 34 25 35 81 36 26 37 27 38 28 39 75 40 29 41 80 42 74 43
REMARK SMILES IDX 76 44 30 45 79 46 73 47 72 48 31 50 61 51 42 52 60 53 43 54
REMARK SMILES IDX 46 55 59 56 77 57 44 58 45 59 58 61 78 62 47 63 32 64 33 65
REMARK SMILES IDX 41 66 34 67 40 68 35 69 36 70 37 71 38 72 39 73 62 74 63 75
REMARK SMILES IDX 71 76 64 77 70 78 65 79 66 80 67 81 68 82 69 83 48 84 49 85
REMARK SMILES IDX 57 86 50 87 56 88 51 89 52 90 53 91 54 92 55 93
REMARK H PARENT 7 16 76 49 46 60
REMARK Flexibility Score: inf
ROOT
ATOM      1  O   UNL A   1      34.314  22.118  26.823  1.00  0.00    -0.374 OA
ENDROOT
BRANCH   1   2
ATOM      2  C   UNL A   1      33.233  22.357  27.718  1.00  0.00     0.202 C 
BRANCH   2   3
ATOM      3  C   UNL A   1      32.164  23.008  26.873  1.00  0.00     0.261 C 
BRANCH   3   4
ATOM      4  O   UNL A   1      32.040  24.405  27.183  1.00  0.00    -0.463 OA
BRANCH   4   5
ATOM      5  C   UNL A   1      31.130  25.162  26.514  1.00  0.00     0.310 C 
ATOM      6  O   UNL A   1      29.934  24.940  26.400  1.00  0.00    -0.252 OA
BRANCH   5   7
ATOM      7  C   UNL A   1      31.769  26.460  26.079  1.00  0.00     0.119 C 
ATOM      8  C   UNL A   1      31.463  27.030  24.657  1.00  0.00     0.100 C 
ATOM      9  C   UNL A   1      32.892  27.216  24.074  1.00  0.00     0.025 C 
ATOM     10  C   UNL A   1      33.324  26.509  26.148  1.00  0.00     0.027 C 
ATOM     11  C   UNL A   1      33.613  25.891  23.960  1.00  0.00    -0.027 C 
ATOM     12  C   UNL A   1      33.614  27.760  25.316  1.00  0.00     0.017 C 
ATOM     13  C   UNL A   1      33.908  25.489  25.202  1.00  0.00    -0.027 C 
BRANCH   8  14
ATOM     14  C   UNL A   1      30.492  26.356  23.709  1.00  0.00     0.228 C 
ATOM     15  N   UNL A   1      29.615  27.044  22.919  1.00  0.00    -0.326 N 
ATOM     16  H   UNL A   1      29.178  26.467  22.252  1.00  0.00     0.169 HD
ATOM     17  O   UNL A   1      30.420  25.135  23.634  1.00  0.00    -0.274 OA
BRANCH  15  18
ATOM     18  C   UNL A   1      29.190  28.385  22.834  1.00  0.00     0.044 A 
ATOM     19  C   UNL A   1      28.252  31.026  22.556  1.00  0.00     0.119 A 
ATOM     20  C   UNL A   1      29.583  30.733  22.320  1.00  0.00     0.048 A 
ATOM     21  C   UNL A   1      27.406  30.040  23.046  1.00  0.00     0.052 A 
ATOM     22  C   UNL A   1      30.036  29.428  22.458  1.00  0.00     0.030 A 
ATOM     23  C   UNL A   1      27.858  28.711  23.180  1.00  0.00    -0.024 A 
ATOM     24  C   UNL A   1      26.877  27.697  23.705  1.00  0.00     0.047 C 
BRANCH  19  25
ATOM     25  O   UNL A   1      27.742  32.274  22.335  1.00  0.00    -0.497 OA
ATOM     26  C   UNL A   1      27.960  32.671  20.979  1.00  0.00     0.278 C 
ENDBRANCH  19  25
ENDBRANCH  15  18
ENDBRANCH   8  14
ENDBRANCH   5   7
ENDBRANCH   4   5
ENDBRANCH   3   4
ENDBRANCH   2   3
ENDBRANCH   1   2
BRANCH   1  27
ATOM     27  C   UNL A   1      34.017  21.533  25.580  1.00  0.00     0.202 C 
BRANCH  27  28
ATOM     28  C   UNL A   1      35.198  20.748  25.014  1.00  0.00     0.261 C 
BRANCH  28  29
ATOM     29  O   UNL A   1      36.312  21.635  24.794  1.00  0.00    -0.460 OA
BRANCH  29  30
ATOM     30  C   UNL A   1      37.509  21.153  25.251  1.00  0.00     0.338 C 
ATOM     31  O   UNL A   1      37.900  20.029  25.072  1.00  0.00    -0.246 OA
BRANCH  30  32
ATOM     32  C   UNL A   1      38.230  22.220  26.011  1.00  0.00     0.060 A 
ATOM     33  C   UNL A   1      37.663  23.501  26.144  1.00  0.00     0.016 A 
ATOM     34  C   UNL A   1      39.538  21.994  26.435  1.00  0.00     0.016 A 
ATOM     35  C   UNL A   1      38.434  24.571  26.636  1.00  0.00     0.010 A 
ATOM     36  C   UNL A   1      40.312  23.063  26.843  1.00  0.00     0.010 A 
ATOM     37  C   UNL A   1      39.774  24.356  26.952  1.00  0.00    -0.014 A 
BRANCH  37  38
ATOM     38  C   UNL A   1      40.751  25.377  27.344  1.00  0.00     0.031 A 
ATOM     39  C   UNL A   1      40.257  26.750  27.648  1.00  0.00     0.074 A 
ATOM     40  C   UNL A   1      42.000  25.029  27.740  1.00  0.00     0.049 A 
ATOM     41  N   UNL A   1      41.016  27.757  27.919  1.00  0.00    -0.248 NA
ATOM     42  C   UNL A   1      38.838  27.121  27.634  1.00  0.00     0.031 C 
ATOM     43  C   UNL A   1      42.856  25.768  28.666  1.00  0.00     0.029 A 
ATOM     44  N   UNL A   1      42.798  23.933  27.383  1.00  0.00    -0.354 N 
ATOM     45  C   UNL A   1      40.225  28.697  28.536  1.00  0.00     0.074 A 
ATOM     46  C   UNL A   1      38.879  28.350  28.162  1.00  0.00     0.031 C 
ATOM     47  C   UNL A   1      44.095  25.255  28.648  1.00  0.00     0.029 A 
ATOM     48  C   UNL A   1      44.142  24.334  27.533  1.00  0.00     0.049 A 
ATOM     49  H   UNL A   1      42.481  23.051  27.084  1.00  0.00     0.167 HD
ATOM     50  C   UNL A   1      40.790  29.546  29.442  1.00  0.00     0.031 A 
ATOM     51  C   UNL A   1      44.967  24.452  26.452  1.00  0.00     0.031 A 
ATOM     52  C   UNL A   1      42.257  29.429  29.463  1.00  0.00     0.049 A 
ATOM     53  C   UNL A   1      45.415  25.885  26.250  1.00  0.00     0.074 A 
ATOM     54  C   UNL A   1      43.176  29.088  30.437  1.00  0.00     0.029 A 
ATOM     55  N   UNL A   1      42.971  29.440  28.266  1.00  0.00    -0.354 N 
ATOM     56  N   UNL A   1      44.904  26.878  26.926  1.00  0.00    -0.248 NA
ATOM     57  C   UNL A   1      46.437  26.353  25.321  1.00  0.00     0.031 C 
ATOM     58  C   UNL A   1      44.437  28.859  29.810  1.00  0.00     0.029 A 
ATOM     59  C   UNL A   1      44.301  29.112  28.455  1.00  0.00     0.049 A 
ATOM     60  H   UNL A   1      42.576  29.655  27.390  1.00  0.00     0.167 HD
ATOM     61  C   UNL A   1      45.525  28.048  26.638  1.00  0.00     0.074 A 
ATOM     62  C   UNL A   1      46.437  27.681  25.565  1.00  0.00     0.031 C 
ATOM     63  C   UNL A   1      45.233  29.192  27.328  1.00  0.00     0.031 A 
BRANCH  50  64
ATOM     64  C   UNL A   1      40.003  30.347  30.475  1.00  0.00    -0.014 A 
ATOM     65  C   UNL A   1      39.283  31.494  30.079  1.00  0.00     0.010 A 
ATOM     66  C   UNL A   1      39.996  30.078  31.862  1.00  0.00     0.010 A 
ATOM     67  C   UNL A   1      38.598  32.310  31.002  1.00  0.00     0.020 A 
ATOM     68  C   UNL A   1      39.288  30.860  32.790  1.00  0.00     0.020 A 
ATOM     69  C   UNL A   1      38.597  31.981  32.356  1.00  0.00     0.054 A 
BRANCH  69  70
ATOM     70  S   UNL A   1      37.702  33.024  33.539  1.00  0.00     0.124 S 
ATOM     71  O   UNL A   1      36.502  32.235  33.805  1.00  0.00    -0.237 OA
ATOM     72  O   UNL A   1      38.645  33.129  34.649  1.00  0.00    -0.237 OA
ATOM     73  O   UNL A   1      37.474  34.268  32.806  1.00  0.00    -0.744 OA
ENDBRANCH  69  70
ENDBRANCH  50  64
BRANCH  51  74
ATOM     74  C   UNL A   1      44.775  23.339  25.472  1.00  0.00    -0.014 A 
ATOM     75  C   UNL A   1      45.937  22.910  24.782  1.00  0.00     0.010 A 
ATOM     76  C   UNL A   1      43.728  22.413  25.642  1.00  0.00     0.010 A 
ATOM     77  C   UNL A   1      46.125  21.561  24.444  1.00  0.00     0.020 A 
ATOM     78  C   UNL A   1      43.918  21.057  25.306  1.00  0.00     0.020 A 
ATOM     79  C   UNL A   1      45.135  20.631  24.761  1.00  0.00     0.054 A 
BRANCH  79  80
ATOM     80  S   UNL A   1      45.563  18.851  24.754  1.00  0.00     0.124 S 
ATOM     81  O   UNL A   1      44.406  18.247  25.402  1.00  0.00    -0.237 OA
ATOM     82  O   UNL A   1      45.715  18.548  23.331  1.00  0.00    -0.237 OA
ATOM     83  O   UNL A   1      46.814  18.808  25.508  1.00  0.00    -0.744 OA
ENDBRANCH  79  80
ENDBRANCH  51  74
BRANCH  63  84
ATOM     84  C   UNL A   1      45.777  30.548  26.985  1.00  0.00    -0.014 A 
ATOM     85  C   UNL A   1      45.003  31.608  26.503  1.00  0.00     0.010 A 
ATOM     86  C   UNL A   1      47.166  30.774  27.138  1.00  0.00     0.010 A 
ATOM     87  C   UNL A   1      45.559  32.883  26.348  1.00  0.00     0.020 A 
ATOM     88  C   UNL A   1      47.737  32.029  26.960  1.00  0.00     0.020 A 
ATOM     89  C   UNL A   1      46.914  33.091  26.619  1.00  0.00     0.054 A 
BRANCH  89  90
ATOM     90  S   UNL A   1      47.587  34.764  26.546  1.00  0.00     0.124 S 
ATOM     91  O   UNL A   1      48.246  34.898  27.842  1.00  0.00    -0.237 OA
ATOM     92  O   UNL A   1      48.479  34.676  25.393  1.00  0.00    -0.237 OA
ATOM     93  O   UNL A   1      46.408  35.608  26.361  1.00  0.00    -0.744 OA
ENDBRANCH  89  90
ENDBRANCH  63  84
ENDBRANCH  37  38
ENDBRANCH  30  32
ENDBRANCH  29  30
ENDBRANCH  28  29
ENDBRANCH  27  28
ENDBRANCH   1  27
TORSDOF 20
ENDMDL
MODEL 3
REMARK VINA RESULT:     -12.1      5.303     12.054
REMARK SMILES COc1ccc(NC(=O)[C@H]2[C@@H](C(=O)OCCOCCOC(=O)c3ccc(-c4c5nc(c(-c6ccc(S(=O)(=O)[O-])cc6)c6ccc([nH]6)c(-c6ccc(S(=O)(=O)[O-])cc6)c6nc(c(-c7ccc(S(=O)(=O)[O-])cc7)c7ccc4[nH]7)C=C6)C=C5)cc3)[C@H]3C=C[C@@H]2C3)c(C)c1
REMARK SMILES IDX 17 1 16 2 15 3 14 4 12 5 13 6 11 7 10 8 86 9 83 10 85 11
REMARK SMILES IDX 87 12 84 13 8 14 7 15 9 17 6 18 3 19 4 20 90 21 5 22 88 23
REMARK SMILES IDX 89 24 2 25 1 26 18 27 19 28 20 29 21 30 22 31 23 32 24 33
REMARK SMILES IDX 82 34 25 35 81 36 26 37 27 38 28 39 75 40 29 41 80 42 74 43
REMARK SMILES IDX 76 44 30 45 79 46 73 47 72 48 31 50 61 51 42 52 60 53 43 54
REMARK SMILES IDX 46 55 59 56 77 57 44 58 45 59 58 61 78 62 47 63 32 64 33 65
REMARK SMILES IDX 41 66 34 67 40 68 35 69 36 70 37 71 38 72 39 73 62 74 63 75
REMARK SMILES IDX 71 76 64 77 70 78 65 79 66 80 67 81 68 82 69 83 48 84 49 85
REMARK SMILES IDX 57 86 50 87 56 88 51 89 52 90 53 91 54 92 55 93
REMARK H PARENT 7 16 76 49 46 60
REMARK Flexibility Score: inf
ROOT
ATOM      1  O   UNL A   1      34.665  33.033  33.733  1.00  0.00    -0.374 OA
ENDROOT
BRANCH   1   2
ATOM      2  C   UNL A   1      34.601  32.788  32.331  1.00  0.00     0.202 C 
BRANCH   2   3
ATOM      3  C   UNL A   1      35.943  32.192  31.979  1.00  0.00     0.261 C 
BRANCH   3   4
ATOM      4  O   UNL A   1      35.979  30.788  32.282  1.00  0.00    -0.463 OA
BRANCH   4   5
ATOM      5  C   UNL A   1      36.962  30.013  31.749  1.00  0.00     0.310 C 
ATOM      6  O   UNL A   1      36.816  29.002  31.078  1.00  0.00    -0.252 OA
BRANCH   5   7
ATOM      7  C   UNL A   1      38.300  30.690  31.931  1.00  0.00     0.119 C 
ATOM      8  C   UNL A   1      39.360  30.620  30.786  1.00  0.00     0.100 C 
ATOM      9  C   UNL A   1      40.599  30.050  31.533  1.00  0.00     0.025 C 
ATOM     10  C   UNL A   1      39.114  30.260  33.187  1.00  0.00     0.027 C 
ATOM     11  C   UNL A   1      40.322  28.664  32.071  1.00  0.00    -0.027 C 
ATOM     12  C   UNL A   1      40.493  30.830  32.852  1.00  0.00     0.017 C 
ATOM     13  C   UNL A   1      39.464  28.796  33.091  1.00  0.00    -0.027 C 
BRANCH   8  14
ATOM     14  C   UNL A   1      39.073  29.945  29.461  1.00  0.00     0.228 C 
ATOM     15  N   UNL A   1      38.219  30.459  28.526  1.00  0.00    -0.326 N 
ATOM     16  H   UNL A   1      38.273  29.985  27.665  1.00  0.00     0.169 HD
ATOM     17  O   UNL A   1      39.575  28.864  29.175  1.00  0.00    -0.274 OA
BRANCH  15  18
ATOM     18  C   UNL A   1      37.278  31.508  28.505  1.00  0.00     0.044 A 
ATOM     19  C   UNL A   1      35.390  33.590  28.319  1.00  0.00     0.119 A 
ATOM     20  C   UNL A   1      36.667  33.849  28.783  1.00  0.00     0.048 A 
ATOM     21  C   UNL A   1      35.005  32.282  28.057  1.00  0.00     0.052 A 
ATOM     22  C   UNL A   1      37.591  32.817  28.871  1.00  0.00     0.030 A 
ATOM     23  C   UNL A   1      35.941  31.231  28.136  1.00  0.00    -0.024 A 
ATOM     24  C   UNL A   1      35.449  29.843  27.824  1.00  0.00     0.047 C 
BRANCH  19  25
ATOM     25  O   UNL A   1      34.481  34.591  28.121  1.00  0.00    -0.497 OA
ATOM     26  C   UNL A   1      33.464  34.548  29.124  1.00  0.00     0.278 C 
ENDBRANCH  19  25
ENDBRANCH  15  18
ENDBRANCH   8  14
ENDBRANCH   5   7
ENDBRANCH   4   5
ENDBRANCH   3   4
ENDBRANCH   2   3
ENDBRANCH   1   2
BRANCH   1  27
ATOM     27  C   UNL A   1      35.127  34.292  34.156  1.00  0.00     0.202 C 
BRANCH  27  28
ATOM     28  C   UNL A   1      36.522  34.219  34.770  1.00  0.00     0.261 C 
BRANCH  28  29
ATOM     29  O   UNL A   1      37.487  34.766  33.850  1.00  0.00    -0.460 OA
BRANCH  29  30
ATOM     30  C   UNL A   1      38.737  34.932  34.384  1.00  0.00     0.338 C 
ATOM     31  O   UNL A   1      38.950  35.308  35.507  1.00  0.00    -0.246 OA
BRANCH  30  32
ATOM     32  C   UNL A   1      39.776  34.597  33.361  1.00  0.00     0.060 A 
ATOM     33  C   UNL A   1      41.135  34.846  33.624  1.00  0.00     0.016 A 
ATOM     34  C   UNL A   1      39.378  34.203  32.085  1.00  0.00     0.016 A 
ATOM     35  C   UNL A   1      42.084  34.768  32.588  1.00  0.00     0.010 A 
ATOM     36  C   UNL A   1      40.300  34.205  31.057  1.00  0.00     0.010 A 
ATOM     37  C   UNL A   1      41.657  34.482  31.292  1.00  0.00    -0.014 A 
BRANCH  37  38
ATOM     38  C   UNL A   1      42.481  34.496  30.080  1.00  0.00     0.031 A 
ATOM     39  C   UNL A   1      43.275  33.279  29.750  1.00  0.00     0.074 A 
ATOM     40  C   UNL A   1      42.287  35.430  29.117  1.00  0.00     0.049 A 
ATOM     41  N   UNL A   1      44.104  33.190  28.765  1.00  0.00    -0.248 NA
ATOM     42  C   UNL A   1      43.233  32.045  30.541  1.00  0.00     0.031 C 
ATOM     43  C   UNL A   1      42.558  35.277  27.689  1.00  0.00     0.029 A 
ATOM     44  N   UNL A   1      41.814  36.747  29.206  1.00  0.00    -0.354 N 
ATOM     45  C   UNL A   1      44.309  31.851  28.535  1.00  0.00     0.074 A 
ATOM     46  C   UNL A   1      43.918  31.202  29.760  1.00  0.00     0.031 C 
ATOM     47  C   UNL A   1      42.465  36.467  27.078  1.00  0.00     0.029 A 
ATOM     48  C   UNL A   1      42.374  37.461  28.125  1.00  0.00     0.049 A 
ATOM     49  H   UNL A   1      41.208  37.106  29.893  1.00  0.00     0.167 HD
ATOM     50  C   UNL A   1      44.608  31.434  27.271  1.00  0.00     0.031 A 
ATOM     51  C   UNL A   1      43.275  38.464  28.335  1.00  0.00     0.031 A 
ATOM     52  C   UNL A   1      44.860  32.566  26.366  1.00  0.00     0.049 A 
ATOM     53  C   UNL A   1      44.630  38.124  27.750  1.00  0.00     0.074 A 
ATOM     54  C   UNL A   1      44.266  33.009  25.200  1.00  0.00     0.029 A 
ATOM     55  N   UNL A   1      45.715  33.593  26.760  1.00  0.00    -0.354 N 
ATOM     56  N   UNL A   1      44.911  36.936  27.285  1.00  0.00    -0.248 NA
ATOM     57  C   UNL A   1      45.771  39.023  27.618  1.00  0.00     0.031 C 
ATOM     58  C   UNL A   1      44.744  34.323  24.918  1.00  0.00     0.029 A 
ATOM     59  C   UNL A   1      45.672  34.664  25.887  1.00  0.00     0.049 A 
ATOM     60  H   UNL A   1      46.281  33.561  27.565  1.00  0.00     0.167 HD
ATOM     61  C   UNL A   1      46.149  36.898  26.733  1.00  0.00     0.074 A 
ATOM     62  C   UNL A   1      46.684  38.218  27.033  1.00  0.00     0.031 C 
ATOM     63  C   UNL A   1      46.595  35.787  26.074  1.00  0.00     0.031 A 
BRANCH  50  64
ATOM     64  C   UNL A   1      44.470  29.994  26.787  1.00  0.00    -0.014 A 
ATOM     65  C   UNL A   1      43.190  29.423  26.623  1.00  0.00     0.010 A 
ATOM     66  C   UNL A   1      45.555  29.119  26.555  1.00  0.00     0.010 A 
ATOM     67  C   UNL A   1      43.007  28.077  26.247  1.00  0.00     0.020 A 
ATOM     68  C   UNL A   1      45.390  27.786  26.144  1.00  0.00     0.020 A 
ATOM     69  C   UNL A   1      44.112  27.266  26.000  1.00  0.00     0.054 A 
BRANCH  69  70
ATOM     70  S   UNL A   1      43.873  25.539  25.501  1.00  0.00     0.124 S 
ATOM     71  O   UNL A   1      42.619  25.600  24.755  1.00  0.00    -0.237 OA
ATOM     72  O   UNL A   1      45.067  25.270  24.705  1.00  0.00    -0.237 OA
ATOM     73  O   UNL A   1      43.803  24.815  26.769  1.00  0.00    -0.744 OA
ENDBRANCH  69  70
ENDBRANCH  50  64
BRANCH  51  74
ATOM     74  C   UNL A   1      42.898  39.326  29.497  1.00  0.00    -0.014 A 
ATOM     75  C   UNL A   1      43.819  39.354  30.576  1.00  0.00     0.010 A 
ATOM     76  C   UNL A   1      42.062  40.443  29.314  1.00  0.00     0.010 A 
ATOM     77  C   UNL A   1      44.029  40.524  31.321  1.00  0.00     0.020 A 
ATOM     78  C   UNL A   1      42.275  41.620  30.061  1.00  0.00     0.020 A 
ATOM     79  C   UNL A   1      43.294  41.669  31.020  1.00  0.00     0.054 A 
BRANCH  79  80
ATOM     80  S   UNL A   1      43.880  43.284  31.652  1.00  0.00     0.124 S 
ATOM     81  O   UNL A   1      45.280  43.292  31.246  1.00  0.00    -0.237 OA
ATOM     82  O   UNL A   1      43.022  44.247  30.961  1.00  0.00    -0.237 OA
ATOM     83  O   UNL A   1      43.631  43.189  33.089  1.00  0.00    -0.744 OA
ENDBRANCH  79  80
ENDBRANCH  51  74
BRANCH  63  84
ATOM     84  C   UNL A   1      47.992  35.617  25.552  1.00  0.00    -0.014 A 
ATOM     85  C   UNL A   1      48.680  36.587  24.815  1.00  0.00     0.010 A 
ATOM     86  C   UNL A   1      48.661  34.395  25.802  1.00  0.00     0.010 A 
ATOM     87  C   UNL A   1      50.030  36.411  24.493  1.00  0.00     0.020 A 
ATOM     88  C   UNL A   1      49.994  34.196  25.463  1.00  0.00     0.020 A 
ATOM     89  C   UNL A   1      50.687  35.232  24.858  1.00  0.00     0.054 A 
BRANCH  89  90
ATOM     90  S   UNL A   1      52.460  35.075  24.557  1.00  0.00     0.124 S 
ATOM     91  O   UNL A   1      52.707  36.123  23.569  1.00  0.00    -0.237 OA
ATOM     92  O   UNL A   1      53.011  35.323  25.887  1.00  0.00    -0.237 OA
ATOM     93  O   UNL A   1      52.612  33.710  24.063  1.00  0.00    -0.744 OA
ENDBRANCH  89  90
ENDBRANCH  63  84
ENDBRANCH  37  38
ENDBRANCH  30  32
ENDBRANCH  29  30
ENDBRANCH  28  29
ENDBRANCH  27  28
ENDBRANCH   1  27
TORSDOF 20
ENDMDL
