MODEL 1
REMARK VINA RESULT:      -8.5      0.000      0.000
REMARK SMILES CCCCCCNC(=O)Oc1cccc(-c2ccc([C@H](C)C(=O)OCCOCCOC(=O)c3ccc(-c4c5nc(c(-c6ccc(S(=O)(=O)[O-])cc6)c6ccc([nH]6)c(-c6ccc(S(=O)(=O)[O-])cc6)c6nc(c(-c7ccc(S(=O)(=O)[O-])cc7)c7ccc4[nH]7)C=C6)C=C5)cc3)cc2F)c1
REMARK SMILES IDX 24 1 22 2 23 3 20 4 21 5 19 6 16 7 17 8 94 9 18 10 93 11
REMARK SMILES IDX 95 12 15 13 11 14 12 15 96 16 13 17 14 18 10 19 8 20 7 21
REMARK SMILES IDX 9 23 6 24 5 25 4 26 3 27 2 28 1 29 25 30 26 31 27 32 28 33
REMARK SMILES IDX 29 34 30 35 31 36 32 37 33 38 34 39 92 40 35 41 91 42 36 43
REMARK SMILES IDX 37 44 38 45 85 46 39 47 90 48 84 49 86 50 40 51 89 52 83 53
REMARK SMILES IDX 82 54 41 56 71 57 52 58 70 59 53 60 56 61 69 62 87 63 54 64
REMARK SMILES IDX 55 65 68 67 88 68 57 69 42 70 43 71 51 72 44 73 50 74 45 75
REMARK SMILES IDX 46 76 47 77 48 78 49 79 72 80 73 81 81 82 74 83 80 84 75 85
REMARK SMILES IDX 76 86 77 87 78 88 79 89 58 90 59 91 67 92 60 93 66 94 61 95
REMARK SMILES IDX 62 96 63 97 64 98 65 99
REMARK H PARENT 7 22 86 55 56 66
REMARK Flexibility Score: inf
ROOT
ATOM      1  O   UNL A   1      34.517  33.413  29.664  1.00  0.00    -0.463 OA
ENDROOT
BRANCH   1   2
ATOM      2  C   UNL A   1      35.032  33.064  28.453  1.00  0.00     0.313 C 
ATOM      3  O   UNL A   1      35.096  33.808  27.479  1.00  0.00    -0.252 OA
BRANCH   2   4
ATOM      4  C   UNL A   1      35.505  31.613  28.416  1.00  0.00     0.126 C 
ATOM      5  C   UNL A   1      35.917  31.114  29.811  1.00  0.00     0.025 C 
BRANCH   4   6
ATOM      6  C   UNL A   1      34.510  30.698  27.719  1.00  0.00    -0.031 A 
ATOM      7  C   UNL A   1      32.679  29.032  26.335  1.00  0.00     0.018 A 
ATOM      8  C   UNL A   1      32.274  30.269  26.849  1.00  0.00     0.012 A 
ATOM      9  C   UNL A   1      33.994  28.621  26.576  1.00  0.00     0.131 A 
ATOM     10  C   UNL A   1      33.173  31.084  27.541  1.00  0.00     0.005 A 
ATOM     11  C   UNL A   1      34.892  29.427  27.264  1.00  0.00     0.044 A 
ATOM     12  F   UNL A   1      34.428  27.429  26.138  1.00  0.00    -0.206 F 
BRANCH   7  13
ATOM     13  C   UNL A   1      31.745  28.192  25.588  1.00  0.00    -0.012 A 
ATOM     14  C   UNL A   1      30.559  26.100  25.331  1.00  0.00     0.133 A 
ATOM     15  C   UNL A   1      29.980  26.545  24.146  1.00  0.00     0.047 A 
ATOM     16  C   UNL A   1      31.450  26.902  26.038  1.00  0.00     0.056 A 
ATOM     17  C   UNL A   1      30.271  27.827  23.683  1.00  0.00     0.004 A 
ATOM     18  C   UNL A   1      31.144  28.646  24.403  1.00  0.00     0.009 A 
BRANCH  14  19
ATOM     19  O   UNL A   1      30.324  24.771  25.709  1.00  0.00    -0.410 OA
BRANCH  19  20
ATOM     20  C   UNL A   1      31.321  24.089  26.383  1.00  0.00     0.412 C 
ATOM     21  N   UNL A   1      32.271  23.571  25.553  1.00  0.00    -0.321 N 
ATOM     22  H   UNL A   1      32.993  23.048  25.972  1.00  0.00     0.167 HD
ATOM     23  O   UNL A   1      31.401  23.926  27.602  1.00  0.00    -0.224 OA
BRANCH  21  24
ATOM     24  C   UNL A   1      32.320  23.717  24.113  1.00  0.00     0.119 C 
BRANCH  24  25
ATOM     25  C   UNL A   1      33.643  24.321  23.646  1.00  0.00     0.021 C 
BRANCH  25  26
ATOM     26  C   UNL A   1      34.700  24.486  24.742  1.00  0.00     0.002 C 
BRANCH  26  27
ATOM     27  C   UNL A   1      35.898  23.534  24.647  1.00  0.00    -0.000 C 
BRANCH  27  28
ATOM     28  C   UNL A   1      35.837  22.313  25.568  1.00  0.00    -0.003 C 
ATOM     29  C   UNL A   1      36.554  21.099  25.000  1.00  0.00     0.004 C 
ENDBRANCH  27  28
ENDBRANCH  26  27
ENDBRANCH  25  26
ENDBRANCH  24  25
ENDBRANCH  21  24
ENDBRANCH  19  20
ENDBRANCH  14  19
ENDBRANCH   7  13
ENDBRANCH   4   6
ENDBRANCH   2   4
ENDBRANCH   1   2
BRANCH   1  30
ATOM     30  C   UNL A   1      33.885  34.701  29.716  1.00  0.00     0.261 C 
BRANCH  30  31
ATOM     31  C   UNL A   1      33.571  35.145  31.147  1.00  0.00     0.202 C 
BRANCH  31  32
ATOM     32  O   UNL A   1      34.607  35.051  32.120  1.00  0.00    -0.374 OA
BRANCH  32  33
ATOM     33  C   UNL A   1      34.700  33.868  32.908  1.00  0.00     0.202 C 
BRANCH  33  34
ATOM     34  C   UNL A   1      35.225  33.985  34.346  1.00  0.00     0.261 C 
BRANCH  34  35
ATOM     35  O   UNL A   1      36.370  33.154  34.604  1.00  0.00    -0.460 OA
BRANCH  35  36
ATOM     36  C   UNL A   1      37.562  33.756  34.361  1.00  0.00     0.338 C 
ATOM     37  O   UNL A   1      37.846  34.926  34.550  1.00  0.00    -0.246 OA
BRANCH  36  38
ATOM     38  C   UNL A   1      38.580  32.752  33.998  1.00  0.00     0.060 A 
ATOM     39  C   UNL A   1      38.352  31.425  34.386  1.00  0.00     0.016 A 
ATOM     40  C   UNL A   1      39.784  33.121  33.400  1.00  0.00     0.016 A 
ATOM     41  C   UNL A   1      39.353  30.468  34.229  1.00  0.00     0.010 A 
ATOM     42  C   UNL A   1      40.791  32.162  33.256  1.00  0.00     0.010 A 
ATOM     43  C   UNL A   1      40.596  30.844  33.709  1.00  0.00    -0.014 A 
BRANCH  43  44
ATOM     44  C   UNL A   1      41.755  29.925  33.804  1.00  0.00     0.031 A 
ATOM     45  C   UNL A   1      42.605  29.973  35.047  1.00  0.00     0.074 A 
ATOM     46  C   UNL A   1      42.059  29.076  32.807  1.00  0.00     0.049 A 
ATOM     47  N   UNL A   1      43.747  29.388  35.291  1.00  0.00    -0.248 NA
ATOM     48  C   UNL A   1      42.098  30.797  36.158  1.00  0.00     0.031 C 
ATOM     49  C   UNL A   1      41.273  28.884  31.589  1.00  0.00     0.029 A 
ATOM     50  N   UNL A   1      43.129  28.229  32.656  1.00  0.00    -0.354 N 
ATOM     51  C   UNL A   1      44.112  29.796  36.570  1.00  0.00     0.074 A 
ATOM     52  C   UNL A   1      43.076  30.685  37.045  1.00  0.00     0.031 C 
ATOM     53  C   UNL A   1      41.904  27.996  30.801  1.00  0.00     0.029 A 
ATOM     54  C   UNL A   1      43.159  27.596  31.436  1.00  0.00     0.049 A 
ATOM     55  H   UNL A   1      43.809  28.088  33.353  1.00  0.00     0.167 HD
ATOM     56  C   UNL A   1      45.216  29.462  37.279  1.00  0.00     0.031 A 
ATOM     57  C   UNL A   1      44.110  26.821  30.878  1.00  0.00     0.031 A 
ATOM     58  C   UNL A   1      46.242  28.579  36.796  1.00  0.00     0.049 A 
ATOM     59  C   UNL A   1      45.372  26.529  31.652  1.00  0.00     0.074 A 
ATOM     60  C   UNL A   1      47.396  28.169  37.441  1.00  0.00     0.029 A 
ATOM     61  N   UNL A   1      46.242  27.972  35.549  1.00  0.00    -0.354 N 
ATOM     62  N   UNL A   1      45.707  26.921  32.858  1.00  0.00    -0.248 NA
ATOM     63  C   UNL A   1      46.384  25.690  30.992  1.00  0.00     0.031 C 
ATOM     64  C   UNL A   1      48.121  27.362  36.562  1.00  0.00     0.029 A 
ATOM     65  C   UNL A   1      47.385  27.210  35.396  1.00  0.00     0.049 A 
ATOM     66  H   UNL A   1      45.532  28.070  34.874  1.00  0.00     0.167 HD
ATOM     67  C   UNL A   1      46.946  26.342  33.116  1.00  0.00     0.074 A 
ATOM     68  C   UNL A   1      47.304  25.577  31.941  1.00  0.00     0.031 C 
ATOM     69  C   UNL A   1      47.713  26.430  34.229  1.00  0.00     0.031 A 
BRANCH  56  70
ATOM     70  C   UNL A   1      45.397  30.090  38.636  1.00  0.00    -0.014 A 
ATOM     71  C   UNL A   1      45.791  31.431  38.776  1.00  0.00     0.010 A 
ATOM     72  C   UNL A   1      45.113  29.334  39.789  1.00  0.00     0.010 A 
ATOM     73  C   UNL A   1      45.927  31.997  40.048  1.00  0.00     0.020 A 
ATOM     74  C   UNL A   1      45.220  29.904  41.060  1.00  0.00     0.020 A 
ATOM     75  C   UNL A   1      45.640  31.229  41.181  1.00  0.00     0.054 A 
BRANCH  75  76
ATOM     76  S   UNL A   1      45.792  32.000  42.816  1.00  0.00     0.124 S 
ATOM     77  O   UNL A   1      44.807  31.252  43.593  1.00  0.00    -0.237 OA
ATOM     78  O   UNL A   1      47.189  31.745  43.162  1.00  0.00    -0.237 OA
ATOM     79  O   UNL A   1      45.459  33.401  42.573  1.00  0.00    -0.744 OA
ENDBRANCH  75  76
ENDBRANCH  56  70
BRANCH  57  80
ATOM     80  C   UNL A   1      43.929  26.297  29.495  1.00  0.00    -0.014 A 
ATOM     81  C   UNL A   1      43.213  25.112  29.262  1.00  0.00     0.010 A 
ATOM     82  C   UNL A   1      44.484  26.987  28.400  1.00  0.00     0.010 A 
ATOM     83  C   UNL A   1      43.072  24.612  27.963  1.00  0.00     0.020 A 
ATOM     84  C   UNL A   1      44.319  26.507  27.097  1.00  0.00     0.020 A 
ATOM     85  C   UNL A   1      43.625  25.315  26.889  1.00  0.00     0.054 A 
BRANCH  85  86
ATOM     86  S   UNL A   1      43.397  24.668  25.209  1.00  0.00     0.124 S 
ATOM     87  O   UNL A   1      44.743  24.777  24.657  1.00  0.00    -0.237 OA
ATOM     88  O   UNL A   1      42.922  23.310  25.456  1.00  0.00    -0.237 OA
ATOM     89  O   UNL A   1      42.406  25.571  24.626  1.00  0.00    -0.744 OA
ENDBRANCH  85  86
ENDBRANCH  57  80
BRANCH  69  90
ATOM     90  C   UNL A   1      48.988  25.631  34.282  1.00  0.00    -0.014 A 
ATOM     91  C   UNL A   1      48.998  24.289  34.694  1.00  0.00     0.010 A 
ATOM     92  C   UNL A   1      50.175  26.207  33.787  1.00  0.00     0.010 A 
ATOM     93  C   UNL A   1      50.174  23.536  34.611  1.00  0.00     0.020 A 
ATOM     94  C   UNL A   1      51.343  25.451  33.678  1.00  0.00     0.020 A 
ATOM     95  C   UNL A   1      51.336  24.118  34.093  1.00  0.00     0.054 A 
BRANCH  95  96
ATOM     96  S   UNL A   1      52.819  23.091  33.903  1.00  0.00     0.124 S 
ATOM     97  O   UNL A   1      53.617  23.488  35.060  1.00  0.00    -0.237 OA
ATOM     98  O   UNL A   1      52.277  21.735  33.949  1.00  0.00    -0.237 OA
ATOM     99  O   UNL A   1      53.358  23.496  32.607  1.00  0.00    -0.744 OA
ENDBRANCH  95  96
ENDBRANCH  69  90
ENDBRANCH  43  44
ENDBRANCH  36  38
ENDBRANCH  35  36
ENDBRANCH  34  35
ENDBRANCH  33  34
ENDBRANCH  32  33
ENDBRANCH  31  32
ENDBRANCH  30  31
ENDBRANCH   1  30
TORSDOF 26
ENDMDL
MODEL 2
REMARK VINA RESULT:      -8.4      5.660      7.253
REMARK SMILES CCCCCCNC(=O)Oc1cccc(-c2ccc([C@H](C)C(=O)OCCOCCOC(=O)c3ccc(-c4c5nc(c(-c6ccc(S(=O)(=O)[O-])cc6)c6ccc([nH]6)c(-c6ccc(S(=O)(=O)[O-])cc6)c6nc(c(-c7ccc(S(=O)(=O)[O-])cc7)c7ccc4[nH]7)C=C6)C=C5)cc3)cc2F)c1
REMARK SMILES IDX 24 1 22 2 23 3 20 4 21 5 19 6 16 7 17 8 94 9 18 10 93 11
REMARK SMILES IDX 95 12 15 13 11 14 12 15 96 16 13 17 14 18 10 19 8 20 7 21
REMARK SMILES IDX 9 23 6 24 5 25 4 26 3 27 2 28 1 29 25 30 26 31 27 32 28 33
REMARK SMILES IDX 29 34 30 35 31 36 32 37 33 38 34 39 92 40 35 41 91 42 36 43
REMARK SMILES IDX 37 44 38 45 85 46 39 47 90 48 84 49 86 50 40 51 89 52 83 53
REMARK SMILES IDX 82 54 41 56 71 57 52 58 70 59 53 60 56 61 69 62 87 63 54 64
REMARK SMILES IDX 55 65 68 67 88 68 57 69 42 70 43 71 51 72 44 73 50 74 45 75
REMARK SMILES IDX 46 76 47 77 48 78 49 79 72 80 73 81 81 82 74 83 80 84 75 85
REMARK SMILES IDX 76 86 77 87 78 88 79 89 58 90 59 91 67 92 60 93 66 94 61 95
REMARK SMILES IDX 62 96 63 97 64 98 65 99
REMARK H PARENT 7 22 86 55 56 66
REMARK Flexibility Score: inf
ROOT
ATOM      1  O   UNL A   1      34.527  33.332  29.177  1.00  0.00    -0.463 OA
ENDROOT
BRANCH   1   2
ATOM      2  C   UNL A   1      35.353  32.963  28.159  1.00  0.00     0.313 C 
ATOM      3  O   UNL A   1      35.746  33.712  27.270  1.00  0.00    -0.252 OA
BRANCH   2   4
ATOM      4  C   UNL A   1      35.727  31.484  28.218  1.00  0.00     0.126 C 
ATOM      5  C   UNL A   1      36.098  31.048  29.645  1.00  0.00     0.025 C 
BRANCH   4   6
ATOM      6  C   UNL A   1      34.674  30.595  27.572  1.00  0.00    -0.031 A 
ATOM      7  C   UNL A   1      32.733  28.980  26.283  1.00  0.00     0.018 A 
ATOM      8  C   UNL A   1      32.388  30.228  26.814  1.00  0.00     0.012 A 
ATOM      9  C   UNL A   1      34.047  28.533  26.460  1.00  0.00     0.131 A 
ATOM     10  C   UNL A   1      33.341  31.019  27.459  1.00  0.00     0.005 A 
ATOM     11  C   UNL A   1      34.998  29.314  27.102  1.00  0.00     0.044 A 
ATOM     12  F   UNL A   1      34.426  27.329  26.003  1.00  0.00    -0.206 F 
BRANCH   7  13
ATOM     13  C   UNL A   1      31.742  28.165  25.584  1.00  0.00    -0.012 A 
ATOM     14  C   UNL A   1      30.468  26.116  25.404  1.00  0.00     0.133 A 
ATOM     15  C   UNL A   1      29.864  26.565  24.233  1.00  0.00     0.047 A 
ATOM     16  C   UNL A   1      31.414  26.894  26.066  1.00  0.00     0.056 A 
ATOM     17  C   UNL A   1      30.186  27.827  23.739  1.00  0.00     0.004 A 
ATOM     18  C   UNL A   1      31.116  28.623  24.413  1.00  0.00     0.009 A 
BRANCH  14  19
ATOM     19  O   UNL A   1      30.196  24.803  25.813  1.00  0.00    -0.410 OA
BRANCH  19  20
ATOM     20  C   UNL A   1      31.202  24.082  26.431  1.00  0.00     0.412 C 
ATOM     21  N   UNL A   1      31.877  23.262  25.577  1.00  0.00    -0.321 N 
ATOM     22  H   UNL A   1      32.586  22.700  25.964  1.00  0.00     0.167 HD
ATOM     23  O   UNL A   1      31.506  24.125  27.625  1.00  0.00    -0.224 OA
BRANCH  21  24
ATOM     24  C   UNL A   1      31.649  23.140  24.152  1.00  0.00     0.119 C 
BRANCH  24  25
ATOM     25  C   UNL A   1      32.779  23.767  23.338  1.00  0.00     0.021 C 
BRANCH  25  26
ATOM     26  C   UNL A   1      34.176  23.618  23.951  1.00  0.00     0.002 C 
BRANCH  26  27
ATOM     27  C   UNL A   1      35.238  23.013  23.026  1.00  0.00    -0.000 C 
BRANCH  27  28
ATOM     28  C   UNL A   1      36.660  22.989  23.592  1.00  0.00    -0.003 C 
ATOM     29  C   UNL A   1      36.703  22.754  25.093  1.00  0.00     0.004 C 
ENDBRANCH  27  28
ENDBRANCH  26  27
ENDBRANCH  25  26
ENDBRANCH  24  25
ENDBRANCH  21  24
ENDBRANCH  19  20
ENDBRANCH  14  19
ENDBRANCH   7  13
ENDBRANCH   4   6
ENDBRANCH   2   4
ENDBRANCH   1   2
BRANCH   1  30
ATOM     30  C   UNL A   1      33.916  34.623  29.036  1.00  0.00     0.261 C 
BRANCH  30  31
ATOM     31  C   UNL A   1      33.201  35.079  30.310  1.00  0.00     0.202 C 
BRANCH  31  32
ATOM     32  O   UNL A   1      33.837  34.830  31.561  1.00  0.00    -0.374 OA
BRANCH  32  33
ATOM     33  C   UNL A   1      34.313  33.516  31.837  1.00  0.00     0.202 C 
BRANCH  33  34
ATOM     34  C   UNL A   1      34.510  33.102  33.302  1.00  0.00     0.261 C 
BRANCH  34  35
ATOM     35  O   UNL A   1      35.877  32.799  33.630  1.00  0.00    -0.460 OA
BRANCH  35  36
ATOM     36  C   UNL A   1      36.733  33.841  33.476  1.00  0.00     0.338 C 
ATOM     37  O   UNL A   1      36.644  34.945  33.984  1.00  0.00    -0.246 OA
BRANCH  36  38
ATOM     38  C   UNL A   1      37.935  33.414  32.737  1.00  0.00     0.060 A 
ATOM     39  C   UNL A   1      38.997  32.875  33.477  1.00  0.00     0.016 A 
ATOM     40  C   UNL A   1      38.068  33.645  31.368  1.00  0.00     0.016 A 
ATOM     41  C   UNL A   1      40.221  32.620  32.862  1.00  0.00     0.010 A 
ATOM     42  C   UNL A   1      39.301  33.400  30.756  1.00  0.00     0.010 A 
ATOM     43  C   UNL A   1      40.393  32.928  31.508  1.00  0.00    -0.014 A 
BRANCH  43  44
ATOM     44  C   UNL A   1      41.750  32.941  30.911  1.00  0.00     0.031 A 
ATOM     45  C   UNL A   1      42.549  34.215  30.978  1.00  0.00     0.074 A 
ATOM     46  C   UNL A   1      42.260  31.851  30.310  1.00  0.00     0.049 A 
ATOM     47  N   UNL A   1      43.679  34.515  30.396  1.00  0.00    -0.248 NA
ATOM     48  C   UNL A   1      41.991  35.297  31.808  1.00  0.00     0.031 C 
ATOM     49  C   UNL A   1      41.617  30.539  30.247  1.00  0.00     0.029 A 
ATOM     50  N   UNL A   1      43.435  31.686  29.619  1.00  0.00    -0.354 N 
ATOM     51  C   UNL A   1      43.954  35.829  30.763  1.00  0.00     0.074 A 
ATOM     52  C   UNL A   1      42.868  36.271  31.608  1.00  0.00     0.031 C 
ATOM     53  C   UNL A   1      42.394  29.710  29.528  1.00  0.00     0.029 A 
ATOM     54  C   UNL A   1      43.561  30.444  29.041  1.00  0.00     0.049 A 
ATOM     55  H   UNL A   1      44.121  32.388  29.544  1.00  0.00     0.167 HD
ATOM     56  C   UNL A   1      45.015  36.596  30.419  1.00  0.00     0.031 A 
ATOM     57  C   UNL A   1      44.487  29.971  28.183  1.00  0.00     0.031 A 
ATOM     58  C   UNL A   1      46.089  36.148  29.575  1.00  0.00     0.049 A 
ATOM     59  C   UNL A   1      45.616  30.871  27.745  1.00  0.00     0.074 A 
ATOM     60  C   UNL A   1      47.215  36.845  29.175  1.00  0.00     0.029 A 
ATOM     61  N   UNL A   1      46.170  34.889  28.999  1.00  0.00    -0.354 N 
ATOM     62  N   UNL A   1      45.865  32.109  28.097  1.00  0.00    -0.248 NA
ATOM     63  C   UNL A   1      46.590  30.310  26.797  1.00  0.00     0.031 C 
ATOM     64  C   UNL A   1      47.947  36.029  28.309  1.00  0.00     0.029 A 
ATOM     65  C   UNL A   1      47.314  34.797  28.228  1.00  0.00     0.049 A 
ATOM     66  H   UNL A   1      45.510  34.169  29.121  1.00  0.00     0.167 HD
ATOM     67  C   UNL A   1      47.045  32.460  27.447  1.00  0.00     0.074 A 
ATOM     68  C   UNL A   1      47.458  31.306  26.678  1.00  0.00     0.031 C 
ATOM     69  C   UNL A   1      47.727  33.630  27.491  1.00  0.00     0.031 A 
BRANCH  56  70
ATOM     70  C   UNL A   1      45.046  38.017  30.916  1.00  0.00    -0.014 A 
ATOM     71  C   UNL A   1      44.304  39.031  30.286  1.00  0.00     0.010 A 
ATOM     72  C   UNL A   1      45.789  38.328  32.070  1.00  0.00     0.010 A 
ATOM     73  C   UNL A   1      44.330  40.337  30.783  1.00  0.00     0.020 A 
ATOM     74  C   UNL A   1      45.795  39.626  32.587  1.00  0.00     0.020 A 
ATOM     75  C   UNL A   1      45.075  40.626  31.931  1.00  0.00     0.054 A 
BRANCH  75  76
ATOM     76  S   UNL A   1      45.063  42.322  32.574  1.00  0.00     0.124 S 
ATOM     77  O   UNL A   1      45.535  42.128  33.943  1.00  0.00    -0.237 OA
ATOM     78  O   UNL A   1      45.993  43.010  31.681  1.00  0.00    -0.237 OA
ATOM     79  O   UNL A   1      43.667  42.731  32.450  1.00  0.00    -0.744 OA
ENDBRANCH  75  76
ENDBRANCH  56  70
BRANCH  57  80
ATOM     80  C   UNL A   1      44.364  28.587  27.644  1.00  0.00    -0.014 A 
ATOM     81  C   UNL A   1      44.763  27.478  28.408  1.00  0.00     0.010 A 
ATOM     82  C   UNL A   1      43.850  28.376  26.350  1.00  0.00     0.010 A 
ATOM     83  C   UNL A   1      44.672  26.186  27.883  1.00  0.00     0.020 A 
ATOM     84  C   UNL A   1      43.728  27.082  25.833  1.00  0.00     0.020 A 
ATOM     85  C   UNL A   1      44.153  25.996  26.599  1.00  0.00     0.054 A 
BRANCH  85  86
ATOM     86  S   UNL A   1      44.009  24.307  25.953  1.00  0.00     0.124 S 
ATOM     87  O   UNL A   1      45.351  24.064  25.435  1.00  0.00    -0.237 OA
ATOM     88  O   UNL A   1      43.642  23.545  27.143  1.00  0.00    -0.237 OA
ATOM     89  O   UNL A   1      42.958  24.416  24.943  1.00  0.00    -0.744 OA
ENDBRANCH  85  86
ENDBRANCH  57  80
BRANCH  69  90
ATOM     90  C   UNL A   1      49.035  33.720  26.750  1.00  0.00    -0.014 A 
ATOM     91  C   UNL A   1      49.169  34.495  25.587  1.00  0.00     0.010 A 
ATOM     92  C   UNL A   1      50.177  33.113  27.308  1.00  0.00     0.010 A 
ATOM     93  C   UNL A   1      50.424  34.661  24.993  1.00  0.00     0.020 A 
ATOM     94  C   UNL A   1      51.435  33.299  26.733  1.00  0.00     0.020 A 
ATOM     95  C   UNL A   1      51.551  34.072  25.576  1.00  0.00     0.054 A 
BRANCH  95  96
ATOM     96  S   UNL A   1      53.181  34.387  24.844  1.00  0.00     0.124 S 
ATOM     97  O   UNL A   1      53.202  33.444  23.729  1.00  0.00    -0.237 OA
ATOM     98  O   UNL A   1      53.097  35.798  24.473  1.00  0.00    -0.237 OA
ATOM     99  O   UNL A   1      54.113  34.089  25.929  1.00  0.00    -0.744 OA
ENDBRANCH  95  96
ENDBRANCH  69  90
ENDBRANCH  43  44
ENDBRANCH  36  38
ENDBRANCH  35  36
ENDBRANCH  34  35
ENDBRANCH  33  34
ENDBRANCH  32  33
ENDBRANCH  31  32
ENDBRANCH  30  31
ENDBRANCH   1  30
TORSDOF 26
ENDMDL
MODEL 3
REMARK VINA RESULT:      -8.4      6.311     11.965
REMARK SMILES CCCCCCNC(=O)Oc1cccc(-c2ccc([C@H](C)C(=O)OCCOCCOC(=O)c3ccc(-c4c5nc(c(-c6ccc(S(=O)(=O)[O-])cc6)c6ccc([nH]6)c(-c6ccc(S(=O)(=O)[O-])cc6)c6nc(c(-c7ccc(S(=O)(=O)[O-])cc7)c7ccc4[nH]7)C=C6)C=C5)cc3)cc2F)c1
REMARK SMILES IDX 24 1 22 2 23 3 20 4 21 5 19 6 16 7 17 8 94 9 18 10 93 11
REMARK SMILES IDX 95 12 15 13 11 14 12 15 96 16 13 17 14 18 10 19 8 20 7 21
REMARK SMILES IDX 9 23 6 24 5 25 4 26 3 27 2 28 1 29 25 30 26 31 27 32 28 33
REMARK SMILES IDX 29 34 30 35 31 36 32 37 33 38 34 39 92 40 35 41 91 42 36 43
REMARK SMILES IDX 37 44 38 45 85 46 39 47 90 48 84 49 86 50 40 51 89 52 83 53
REMARK SMILES IDX 82 54 41 56 71 57 52 58 70 59 53 60 56 61 69 62 87 63 54 64
REMARK SMILES IDX 55 65 68 67 88 68 57 69 42 70 43 71 51 72 44 73 50 74 45 75
REMARK SMILES IDX 46 76 47 77 48 78 49 79 72 80 73 81 81 82 74 83 80 84 75 85
REMARK SMILES IDX 76 86 77 87 78 88 79 89 58 90 59 91 67 92 60 93 66 94 61 95
REMARK SMILES IDX 62 96 63 97 64 98 65 99
REMARK H PARENT 7 22 86 55 56 66
REMARK Flexibility Score: inf
ROOT
ATOM      1  O   UNL A   1      43.370  22.618  26.439  1.00  0.00    -0.463 OA
ENDROOT
BRANCH   1   2
ATOM      2  C   UNL A   1      42.537  21.798  27.137  1.00  0.00     0.313 C 
ATOM      3  O   UNL A   1      42.575  20.572  27.110  1.00  0.00    -0.252 OA
BRANCH   2   4
ATOM      4  C   UNL A   1      41.506  22.574  27.955  1.00  0.00     0.126 C 
ATOM      5  C   UNL A   1      42.069  23.914  28.454  1.00  0.00     0.025 C 
BRANCH   4   6
ATOM      6  C   UNL A   1      40.177  22.713  27.228  1.00  0.00    -0.031 A 
ATOM      7  C   UNL A   1      37.748  23.005  25.795  1.00  0.00     0.018 A 
ATOM      8  C   UNL A   1      38.251  24.054  26.573  1.00  0.00     0.012 A 
ATOM      9  C   UNL A   1      38.449  21.795  25.794  1.00  0.00     0.131 A 
ATOM     10  C   UNL A   1      39.441  23.906  27.288  1.00  0.00     0.005 A 
ATOM     11  C   UNL A   1      39.633  21.642  26.504  1.00  0.00     0.044 A 
ATOM     12  F   UNL A   1      37.995  20.743  25.094  1.00  0.00    -0.206 F 
BRANCH   7  13
ATOM     13  C   UNL A   1      36.516  23.169  25.025  1.00  0.00    -0.012 A 
ATOM     14  C   UNL A   1      34.134  23.581  24.952  1.00  0.00     0.133 A 
ATOM     15  C   UNL A   1      34.129  23.453  23.566  1.00  0.00     0.047 A 
ATOM     16  C   UNL A   1      35.308  23.422  25.682  1.00  0.00     0.056 A 
ATOM     17  C   UNL A   1      35.325  23.196  22.899  1.00  0.00     0.004 A 
ATOM     18  C   UNL A   1      36.512  23.060  23.625  1.00  0.00     0.009 A 
BRANCH  14  19
ATOM     19  O   UNL A   1      32.898  23.737  25.594  1.00  0.00    -0.410 OA
BRANCH  19  20
ATOM     20  C   UNL A   1      31.839  24.259  24.872  1.00  0.00     0.412 C 
ATOM     21  N   UNL A   1      31.640  25.588  25.097  1.00  0.00    -0.321 N 
ATOM     22  H   UNL A   1      30.881  26.011  24.633  1.00  0.00     0.167 HD
ATOM     23  O   UNL A   1      31.110  23.641  24.093  1.00  0.00    -0.224 OA
BRANCH  21  24
ATOM     24  C   UNL A   1      32.440  26.439  25.953  1.00  0.00     0.119 C 
BRANCH  24  25
ATOM     25  C   UNL A   1      31.637  27.622  26.492  1.00  0.00     0.021 C 
BRANCH  25  26
ATOM     26  C   UNL A   1      32.447  28.631  27.313  1.00  0.00     0.002 C 
BRANCH  26  27
ATOM     27  C   UNL A   1      33.789  29.048  26.702  1.00  0.00    -0.000 C 
BRANCH  27  28
ATOM     28  C   UNL A   1      34.565  30.106  27.490  1.00  0.00    -0.003 C 
ATOM     29  C   UNL A   1      36.045  29.786  27.625  1.00  0.00     0.004 C 
ENDBRANCH  27  28
ENDBRANCH  26  27
ENDBRANCH  25  26
ENDBRANCH  24  25
ENDBRANCH  21  24
ENDBRANCH  19  20
ENDBRANCH  14  19
ENDBRANCH   7  13
ENDBRANCH   4   6
ENDBRANCH   2   4
ENDBRANCH   1   2
BRANCH   1  30
ATOM     30  C   UNL A   1      43.210  22.585  25.012  1.00  0.00     0.261 C 
BRANCH  30  31
ATOM     31  C   UNL A   1      44.455  22.059  24.293  1.00  0.00     0.202 C 
BRANCH  31  32
ATOM     32  O   UNL A   1      45.264  22.992  23.583  1.00  0.00    -0.374 OA
BRANCH  32  33
ATOM     33  C   UNL A   1      45.889  24.046  24.309  1.00  0.00     0.202 C 
BRANCH  33  34
ATOM     34  C   UNL A   1      46.757  23.685  25.523  1.00  0.00     0.261 C 
BRANCH  34  35
ATOM     35  O   UNL A   1      47.955  24.474  25.622  1.00  0.00    -0.460 OA
BRANCH  35  36
ATOM     36  C   UNL A   1      48.340  24.746  26.895  1.00  0.00     0.338 C 
ATOM     37  O   UNL A   1      49.229  24.200  27.526  1.00  0.00    -0.246 OA
BRANCH  36  38
ATOM     38  C   UNL A   1      47.656  25.954  27.392  1.00  0.00     0.060 A 
ATOM     39  C   UNL A   1      47.218  26.890  26.445  1.00  0.00     0.016 A 
ATOM     40  C   UNL A   1      47.554  26.223  28.757  1.00  0.00     0.016 A 
ATOM     41  C   UNL A   1      46.727  28.127  26.858  1.00  0.00     0.010 A 
ATOM     42  C   UNL A   1      47.074  27.469  29.168  1.00  0.00     0.010 A 
ATOM     43  C   UNL A   1      46.699  28.441  28.221  1.00  0.00    -0.014 A 
BRANCH  43  44
ATOM     44  C   UNL A   1      46.461  29.836  28.661  1.00  0.00     0.031 A 
ATOM     45  C   UNL A   1      45.130  30.175  29.279  1.00  0.00     0.074 A 
ATOM     46  C   UNL A   1      47.399  30.788  28.507  1.00  0.00     0.049 A 
ATOM     47  N   UNL A   1      44.636  31.343  29.591  1.00  0.00    -0.248 NA
ATOM     48  C   UNL A   1      44.236  29.041  29.574  1.00  0.00     0.031 C 
ATOM     49  C   UNL A   1      48.750  30.570  27.994  1.00  0.00     0.029 A 
ATOM     50  N   UNL A   1      47.343  32.138  28.752  1.00  0.00    -0.354 N 
ATOM     51  C   UNL A   1      43.362  31.090  30.092  1.00  0.00     0.074 A 
ATOM     52  C   UNL A   1      43.157  29.660  30.031  1.00  0.00     0.031 C 
ATOM     53  C   UNL A   1      49.388  31.752  27.934  1.00  0.00     0.029 A 
ATOM     54  C   UNL A   1      48.474  32.813  28.358  1.00  0.00     0.049 A 
ATOM     55  H   UNL A   1      46.569  32.580  29.168  1.00  0.00     0.167 HD
ATOM     56  C   UNL A   1      42.447  31.973  30.555  1.00  0.00     0.031 A 
ATOM     57  C   UNL A   1      48.726  34.136  28.303  1.00  0.00     0.031 A 
ATOM     58  C   UNL A   1      42.661  33.394  30.609  1.00  0.00     0.049 A 
ATOM     59  C   UNL A   1      47.661  35.109  28.744  1.00  0.00     0.074 A 
ATOM     60  C   UNL A   1      41.800  34.375  31.070  1.00  0.00     0.029 A 
ATOM     61  N   UNL A   1      43.814  34.038  30.186  1.00  0.00    -0.354 N 
ATOM     62  N   UNL A   1      46.462  34.860  29.214  1.00  0.00    -0.248 NA
ATOM     63  C   UNL A   1      47.982  36.541  28.650  1.00  0.00     0.031 C 
ATOM     64  C   UNL A   1      42.409  35.616  30.870  1.00  0.00     0.029 A 
ATOM     65  C   UNL A   1      43.678  35.404  30.352  1.00  0.00     0.049 A 
ATOM     66  H   UNL A   1      44.610  33.589  29.821  1.00  0.00     0.167 HD
ATOM     67  C   UNL A   1      45.903  36.100  29.510  1.00  0.00     0.074 A 
ATOM     68  C   UNL A   1      46.892  37.098  29.163  1.00  0.00     0.031 C 
ATOM     69  C   UNL A   1      44.685  36.384  30.029  1.00  0.00     0.031 A 
BRANCH  56  70
ATOM     70  C   UNL A   1      41.112  31.437  30.997  1.00  0.00    -0.014 A 
ATOM     71  C   UNL A   1      40.892  31.016  32.320  1.00  0.00     0.010 A 
ATOM     72  C   UNL A   1      40.043  31.408  30.082  1.00  0.00     0.010 A 
ATOM     73  C   UNL A   1      39.635  30.546  32.712  1.00  0.00     0.020 A 
ATOM     74  C   UNL A   1      38.778  30.966  30.476  1.00  0.00     0.020 A 
ATOM     75  C   UNL A   1      38.586  30.524  31.787  1.00  0.00     0.054 A 
BRANCH  75  76
ATOM     76  S   UNL A   1      36.957  29.943  32.331  1.00  0.00     0.124 S 
ATOM     77  O   UNL A   1      36.339  29.552  31.067  1.00  0.00    -0.237 OA
ATOM     78  O   UNL A   1      37.294  28.842  33.232  1.00  0.00    -0.237 OA
ATOM     79  O   UNL A   1      36.367  31.113  32.976  1.00  0.00    -0.744 OA
ENDBRANCH  75  76
ENDBRANCH  56  70
BRANCH  57  80
ATOM     80  C   UNL A   1      50.029  34.626  27.770  1.00  0.00    -0.014 A 
ATOM     81  C   UNL A   1      51.109  34.881  28.631  1.00  0.00     0.010 A 
ATOM     82  C   UNL A   1      50.190  34.845  26.388  1.00  0.00     0.010 A 
ATOM     83  C   UNL A   1      52.319  35.367  28.126  1.00  0.00     0.020 A 
ATOM     84  C   UNL A   1      51.408  35.302  25.875  1.00  0.00     0.020 A 
ATOM     85  C   UNL A   1      52.461  35.573  26.750  1.00  0.00     0.054 A 
BRANCH  85  86
ATOM     86  S   UNL A   1      54.051  36.169  26.113  1.00  0.00     0.124 S 
ATOM     87  O   UNL A   1      54.732  34.921  25.784  1.00  0.00    -0.237 OA
ATOM     88  O   UNL A   1      53.647  36.988  24.974  1.00  0.00    -0.237 OA
ATOM     89  O   UNL A   1      54.615  36.912  27.238  1.00  0.00    -0.744 OA
ENDBRANCH  85  86
ENDBRANCH  57  80
BRANCH  69  90
ATOM     90  C   UNL A   1      44.357  37.822  30.331  1.00  0.00    -0.014 A 
ATOM     91  C   UNL A   1      43.684  38.634  29.404  1.00  0.00     0.010 A 
ATOM     92  C   UNL A   1      44.620  38.324  31.622  1.00  0.00     0.010 A 
ATOM     93  C   UNL A   1      43.281  39.925  29.761  1.00  0.00     0.020 A 
ATOM     94  C   UNL A   1      44.196  39.602  31.989  1.00  0.00     0.020 A 
ATOM     95  C   UNL A   1      43.529  40.396  31.055  1.00  0.00     0.054 A 
BRANCH  95  96
ATOM     96  S   UNL A   1      42.907  42.035  31.522  1.00  0.00     0.124 S 
ATOM     97  O   UNL A   1      43.334  42.138  32.915  1.00  0.00    -0.237 OA
ATOM     98  O   UNL A   1      43.597  42.918  30.585  1.00  0.00    -0.237 OA
ATOM     99  O   UNL A   1      41.463  41.928  31.321  1.00  0.00    -0.744 OA
ENDBRANCH  95  96
ENDBRANCH  69  90
ENDBRANCH  43  44
ENDBRANCH  36  38
ENDBRANCH  35  36
ENDBRANCH  34  35
ENDBRANCH  33  34
ENDBRANCH  32  33
ENDBRANCH  31  32
ENDBRANCH  30  31
ENDBRANCH   1  30
TORSDOF 26
ENDMDL
