MODEL 1
REMARK VINA RESULT:     -11.1      0.000      0.000
REMARK SMILES O=C(Cn1c(=O)n(Cc2cccnc2)c(=O)c2sccc21)OCCOCCOC(=O)c1ccc(-c2c3nc(c(-c4ccc(S(=O)(=O)[O-])cc4)c4ccc([nH]4)c(-c4ccc(S(=O)(=O)[O-])cc4)c4nc(c(-c5ccc(S(=O)(=O)[O-])cc5)c5ccc2[nH]5)C=C4)C=C3)cc1
REMARK SMILES IDX 25 1 24 2 23 3 22 4 2 5 1 6 3 7 4 8 5 9 21 10 6 11 7 12
REMARK SMILES IDX 17 13 20 14 15 15 18 16 19 17 16 18 8 19 9 20 10 21 14 22
REMARK SMILES IDX 11 23 13 24 12 25 26 26 27 27 28 28 29 29 30 30 31 31 32 32
REMARK SMILES IDX 90 33 33 34 89 35 34 36 35 37 36 38 83 39 37 40 88 41 82 42
REMARK SMILES IDX 84 43 38 44 87 45 81 46 80 47 39 49 69 50 50 51 68 52 51 53
REMARK SMILES IDX 54 54 67 55 85 56 52 57 53 58 66 60 86 61 55 62 40 63 41 64
REMARK SMILES IDX 49 65 42 66 48 67 43 68 44 69 45 70 46 71 47 72 70 73 71 74
REMARK SMILES IDX 79 75 72 76 78 77 73 78 74 79 75 80 76 81 77 82 56 83 57 84
REMARK SMILES IDX 65 85 58 86 64 87 59 88 60 89 61 90 62 91 63 92
REMARK H PARENT 84 48 54 59
REMARK Flexibility Score: inf
ROOT
ATOM      1  O   UNL A   1      35.159  22.098  25.705  1.00  0.00    -0.374 OA
ENDROOT
BRANCH   1   2
ATOM      2  C   UNL A   1      33.777  22.249  25.419  1.00  0.00     0.202 C 
BRANCH   2   3
ATOM      3  C   UNL A   1      33.251  23.669  25.265  1.00  0.00     0.261 C 
BRANCH   3   4
ATOM      4  O   UNL A   1      31.823  23.822  25.289  1.00  0.00    -0.462 OA
BRANCH   4   5
ATOM      5  C   UNL A   1      31.168  24.303  26.378  1.00  0.00     0.326 C 
ATOM      6  O   UNL A   1      31.285  23.752  27.471  1.00  0.00    -0.250 OA
BRANCH   5   7
ATOM      7  C   UNL A   1      30.247  25.499  26.191  1.00  0.00     0.250 C 
BRANCH   7   8
ATOM      8  N   UNL A   1      30.665  26.724  25.515  1.00  0.00    -0.281 N 
ATOM      9  C   UNL A   1      30.187  26.855  24.200  1.00  0.00     0.332 A 
ATOM     10  C   UNL A   1      31.533  27.686  26.039  1.00  0.00     0.070 A 
ATOM     11  O   UNL A   1      29.341  26.078  23.747  1.00  0.00    -0.247 OA
ATOM     12  N   UNL A   1      30.717  27.887  23.427  1.00  0.00    -0.254 N 
ATOM     13  C   UNL A   1      32.130  28.576  25.184  1.00  0.00     0.116 A 
ATOM     14  C   UNL A   1      31.985  27.889  27.377  1.00  0.00     0.039 A 
ATOM     15  C   UNL A   1      31.814  28.664  23.790  1.00  0.00     0.274 A 
ATOM     16  S   UNL A   1      33.299  29.553  25.929  1.00  0.00    -0.136 S 
ATOM     17  C   UNL A   1      32.973  28.851  27.454  1.00  0.00     0.068 A 
ATOM     18  O   UNL A   1      32.418  29.376  22.982  1.00  0.00    -0.268 OA
BRANCH  12  19
ATOM     19  C   UNL A   1      30.078  28.178  22.153  1.00  0.00     0.168 C 
BRANCH  19  20
ATOM     20  C   UNL A   1      29.226  29.417  22.296  1.00  0.00    -0.010 A 
ATOM     21  C   UNL A   1      28.255  29.530  23.295  1.00  0.00     0.009 A 
ATOM     22  C   UNL A   1      29.462  30.540  21.504  1.00  0.00     0.116 A 
ATOM     23  C   UNL A   1      27.584  30.736  23.469  1.00  0.00     0.020 A 
ATOM     24  N   UNL A   1      28.828  31.724  21.656  1.00  0.00    -0.264 NA
ATOM     25  C   UNL A   1      27.909  31.796  22.641  1.00  0.00     0.111 A 
ENDBRANCH  19  20
ENDBRANCH  12  19
ENDBRANCH   7   8
ENDBRANCH   5   7
ENDBRANCH   4   5
ENDBRANCH   3   4
ENDBRANCH   2   3
ENDBRANCH   1   2
BRANCH   1  26
ATOM     26  C   UNL A   1      35.968  23.265  25.874  1.00  0.00     0.202 C 
BRANCH  26  27
ATOM     27  C   UNL A   1      37.459  23.171  25.578  1.00  0.00     0.261 C 
BRANCH  27  28
ATOM     28  O   UNL A   1      38.196  23.910  26.555  1.00  0.00    -0.460 OA
BRANCH  28  29
ATOM     29  C   UNL A   1      39.413  23.427  26.845  1.00  0.00     0.338 C 
ATOM     30  O   UNL A   1      39.694  22.250  27.103  1.00  0.00    -0.246 OA
BRANCH  29  31
ATOM     31  C   UNL A   1      40.392  24.508  26.922  1.00  0.00     0.060 A 
ATOM     32  C   UNL A   1      41.154  24.543  28.092  1.00  0.00     0.016 A 
ATOM     33  C   UNL A   1      40.258  25.626  26.085  1.00  0.00     0.016 A 
ATOM     34  C   UNL A   1      41.511  25.773  28.586  1.00  0.00     0.010 A 
ATOM     35  C   UNL A   1      40.615  26.859  26.584  1.00  0.00     0.010 A 
ATOM     36  C   UNL A   1      41.118  26.915  27.882  1.00  0.00    -0.014 A 
BRANCH  36  37
ATOM     37  C   UNL A   1      41.116  28.152  28.631  1.00  0.00     0.031 A 
ATOM     38  C   UNL A   1      42.249  29.052  28.376  1.00  0.00     0.074 A 
ATOM     39  C   UNL A   1      40.146  28.455  29.512  1.00  0.00     0.049 A 
ATOM     40  N   UNL A   1      43.210  29.364  29.179  1.00  0.00    -0.248 NA
ATOM     41  C   UNL A   1      42.371  29.592  27.018  1.00  0.00     0.031 C 
ATOM     42  C   UNL A   1      38.833  27.823  29.669  1.00  0.00     0.029 A 
ATOM     43  N   UNL A   1      40.110  29.487  30.395  1.00  0.00    -0.354 N 
ATOM     44  C   UNL A   1      43.989  30.274  28.482  1.00  0.00     0.074 A 
ATOM     45  C   UNL A   1      43.507  30.278  27.121  1.00  0.00     0.031 C 
ATOM     46  C   UNL A   1      38.051  28.627  30.424  1.00  0.00     0.029 A 
ATOM     47  C   UNL A   1      38.851  29.742  30.907  1.00  0.00     0.049 A 
ATOM     48  H   UNL A   1      40.908  30.006  30.647  1.00  0.00     0.167 HD
ATOM     49  C   UNL A   1      44.863  31.113  29.098  1.00  0.00     0.031 A 
ATOM     50  C   UNL A   1      38.483  30.847  31.597  1.00  0.00     0.031 A 
ATOM     51  C   UNL A   1      45.134  30.743  30.459  1.00  0.00     0.049 A 
ATOM     52  C   UNL A   1      39.711  31.471  32.147  1.00  0.00     0.074 A 
ATOM     53  C   UNL A   1      45.739  29.666  31.073  1.00  0.00     0.029 A 
ATOM     54  N   UNL A   1      44.439  31.407  31.441  1.00  0.00    -0.354 N 
ATOM     55  N   UNL A   1      40.446  30.930  33.077  1.00  0.00    -0.248 NA
ATOM     56  C   UNL A   1      40.351  32.552  31.410  1.00  0.00     0.031 C 
ATOM     57  C   UNL A   1      45.053  29.500  32.312  1.00  0.00     0.029 A 
ATOM     58  C   UNL A   1      44.067  30.485  32.391  1.00  0.00     0.049 A 
ATOM     59  H   UNL A   1      44.242  32.371  31.461  1.00  0.00     0.167 HD
ATOM     60  C   UNL A   1      41.748  31.308  32.779  1.00  0.00     0.074 A 
ATOM     61  C   UNL A   1      41.609  32.410  31.835  1.00  0.00     0.031 C 
ATOM     62  C   UNL A   1      42.809  30.516  33.115  1.00  0.00     0.031 A 
BRANCH  49  63
ATOM     63  C   UNL A   1      45.217  32.454  28.529  1.00  0.00    -0.014 A 
ATOM     64  C   UNL A   1      46.496  32.672  27.989  1.00  0.00     0.010 A 
ATOM     65  C   UNL A   1      44.389  33.582  28.722  1.00  0.00     0.010 A 
ATOM     66  C   UNL A   1      46.928  33.966  27.669  1.00  0.00     0.020 A 
ATOM     67  C   UNL A   1      44.791  34.867  28.363  1.00  0.00     0.020 A 
ATOM     68  C   UNL A   1      46.073  35.055  27.867  1.00  0.00     0.054 A 
BRANCH  68  69
ATOM     69  S   UNL A   1      46.673  36.730  27.543  1.00  0.00     0.124 S 
ATOM     70  O   UNL A   1      47.187  36.605  26.182  1.00  0.00    -0.237 OA
ATOM     71  O   UNL A   1      45.462  37.531  27.693  1.00  0.00    -0.237 OA
ATOM     72  O   UNL A   1      47.684  36.937  28.578  1.00  0.00    -0.744 OA
ENDBRANCH  68  69
ENDBRANCH  49  63
BRANCH  50  73
ATOM     73  C   UNL A   1      37.185  31.556  31.506  1.00  0.00    -0.014 A 
ATOM     74  C   UNL A   1      36.330  31.636  32.618  1.00  0.00     0.010 A 
ATOM     75  C   UNL A   1      36.911  32.388  30.401  1.00  0.00     0.010 A 
ATOM     76  C   UNL A   1      35.279  32.566  32.649  1.00  0.00     0.020 A 
ATOM     77  C   UNL A   1      35.858  33.307  30.418  1.00  0.00     0.020 A 
ATOM     78  C   UNL A   1      35.065  33.411  31.555  1.00  0.00     0.054 A 
BRANCH  78  79
ATOM     79  S   UNL A   1      33.828  34.734  31.680  1.00  0.00     0.124 S 
ATOM     80  O   UNL A   1      34.643  35.887  32.047  1.00  0.00    -0.237 OA
ATOM     81  O   UNL A   1      33.261  34.762  30.334  1.00  0.00    -0.237 OA
ATOM     82  O   UNL A   1      32.920  34.259  32.722  1.00  0.00    -0.744 OA
ENDBRANCH  78  79
ENDBRANCH  50  73
BRANCH  62  83
ATOM     83  C   UNL A   1      42.565  29.395  34.105  1.00  0.00    -0.014 A 
ATOM     84  C   UNL A   1      41.962  28.174  33.745  1.00  0.00     0.010 A 
ATOM     85  C   UNL A   1      43.073  29.530  35.410  1.00  0.00     0.010 A 
ATOM     86  C   UNL A   1      41.840  27.129  34.671  1.00  0.00     0.020 A 
ATOM     87  C   UNL A   1      42.971  28.484  36.334  1.00  0.00     0.020 A 
ATOM     88  C   UNL A   1      42.346  27.291  35.963  1.00  0.00     0.054 A 
BRANCH  88  89
ATOM     89  S   UNL A   1      42.229  25.913  37.138  1.00  0.00     0.124 S 
ATOM     90  O   UNL A   1      40.787  25.775  37.324  1.00  0.00    -0.237 OA
ATOM     91  O   UNL A   1      42.879  24.819  36.420  1.00  0.00    -0.237 OA
ATOM     92  O   UNL A   1      42.960  26.392  38.311  1.00  0.00    -0.744 OA
ENDBRANCH  88  89
ENDBRANCH  62  83
ENDBRANCH  36  37
ENDBRANCH  29  31
ENDBRANCH  28  29
ENDBRANCH  27  28
ENDBRANCH  26  27
ENDBRANCH   1  26
TORSDOF 20
ENDMDL
MODEL 2
REMARK VINA RESULT:     -11.0      3.001      4.729
REMARK SMILES O=C(Cn1c(=O)n(Cc2cccnc2)c(=O)c2sccc21)OCCOCCOC(=O)c1ccc(-c2c3nc(c(-c4ccc(S(=O)(=O)[O-])cc4)c4ccc([nH]4)c(-c4ccc(S(=O)(=O)[O-])cc4)c4nc(c(-c5ccc(S(=O)(=O)[O-])cc5)c5ccc2[nH]5)C=C4)C=C3)cc1
REMARK SMILES IDX 25 1 24 2 23 3 22 4 2 5 1 6 3 7 4 8 5 9 21 10 6 11 7 12
REMARK SMILES IDX 17 13 20 14 15 15 18 16 19 17 16 18 8 19 9 20 10 21 14 22
REMARK SMILES IDX 11 23 13 24 12 25 26 26 27 27 28 28 29 29 30 30 31 31 32 32
REMARK SMILES IDX 90 33 33 34 89 35 34 36 35 37 36 38 83 39 37 40 88 41 82 42
REMARK SMILES IDX 84 43 38 44 87 45 81 46 80 47 39 49 69 50 50 51 68 52 51 53
REMARK SMILES IDX 54 54 67 55 85 56 52 57 53 58 66 60 86 61 55 62 40 63 41 64
REMARK SMILES IDX 49 65 42 66 48 67 43 68 44 69 45 70 46 71 47 72 70 73 71 74
REMARK SMILES IDX 79 75 72 76 78 77 73 78 74 79 75 80 76 81 77 82 56 83 57 84
REMARK SMILES IDX 65 85 58 86 64 87 59 88 60 89 61 90 62 91 63 92
REMARK H PARENT 84 48 54 59
REMARK Flexibility Score: inf
ROOT
ATOM      1  O   UNL A   1      40.244  21.300  27.352  1.00  0.00    -0.374 OA
ENDROOT
BRANCH   1   2
ATOM      2  C   UNL A   1      39.784  21.839  26.122  1.00  0.00     0.202 C 
BRANCH   2   3
ATOM      3  C   UNL A   1      38.323  21.604  25.764  1.00  0.00     0.261 C 
BRANCH   3   4
ATOM      4  O   UNL A   1      37.717  22.581  24.904  1.00  0.00    -0.462 OA
BRANCH   4   5
ATOM      5  C   UNL A   1      36.973  23.609  25.392  1.00  0.00     0.326 C 
ATOM      6  O   UNL A   1      37.216  24.083  26.501  1.00  0.00    -0.250 OA
BRANCH   5   7
ATOM      7  C   UNL A   1      35.805  24.110  24.557  1.00  0.00     0.250 C 
BRANCH   7   8
ATOM      8  N   UNL A   1      34.413  23.952  24.967  1.00  0.00    -0.281 N 
ATOM      9  C   UNL A   1      33.841  25.101  25.540  1.00  0.00     0.332 A 
ATOM     10  C   UNL A   1      33.676  22.766  24.904  1.00  0.00     0.070 A 
ATOM     11  O   UNL A   1      34.427  26.187  25.516  1.00  0.00    -0.247 OA
ATOM     12  N   UNL A   1      32.593  24.961  26.144  1.00  0.00    -0.254 N 
ATOM     13  C   UNL A   1      32.530  22.656  25.650  1.00  0.00     0.116 A 
ATOM     14  C   UNL A   1      33.944  21.550  24.206  1.00  0.00     0.039 A 
ATOM     15  C   UNL A   1      31.967  23.742  26.395  1.00  0.00     0.274 A 
ATOM     16  S   UNL A   1      31.851  21.103  25.624  1.00  0.00    -0.136 S 
ATOM     17  C   UNL A   1      33.048  20.552  24.535  1.00  0.00     0.068 A 
ATOM     18  O   UNL A   1      31.006  23.636  27.161  1.00  0.00    -0.268 OA
BRANCH  12  19
ATOM     19  C   UNL A   1      31.888  26.171  26.538  1.00  0.00     0.168 C 
BRANCH  19  20
ATOM     20  C   UNL A   1      31.088  26.685  25.364  1.00  0.00    -0.010 A 
ATOM     21  C   UNL A   1      29.942  26.025  24.911  1.00  0.00     0.009 A 
ATOM     22  C   UNL A   1      31.402  27.906  24.767  1.00  0.00     0.116 A 
ATOM     23  C   UNL A   1      29.166  26.603  23.911  1.00  0.00     0.020 A 
ATOM     24  N   UNL A   1      30.662  28.490  23.798  1.00  0.00    -0.264 NA
ATOM     25  C   UNL A   1      29.556  27.828  23.399  1.00  0.00     0.111 A 
ENDBRANCH  19  20
ENDBRANCH  12  19
ENDBRANCH   7   8
ENDBRANCH   5   7
ENDBRANCH   4   5
ENDBRANCH   3   4
ENDBRANCH   2   3
ENDBRANCH   1   2
BRANCH   1  26
ATOM     26  C   UNL A   1      41.008  20.091  27.341  1.00  0.00     0.202 C 
BRANCH  26  27
ATOM     27  C   UNL A   1      41.910  19.807  26.147  1.00  0.00     0.261 C 
BRANCH  27  28
ATOM     28  O   UNL A   1      43.173  20.451  26.327  1.00  0.00    -0.460 OA
BRANCH  28  29
ATOM     29  C   UNL A   1      43.907  20.604  25.215  1.00  0.00     0.338 C 
ATOM     30  O   UNL A   1      44.142  19.735  24.366  1.00  0.00    -0.246 OA
BRANCH  29  31
ATOM     31  C   UNL A   1      44.501  21.937  25.168  1.00  0.00     0.060 A 
ATOM     32  C   UNL A   1      45.345  22.255  26.235  1.00  0.00     0.016 A 
ATOM     33  C   UNL A   1      43.928  22.923  24.351  1.00  0.00     0.016 A 
ATOM     34  C   UNL A   1      45.354  23.553  26.679  1.00  0.00     0.010 A 
ATOM     35  C   UNL A   1      43.937  24.225  24.800  1.00  0.00     0.010 A 
ATOM     36  C   UNL A   1      44.544  24.487  26.025  1.00  0.00    -0.014 A 
BRANCH  36  37
ATOM     37  C   UNL A   1      44.243  25.693  26.766  1.00  0.00     0.031 A 
ATOM     38  C   UNL A   1      45.237  26.769  26.662  1.00  0.00     0.074 A 
ATOM     39  C   UNL A   1      43.130  25.817  27.510  1.00  0.00     0.049 A 
ATOM     40  N   UNL A   1      46.021  27.216  27.584  1.00  0.00    -0.248 NA
ATOM     41  C   UNL A   1      45.446  27.349  25.331  1.00  0.00     0.031 C 
ATOM     42  C   UNL A   1      41.928  24.978  27.493  1.00  0.00     0.029 A 
ATOM     43  N   UNL A   1      42.811  26.811  28.379  1.00  0.00    -0.354 N 
ATOM     44  C   UNL A   1      46.726  28.254  26.995  1.00  0.00     0.074 A 
ATOM     45  C   UNL A   1      46.432  28.207  25.583  1.00  0.00     0.031 C 
ATOM     46  C   UNL A   1      40.934  25.630  28.136  1.00  0.00     0.029 A 
ATOM     47  C   UNL A   1      41.470  26.849  28.720  1.00  0.00     0.049 A 
ATOM     48  H   UNL A   1      43.473  27.447  28.734  1.00  0.00     0.167 HD
ATOM     49  C   UNL A   1      47.363  29.210  27.720  1.00  0.00     0.031 A 
ATOM     50  C   UNL A   1      40.840  27.865  29.353  1.00  0.00     0.031 A 
ATOM     51  C   UNL A   1      47.510  28.862  29.105  1.00  0.00     0.049 A 
ATOM     52  C   UNL A   1      41.868  28.669  30.060  1.00  0.00     0.074 A 
ATOM     53  C   UNL A   1      48.197  27.885  29.796  1.00  0.00     0.029 A 
ATOM     54  N   UNL A   1      46.594  29.385  29.987  1.00  0.00    -0.354 N 
ATOM     55  N   UNL A   1      42.553  28.235  31.080  1.00  0.00    -0.248 NA
ATOM     56  C   UNL A   1      42.413  29.854  29.412  1.00  0.00     0.031 C 
ATOM     57  C   UNL A   1      47.392  27.585  30.933  1.00  0.00     0.029 A 
ATOM     58  C   UNL A   1      46.256  28.396  30.880  1.00  0.00     0.049 A 
ATOM     59  H   UNL A   1      46.242  30.304  29.979  1.00  0.00     0.167 HD
ATOM     60  C   UNL A   1      43.803  28.825  30.957  1.00  0.00     0.074 A 
ATOM     61  C   UNL A   1      43.612  29.909  30.001  1.00  0.00     0.031 C 
ATOM     62  C   UNL A   1      44.926  28.208  31.431  1.00  0.00     0.031 A 
BRANCH  49  63
ATOM     63  C   UNL A   1      47.565  30.603  27.202  1.00  0.00    -0.014 A 
ATOM     64  C   UNL A   1      48.853  31.164  27.181  1.00  0.00     0.010 A 
ATOM     65  C   UNL A   1      46.474  31.462  26.943  1.00  0.00     0.010 A 
ATOM     66  C   UNL A   1      49.036  32.530  26.925  1.00  0.00     0.020 A 
ATOM     67  C   UNL A   1      46.648  32.811  26.641  1.00  0.00     0.020 A 
ATOM     68  C   UNL A   1      47.930  33.344  26.665  1.00  0.00     0.054 A 
BRANCH  68  69
ATOM     69  S   UNL A   1      48.166  35.122  26.433  1.00  0.00     0.124 S 
ATOM     70  O   UNL A   1      47.207  35.414  25.372  1.00  0.00    -0.237 OA
ATOM     71  O   UNL A   1      47.837  35.657  27.750  1.00  0.00    -0.237 OA
ATOM     72  O   UNL A   1      49.573  35.234  26.054  1.00  0.00    -0.744 OA
ENDBRANCH  68  69
ENDBRANCH  49  63
BRANCH  50  73
ATOM     73  C   UNL A   1      39.468  28.357  29.091  1.00  0.00    -0.014 A 
ATOM     74  C   UNL A   1      38.540  28.497  30.137  1.00  0.00     0.010 A 
ATOM     75  C   UNL A   1      39.155  28.947  27.848  1.00  0.00     0.010 A 
ATOM     76  C   UNL A   1      37.375  29.259  29.966  1.00  0.00     0.020 A 
ATOM     77  C   UNL A   1      37.988  29.696  27.665  1.00  0.00     0.020 A 
ATOM     78  C   UNL A   1      37.118  29.872  28.735  1.00  0.00     0.054 A 
BRANCH  78  79
ATOM     79  S   UNL A   1      35.710  31.007  28.581  1.00  0.00     0.124 S 
ATOM     80  O   UNL A   1      35.332  31.224  29.974  1.00  0.00    -0.237 OA
ATOM     81  O   UNL A   1      36.305  32.154  27.900  1.00  0.00    -0.237 OA
ATOM     82  O   UNL A   1      34.744  30.251  27.787  1.00  0.00    -0.744 OA
ENDBRANCH  78  79
ENDBRANCH  50  73
BRANCH  62  83
ATOM     83  C   UNL A   1      44.741  27.043  32.382  1.00  0.00    -0.014 A 
ATOM     84  C   UNL A   1      44.382  27.210  33.734  1.00  0.00     0.010 A 
ATOM     85  C   UNL A   1      44.807  25.737  31.865  1.00  0.00     0.010 A 
ATOM     86  C   UNL A   1      44.130  26.102  34.555  1.00  0.00     0.020 A 
ATOM     87  C   UNL A   1      44.538  24.628  32.674  1.00  0.00     0.020 A 
ATOM     88  C   UNL A   1      44.210  24.815  34.019  1.00  0.00     0.054 A 
BRANCH  88  89
ATOM     89  S   UNL A   1      43.831  23.390  35.077  1.00  0.00     0.124 S 
ATOM     90  O   UNL A   1      42.579  23.791  35.714  1.00  0.00    -0.237 OA
ATOM     91  O   UNL A   1      43.725  22.293  34.118  1.00  0.00    -0.237 OA
ATOM     92  O   UNL A   1      44.981  23.307  35.975  1.00  0.00    -0.744 OA
ENDBRANCH  88  89
ENDBRANCH  62  83
ENDBRANCH  36  37
ENDBRANCH  29  31
ENDBRANCH  28  29
ENDBRANCH  27  28
ENDBRANCH  26  27
ENDBRANCH   1  26
TORSDOF 20
ENDMDL
MODEL 3
REMARK VINA RESULT:     -10.4      2.360      8.746
REMARK SMILES O=C(Cn1c(=O)n(Cc2cccnc2)c(=O)c2sccc21)OCCOCCOC(=O)c1ccc(-c2c3nc(c(-c4ccc(S(=O)(=O)[O-])cc4)c4ccc([nH]4)c(-c4ccc(S(=O)(=O)[O-])cc4)c4nc(c(-c5ccc(S(=O)(=O)[O-])cc5)c5ccc2[nH]5)C=C4)C=C3)cc1
REMARK SMILES IDX 25 1 24 2 23 3 22 4 2 5 1 6 3 7 4 8 5 9 21 10 6 11 7 12
REMARK SMILES IDX 17 13 20 14 15 15 18 16 19 17 16 18 8 19 9 20 10 21 14 22
REMARK SMILES IDX 11 23 13 24 12 25 26 26 27 27 28 28 29 29 30 30 31 31 32 32
REMARK SMILES IDX 90 33 33 34 89 35 34 36 35 37 36 38 83 39 37 40 88 41 82 42
REMARK SMILES IDX 84 43 38 44 87 45 81 46 80 47 39 49 69 50 50 51 68 52 51 53
REMARK SMILES IDX 54 54 67 55 85 56 52 57 53 58 66 60 86 61 55 62 40 63 41 64
REMARK SMILES IDX 49 65 42 66 48 67 43 68 44 69 45 70 46 71 47 72 70 73 71 74
REMARK SMILES IDX 79 75 72 76 78 77 73 78 74 79 75 80 76 81 77 82 56 83 57 84
REMARK SMILES IDX 65 85 58 86 64 87 59 88 60 89 61 90 62 91 63 92
REMARK H PARENT 84 48 54 59
REMARK Flexibility Score: inf
ROOT
ATOM      1  O   UNL A   1      35.164  32.884  28.185  1.00  0.00    -0.374 OA
ENDROOT
BRANCH   1   2
ATOM      2  C   UNL A   1      34.529  31.697  27.735  1.00  0.00     0.202 C 
BRANCH   2   3
ATOM      3  C   UNL A   1      35.420  30.488  27.478  1.00  0.00     0.261 C 
BRANCH   3   4
ATOM      4  O   UNL A   1      34.849  29.206  27.780  1.00  0.00    -0.462 OA
BRANCH   4   5
ATOM      5  C   UNL A   1      33.736  28.745  27.151  1.00  0.00     0.326 C 
ATOM      6  O   UNL A   1      32.629  28.866  27.673  1.00  0.00    -0.250 OA
BRANCH   5   7
ATOM      7  C   UNL A   1      33.908  28.028  25.821  1.00  0.00     0.250 C 
BRANCH   7   8
ATOM      8  N   UNL A   1      32.818  27.317  25.158  1.00  0.00    -0.281 N 
ATOM      9  C   UNL A   1      32.127  28.077  24.199  1.00  0.00     0.332 A 
ATOM     10  C   UNL A   1      32.390  26.021  25.459  1.00  0.00     0.070 A 
ATOM     11  O   UNL A   1      32.542  29.182  23.838  1.00  0.00    -0.247 OA
ATOM     12  N   UNL A   1      30.950  27.537  23.683  1.00  0.00    -0.254 N 
ATOM     13  C   UNL A   1      31.149  25.618  25.037  1.00  0.00     0.116 A 
ATOM     14  C   UNL A   1      33.023  24.995  26.222  1.00  0.00     0.039 A 
ATOM     15  C   UNL A   1      30.310  26.407  24.186  1.00  0.00     0.274 A 
ATOM     16  S   UNL A   1      30.689  24.100  25.639  1.00  0.00    -0.136 S 
ATOM     17  C   UNL A   1      32.195  23.909  26.425  1.00  0.00     0.068 A 
ATOM     18  O   UNL A   1      29.148  26.115  23.889  1.00  0.00    -0.268 OA
BRANCH  12  19
ATOM     19  C   UNL A   1      30.345  28.197  22.536  1.00  0.00     0.168 C 
BRANCH  19  20
ATOM     20  C   UNL A   1      29.347  29.222  23.020  1.00  0.00    -0.010 A 
ATOM     21  C   UNL A   1      29.752  30.472  23.499  1.00  0.00     0.009 A 
ATOM     22  C   UNL A   1      27.976  28.998  22.894  1.00  0.00     0.116 A 
ATOM     23  C   UNL A   1      28.793  31.431  23.813  1.00  0.00     0.020 A 
ATOM     24  N   UNL A   1      27.027  29.914  23.188  1.00  0.00    -0.264 NA
ATOM     25  C   UNL A   1      27.459  31.112  23.633  1.00  0.00     0.111 A 
ENDBRANCH  19  20
ENDBRANCH  12  19
ENDBRANCH   7   8
ENDBRANCH   5   7
ENDBRANCH   4   5
ENDBRANCH   3   4
ENDBRANCH   2   3
ENDBRANCH   1   2
BRANCH   1  26
ATOM     26  C   UNL A   1      34.453  34.124  28.117  1.00  0.00     0.202 C 
BRANCH  26  27
ATOM     27  C   UNL A   1      33.590  34.537  29.301  1.00  0.00     0.261 C 
BRANCH  27  28
ATOM     28  O   UNL A   1      34.039  33.874  30.485  1.00  0.00    -0.460 OA
BRANCH  28  29
ATOM     29  C   UNL A   1      34.332  34.675  31.519  1.00  0.00     0.338 C 
ATOM     30  O   UNL A   1      33.932  35.834  31.687  1.00  0.00    -0.246 OA
BRANCH  29  31
ATOM     31  C   UNL A   1      35.294  34.034  32.412  1.00  0.00     0.060 A 
ATOM     32  C   UNL A   1      36.536  34.667  32.507  1.00  0.00     0.016 A 
ATOM     33  C   UNL A   1      35.108  32.695  32.785  1.00  0.00     0.016 A 
ATOM     34  C   UNL A   1      37.646  33.877  32.666  1.00  0.00     0.010 A 
ATOM     35  C   UNL A   1      36.224  31.903  32.941  1.00  0.00     0.010 A 
ATOM     36  C   UNL A   1      37.472  32.492  32.750  1.00  0.00    -0.014 A 
BRANCH  36  37
ATOM     37  C   UNL A   1      38.643  31.688  32.474  1.00  0.00     0.031 A 
ATOM     38  C   UNL A   1      39.526  31.434  33.619  1.00  0.00     0.074 A 
ATOM     39  C   UNL A   1      38.911  31.213  31.244  1.00  0.00     0.049 A 
ATOM     40  N   UNL A   1      40.721  31.881  33.813  1.00  0.00    -0.248 NA
ATOM     41  C   UNL A   1      38.961  30.663  34.730  1.00  0.00     0.031 C 
ATOM     42  C   UNL A   1      38.015  31.129  30.088  1.00  0.00     0.029 A 
ATOM     43  N   UNL A   1      40.044  30.600  30.813  1.00  0.00    -0.354 N 
ATOM     44  C   UNL A   1      41.132  31.318  35.011  1.00  0.00     0.074 A 
ATOM     45  C   UNL A   1      39.972  30.688  35.595  1.00  0.00     0.031 C 
ATOM     46  C   UNL A   1      38.562  30.299  29.172  1.00  0.00     0.029 A 
ATOM     47  C   UNL A   1      39.891  29.915  29.620  1.00  0.00     0.049 A 
ATOM     48  H   UNL A   1      40.896  30.639  31.305  1.00  0.00     0.167 HD
ATOM     49  C   UNL A   1      42.441  31.236  35.370  1.00  0.00     0.031 A 
ATOM     50  C   UNL A   1      40.765  29.023  29.099  1.00  0.00     0.031 A 
ATOM     51  C   UNL A   1      43.298  32.062  34.567  1.00  0.00     0.049 A 
ATOM     52  C   UNL A   1      42.093  29.273  29.714  1.00  0.00     0.074 A 
ATOM     53  C   UNL A   1      43.440  33.421  34.375  1.00  0.00     0.029 A 
ATOM     54  N   UNL A   1      43.967  31.455  33.532  1.00  0.00    -0.354 N 
ATOM     55  N   UNL A   1      42.801  30.346  29.501  1.00  0.00    -0.248 NA
ATOM     56  C   UNL A   1      42.499  28.490  30.872  1.00  0.00     0.031 C 
ATOM     57  C   UNL A   1      43.840  33.574  33.016  1.00  0.00     0.029 A 
ATOM     58  C   UNL A   1      43.926  32.300  32.449  1.00  0.00     0.049 A 
ATOM     59  H   UNL A   1      44.400  30.571  33.561  1.00  0.00     0.167 HD
ATOM     60  C   UNL A   1      43.460  30.592  30.696  1.00  0.00     0.074 A 
ATOM     61  C   UNL A   1      43.345  29.348  31.448  1.00  0.00     0.031 C 
ATOM     62  C   UNL A   1      43.796  31.862  31.071  1.00  0.00     0.031 A 
BRANCH  49  63
ATOM     63  C   UNL A   1      42.957  30.145  36.260  1.00  0.00    -0.014 A 
ATOM     64  C   UNL A   1      43.941  30.431  37.221  1.00  0.00     0.010 A 
ATOM     65  C   UNL A   1      42.656  28.787  36.018  1.00  0.00     0.010 A 
ATOM     66  C   UNL A   1      44.604  29.398  37.898  1.00  0.00     0.020 A 
ATOM     67  C   UNL A   1      43.274  27.754  36.719  1.00  0.00     0.020 A 
ATOM     68  C   UNL A   1      44.270  28.066  37.635  1.00  0.00     0.054 A 
BRANCH  68  69
ATOM     69  S   UNL A   1      45.196  26.738  38.441  1.00  0.00     0.124 S 
ATOM     70  O   UNL A   1      44.882  25.595  37.589  1.00  0.00    -0.237 OA
ATOM     71  O   UNL A   1      46.569  27.226  38.368  1.00  0.00    -0.237 OA
ATOM     72  O   UNL A   1      44.627  26.692  39.786  1.00  0.00    -0.744 OA
ENDBRANCH  68  69
ENDBRANCH  49  63
BRANCH  50  73
ATOM     73  C   UNL A   1      40.431  27.775  28.375  1.00  0.00    -0.014 A 
ATOM     74  C   UNL A   1      41.103  27.427  27.191  1.00  0.00     0.010 A 
ATOM     75  C   UNL A   1      39.636  26.789  28.997  1.00  0.00     0.010 A 
ATOM     76  C   UNL A   1      41.038  26.120  26.687  1.00  0.00     0.020 A 
ATOM     77  C   UNL A   1      39.555  25.489  28.492  1.00  0.00     0.020 A 
ATOM     78  C   UNL A   1      40.280  25.153  27.355  1.00  0.00     0.054 A 
BRANCH  78  79
ATOM     79  S   UNL A   1      40.354  23.425  26.804  1.00  0.00     0.124 S 
ATOM     80  O   UNL A   1      40.573  22.708  28.056  1.00  0.00    -0.237 OA
ATOM     81  O   UNL A   1      39.044  23.236  26.186  1.00  0.00    -0.237 OA
ATOM     82  O   UNL A   1      41.482  23.408  25.874  1.00  0.00    -0.744 OA
ENDBRANCH  78  79
ENDBRANCH  50  73
BRANCH  62  83
ATOM     83  C   UNL A   1      43.740  32.946  30.013  1.00  0.00    -0.014 A 
ATOM     84  C   UNL A   1      42.560  33.652  29.705  1.00  0.00     0.010 A 
ATOM     85  C   UNL A   1      44.939  33.351  29.402  1.00  0.00     0.010 A 
ATOM     86  C   UNL A   1      42.573  34.710  28.785  1.00  0.00     0.020 A 
ATOM     87  C   UNL A   1      44.963  34.418  28.497  1.00  0.00     0.020 A 
ATOM     88  C   UNL A   1      43.777  35.087  28.186  1.00  0.00     0.054 A 
BRANCH  88  89
ATOM     89  S   UNL A   1      43.791  36.492  27.037  1.00  0.00     0.124 S 
ATOM     90  O   UNL A   1      45.135  36.425  26.469  1.00  0.00    -0.237 OA
ATOM     91  O   UNL A   1      42.702  36.170  26.117  1.00  0.00    -0.237 OA
ATOM     92  O   UNL A   1      43.541  37.648  27.897  1.00  0.00    -0.744 OA
ENDBRANCH  88  89
ENDBRANCH  62  83
ENDBRANCH  36  37
ENDBRANCH  29  31
ENDBRANCH  28  29
ENDBRANCH  27  28
ENDBRANCH  26  27
ENDBRANCH   1  26
TORSDOF 20
ENDMDL
