MODEL 1
REMARK VINA RESULT:     -11.1      0.000      0.000
REMARK SMILES CCOc1ccc(C(=O)N2CCC(C(=O)OCCOCCOC(=O)c3ccc(-c4c5nc(c(-c6ccc(S(=O)(=O)[O-])cc6)c6ccc([nH]6)c(-c6ccc(S(=O)(=O)[O-])cc6)c6nc(c(-c7ccc(S(=O)(=O)[O-])cc7)c7ccc4[nH]7)C=C6)C=C5)cc3)(c3ccccc3)CC2)cc1OC
REMARK SMILES IDX 19 1 18 2 17 3 16 4 14 5 15 6 13 7 8 8 9 9 10 10 11 11 92 12
REMARK SMILES IDX 12 13 91 14 7 15 4 16 5 17 94 18 6 19 93 20 3 21 2 22 1 23
REMARK SMILES IDX 95 24 96 25 85 26 86 27 90 28 87 29 89 30 88 31 20 32 21 33
REMARK SMILES IDX 22 34 23 35 24 36 25 37 26 38 84 39 27 40 83 41 28 42 29 43
REMARK SMILES IDX 30 44 77 45 31 46 82 47 76 48 78 49 32 50 81 51 75 52 74 53
REMARK SMILES IDX 33 55 63 56 44 57 62 58 45 59 48 60 61 61 79 62 46 63 47 64
REMARK SMILES IDX 60 66 80 67 49 68 34 69 35 70 43 71 36 72 42 73 37 74 38 75
REMARK SMILES IDX 39 76 40 77 41 78 64 79 65 80 73 81 66 82 72 83 67 84 68 85
REMARK SMILES IDX 69 86 70 87 71 88 50 89 51 90 59 91 52 92 58 93 53 94 54 95
REMARK SMILES IDX 55 96 56 97 57 98
REMARK H PARENT 78 54 48 65
REMARK Flexibility Score: inf
ROOT
ATOM      1  O   UNL A   1      39.250  21.683  25.637  1.00  0.00    -0.374 OA
ENDROOT
BRANCH   1   2
ATOM      2  C   UNL A   1      37.895  21.232  25.612  1.00  0.00     0.202 C 
BRANCH   2   3
ATOM      3  C   UNL A   1      36.834  22.275  25.249  1.00  0.00     0.261 C 
BRANCH   3   4
ATOM      4  O   UNL A   1      35.568  21.653  24.986  1.00  0.00    -0.463 OA
BRANCH   4   5
ATOM      5  C   UNL A   1      34.620  21.805  25.949  1.00  0.00     0.316 C 
ATOM      6  O   UNL A   1      34.814  21.575  27.139  1.00  0.00    -0.251 OA
BRANCH   5   7
ATOM      7  C   UNL A   1      33.256  22.314  25.394  1.00  0.00     0.096 C 
ATOM      8  C   UNL A   1      30.319  25.546  25.853  1.00  0.00     0.253 C 
ATOM      9  O   UNL A   1      29.528  25.533  26.795  1.00  0.00    -0.269 OA
ATOM     10  N   UNL A   1      31.296  24.555  25.662  1.00  0.00    -0.339 N 
ATOM     11  C   UNL A   1      30.962  23.230  26.167  1.00  0.00     0.121 C 
ATOM     12  C   UNL A   1      32.452  24.712  24.778  1.00  0.00     0.121 C 
ATOM     13  C   UNL A   1      32.153  22.338  26.481  1.00  0.00     0.045 C 
ATOM     14  C   UNL A   1      33.615  23.784  25.063  1.00  0.00     0.045 C 
BRANCH   8  15
ATOM     15  C   UNL A   1      30.127  26.604  24.822  1.00  0.00     0.043 A 
ATOM     16  C   UNL A   1      29.877  28.454  22.737  1.00  0.00     0.161 A 
ATOM     17  C   UNL A   1      28.825  27.576  23.033  1.00  0.00     0.051 A 
ATOM     18  C   UNL A   1      31.047  28.431  23.495  1.00  0.00     0.161 A 
ATOM     19  C   UNL A   1      28.947  26.652  24.078  1.00  0.00     0.018 A 
ATOM     20  C   UNL A   1      31.185  27.452  24.478  1.00  0.00     0.064 A 
BRANCH  16  21
ATOM     21  O   UNL A   1      29.734  29.331  21.696  1.00  0.00    -0.490 OA
BRANCH  21  22
ATOM     22  C   UNL A   1      28.459  29.982  21.720  1.00  0.00     0.226 C 
ATOM     23  C   UNL A   1      28.618  31.337  22.385  1.00  0.00     0.049 C 
ENDBRANCH  21  22
ENDBRANCH  16  21
BRANCH  18  24
ATOM     24  O   UNL A   1      32.157  29.217  23.363  1.00  0.00    -0.493 OA
ATOM     25  C   UNL A   1      33.257  28.687  22.635  1.00  0.00     0.278 C 
ENDBRANCH  18  24
ENDBRANCH   8  15
BRANCH   7  26
ATOM     26  C   UNL A   1      32.813  21.434  24.183  1.00  0.00    -0.031 A 
ATOM     27  C   UNL A   1      32.699  20.030  24.298  1.00  0.00     0.005 A 
ATOM     28  C   UNL A   1      32.454  21.975  22.935  1.00  0.00     0.005 A 
ATOM     29  C   UNL A   1      32.298  19.222  23.225  1.00  0.00     0.000 A 
ATOM     30  C   UNL A   1      32.049  21.171  21.860  1.00  0.00     0.000 A 
ATOM     31  C   UNL A   1      31.978  19.792  22.002  1.00  0.00     0.000 A 
ENDBRANCH   7  26
ENDBRANCH   5   7
ENDBRANCH   4   5
ENDBRANCH   3   4
ENDBRANCH   2   3
ENDBRANCH   1   2
BRANCH   1  32
ATOM     32  C   UNL A   1      39.652  22.509  26.730  1.00  0.00     0.202 C 
BRANCH  32  33
ATOM     33  C   UNL A   1      39.513  24.028  26.561  1.00  0.00     0.261 C 
BRANCH  33  34
ATOM     34  O   UNL A   1      40.602  24.756  27.159  1.00  0.00    -0.460 OA
BRANCH  34  35
ATOM     35  C   UNL A   1      40.678  26.058  26.781  1.00  0.00     0.338 C 
ATOM     36  O   UNL A   1      40.874  26.485  25.656  1.00  0.00    -0.246 OA
BRANCH  35  37
ATOM     37  C   UNL A   1      40.299  26.944  27.897  1.00  0.00     0.060 A 
ATOM     38  C   UNL A   1      40.925  28.195  27.961  1.00  0.00     0.016 A 
ATOM     39  C   UNL A   1      39.444  26.525  28.919  1.00  0.00     0.016 A 
ATOM     40  C   UNL A   1      40.743  29.011  29.075  1.00  0.00     0.010 A 
ATOM     41  C   UNL A   1      39.271  27.342  30.044  1.00  0.00     0.010 A 
ATOM     42  C   UNL A   1      39.951  28.569  30.143  1.00  0.00    -0.014 A 
BRANCH  42  43
ATOM     43  C   UNL A   1      39.978  29.330  31.417  1.00  0.00     0.031 A 
ATOM     44  C   UNL A   1      41.103  29.092  32.389  1.00  0.00     0.074 A 
ATOM     45  C   UNL A   1      39.054  30.275  31.672  1.00  0.00     0.049 A 
ATOM     46  N   UNL A   1      41.353  29.685  33.528  1.00  0.00    -0.248 NA
ATOM     47  C   UNL A   1      42.080  28.054  32.021  1.00  0.00     0.031 C 
ATOM     48  C   UNL A   1      37.945  30.634  30.789  1.00  0.00     0.029 A 
ATOM     49  N   UNL A   1      38.914  31.114  32.749  1.00  0.00    -0.354 N 
ATOM     50  C   UNL A   1      42.517  29.096  34.012  1.00  0.00     0.074 A 
ATOM     51  C   UNL A   1      42.904  28.078  33.060  1.00  0.00     0.031 C 
ATOM     52  C   UNL A   1      37.241  31.627  31.358  1.00  0.00     0.029 A 
ATOM     53  C   UNL A   1      37.833  31.957  32.653  1.00  0.00     0.049 A 
ATOM     54  H   UNL A   1      39.529  31.112  33.517  1.00  0.00     0.167 HD
ATOM     55  C   UNL A   1      43.207  29.382  35.143  1.00  0.00     0.031 A 
ATOM     56  C   UNL A   1      37.371  32.884  33.515  1.00  0.00     0.031 A 
ATOM     57  C   UNL A   1      42.809  30.376  36.103  1.00  0.00     0.049 A 
ATOM     58  C   UNL A   1      38.108  33.126  34.805  1.00  0.00     0.074 A 
ATOM     59  C   UNL A   1      43.439  30.737  37.282  1.00  0.00     0.029 A 
ATOM     60  N   UNL A   1      41.673  31.164  36.001  1.00  0.00    -0.354 N 
ATOM     61  N   UNL A   1      39.214  32.571  35.240  1.00  0.00    -0.248 NA
ATOM     62  C   UNL A   1      37.537  34.128  35.715  1.00  0.00     0.031 C 
ATOM     63  C   UNL A   1      42.656  31.711  37.916  1.00  0.00     0.029 A 
ATOM     64  C   UNL A   1      41.568  31.992  37.106  1.00  0.00     0.049 A 
ATOM     65  H   UNL A   1      41.033  31.138  35.253  1.00  0.00     0.167 HD
ATOM     66  C   UNL A   1      39.483  33.173  36.465  1.00  0.00     0.074 A 
ATOM     67  C   UNL A   1      38.432  34.145  36.694  1.00  0.00     0.031 C 
ATOM     68  C   UNL A   1      40.508  32.945  37.323  1.00  0.00     0.031 A 
BRANCH  55  69
ATOM     69  C   UNL A   1      44.449  28.575  35.412  1.00  0.00    -0.014 A 
ATOM     70  C   UNL A   1      44.389  27.366  36.129  1.00  0.00     0.010 A 
ATOM     71  C   UNL A   1      45.692  29.027  34.934  1.00  0.00     0.010 A 
ATOM     72  C   UNL A   1      45.556  26.646  36.401  1.00  0.00     0.020 A 
ATOM     73  C   UNL A   1      46.858  28.297  35.183  1.00  0.00     0.020 A 
ATOM     74  C   UNL A   1      46.785  27.121  35.932  1.00  0.00     0.054 A 
BRANCH  74  75
ATOM     75  S   UNL A   1      48.285  26.169  36.298  1.00  0.00     0.124 S 
ATOM     76  O   UNL A   1      49.272  27.228  36.498  1.00  0.00    -0.237 OA
ATOM     77  O   UNL A   1      47.911  25.425  37.498  1.00  0.00    -0.237 OA
ATOM     78  O   UNL A   1      48.479  25.356  35.100  1.00  0.00    -0.744 OA
ENDBRANCH  74  75
ENDBRANCH  55  69
BRANCH  56  79
ATOM     79  C   UNL A   1      36.138  33.651  33.188  1.00  0.00    -0.014 A 
ATOM     80  C   UNL A   1      36.218  34.873  32.498  1.00  0.00     0.010 A 
ATOM     81  C   UNL A   1      34.876  33.156  33.564  1.00  0.00     0.010 A 
ATOM     82  C   UNL A   1      35.056  35.593  32.201  1.00  0.00     0.020 A 
ATOM     83  C   UNL A   1      33.712  33.862  33.248  1.00  0.00     0.020 A 
ATOM     84  C   UNL A   1      33.811  35.082  32.576  1.00  0.00     0.054 A 
BRANCH  84  85
ATOM     85  S   UNL A   1      32.313  36.002  32.128  1.00  0.00     0.124 S 
ATOM     86  O   UNL A   1      32.415  37.183  32.980  1.00  0.00    -0.237 OA
ATOM     87  O   UNL A   1      32.499  36.236  30.698  1.00  0.00    -0.237 OA
ATOM     88  O   UNL A   1      31.231  35.078  32.463  1.00  0.00    -0.744 OA
ENDBRANCH  84  85
ENDBRANCH  56  79
BRANCH  68  89
ATOM     89  C   UNL A   1      40.555  33.778  38.577  1.00  0.00    -0.014 A 
ATOM     90  C   UNL A   1      41.286  34.978  38.627  1.00  0.00     0.010 A 
ATOM     91  C   UNL A   1      39.831  33.369  39.712  1.00  0.00     0.010 A 
ATOM     92  C   UNL A   1      41.327  35.733  39.802  1.00  0.00     0.020 A 
ATOM     93  C   UNL A   1      39.848  34.134  40.881  1.00  0.00     0.020 A 
ATOM     94  C   UNL A   1      40.612  35.303  40.924  1.00  0.00     0.054 A 
BRANCH  94  95
ATOM     95  S   UNL A   1      40.661  36.308  42.434  1.00  0.00     0.124 S 
ATOM     96  O   UNL A   1      41.700  35.637  43.211  1.00  0.00    -0.237 OA
ATOM     97  O   UNL A   1      41.011  37.633  41.929  1.00  0.00    -0.237 OA
ATOM     98  O   UNL A   1      39.307  36.191  42.972  1.00  0.00    -0.744 OA
ENDBRANCH  94  95
ENDBRANCH  68  89
ENDBRANCH  42  43
ENDBRANCH  35  37
ENDBRANCH  34  35
ENDBRANCH  33  34
ENDBRANCH  32  33
ENDBRANCH   1  32
TORSDOF 22
ENDMDL
MODEL 2
REMARK VINA RESULT:     -10.6      6.913     12.916
REMARK SMILES CCOc1ccc(C(=O)N2CCC(C(=O)OCCOCCOC(=O)c3ccc(-c4c5nc(c(-c6ccc(S(=O)(=O)[O-])cc6)c6ccc([nH]6)c(-c6ccc(S(=O)(=O)[O-])cc6)c6nc(c(-c7ccc(S(=O)(=O)[O-])cc7)c7ccc4[nH]7)C=C6)C=C5)cc3)(c3ccccc3)CC2)cc1OC
REMARK SMILES IDX 19 1 18 2 17 3 16 4 14 5 15 6 13 7 8 8 9 9 10 10 11 11 92 12
REMARK SMILES IDX 12 13 91 14 7 15 4 16 5 17 94 18 6 19 93 20 3 21 2 22 1 23
REMARK SMILES IDX 95 24 96 25 85 26 86 27 90 28 87 29 89 30 88 31 20 32 21 33
REMARK SMILES IDX 22 34 23 35 24 36 25 37 26 38 84 39 27 40 83 41 28 42 29 43
REMARK SMILES IDX 30 44 77 45 31 46 82 47 76 48 78 49 32 50 81 51 75 52 74 53
REMARK SMILES IDX 33 55 63 56 44 57 62 58 45 59 48 60 61 61 79 62 46 63 47 64
REMARK SMILES IDX 60 66 80 67 49 68 34 69 35 70 43 71 36 72 42 73 37 74 38 75
REMARK SMILES IDX 39 76 40 77 41 78 64 79 65 80 73 81 66 82 72 83 67 84 68 85
REMARK SMILES IDX 69 86 70 87 71 88 50 89 51 90 59 91 52 92 58 93 53 94 54 95
REMARK SMILES IDX 55 96 56 97 57 98
REMARK H PARENT 78 54 48 65
REMARK Flexibility Score: inf
ROOT
ATOM      1  O   UNL A   1      34.152  32.092  28.348  1.00  0.00    -0.374 OA
ENDROOT
BRANCH   1   2
ATOM      2  C   UNL A   1      34.118  31.141  27.285  1.00  0.00     0.202 C 
BRANCH   2   3
ATOM      3  C   UNL A   1      32.860  30.273  27.185  1.00  0.00     0.261 C 
BRANCH   3   4
ATOM      4  O   UNL A   1      33.165  28.892  27.429  1.00  0.00    -0.463 OA
BRANCH   4   5
ATOM      5  C   UNL A   1      32.117  28.029  27.353  1.00  0.00     0.316 C 
ATOM      6  O   UNL A   1      31.134  28.082  28.087  1.00  0.00    -0.251 OA
BRANCH   5   7
ATOM      7  C   UNL A   1      32.278  26.965  26.226  1.00  0.00     0.096 C 
ATOM      8  C   UNL A   1      34.428  23.265  25.238  1.00  0.00     0.253 C 
ATOM      9  O   UNL A   1      35.602  23.312  24.874  1.00  0.00    -0.269 OA
ATOM     10  N   UNL A   1      33.691  24.409  25.589  1.00  0.00    -0.339 N 
ATOM     11  C   UNL A   1      34.080  25.644  24.921  1.00  0.00     0.121 C 
ATOM     12  C   UNL A   1      32.436  24.369  26.341  1.00  0.00     0.121 C 
ATOM     13  C   UNL A   1      33.720  26.922  25.662  1.00  0.00     0.045 C 
ATOM     14  C   UNL A   1      32.055  25.661  27.033  1.00  0.00     0.045 C 
BRANCH   8  15
ATOM     15  C   UNL A   1      33.751  21.940  25.175  1.00  0.00     0.043 A 
ATOM     16  C   UNL A   1      32.675  19.364  24.970  1.00  0.00     0.161 A 
ATOM     17  C   UNL A   1      33.204  19.815  26.188  1.00  0.00     0.051 A 
ATOM     18  C   UNL A   1      32.657  20.204  23.858  1.00  0.00     0.161 A 
ATOM     19  C   UNL A   1      33.740  21.104  26.293  1.00  0.00     0.018 A 
ATOM     20  C   UNL A   1      33.266  21.454  23.956  1.00  0.00     0.064 A 
BRANCH  16  21
ATOM     21  O   UNL A   1      32.178  18.092  24.896  1.00  0.00    -0.490 OA
BRANCH  21  22
ATOM     22  C   UNL A   1      33.221  17.111  24.917  1.00  0.00     0.226 C 
ATOM     23  C   UNL A   1      33.334  16.494  23.534  1.00  0.00     0.049 C 
ENDBRANCH  21  22
ENDBRANCH  16  21
BRANCH  18  24
ATOM     24  O   UNL A   1      32.169  19.943  22.608  1.00  0.00    -0.493 OA
ATOM     25  C   UNL A   1      31.811  21.053  21.796  1.00  0.00     0.278 C 
ENDBRANCH  18  24
ENDBRANCH   8  15
BRANCH   7  26
ATOM     26  C   UNL A   1      31.250  27.239  25.083  1.00  0.00    -0.031 A 
ATOM     27  C   UNL A   1      31.495  28.220  24.096  1.00  0.00     0.005 A 
ATOM     28  C   UNL A   1      30.058  26.509  24.934  1.00  0.00     0.005 A 
ATOM     29  C   UNL A   1      30.589  28.479  23.058  1.00  0.00     0.000 A 
ATOM     30  C   UNL A   1      29.150  26.762  23.896  1.00  0.00     0.000 A 
ATOM     31  C   UNL A   1      29.412  27.753  22.961  1.00  0.00     0.000 A 
ENDBRANCH   7  26
ENDBRANCH   5   7
ENDBRANCH   4   5
ENDBRANCH   3   4
ENDBRANCH   2   3
ENDBRANCH   1   2
BRANCH   1  32
ATOM     32  C   UNL A   1      35.142  31.917  29.362  1.00  0.00     0.202 C 
BRANCH  32  33
ATOM     33  C   UNL A   1      35.878  30.571  29.411  1.00  0.00     0.261 C 
BRANCH  33  34
ATOM     34  O   UNL A   1      37.186  30.631  28.812  1.00  0.00    -0.460 OA
BRANCH  34  35
ATOM     35  C   UNL A   1      37.718  29.418  28.509  1.00  0.00     0.338 C 
ATOM     36  O   UNL A   1      37.113  28.373  28.344  1.00  0.00    -0.246 OA
BRANCH  35  37
ATOM     37  C   UNL A   1      39.156  29.544  28.207  1.00  0.00     0.060 A 
ATOM     38  C   UNL A   1      39.556  29.291  26.890  1.00  0.00     0.016 A 
ATOM     39  C   UNL A   1      40.104  29.789  29.203  1.00  0.00     0.016 A 
ATOM     40  C   UNL A   1      40.910  29.225  26.572  1.00  0.00     0.010 A 
ATOM     41  C   UNL A   1      41.466  29.712  28.884  1.00  0.00     0.010 A 
ATOM     42  C   UNL A   1      41.873  29.390  27.577  1.00  0.00    -0.014 A 
BRANCH  42  43
ATOM     43  C   UNL A   1      43.289  29.064  27.272  1.00  0.00     0.031 A 
ATOM     44  C   UNL A   1      44.345  30.115  27.491  1.00  0.00     0.074 A 
ATOM     45  C   UNL A   1      43.640  27.827  26.878  1.00  0.00     0.049 A 
ATOM     46  N   UNL A   1      45.643  30.028  27.347  1.00  0.00    -0.248 NA
ATOM     47  C   UNL A   1      43.875  31.436  27.942  1.00  0.00     0.031 C 
ATOM     48  C   UNL A   1      42.718  26.710  26.678  1.00  0.00     0.029 A 
ATOM     49  N   UNL A   1      44.874  27.302  26.588  1.00  0.00    -0.354 N 
ATOM     50  C   UNL A   1      46.146  31.279  27.691  1.00  0.00     0.074 A 
ATOM     51  C   UNL A   1      45.012  32.115  28.019  1.00  0.00     0.031 C 
ATOM     52  C   UNL A   1      43.420  25.627  26.304  1.00  0.00     0.029 A 
ATOM     53  C   UNL A   1      44.836  25.981  26.215  1.00  0.00     0.049 A 
ATOM     54  H   UNL A   1      45.707  27.823  26.641  1.00  0.00     0.167 HD
ATOM     55  C   UNL A   1      47.435  31.693  27.739  1.00  0.00     0.031 A 
ATOM     56  C   UNL A   1      45.830  25.152  25.837  1.00  0.00     0.031 A 
ATOM     57  C   UNL A   1      48.561  30.870  27.388  1.00  0.00     0.049 A 
ATOM     58  C   UNL A   1      47.247  25.659  25.818  1.00  0.00     0.074 A 
ATOM     59  C   UNL A   1      49.906  31.199  27.400  1.00  0.00     0.029 A 
ATOM     60  N   UNL A   1      48.475  29.556  26.953  1.00  0.00    -0.354 N 
ATOM     61  N   UNL A   1      47.706  26.840  26.161  1.00  0.00    -0.248 NA
ATOM     62  C   UNL A   1      48.281  24.716  25.369  1.00  0.00     0.031 C 
ATOM     63  C   UNL A   1      50.630  30.097  26.925  1.00  0.00     0.029 A 
ATOM     64  C   UNL A   1      49.740  29.067  26.669  1.00  0.00     0.049 A 
ATOM     65  H   UNL A   1      47.639  29.046  26.858  1.00  0.00     0.167 HD
ATOM     66  C   UNL A   1      49.086  26.773  25.989  1.00  0.00     0.074 A 
ATOM     67  C   UNL A   1      49.386  25.433  25.528  1.00  0.00     0.031 C 
ATOM     68  C   UNL A   1      50.020  27.734  26.198  1.00  0.00     0.031 A 
BRANCH  55  69
ATOM     69  C   UNL A   1      47.684  33.117  28.157  1.00  0.00    -0.014 A 
ATOM     70  C   UNL A   1      47.854  33.457  29.511  1.00  0.00     0.010 A 
ATOM     71  C   UNL A   1      47.759  34.128  27.182  1.00  0.00     0.010 A 
ATOM     72  C   UNL A   1      48.050  34.790  29.886  1.00  0.00     0.020 A 
ATOM     73  C   UNL A   1      47.978  35.458  27.551  1.00  0.00     0.020 A 
ATOM     74  C   UNL A   1      48.102  35.783  28.903  1.00  0.00     0.054 A 
BRANCH  74  75
ATOM     75  S   UNL A   1      48.358  37.505  29.416  1.00  0.00     0.124 S 
ATOM     76  O   UNL A   1      49.791  37.676  29.192  1.00  0.00    -0.237 OA
ATOM     77  O   UNL A   1      47.488  38.245  28.505  1.00  0.00    -0.237 OA
ATOM     78  O   UNL A   1      47.940  37.515  30.815  1.00  0.00    -0.744 OA
ENDBRANCH  74  75
ENDBRANCH  55  69
BRANCH  56  79
ATOM     79  C   UNL A   1      45.517  23.752  25.439  1.00  0.00    -0.014 A 
ATOM     80  C   UNL A   1      45.105  23.455  24.129  1.00  0.00     0.010 A 
ATOM     81  C   UNL A   1      45.635  22.708  26.375  1.00  0.00     0.010 A 
ATOM     82  C   UNL A   1      44.805  22.139  23.764  1.00  0.00     0.020 A 
ATOM     83  C   UNL A   1      45.359  21.389  26.007  1.00  0.00     0.020 A 
ATOM     84  C   UNL A   1      44.936  21.114  24.704  1.00  0.00     0.054 A 
BRANCH  84  85
ATOM     85  S   UNL A   1      44.599  19.406  24.194  1.00  0.00     0.124 S 
ATOM     86  O   UNL A   1      44.551  19.526  22.740  1.00  0.00    -0.237 OA
ATOM     87  O   UNL A   1      45.749  18.682  24.731  1.00  0.00    -0.237 OA
ATOM     88  O   UNL A   1      43.324  19.101  24.841  1.00  0.00    -0.744 OA
ENDBRANCH  84  85
ENDBRANCH  56  79
BRANCH  68  89
ATOM     89  C   UNL A   1      51.458  27.360  25.951  1.00  0.00    -0.014 A 
ATOM     90  C   UNL A   1      52.295  26.950  27.003  1.00  0.00     0.010 A 
ATOM     91  C   UNL A   1      51.969  27.392  24.641  1.00  0.00     0.010 A 
ATOM     92  C   UNL A   1      53.630  26.617  26.757  1.00  0.00     0.020 A 
ATOM     93  C   UNL A   1      53.297  27.036  24.385  1.00  0.00     0.020 A 
ATOM     94  C   UNL A   1      54.124  26.668  25.449  1.00  0.00     0.054 A 
BRANCH  94  95
ATOM     95  S   UNL A   1      55.854  26.213  25.147  1.00  0.00     0.124 S 
ATOM     96  O   UNL A   1      56.204  27.080  24.024  1.00  0.00    -0.237 OA
ATOM     97  O   UNL A   1      56.500  26.538  26.416  1.00  0.00    -0.237 OA
ATOM     98  O   UNL A   1      55.787  24.786  24.837  1.00  0.00    -0.744 OA
ENDBRANCH  94  95
ENDBRANCH  68  89
ENDBRANCH  42  43
ENDBRANCH  35  37
ENDBRANCH  34  35
ENDBRANCH  33  34
ENDBRANCH  32  33
ENDBRANCH   1  32
TORSDOF 22
ENDMDL
MODEL 3
REMARK VINA RESULT:     -10.4      5.371      7.469
REMARK SMILES CCOc1ccc(C(=O)N2CCC(C(=O)OCCOCCOC(=O)c3ccc(-c4c5nc(c(-c6ccc(S(=O)(=O)[O-])cc6)c6ccc([nH]6)c(-c6ccc(S(=O)(=O)[O-])cc6)c6nc(c(-c7ccc(S(=O)(=O)[O-])cc7)c7ccc4[nH]7)C=C6)C=C5)cc3)(c3ccccc3)CC2)cc1OC
REMARK SMILES IDX 19 1 18 2 17 3 16 4 14 5 15 6 13 7 8 8 9 9 10 10 11 11 92 12
REMARK SMILES IDX 12 13 91 14 7 15 4 16 5 17 94 18 6 19 93 20 3 21 2 22 1 23
REMARK SMILES IDX 95 24 96 25 85 26 86 27 90 28 87 29 89 30 88 31 20 32 21 33
REMARK SMILES IDX 22 34 23 35 24 36 25 37 26 38 84 39 27 40 83 41 28 42 29 43
REMARK SMILES IDX 30 44 77 45 31 46 82 47 76 48 78 49 32 50 81 51 75 52 74 53
REMARK SMILES IDX 33 55 63 56 44 57 62 58 45 59 48 60 61 61 79 62 46 63 47 64
REMARK SMILES IDX 60 66 80 67 49 68 34 69 35 70 43 71 36 72 42 73 37 74 38 75
REMARK SMILES IDX 39 76 40 77 41 78 64 79 65 80 73 81 66 82 72 83 67 84 68 85
REMARK SMILES IDX 69 86 70 87 71 88 50 89 51 90 59 91 52 92 58 93 53 94 54 95
REMARK SMILES IDX 55 96 56 97 57 98
REMARK H PARENT 78 54 48 65
REMARK Flexibility Score: inf
ROOT
ATOM      1  O   UNL A   1      35.240  22.558  24.643  1.00  0.00    -0.374 OA
ENDROOT
BRANCH   1   2
ATOM      2  C   UNL A   1      34.222  22.678  23.651  1.00  0.00     0.202 C 
BRANCH   2   3
ATOM      3  C   UNL A   1      34.320  23.885  22.713  1.00  0.00     0.261 C 
BRANCH   3   4
ATOM      4  O   UNL A   1      33.141  24.699  22.795  1.00  0.00    -0.463 OA
BRANCH   4   5
ATOM      5  C   UNL A   1      33.325  26.032  22.600  1.00  0.00     0.316 C 
ATOM      6  O   UNL A   1      33.821  26.512  21.585  1.00  0.00    -0.251 OA
BRANCH   5   7
ATOM      7  C   UNL A   1      32.830  26.902  23.794  1.00  0.00     0.096 C 
ATOM      8  C   UNL A   1      34.277  29.112  27.303  1.00  0.00     0.253 C 
ATOM      9  O   UNL A   1      34.584  28.508  28.330  1.00  0.00    -0.269 OA
ATOM     10  N   UNL A   1      33.829  28.463  26.140  1.00  0.00    -0.339 N 
ATOM     11  C   UNL A   1      33.126  27.204  26.348  1.00  0.00     0.121 C 
ATOM     12  C   UNL A   1      33.787  29.095  24.821  1.00  0.00     0.121 C 
ATOM     13  C   UNL A   1      33.143  26.249  25.164  1.00  0.00     0.045 C 
ATOM     14  C   UNL A   1      33.751  28.138  23.647  1.00  0.00     0.045 C 
BRANCH   8  15
ATOM     15  C   UNL A   1      34.274  30.599  27.368  1.00  0.00     0.043 A 
ATOM     16  C   UNL A   1      34.197  33.377  27.708  1.00  0.00     0.161 A 
ATOM     17  C   UNL A   1      35.404  32.679  27.857  1.00  0.00     0.051 A 
ATOM     18  C   UNL A   1      33.029  32.696  27.363  1.00  0.00     0.161 A 
ATOM     19  C   UNL A   1      35.445  31.290  27.684  1.00  0.00     0.018 A 
ATOM     20  C   UNL A   1      33.070  31.305  27.275  1.00  0.00     0.064 A 
BRANCH  16  21
ATOM     21  O   UNL A   1      34.187  34.731  27.903  1.00  0.00    -0.490 OA
BRANCH  21  22
ATOM     22  C   UNL A   1      33.670  35.078  29.193  1.00  0.00     0.226 C 
ATOM     23  C   UNL A   1      33.239  36.533  29.166  1.00  0.00     0.049 C 
ENDBRANCH  21  22
ENDBRANCH  16  21
BRANCH  18  24
ATOM     24  O   UNL A   1      31.779  33.210  27.160  1.00  0.00    -0.493 OA
ATOM     25  C   UNL A   1      30.926  32.525  26.253  1.00  0.00     0.278 C 
ENDBRANCH  18  24
ENDBRANCH   8  15
BRANCH   7  26
ATOM     26  C   UNL A   1      31.299  27.176  23.656  1.00  0.00    -0.031 A 
ATOM     27  C   UNL A   1      30.818  28.356  23.045  1.00  0.00     0.005 A 
ATOM     28  C   UNL A   1      30.316  26.263  24.076  1.00  0.00     0.005 A 
ATOM     29  C   UNL A   1      29.449  28.621  22.905  1.00  0.00     0.000 A 
ATOM     30  C   UNL A   1      28.945  26.522  23.936  1.00  0.00     0.000 A 
ATOM     31  C   UNL A   1      28.510  27.705  23.356  1.00  0.00     0.000 A 
ENDBRANCH   7  26
ENDBRANCH   5   7
ENDBRANCH   4   5
ENDBRANCH   3   4
ENDBRANCH   2   3
ENDBRANCH   1   2
BRANCH   1  32
ATOM     32  C   UNL A   1      36.473  21.950  24.256  1.00  0.00     0.202 C 
BRANCH  32  33
ATOM     33  C   UNL A   1      37.488  21.635  25.363  1.00  0.00     0.261 C 
BRANCH  33  34
ATOM     34  O   UNL A   1      38.289  22.776  25.726  1.00  0.00    -0.460 OA
BRANCH  34  35
ATOM     35  C   UNL A   1      39.282  22.503  26.611  1.00  0.00     0.338 C 
ATOM     36  O   UNL A   1      39.883  21.450  26.737  1.00  0.00    -0.246 OA
BRANCH  35  37
ATOM     37  C   UNL A   1      39.702  23.731  27.312  1.00  0.00     0.060 A 
ATOM     38  C   UNL A   1      38.981  24.899  27.039  1.00  0.00     0.016 A 
ATOM     39  C   UNL A   1      40.838  23.770  28.124  1.00  0.00     0.016 A 
ATOM     40  C   UNL A   1      39.424  26.124  27.532  1.00  0.00     0.010 A 
ATOM     41  C   UNL A   1      41.289  25.004  28.609  1.00  0.00     0.010 A 
ATOM     42  C   UNL A   1      40.607  26.190  28.282  1.00  0.00    -0.014 A 
BRANCH  42  43
ATOM     43  C   UNL A   1      41.196  27.520  28.575  1.00  0.00     0.031 A 
ATOM     44  C   UNL A   1      42.602  27.814  28.124  1.00  0.00     0.074 A 
ATOM     45  C   UNL A   1      40.464  28.480  29.170  1.00  0.00     0.049 A 
ATOM     46  N   UNL A   1      43.289  28.922  28.223  1.00  0.00    -0.248 NA
ATOM     47  C   UNL A   1      43.324  26.712  27.465  1.00  0.00     0.031 C 
ATOM     48  C   UNL A   1      39.076  28.336  29.608  1.00  0.00     0.029 A 
ATOM     49  N   UNL A   1      40.787  29.773  29.494  1.00  0.00    -0.354 N 
ATOM     50  C   UNL A   1      44.522  28.656  27.637  1.00  0.00     0.074 A 
ATOM     51  C   UNL A   1      44.500  27.272  27.215  1.00  0.00     0.031 C 
ATOM     52  C   UNL A   1      38.664  29.499  30.139  1.00  0.00     0.029 A 
ATOM     53  C   UNL A   1      39.764  30.461  30.100  1.00  0.00     0.049 A 
ATOM     54  H   UNL A   1      41.669  30.170  29.310  1.00  0.00     0.167 HD
ATOM     55  C   UNL A   1      45.576  29.489  27.458  1.00  0.00     0.031 A 
ATOM     56  C   UNL A   1      39.722  31.722  30.575  1.00  0.00     0.031 A 
ATOM     57  C   UNL A   1      45.610  30.857  27.900  1.00  0.00     0.049 A 
ATOM     58  C   UNL A   1      40.935  32.604  30.439  1.00  0.00     0.074 A 
ATOM     59  C   UNL A   1      46.632  31.781  27.769  1.00  0.00     0.029 A 
ATOM     60  N   UNL A   1      44.576  31.497  28.567  1.00  0.00    -0.354 N 
ATOM     61  N   UNL A   1      42.087  32.340  29.869  1.00  0.00    -0.248 NA
ATOM     62  C   UNL A   1      40.835  33.957  31.003  1.00  0.00     0.031 C 
ATOM     63  C   UNL A   1      46.234  32.966  28.401  1.00  0.00     0.029 A 
ATOM     64  C   UNL A   1      44.945  32.796  28.877  1.00  0.00     0.049 A 
ATOM     65  H   UNL A   1      43.709  31.089  28.790  1.00  0.00     0.167 HD
ATOM     66  C   UNL A   1      42.842  33.503  29.987  1.00  0.00     0.074 A 
ATOM     67  C   UNL A   1      42.010  34.474  30.668  1.00  0.00     0.031 C 
ATOM     68  C   UNL A   1      44.109  33.746  29.568  1.00  0.00     0.031 A 
BRANCH  55  69
ATOM     69  C   UNL A   1      46.794  28.920  26.780  1.00  0.00    -0.014 A 
ATOM     70  C   UNL A   1      47.973  28.661  27.503  1.00  0.00     0.010 A 
ATOM     71  C   UNL A   1      46.756  28.630  25.404  1.00  0.00     0.010 A 
ATOM     72  C   UNL A   1      49.107  28.165  26.852  1.00  0.00     0.020 A 
ATOM     73  C   UNL A   1      47.880  28.112  24.755  1.00  0.00     0.020 A 
ATOM     74  C   UNL A   1      49.055  27.901  25.480  1.00  0.00     0.054 A 
BRANCH  74  75
ATOM     75  S   UNL A   1      50.539  27.258  24.658  1.00  0.00     0.124 S 
ATOM     76  O   UNL A   1      50.701  28.198  23.551  1.00  0.00    -0.237 OA
ATOM     77  O   UNL A   1      51.552  27.343  25.707  1.00  0.00    -0.237 OA
ATOM     78  O   UNL A   1      50.160  25.901  24.272  1.00  0.00    -0.744 OA
ENDBRANCH  74  75
ENDBRANCH  55  69
BRANCH  56  79
ATOM     79  C   UNL A   1      38.485  32.226  31.231  1.00  0.00    -0.014 A 
ATOM     80  C   UNL A   1      37.621  33.102  30.553  1.00  0.00     0.010 A 
ATOM     81  C   UNL A   1      38.167  31.825  32.542  1.00  0.00     0.010 A 
ATOM     82  C   UNL A   1      36.464  33.579  31.179  1.00  0.00     0.020 A 
ATOM     83  C   UNL A   1      37.000  32.281  33.162  1.00  0.00     0.020 A 
ATOM     84  C   UNL A   1      36.160  33.163  32.478  1.00  0.00     0.054 A 
BRANCH  84  85
ATOM     85  S   UNL A   1      34.625  33.745  33.250  1.00  0.00     0.124 S 
ATOM     86  O   UNL A   1      34.562  35.131  32.795  1.00  0.00    -0.237 OA
ATOM     87  O   UNL A   1      33.623  32.846  32.682  1.00  0.00    -0.237 OA
ATOM     88  O   UNL A   1      34.872  33.565  34.679  1.00  0.00    -0.744 OA
ENDBRANCH  84  85
ENDBRANCH  56  79
BRANCH  68  89
ATOM     89  C   UNL A   1      44.662  35.125  29.813  1.00  0.00    -0.014 A 
ATOM     90  C   UNL A   1      45.388  35.421  30.979  1.00  0.00     0.010 A 
ATOM     91  C   UNL A   1      44.477  36.131  28.847  1.00  0.00     0.010 A 
ATOM     92  C   UNL A   1      45.885  36.710  31.196  1.00  0.00     0.020 A 
ATOM     93  C   UNL A   1      44.993  37.414  29.047  1.00  0.00     0.020 A 
ATOM     94  C   UNL A   1      45.678  37.700  30.230  1.00  0.00     0.054 A 
BRANCH  94  95
ATOM     95  S   UNL A   1      46.348  39.361  30.520  1.00  0.00     0.124 S 
ATOM     96  O   UNL A   1      47.374  39.103  31.527  1.00  0.00    -0.237 OA
ATOM     97  O   UNL A   1      46.847  39.743  29.200  1.00  0.00    -0.237 OA
ATOM     98  O   UNL A   1      45.193  40.124  30.987  1.00  0.00    -0.744 OA
ENDBRANCH  94  95
ENDBRANCH  68  89
ENDBRANCH  42  43
ENDBRANCH  35  37
ENDBRANCH  34  35
ENDBRANCH  33  34
ENDBRANCH  32  33
ENDBRANCH   1  32
TORSDOF 22
ENDMDL
