MODEL 1
REMARK VINA RESULT:      -9.1      0.000      0.000
REMARK SMILES COCC[C@H](NC(=O)N1CC[C@H](C(=O)OC)C1)C(=O)OCCOCCOC(=O)c1ccc(-c2c3nc(c(-c4ccc(S(=O)(=O)[O-])cc4)c4ccc([nH]4)c(-c4ccc(S(=O)(=O)[O-])cc4)c4nc(c(-c5ccc(S(=O)(=O)[O-])cc5)c5ccc2[nH]5)C=C4)C=C3)cc1
REMARK SMILES IDX 22 1 21 2 20 3 18 4 19 5 5 6 4 7 3 8 2 9 1 10 6 11 7 12 8 14
REMARK SMILES IDX 9 15 10 16 17 17 11 18 12 19 13 20 14 21 15 22 16 23 23 24
REMARK SMILES IDX 24 25 25 26 26 27 27 28 28 29 29 30 30 31 88 32 31 33 87 34
REMARK SMILES IDX 32 35 33 36 34 37 81 38 35 39 86 40 80 41 82 42 36 43 85 44
REMARK SMILES IDX 79 45 78 46 37 48 67 49 48 50 66 51 49 52 52 53 65 54 83 55
REMARK SMILES IDX 50 56 51 57 64 59 84 60 53 61 38 62 39 63 47 64 40 65 46 66
REMARK SMILES IDX 41 67 42 68 43 69 44 70 45 71 68 72 69 73 77 74 70 75 76 76
REMARK SMILES IDX 71 77 72 78 73 79 74 80 75 81 54 82 55 83 63 84 56 85 62 86
REMARK SMILES IDX 57 87 58 88 59 89 60 90 61 91
REMARK H PARENT 6 13 82 47 52 58
REMARK Flexibility Score: inf
ROOT
ATOM      1  C   UNL A   1      34.048  29.886  27.241  1.00  0.00     0.202 C 
ENDROOT
BRANCH   1   2
ATOM      2  C   UNL A   1      34.612  28.598  26.628  1.00  0.00     0.261 C 
BRANCH   2   3
ATOM      3  O   UNL A   1      33.531  27.896  26.006  1.00  0.00    -0.462 OA
BRANCH   3   4
ATOM      4  C   UNL A   1      33.521  27.794  24.657  1.00  0.00     0.328 C 
ATOM      5  O   UNL A   1      34.111  28.554  23.899  1.00  0.00    -0.250 OA
BRANCH   4   6
ATOM      6  C   UNL A   1      32.812  26.500  24.194  1.00  0.00     0.196 C 
BRANCH   6   7
ATOM      7  C   UNL A   1      33.302  25.240  24.910  1.00  0.00     0.065 C 
BRANCH   7   8
ATOM      8  C   UNL A   1      32.610  23.971  24.410  1.00  0.00     0.162 C 
BRANCH   8   9
ATOM      9  O   UNL A   1      33.522  22.908  24.134  1.00  0.00    -0.385 OA
ATOM     10  C   UNL A   1      34.582  23.234  23.249  1.00  0.00     0.194 C 
ENDBRANCH   8   9
ENDBRANCH   7   8
ENDBRANCH   6   7
BRANCH   6  11
ATOM     11  N   UNL A   1      32.570  26.269  22.768  1.00  0.00    -0.324 N 
ATOM     12  C   UNL A   1      31.552  26.614  21.953  1.00  0.00     0.318 C 
ATOM     13  H   UNL A   1      33.288  25.768  22.319  1.00  0.00     0.166 HD
ATOM     14  O   UNL A   1      31.521  26.087  20.840  1.00  0.00    -0.249 OA
BRANCH  12  15
ATOM     15  N   UNL A   1      30.523  27.333  22.456  1.00  0.00    -0.324 N 
ATOM     16  C   UNL A   1      29.576  26.956  23.479  1.00  0.00     0.122 C 
ATOM     17  C   UNL A   1      30.513  28.767  22.289  1.00  0.00     0.136 C 
ATOM     18  C   UNL A   1      28.465  27.975  23.303  1.00  0.00     0.039 C 
ATOM     19  C   UNL A   1      29.226  29.248  22.940  1.00  0.00     0.120 C 
BRANCH  19  20
ATOM     20  C   UNL A   1      28.367  30.216  22.153  1.00  0.00     0.310 C 
ATOM     21  O   UNL A   1      28.119  30.062  20.963  1.00  0.00    -0.252 OA
BRANCH  20  22
ATOM     22  O   UNL A   1      27.929  31.274  22.880  1.00  0.00    -0.469 OA
ATOM     23  C   UNL A   1      28.850  31.754  23.868  1.00  0.00     0.282 C 
ENDBRANCH  20  22
ENDBRANCH  19  20
ENDBRANCH  12  15
ENDBRANCH   6  11
ENDBRANCH   4   6
ENDBRANCH   3   4
ENDBRANCH   2   3
ENDBRANCH   1   2
BRANCH   1  24
ATOM     24  O   UNL A   1      32.966  30.425  26.477  1.00  0.00    -0.374 OA
BRANCH  24  25
ATOM     25  C   UNL A   1      32.356  31.594  27.045  1.00  0.00     0.202 C 
BRANCH  25  26
ATOM     26  C   UNL A   1      33.329  32.501  27.810  1.00  0.00     0.261 C 
BRANCH  26  27
ATOM     27  O   UNL A   1      33.011  33.903  27.644  1.00  0.00    -0.460 OA
BRANCH  27  28
ATOM     28  C   UNL A   1      33.275  34.726  28.689  1.00  0.00     0.338 C 
ATOM     29  O   UNL A   1      32.641  35.723  28.996  1.00  0.00    -0.246 OA
BRANCH  28  30
ATOM     30  C   UNL A   1      34.389  34.192  29.524  1.00  0.00     0.060 A 
ATOM     31  C   UNL A   1      35.692  34.281  29.017  1.00  0.00     0.016 A 
ATOM     32  C   UNL A   1      34.194  33.630  30.790  1.00  0.00     0.016 A 
ATOM     33  C   UNL A   1      36.797  33.891  29.788  1.00  0.00     0.010 A 
ATOM     34  C   UNL A   1      35.301  33.211  31.554  1.00  0.00     0.010 A 
ATOM     35  C   UNL A   1      36.615  33.350  31.067  1.00  0.00    -0.014 A 
BRANCH  35  36
ATOM     36  C   UNL A   1      37.769  32.780  31.822  1.00  0.00     0.031 A 
ATOM     37  C   UNL A   1      38.423  31.537  31.299  1.00  0.00     0.074 A 
ATOM     38  C   UNL A   1      38.263  33.338  32.946  1.00  0.00     0.049 A 
ATOM     39  N   UNL A   1      39.448  30.888  31.782  1.00  0.00    -0.248 NA
ATOM     40  C   UNL A   1      37.884  30.986  30.047  1.00  0.00     0.031 C 
ATOM     41  C   UNL A   1      37.862  34.628  33.479  1.00  0.00     0.029 A 
ATOM     42  N   UNL A   1      39.200  32.897  33.852  1.00  0.00    -0.354 N 
ATOM     43  C   UNL A   1      39.714  29.882  30.867  1.00  0.00     0.074 A 
ATOM     44  C   UNL A   1      38.713  29.976  29.826  1.00  0.00     0.031 C 
ATOM     45  C   UNL A   1      38.437  34.829  34.677  1.00  0.00     0.029 A 
ATOM     46  C   UNL A   1      39.308  33.696  34.971  1.00  0.00     0.049 A 
ATOM     47  H   UNL A   1      39.742  32.087  33.714  1.00  0.00     0.167 HD
ATOM     48  C   UNL A   1      40.716  28.974  30.883  1.00  0.00     0.031 A 
ATOM     49  C   UNL A   1      40.035  33.548  36.097  1.00  0.00     0.031 A 
ATOM     50  C   UNL A   1      41.669  28.831  31.947  1.00  0.00     0.049 A 
ATOM     51  C   UNL A   1      41.004  32.401  36.189  1.00  0.00     0.074 A 
ATOM     52  C   UNL A   1      42.707  27.923  32.052  1.00  0.00     0.029 A 
ATOM     53  N   UNL A   1      41.682  29.588  33.109  1.00  0.00    -0.354 N 
ATOM     54  N   UNL A   1      41.286  31.496  35.282  1.00  0.00    -0.248 NA
ATOM     55  C   UNL A   1      41.782  32.272  37.431  1.00  0.00     0.031 C 
ATOM     56  C   UNL A   1      43.300  28.079  33.308  1.00  0.00     0.029 A 
ATOM     57  C   UNL A   1      42.670  29.127  33.963  1.00  0.00     0.049 A 
ATOM     58  H   UNL A   1      41.077  30.341  33.299  1.00  0.00     0.167 HD
ATOM     59  C   UNL A   1      42.298  30.716  35.828  1.00  0.00     0.074 A 
ATOM     60  C   UNL A   1      42.582  31.254  37.141  1.00  0.00     0.031 C 
ATOM     61  C   UNL A   1      42.940  29.657  35.276  1.00  0.00     0.031 A 
BRANCH  48  62
ATOM     62  C   UNL A   1      40.787  28.032  29.718  1.00  0.00    -0.014 A 
ATOM     63  C   UNL A   1      41.692  28.251  28.665  1.00  0.00     0.010 A 
ATOM     64  C   UNL A   1      39.936  26.913  29.678  1.00  0.00     0.010 A 
ATOM     65  C   UNL A   1      41.722  27.385  27.571  1.00  0.00     0.020 A 
ATOM     66  C   UNL A   1      39.977  26.034  28.596  1.00  0.00     0.020 A 
ATOM     67  C   UNL A   1      40.859  26.284  27.542  1.00  0.00     0.054 A 
BRANCH  67  68
ATOM     68  S   UNL A   1      40.920  25.172  26.112  1.00  0.00     0.124 S 
ATOM     69  O   UNL A   1      39.533  24.722  26.022  1.00  0.00    -0.237 OA
ATOM     70  O   UNL A   1      41.364  26.057  25.037  1.00  0.00    -0.237 OA
ATOM     71  O   UNL A   1      41.882  24.147  26.510  1.00  0.00    -0.744 OA
ENDBRANCH  67  68
ENDBRANCH  48  62
BRANCH  49  72
ATOM     72  C   UNL A   1      39.881  34.503  37.233  1.00  0.00    -0.014 A 
ATOM     73  C   UNL A   1      40.646  35.681  37.305  1.00  0.00     0.010 A 
ATOM     74  C   UNL A   1      38.982  34.213  38.277  1.00  0.00     0.010 A 
ATOM     75  C   UNL A   1      40.530  36.538  38.405  1.00  0.00     0.020 A 
ATOM     76  C   UNL A   1      38.849  35.077  39.370  1.00  0.00     0.020 A 
ATOM     77  C   UNL A   1      39.634  36.230  39.433  1.00  0.00     0.054 A 
BRANCH  77  78
ATOM     78  S   UNL A   1      39.478  37.372  40.836  1.00  0.00     0.124 S 
ATOM     79  O   UNL A   1      40.852  37.835  41.007  1.00  0.00    -0.237 OA
ATOM     80  O   UNL A   1      38.533  38.365  40.332  1.00  0.00    -0.237 OA
ATOM     81  O   UNL A   1      38.965  36.525  41.911  1.00  0.00    -0.744 OA
ENDBRANCH  77  78
ENDBRANCH  49  72
BRANCH  61  82
ATOM     82  C   UNL A   1      44.020  28.995  36.088  1.00  0.00    -0.014 A 
ATOM     83  C   UNL A   1      43.725  27.915  36.938  1.00  0.00     0.010 A 
ATOM     84  C   UNL A   1      45.359  29.400  35.932  1.00  0.00     0.010 A 
ATOM     85  C   UNL A   1      44.748  27.257  37.625  1.00  0.00     0.020 A 
ATOM     86  C   UNL A   1      46.387  28.727  36.597  1.00  0.00     0.020 A 
ATOM     87  C   UNL A   1      46.074  27.663  37.445  1.00  0.00     0.054 A 
BRANCH  87  88
ATOM     88  S   UNL A   1      47.390  26.741  38.287  1.00  0.00     0.124 S 
ATOM     89  O   UNL A   1      48.593  27.392  37.776  1.00  0.00    -0.237 OA
ATOM     90  O   UNL A   1      47.096  26.981  39.699  1.00  0.00    -0.237 OA
ATOM     91  O   UNL A   1      47.189  25.364  37.841  1.00  0.00    -0.744 OA
ENDBRANCH  87  88
ENDBRANCH  61  82
ENDBRANCH  35  36
ENDBRANCH  28  30
ENDBRANCH  27  28
ENDBRANCH  26  27
ENDBRANCH  25  26
ENDBRANCH  24  25
ENDBRANCH   1  24
TORSDOF 24
ENDMDL
MODEL 2
REMARK VINA RESULT:      -9.0      2.764      8.059
REMARK SMILES COCC[C@H](NC(=O)N1CC[C@H](C(=O)OC)C1)C(=O)OCCOCCOC(=O)c1ccc(-c2c3nc(c(-c4ccc(S(=O)(=O)[O-])cc4)c4ccc([nH]4)c(-c4ccc(S(=O)(=O)[O-])cc4)c4nc(c(-c5ccc(S(=O)(=O)[O-])cc5)c5ccc2[nH]5)C=C4)C=C3)cc1
REMARK SMILES IDX 22 1 21 2 20 3 18 4 19 5 5 6 4 7 3 8 2 9 1 10 6 11 7 12 8 14
REMARK SMILES IDX 9 15 10 16 17 17 11 18 12 19 13 20 14 21 15 22 16 23 23 24
REMARK SMILES IDX 24 25 25 26 26 27 27 28 28 29 29 30 30 31 88 32 31 33 87 34
REMARK SMILES IDX 32 35 33 36 34 37 81 38 35 39 86 40 80 41 82 42 36 43 85 44
REMARK SMILES IDX 79 45 78 46 37 48 67 49 48 50 66 51 49 52 52 53 65 54 83 55
REMARK SMILES IDX 50 56 51 57 64 59 84 60 53 61 38 62 39 63 47 64 40 65 46 66
REMARK SMILES IDX 41 67 42 68 43 69 44 70 45 71 68 72 69 73 77 74 70 75 76 76
REMARK SMILES IDX 71 77 72 78 73 79 74 80 75 81 54 82 55 83 63 84 56 85 62 86
REMARK SMILES IDX 57 87 58 88 59 89 60 90 61 91
REMARK H PARENT 6 13 82 47 52 58
REMARK Flexibility Score: inf
ROOT
ATOM      1  C   UNL A   1      37.305  22.088  24.260  1.00  0.00     0.202 C 
ENDROOT
BRANCH   1   2
ATOM      2  C   UNL A   1      36.546  23.316  23.741  1.00  0.00     0.261 C 
BRANCH   2   3
ATOM      3  O   UNL A   1      35.533  22.859  22.839  1.00  0.00    -0.462 OA
BRANCH   3   4
ATOM      4  C   UNL A   1      34.237  22.998  23.205  1.00  0.00     0.328 C 
ATOM      5  O   UNL A   1      33.458  23.804  22.710  1.00  0.00    -0.250 OA
BRANCH   4   6
ATOM      6  C   UNL A   1      33.813  21.900  24.208  1.00  0.00     0.196 C 
BRANCH   6   7
ATOM      7  C   UNL A   1      32.374  21.416  24.017  1.00  0.00     0.065 C 
BRANCH   7   8
ATOM      8  C   UNL A   1      32.238  20.408  22.874  1.00  0.00     0.162 C 
BRANCH   8   9
ATOM      9  O   UNL A   1      32.233  19.053  23.321  1.00  0.00    -0.385 OA
ATOM     10  C   UNL A   1      32.314  18.076  22.295  1.00  0.00     0.194 C 
ENDBRANCH   8   9
ENDBRANCH   7   8
ENDBRANCH   6   7
BRANCH   6  11
ATOM     11  N   UNL A   1      34.174  22.023  25.622  1.00  0.00    -0.324 N 
ATOM     12  C   UNL A   1      33.806  22.898  26.579  1.00  0.00     0.318 C 
ATOM     13  H   UNL A   1      34.806  21.334  25.932  1.00  0.00     0.166 HD
ATOM     14  O   UNL A   1      34.448  22.884  27.630  1.00  0.00    -0.249 OA
BRANCH  12  15
ATOM     15  N   UNL A   1      32.916  23.870  26.274  1.00  0.00    -0.324 N 
ATOM     16  C   UNL A   1      31.510  23.937  26.597  1.00  0.00     0.122 C 
ATOM     17  C   UNL A   1      33.397  25.184  25.921  1.00  0.00     0.136 C 
ATOM     18  C   UNL A   1      30.999  25.013  25.658  1.00  0.00     0.039 C 
ATOM     19  C   UNL A   1      32.156  26.009  25.620  1.00  0.00     0.120 C 
BRANCH  19  20
ATOM     20  C   UNL A   1      32.155  26.828  24.346  1.00  0.00     0.310 C 
ATOM     21  O   UNL A   1      31.213  26.829  23.561  1.00  0.00    -0.252 OA
BRANCH  20  22
ATOM     22  O   UNL A   1      33.299  27.528  24.146  1.00  0.00    -0.469 OA
ATOM     23  C   UNL A   1      33.170  28.951  24.267  1.00  0.00     0.282 C 
ENDBRANCH  20  22
ENDBRANCH  19  20
ENDBRANCH  12  15
ENDBRANCH   6  11
ENDBRANCH   4   6
ENDBRANCH   3   4
ENDBRANCH   2   3
ENDBRANCH   1   2
BRANCH   1  24
ATOM     24  O   UNL A   1      37.454  22.101  25.683  1.00  0.00    -0.374 OA
BRANCH  24  25
ATOM     25  C   UNL A   1      38.613  22.803  26.157  1.00  0.00     0.202 C 
BRANCH  25  26
ATOM     26  C   UNL A   1      38.322  24.223  26.662  1.00  0.00     0.261 C 
BRANCH  26  27
ATOM     27  O   UNL A   1      39.327  24.684  27.597  1.00  0.00    -0.460 OA
BRANCH  27  28
ATOM     28  C   UNL A   1      39.996  25.819  27.276  1.00  0.00     0.338 C 
ATOM     29  O   UNL A   1      40.387  26.132  26.163  1.00  0.00    -0.246 OA
BRANCH  28  30
ATOM     30  C   UNL A   1      40.099  26.731  28.452  1.00  0.00     0.060 A 
ATOM     31  C   UNL A   1      39.149  26.597  29.473  1.00  0.00     0.016 A 
ATOM     32  C   UNL A   1      41.106  27.692  28.588  1.00  0.00     0.016 A 
ATOM     33  C   UNL A   1      39.243  27.352  30.651  1.00  0.00     0.010 A 
ATOM     34  C   UNL A   1      41.184  28.471  29.759  1.00  0.00     0.010 A 
ATOM     35  C   UNL A   1      40.262  28.299  30.809  1.00  0.00    -0.014 A 
BRANCH  35  36
ATOM     36  C   UNL A   1      40.268  29.220  31.984  1.00  0.00     0.031 A 
ATOM     37  C   UNL A   1      41.266  28.979  33.076  1.00  0.00     0.074 A 
ATOM     38  C   UNL A   1      39.429  30.268  32.104  1.00  0.00     0.049 A 
ATOM     39  N   UNL A   1      41.461  29.665  34.170  1.00  0.00    -0.248 NA
ATOM     40  C   UNL A   1      42.194  27.854  32.886  1.00  0.00     0.031 C 
ATOM     41  C   UNL A   1      38.534  30.739  31.063  1.00  0.00     0.029 A 
ATOM     42  N   UNL A   1      39.179  31.125  33.150  1.00  0.00    -0.354 N 
ATOM     43  C   UNL A   1      42.567  29.090  34.776  1.00  0.00     0.074 A 
ATOM     44  C   UNL A   1      42.970  27.969  33.953  1.00  0.00     0.031 C 
ATOM     45  C   UNL A   1      37.737  31.709  31.545  1.00  0.00     0.029 A 
ATOM     46  C   UNL A   1      38.114  31.975  32.929  1.00  0.00     0.049 A 
ATOM     47  H   UNL A   1      39.709  31.132  33.979  1.00  0.00     0.167 HD
ATOM     48  C   UNL A   1      43.202  29.475  35.906  1.00  0.00     0.031 A 
ATOM     49  C   UNL A   1      37.519  32.877  33.736  1.00  0.00     0.031 A 
ATOM     50  C   UNL A   1      42.766  30.541  36.763  1.00  0.00     0.049 A 
ATOM     51  C   UNL A   1      38.120  33.147  35.089  1.00  0.00     0.074 A 
ATOM     52  C   UNL A   1      43.342  30.985  37.940  1.00  0.00     0.029 A 
ATOM     53  N   UNL A   1      41.628  31.307  36.561  1.00  0.00    -0.354 N 
ATOM     54  N   UNL A   1      39.207  32.636  35.616  1.00  0.00    -0.248 NA
ATOM     55  C   UNL A   1      37.445  34.138  35.941  1.00  0.00     0.031 C 
ATOM     56  C   UNL A   1      42.512  31.967  38.489  1.00  0.00     0.029 A 
ATOM     57  C   UNL A   1      41.450  32.180  37.622  1.00  0.00     0.049 A 
ATOM     58  H   UNL A   1      41.034  31.241  35.778  1.00  0.00     0.167 HD
ATOM     59  C   UNL A   1      39.366  33.269  36.842  1.00  0.00     0.074 A 
ATOM     60  C   UNL A   1      38.268  34.203  36.979  1.00  0.00     0.031 C 
ATOM     61  C   UNL A   1      40.348  33.097  37.761  1.00  0.00     0.031 A 
BRANCH  48  62
ATOM     62  C   UNL A   1      44.418  28.687  36.295  1.00  0.00    -0.014 A 
ATOM     63  C   UNL A   1      44.308  27.542  37.104  1.00  0.00     0.010 A 
ATOM     64  C   UNL A   1      45.684  29.096  35.844  1.00  0.00     0.010 A 
ATOM     65  C   UNL A   1      45.451  26.839  37.486  1.00  0.00     0.020 A 
ATOM     66  C   UNL A   1      46.827  28.383  36.207  1.00  0.00     0.020 A 
ATOM     67  C   UNL A   1      46.705  27.268  37.039  1.00  0.00     0.054 A 
BRANCH  67  68
ATOM     68  S   UNL A   1      48.173  26.335  37.545  1.00  0.00     0.124 S 
ATOM     69  O   UNL A   1      47.612  25.392  38.509  1.00  0.00    -0.237 OA
ATOM     70  O   UNL A   1      48.631  25.750  36.287  1.00  0.00    -0.237 OA
ATOM     71  O   UNL A   1      49.054  27.354  38.112  1.00  0.00    -0.744 OA
ENDBRANCH  67  68
ENDBRANCH  48  62
BRANCH  49  72
ATOM     72  C   UNL A   1      36.287  33.593  33.296  1.00  0.00    -0.014 A 
ATOM     73  C   UNL A   1      36.352  34.883  32.740  1.00  0.00     0.010 A 
ATOM     74  C   UNL A   1      35.026  32.992  33.470  1.00  0.00     0.010 A 
ATOM     75  C   UNL A   1      35.182  35.565  32.386  1.00  0.00     0.020 A 
ATOM     76  C   UNL A   1      33.854  33.662  33.099  1.00  0.00     0.020 A 
ATOM     77  C   UNL A   1      33.939  34.950  32.569  1.00  0.00     0.054 A 
BRANCH  77  78
ATOM     78  S   UNL A   1      32.436  35.841  32.073  1.00  0.00     0.124 S 
ATOM     79  O   UNL A   1      31.384  35.008  32.647  1.00  0.00    -0.237 OA
ATOM     80  O   UNL A   1      32.622  37.147  32.700  1.00  0.00    -0.237 OA
ATOM     81  O   UNL A   1      32.507  35.844  30.614  1.00  0.00    -0.744 OA
ENDBRANCH  77  78
ENDBRANCH  49  72
BRANCH  61  82
ATOM     82  C   UNL A   1      40.288  33.934  39.011  1.00  0.00    -0.014 A 
ATOM     83  C   UNL A   1      39.822  33.391  40.221  1.00  0.00     0.010 A 
ATOM     84  C   UNL A   1      40.787  35.249  38.996  1.00  0.00     0.010 A 
ATOM     85  C   UNL A   1      39.847  34.153  41.392  1.00  0.00     0.020 A 
ATOM     86  C   UNL A   1      40.838  36.004  40.170  1.00  0.00     0.020 A 
ATOM     87  C   UNL A   1      40.361  35.452  41.361  1.00  0.00     0.054 A 
BRANCH  87  88
ATOM     88  S   UNL A   1      40.456  36.390  42.911  1.00  0.00     0.124 S 
ATOM     89  O   UNL A   1      41.873  36.283  43.246  1.00  0.00    -0.237 OA
ATOM     90  O   UNL A   1      40.004  37.721  42.507  1.00  0.00    -0.237 OA
ATOM     91  O   UNL A   1      39.547  35.677  43.805  1.00  0.00    -0.744 OA
ENDBRANCH  87  88
ENDBRANCH  61  82
ENDBRANCH  35  36
ENDBRANCH  28  30
ENDBRANCH  27  28
ENDBRANCH  26  27
ENDBRANCH  25  26
ENDBRANCH  24  25
ENDBRANCH   1  24
TORSDOF 24
ENDMDL
MODEL 3
REMARK VINA RESULT:      -8.9      1.311      3.373
REMARK SMILES COCC[C@H](NC(=O)N1CC[C@H](C(=O)OC)C1)C(=O)OCCOCCOC(=O)c1ccc(-c2c3nc(c(-c4ccc(S(=O)(=O)[O-])cc4)c4ccc([nH]4)c(-c4ccc(S(=O)(=O)[O-])cc4)c4nc(c(-c5ccc(S(=O)(=O)[O-])cc5)c5ccc2[nH]5)C=C4)C=C3)cc1
REMARK SMILES IDX 22 1 21 2 20 3 18 4 19 5 5 6 4 7 3 8 2 9 1 10 6 11 7 12 8 14
REMARK SMILES IDX 9 15 10 16 17 17 11 18 12 19 13 20 14 21 15 22 16 23 23 24
REMARK SMILES IDX 24 25 25 26 26 27 27 28 28 29 29 30 30 31 88 32 31 33 87 34
REMARK SMILES IDX 32 35 33 36 34 37 81 38 35 39 86 40 80 41 82 42 36 43 85 44
REMARK SMILES IDX 79 45 78 46 37 48 67 49 48 50 66 51 49 52 52 53 65 54 83 55
REMARK SMILES IDX 50 56 51 57 64 59 84 60 53 61 38 62 39 63 47 64 40 65 46 66
REMARK SMILES IDX 41 67 42 68 43 69 44 70 45 71 68 72 69 73 77 74 70 75 76 76
REMARK SMILES IDX 71 77 72 78 73 79 74 80 75 81 54 82 55 83 63 84 56 85 62 86
REMARK SMILES IDX 57 87 58 88 59 89 60 90 61 91
REMARK H PARENT 6 13 82 47 52 58
REMARK Flexibility Score: inf
ROOT
ATOM      1  C   UNL A   1      33.915  29.084  26.596  1.00  0.00     0.202 C 
ENDROOT
BRANCH   1   2
ATOM      2  C   UNL A   1      33.302  27.681  26.505  1.00  0.00     0.261 C 
BRANCH   2   3
ATOM      3  O   UNL A   1      32.505  27.624  25.317  1.00  0.00    -0.462 OA
BRANCH   3   4
ATOM      4  C   UNL A   1      33.083  27.181  24.176  1.00  0.00     0.328 C 
ATOM      5  O   UNL A   1      34.071  26.457  24.133  1.00  0.00    -0.250 OA
BRANCH   4   6
ATOM      6  C   UNL A   1      32.246  27.564  22.934  1.00  0.00     0.196 C 
BRANCH   6   7
ATOM      7  C   UNL A   1      30.747  27.683  23.216  1.00  0.00     0.065 C 
BRANCH   7   8
ATOM      8  C   UNL A   1      30.110  28.890  22.524  1.00  0.00     0.162 C 
BRANCH   8   9
ATOM      9  O   UNL A   1      29.490  29.795  23.436  1.00  0.00    -0.385 OA
ATOM     10  C   UNL A   1      28.973  30.982  22.855  1.00  0.00     0.194 C 
ENDBRANCH   8   9
ENDBRANCH   7   8
ENDBRANCH   6   7
BRANCH   6  11
ATOM     11  N   UNL A   1      32.519  26.928  21.643  1.00  0.00    -0.324 N 
ATOM     12  C   UNL A   1      32.596  25.635  21.268  1.00  0.00     0.318 C 
ATOM     13  H   UNL A   1      32.674  27.566  20.910  1.00  0.00     0.166 HD
ATOM     14  O   UNL A   1      33.062  25.401  20.152  1.00  0.00    -0.249 OA
BRANCH  12  15
ATOM     15  N   UNL A   1      32.369  24.669  22.188  1.00  0.00    -0.324 N 
ATOM     16  C   UNL A   1      31.130  24.327  22.847  1.00  0.00     0.122 C 
ATOM     17  C   UNL A   1      33.303  23.576  22.312  1.00  0.00     0.136 C 
ATOM     18  C   UNL A   1      31.594  23.484  24.020  1.00  0.00     0.039 C 
ATOM     19  C   UNL A   1      32.766  22.701  23.433  1.00  0.00     0.120 C 
BRANCH  19  20
ATOM     20  C   UNL A   1      33.744  22.263  24.504  1.00  0.00     0.310 C 
ATOM     21  O   UNL A   1      34.042  21.088  24.685  1.00  0.00    -0.252 OA
BRANCH  20  22
ATOM     22  O   UNL A   1      34.229  23.284  25.253  1.00  0.00    -0.469 OA
ATOM     23  C   UNL A   1      34.365  22.999  26.651  1.00  0.00     0.282 C 
ENDBRANCH  20  22
ENDBRANCH  19  20
ENDBRANCH  12  15
ENDBRANCH   6  11
ENDBRANCH   4   6
ENDBRANCH   3   4
ENDBRANCH   2   3
ENDBRANCH   1   2
BRANCH   1  24
ATOM     24  O   UNL A   1      33.085  30.081  25.993  1.00  0.00    -0.374 OA
BRANCH  24  25
ATOM     25  C   UNL A   1      32.499  31.010  26.917  1.00  0.00     0.202 C 
BRANCH  25  26
ATOM     26  C   UNL A   1      33.521  31.830  27.717  1.00  0.00     0.261 C 
BRANCH  26  27
ATOM     27  O   UNL A   1      33.276  33.252  27.616  1.00  0.00    -0.460 OA
BRANCH  27  28
ATOM     28  C   UNL A   1      33.382  33.981  28.754  1.00  0.00     0.338 C 
ATOM     29  O   UNL A   1      32.568  34.792  29.167  1.00  0.00    -0.246 OA
BRANCH  28  30
ATOM     30  C   UNL A   1      34.586  33.579  29.537  1.00  0.00     0.060 A 
ATOM     31  C   UNL A   1      35.825  34.112  29.159  1.00  0.00     0.016 A 
ATOM     32  C   UNL A   1      34.529  32.718  30.638  1.00  0.00     0.016 A 
ATOM     33  C   UNL A   1      36.982  33.858  29.909  1.00  0.00     0.010 A 
ATOM     34  C   UNL A   1      35.697  32.439  31.376  1.00  0.00     0.010 A 
ATOM     35  C   UNL A   1      36.932  33.017  31.028  1.00  0.00    -0.014 A 
BRANCH  35  36
ATOM     36  C   UNL A   1      38.185  32.610  31.729  1.00  0.00     0.031 A 
ATOM     37  C   UNL A   1      39.080  31.605  31.069  1.00  0.00     0.074 A 
ATOM     38  C   UNL A   1      38.560  33.113  32.922  1.00  0.00     0.049 A 
ATOM     39  N   UNL A   1      40.222  31.128  31.487  1.00  0.00    -0.248 NA
ATOM     40  C   UNL A   1      38.660  31.114  29.748  1.00  0.00     0.031 C 
ATOM     41  C   UNL A   1      37.903  34.215  33.603  1.00  0.00     0.029 A 
ATOM     42  N   UNL A   1      39.575  32.767  33.784  1.00  0.00    -0.354 N 
ATOM     43  C   UNL A   1      40.685  30.321  30.460  1.00  0.00     0.074 A 
ATOM     44  C   UNL A   1      39.679  30.335  29.419  1.00  0.00     0.031 C 
ATOM     45  C   UNL A   1      38.432  34.380  34.827  1.00  0.00     0.029 A 
ATOM     46  C   UNL A   1      39.523  33.426  34.996  1.00  0.00     0.049 A 
ATOM     47  H   UNL A   1      40.273  32.111  33.558  1.00  0.00     0.167 HD
ATOM     48  C   UNL A   1      41.855  29.646  30.382  1.00  0.00     0.031 A 
ATOM     49  C   UNL A   1      40.272  33.293  36.108  1.00  0.00     0.031 A 
ATOM     50  C   UNL A   1      42.824  29.573  31.439  1.00  0.00     0.049 A 
ATOM     51  C   UNL A   1      41.460  32.369  36.076  1.00  0.00     0.074 A 
ATOM     52  C   UNL A   1      44.030  28.894  31.450  1.00  0.00     0.029 A 
ATOM     53  N   UNL A   1      42.687  30.165  32.685  1.00  0.00    -0.354 N 
ATOM     54  N   UNL A   1      41.918  31.663  35.070  1.00  0.00    -0.248 NA
ATOM     55  C   UNL A   1      42.256  32.251  37.307  1.00  0.00     0.031 C 
ATOM     56  C   UNL A   1      44.585  29.013  32.728  1.00  0.00     0.029 A 
ATOM     57  C   UNL A   1      43.756  29.817  33.495  1.00  0.00     0.049 A 
ATOM     58  H   UNL A   1      41.939  30.747  32.955  1.00  0.00     0.167 HD
ATOM     59  C   UNL A   1      43.074  31.048  35.534  1.00  0.00     0.074 A 
ATOM     60  C   UNL A   1      43.250  31.466  36.909  1.00  0.00     0.031 C 
ATOM     61  C   UNL A   1      43.919  30.223  34.868  1.00  0.00     0.031 A 
BRANCH  48  62
ATOM     62  C   UNL A   1      42.112  28.892  29.112  1.00  0.00    -0.014 A 
ATOM     63  C   UNL A   1      41.763  27.534  28.995  1.00  0.00     0.010 A 
ATOM     64  C   UNL A   1      42.708  29.550  28.023  1.00  0.00     0.010 A 
ATOM     65  C   UNL A   1      42.040  26.837  27.819  1.00  0.00     0.020 A 
ATOM     66  C   UNL A   1      42.967  28.861  26.838  1.00  0.00     0.020 A 
ATOM     67  C   UNL A   1      42.646  27.504  26.749  1.00  0.00     0.054 A 
BRANCH  67  68
ATOM     68  S   UNL A   1      42.992  26.576  25.231  1.00  0.00     0.124 S 
ATOM     69  O   UNL A   1      41.912  25.592  25.228  1.00  0.00    -0.237 OA
ATOM     70  O   UNL A   1      42.904  27.607  24.199  1.00  0.00    -0.237 OA
ATOM     71  O   UNL A   1      44.329  26.033  25.453  1.00  0.00    -0.744 OA
ENDBRANCH  67  68
ENDBRANCH  48  62
BRANCH  49  72
ATOM     72  C   UNL A   1      39.931  34.046  37.350  1.00  0.00    -0.014 A 
ATOM     73  C   UNL A   1      40.414  35.348  37.570  1.00  0.00     0.010 A 
ATOM     74  C   UNL A   1      39.140  33.438  38.344  1.00  0.00     0.010 A 
ATOM     75  C   UNL A   1      40.131  36.019  38.765  1.00  0.00     0.020 A 
ATOM     76  C   UNL A   1      38.838  34.113  39.532  1.00  0.00     0.020 A 
ATOM     77  C   UNL A   1      39.346  35.396  39.741  1.00  0.00     0.054 A 
BRANCH  77  78
ATOM     78  S   UNL A   1      38.967  36.297  41.271  1.00  0.00     0.124 S 
ATOM     79  O   UNL A   1      38.648  37.631  40.769  1.00  0.00    -0.237 OA
ATOM     80  O   UNL A   1      37.842  35.539  41.813  1.00  0.00    -0.237 OA
ATOM     81  O   UNL A   1      40.204  36.198  42.042  1.00  0.00    -0.744 OA
ENDBRANCH  77  78
ENDBRANCH  49  72
BRANCH  61  82
ATOM     82  C   UNL A   1      45.120  29.704  35.613  1.00  0.00    -0.014 A 
ATOM     83  C   UNL A   1      45.068  28.479  36.299  1.00  0.00     0.010 A 
ATOM     84  C   UNL A   1      46.337  30.407  35.550  1.00  0.00     0.010 A 
ATOM     85  C   UNL A   1      46.212  27.969  36.919  1.00  0.00     0.020 A 
ATOM     86  C   UNL A   1      47.489  29.886  36.146  1.00  0.00     0.020 A 
ATOM     87  C   UNL A   1      47.417  28.673  36.833  1.00  0.00     0.054 A 
BRANCH  87  88
ATOM     88  S   UNL A   1      48.905  27.949  37.578  1.00  0.00     0.124 S 
ATOM     89  O   UNL A   1      48.488  27.753  38.963  1.00  0.00    -0.237 OA
ATOM     90  O   UNL A   1      49.090  26.726  36.798  1.00  0.00    -0.237 OA
ATOM     91  O   UNL A   1      49.928  28.971  37.373  1.00  0.00    -0.744 OA
ENDBRANCH  87  88
ENDBRANCH  61  82
ENDBRANCH  35  36
ENDBRANCH  28  30
ENDBRANCH  27  28
ENDBRANCH  26  27
ENDBRANCH  25  26
ENDBRANCH  24  25
ENDBRANCH   1  24
TORSDOF 24
ENDMDL
