MODEL 1
REMARK VINA RESULT:     -10.4      0.000      0.000
REMARK SMILES O=C(C[C@H]1C(=O)Nc2ccccc21)OCCOCCOC(=O)c1ccc(-c2c3nc(c(-c4ccc(S(=O)(=O)[O-])cc4)c4ccc([nH]4)c(-c4ccc(S(=O)(=O)[O-])cc4)c4nc(c(-c5ccc(S(=O)(=O)[O-])cc5)c5ccc2[nH]5)C=C4)C=C3)cc1
REMARK SMILES IDX 18 1 17 2 16 3 15 4 14 5 2 6 1 7 3 8 4 9 5 10 13 11 6 12
REMARK SMILES IDX 7 13 8 14 12 15 9 17 11 18 10 19 19 20 20 21 21 22 22 23
REMARK SMILES IDX 23 24 24 25 82 26 25 27 81 28 26 29 27 30 28 31 75 32 29 33
REMARK SMILES IDX 80 34 74 35 76 36 30 37 79 38 73 39 72 40 31 42 61 43 42 44
REMARK SMILES IDX 60 45 43 46 46 47 59 48 77 49 44 50 45 51 58 53 78 54 47 55
REMARK SMILES IDX 32 56 33 57 41 58 34 59 40 60 35 61 36 62 37 63 38 64 39 65
REMARK SMILES IDX 62 66 63 67 71 68 64 69 70 70 65 71 66 72 67 73 68 74 69 75
REMARK SMILES IDX 48 76 49 77 57 78 50 79 56 80 51 81 52 82 53 83 54 84 55 85
REMARK H PARENT 7 16 76 41 46 52
REMARK Flexibility Score: inf
ROOT
ATOM      1  C   UNL A   1      31.806  29.193  26.188  1.00  0.00     0.202 C 
ENDROOT
BRANCH   1   2
ATOM      2  O   UNL A   1      31.257  27.932  26.587  1.00  0.00    -0.374 OA
BRANCH   2   3
ATOM      3  C   UNL A   1      32.024  26.759  26.362  1.00  0.00     0.202 C 
BRANCH   3   4
ATOM      4  C   UNL A   1      31.269  25.490  25.958  1.00  0.00     0.261 C 
BRANCH   4   5
ATOM      5  O   UNL A   1      30.428  25.618  24.804  1.00  0.00    -0.463 OA
BRANCH   5   6
ATOM      6  C   UNL A   1      30.841  25.344  23.544  1.00  0.00     0.307 C 
ATOM      7  O   UNL A   1      31.074  24.184  23.207  1.00  0.00    -0.252 OA
BRANCH   6   8
ATOM      8  C   UNL A   1      31.070  26.484  22.588  1.00  0.00     0.141 C 
BRANCH   8   9
ATOM      9  C   UNL A   1      30.930  27.888  23.166  1.00  0.00     0.122 C 
ATOM     10  C   UNL A   1      32.029  28.767  22.534  1.00  0.00     0.232 C 
ATOM     11  C   UNL A   1      29.686  28.658  22.806  1.00  0.00    -0.011 A 
ATOM     12  O   UNL A   1      33.234  28.580  22.597  1.00  0.00    -0.274 OA
ATOM     13  N   UNL A   1      31.405  29.802  21.856  1.00  0.00    -0.325 N 
ATOM     14  C   UNL A   1      30.031  29.748  22.012  1.00  0.00     0.045 A 
ATOM     15  C   UNL A   1      28.367  28.449  23.170  1.00  0.00     0.007 A 
ATOM     16  H   UNL A   1      31.879  30.487  21.331  1.00  0.00     0.169 HD
ATOM     17  C   UNL A   1      29.096  30.626  21.507  1.00  0.00     0.026 A 
ATOM     18  C   UNL A   1      27.399  29.326  22.674  1.00  0.00     0.000 A 
ATOM     19  C   UNL A   1      27.759  30.399  21.841  1.00  0.00     0.002 A 
ENDBRANCH   8   9
ENDBRANCH   6   8
ENDBRANCH   5   6
ENDBRANCH   4   5
ENDBRANCH   3   4
ENDBRANCH   2   3
ENDBRANCH   1   2
BRANCH   1  20
ATOM     20  C   UNL A   1      32.516  30.033  27.253  1.00  0.00     0.261 C 
BRANCH  20  21
ATOM     21  O   UNL A   1      33.799  30.500  26.790  1.00  0.00    -0.460 OA
BRANCH  21  22
ATOM     22  C   UNL A   1      34.481  31.259  27.676  1.00  0.00     0.338 C 
ATOM     23  O   UNL A   1      34.031  32.152  28.380  1.00  0.00    -0.246 OA
BRANCH  22  24
ATOM     24  C   UNL A   1      35.856  30.767  27.836  1.00  0.00     0.060 A 
ATOM     25  C   UNL A   1      36.053  29.380  27.853  1.00  0.00     0.016 A 
ATOM     26  C   UNL A   1      36.891  31.643  28.163  1.00  0.00     0.016 A 
ATOM     27  C   UNL A   1      37.267  28.860  28.294  1.00  0.00     0.010 A 
ATOM     28  C   UNL A   1      38.106  31.119  28.615  1.00  0.00     0.010 A 
ATOM     29  C   UNL A   1      38.269  29.728  28.744  1.00  0.00    -0.014 A 
BRANCH  29  30
ATOM     30  C   UNL A   1      39.365  29.182  29.580  1.00  0.00     0.031 A 
ATOM     31  C   UNL A   1      39.422  29.585  31.032  1.00  0.00     0.074 A 
ATOM     32  C   UNL A   1      40.261  28.315  29.077  1.00  0.00     0.049 A 
ATOM     33  N   UNL A   1      40.272  29.230  31.959  1.00  0.00    -0.248 NA
ATOM     34  C   UNL A   1      38.376  30.513  31.498  1.00  0.00     0.031 C 
ATOM     35  C   UNL A   1      40.277  27.817  27.704  1.00  0.00     0.029 A 
ATOM     36  N   UNL A   1      41.329  27.699  29.676  1.00  0.00    -0.354 N 
ATOM     37  C   UNL A   1      39.875  29.900  33.112  1.00  0.00     0.074 A 
ATOM     38  C   UNL A   1      38.721  30.700  32.763  1.00  0.00     0.031 C 
ATOM     39  C   UNL A   1      41.310  26.967  27.564  1.00  0.00     0.029 A 
ATOM     40  C   UNL A   1      42.037  26.882  28.829  1.00  0.00     0.049 A 
ATOM     41  H   UNL A   1      41.566  27.831  30.623  1.00  0.00     0.167 HD
ATOM     42  C   UNL A   1      40.419  29.855  34.350  1.00  0.00     0.031 A 
ATOM     43  C   UNL A   1      43.149  26.156  29.053  1.00  0.00     0.031 A 
ATOM     44  C   UNL A   1      41.573  29.068  34.693  1.00  0.00     0.049 A 
ATOM     45  C   UNL A   1      43.765  26.155  30.426  1.00  0.00     0.074 A 
ATOM     46  C   UNL A   1      42.198  28.940  35.919  1.00  0.00     0.029 A 
ATOM     47  N   UNL A   1      42.277  28.275  33.798  1.00  0.00    -0.354 N 
ATOM     48  N   UNL A   1      43.367  26.779  31.510  1.00  0.00    -0.248 NA
ATOM     49  C   UNL A   1      44.973  25.337  30.610  1.00  0.00     0.031 C 
ATOM     50  C   UNL A   1      43.309  28.104  35.757  1.00  0.00     0.029 A 
ATOM     51  C   UNL A   1      43.341  27.668  34.442  1.00  0.00     0.049 A 
ATOM     52  H   UNL A   1      42.052  28.160  32.847  1.00  0.00     0.167 HD
ATOM     53  C   UNL A   1      44.253  26.400  32.514  1.00  0.00     0.074 A 
ATOM     54  C   UNL A   1      45.205  25.491  31.907  1.00  0.00     0.031 C 
ATOM     55  C   UNL A   1      44.273  26.762  33.821  1.00  0.00     0.031 A 
BRANCH  42  56
ATOM     56  C   UNL A   1      39.792  30.721  35.412  1.00  0.00    -0.014 A 
ATOM     57  C   UNL A   1      40.417  31.899  35.859  1.00  0.00     0.010 A 
ATOM     58  C   UNL A   1      38.554  30.349  35.966  1.00  0.00     0.010 A 
ATOM     59  C   UNL A   1      39.838  32.664  36.877  1.00  0.00     0.020 A 
ATOM     60  C   UNL A   1      37.960  31.124  36.967  1.00  0.00     0.020 A 
ATOM     61  C   UNL A   1      38.617  32.265  37.430  1.00  0.00     0.054 A 
BRANCH  61  62
ATOM     62  S   UNL A   1      37.884  33.272  38.750  1.00  0.00     0.124 S 
ATOM     63  O   UNL A   1      38.353  32.581  39.949  1.00  0.00    -0.237 OA
ATOM     64  O   UNL A   1      38.471  34.589  38.514  1.00  0.00    -0.237 OA
ATOM     65  O   UNL A   1      36.448  33.179  38.499  1.00  0.00    -0.744 OA
ENDBRANCH  61  62
ENDBRANCH  42  56
BRANCH  43  66
ATOM     66  C   UNL A   1      43.745  25.354  27.949  1.00  0.00    -0.014 A 
ATOM     67  C   UNL A   1      43.422  23.994  27.801  1.00  0.00     0.010 A 
ATOM     68  C   UNL A   1      44.628  25.953  27.033  1.00  0.00     0.010 A 
ATOM     69  C   UNL A   1      43.983  23.243  26.763  1.00  0.00     0.020 A 
ATOM     70  C   UNL A   1      45.171  25.212  25.980  1.00  0.00     0.020 A 
ATOM     71  C   UNL A   1      44.852  23.858  25.857  1.00  0.00     0.054 A 
BRANCH  71  72
ATOM     72  S   UNL A   1      45.516  22.881  24.479  1.00  0.00     0.124 S 
ATOM     73  O   UNL A   1      46.058  21.714  25.168  1.00  0.00    -0.237 OA
ATOM     74  O   UNL A   1      44.329  22.641  23.662  1.00  0.00    -0.237 OA
ATOM     75  O   UNL A   1      46.506  23.771  23.877  1.00  0.00    -0.744 OA
ENDBRANCH  71  72
ENDBRANCH  43  66
BRANCH  55  76
ATOM     76  C   UNL A   1      45.322  26.130  34.696  1.00  0.00    -0.014 A 
ATOM     77  C   UNL A   1      45.094  24.906  35.348  1.00  0.00     0.010 A 
ATOM     78  C   UNL A   1      46.573  26.759  34.831  1.00  0.00     0.010 A 
ATOM     79  C   UNL A   1      46.085  24.344  36.158  1.00  0.00     0.020 A 
ATOM     80  C   UNL A   1      47.576  26.186  35.618  1.00  0.00     0.020 A 
ATOM     81  C   UNL A   1      47.318  24.992  36.292  1.00  0.00     0.054 A 
BRANCH  81  82
ATOM     82  S   UNL A   1      48.599  24.234  37.329  1.00  0.00     0.124 S 
ATOM     83  O   UNL A   1      49.823  24.647  36.647  1.00  0.00    -0.237 OA
ATOM     84  O   UNL A   1      48.367  24.851  38.633  1.00  0.00    -0.237 OA
ATOM     85  O   UNL A   1      48.298  22.806  37.261  1.00  0.00    -0.744 OA
ENDBRANCH  81  82
ENDBRANCH  55  76
ENDBRANCH  29  30
ENDBRANCH  22  24
ENDBRANCH  21  22
ENDBRANCH  20  21
ENDBRANCH   1  20
TORSDOF 18
ENDMDL
MODEL 2
REMARK VINA RESULT:     -10.3      4.526     10.389
REMARK SMILES O=C(C[C@H]1C(=O)Nc2ccccc21)OCCOCCOC(=O)c1ccc(-c2c3nc(c(-c4ccc(S(=O)(=O)[O-])cc4)c4ccc([nH]4)c(-c4ccc(S(=O)(=O)[O-])cc4)c4nc(c(-c5ccc(S(=O)(=O)[O-])cc5)c5ccc2[nH]5)C=C4)C=C3)cc1
REMARK SMILES IDX 18 1 17 2 16 3 15 4 14 5 2 6 1 7 3 8 4 9 5 10 13 11 6 12
REMARK SMILES IDX 7 13 8 14 12 15 9 17 11 18 10 19 19 20 20 21 21 22 22 23
REMARK SMILES IDX 23 24 24 25 82 26 25 27 81 28 26 29 27 30 28 31 75 32 29 33
REMARK SMILES IDX 80 34 74 35 76 36 30 37 79 38 73 39 72 40 31 42 61 43 42 44
REMARK SMILES IDX 60 45 43 46 46 47 59 48 77 49 44 50 45 51 58 53 78 54 47 55
REMARK SMILES IDX 32 56 33 57 41 58 34 59 40 60 35 61 36 62 37 63 38 64 39 65
REMARK SMILES IDX 62 66 63 67 71 68 64 69 70 70 65 71 66 72 67 73 68 74 69 75
REMARK SMILES IDX 48 76 49 77 57 78 50 79 56 80 51 81 52 82 53 83 54 84 55 85
REMARK H PARENT 7 16 76 41 46 52
REMARK Flexibility Score: inf
ROOT
ATOM      1  C   UNL A   1      38.988  21.921  25.986  1.00  0.00     0.202 C 
ENDROOT
BRANCH   1   2
ATOM      2  O   UNL A   1      37.727  22.579  26.153  1.00  0.00    -0.374 OA
BRANCH   2   3
ATOM      3  C   UNL A   1      37.371  23.602  25.235  1.00  0.00     0.202 C 
BRANCH   3   4
ATOM      4  C   UNL A   1      35.915  23.650  24.764  1.00  0.00     0.261 C 
BRANCH   4   5
ATOM      5  O   UNL A   1      35.430  22.449  24.148  1.00  0.00    -0.463 OA
BRANCH   5   6
ATOM      6  C   UNL A   1      34.173  22.313  23.662  1.00  0.00     0.307 C 
ATOM      7  O   UNL A   1      33.644  23.235  23.045  1.00  0.00    -0.252 OA
BRANCH   6   8
ATOM      8  C   UNL A   1      33.417  21.043  23.946  1.00  0.00     0.141 C 
BRANCH   8   9
ATOM      9  C   UNL A   1      34.098  20.043  24.875  1.00  0.00     0.122 C 
ATOM     10  C   UNL A   1      33.483  20.214  26.279  1.00  0.00     0.232 C 
ATOM     11  C   UNL A   1      33.847  18.582  24.612  1.00  0.00    -0.011 A 
ATOM     12  O   UNL A   1      33.481  21.231  26.953  1.00  0.00    -0.274 OA
ATOM     13  N   UNL A   1      32.907  19.005  26.638  1.00  0.00    -0.325 N 
ATOM     14  C   UNL A   1      33.118  18.041  25.668  1.00  0.00     0.045 A 
ATOM     15  C   UNL A   1      34.251  17.778  23.559  1.00  0.00     0.007 A 
ATOM     16  H   UNL A   1      32.413  18.852  27.476  1.00  0.00     0.169 HD
ATOM     17  C   UNL A   1      32.717  16.723  25.696  1.00  0.00     0.026 A 
ATOM     18  C   UNL A   1      33.861  16.437  23.565  1.00  0.00     0.000 A 
ATOM     19  C   UNL A   1      33.091  15.916  24.620  1.00  0.00     0.002 A 
ENDBRANCH   8   9
ENDBRANCH   6   8
ENDBRANCH   5   6
ENDBRANCH   4   5
ENDBRANCH   3   4
ENDBRANCH   2   3
ENDBRANCH   1   2
BRANCH   1  20
ATOM     20  C   UNL A   1      40.132  22.321  26.921  1.00  0.00     0.261 C 
BRANCH  20  21
ATOM     21  O   UNL A   1      40.538  23.687  26.705  1.00  0.00    -0.460 OA
BRANCH  21  22
ATOM     22  C   UNL A   1      41.403  24.174  27.623  1.00  0.00     0.338 C 
ATOM     23  O   UNL A   1      42.494  23.712  27.925  1.00  0.00    -0.246 OA
BRANCH  22  24
ATOM     24  C   UNL A   1      40.948  25.477  28.128  1.00  0.00     0.060 A 
ATOM     25  C   UNL A   1      41.898  26.501  28.237  1.00  0.00     0.016 A 
ATOM     26  C   UNL A   1      39.671  25.623  28.670  1.00  0.00     0.016 A 
ATOM     27  C   UNL A   1      41.603  27.643  28.976  1.00  0.00     0.010 A 
ATOM     28  C   UNL A   1      39.379  26.766  29.420  1.00  0.00     0.010 A 
ATOM     29  C   UNL A   1      40.368  27.745  29.629  1.00  0.00    -0.014 A 
BRANCH  29  30
ATOM     30  C   UNL A   1      40.217  28.733  30.723  1.00  0.00     0.031 A 
ATOM     31  C   UNL A   1      41.125  28.614  31.921  1.00  0.00     0.074 A 
ATOM     32  C   UNL A   1      39.329  29.738  30.638  1.00  0.00     0.049 A 
ATOM     33  N   UNL A   1      41.190  29.362  32.991  1.00  0.00    -0.248 NA
ATOM     34  C   UNL A   1      42.088  27.498  31.908  1.00  0.00     0.031 C 
ATOM     35  C   UNL A   1      38.434  29.983  29.510  1.00  0.00     0.029 A 
ATOM     36  N   UNL A   1      39.043  30.745  31.524  1.00  0.00    -0.354 N 
ATOM     37  C   UNL A   1      42.189  28.802  33.783  1.00  0.00     0.074 A 
ATOM     38  C   UNL A   1      42.686  27.639  33.081  1.00  0.00     0.031 C 
ATOM     39  C   UNL A   1      37.694  31.075  29.772  1.00  0.00     0.029 A 
ATOM     40  C   UNL A   1      38.049  31.588  31.094  1.00  0.00     0.049 A 
ATOM     41  H   UNL A   1      39.507  30.851  32.386  1.00  0.00     0.167 HD
ATOM     42  C   UNL A   1      42.652  29.218  34.985  1.00  0.00     0.031 A 
ATOM     43  C   UNL A   1      37.487  32.650  31.705  1.00  0.00     0.031 A 
ATOM     44  C   UNL A   1      42.149  30.369  35.685  1.00  0.00     0.049 A 
ATOM     45  C   UNL A   1      37.986  33.068  33.062  1.00  0.00     0.074 A 
ATOM     46  C   UNL A   1      42.555  30.885  36.902  1.00  0.00     0.029 A 
ATOM     47  N   UNL A   1      41.122  31.181  35.227  1.00  0.00    -0.354 N 
ATOM     48  N   UNL A   1      38.943  32.540  33.789  1.00  0.00    -0.248 NA
ATOM     49  C   UNL A   1      37.339  34.237  33.674  1.00  0.00     0.031 C 
ATOM     50  C   UNL A   1      41.743  31.984  37.202  1.00  0.00     0.029 A 
ATOM     51  C   UNL A   1      40.868  32.185  36.146  1.00  0.00     0.049 A 
ATOM     52  H   UNL A   1      40.644  31.061  34.375  1.00  0.00     0.167 HD
ATOM     53  C   UNL A   1      39.038  33.335  34.927  1.00  0.00     0.074 A 
ATOM     54  C   UNL A   1      38.043  34.381  34.789  1.00  0.00     0.031 C 
ATOM     55  C   UNL A   1      39.878  33.218  35.986  1.00  0.00     0.031 A 
BRANCH  42  56
ATOM     56  C   UNL A   1      43.729  28.389  35.633  1.00  0.00    -0.014 A 
ATOM     57  C   UNL A   1      45.093  28.656  35.410  1.00  0.00     0.010 A 
ATOM     58  C   UNL A   1      43.369  27.328  36.482  1.00  0.00     0.010 A 
ATOM     59  C   UNL A   1      46.075  27.845  35.988  1.00  0.00     0.020 A 
ATOM     60  C   UNL A   1      44.349  26.530  37.081  1.00  0.00     0.020 A 
ATOM     61  C   UNL A   1      45.696  26.782  36.811  1.00  0.00     0.054 A 
BRANCH  61  62
ATOM     62  S   UNL A   1      46.987  25.742  37.550  1.00  0.00     0.124 S 
ATOM     63  O   UNL A   1      46.199  24.677  38.165  1.00  0.00    -0.237 OA
ATOM     64  O   UNL A   1      47.782  25.344  36.390  1.00  0.00    -0.237 OA
ATOM     65  O   UNL A   1      47.661  26.638  38.486  1.00  0.00    -0.744 OA
ENDBRANCH  61  62
ENDBRANCH  42  56
BRANCH  43  66
ATOM     66  C   UNL A   1      36.396  33.401  31.028  1.00  0.00    -0.014 A 
ATOM     67  C   UNL A   1      36.620  34.020  29.786  1.00  0.00     0.010 A 
ATOM     68  C   UNL A   1      35.122  33.491  31.618  1.00  0.00     0.010 A 
ATOM     69  C   UNL A   1      35.593  34.726  29.151  1.00  0.00     0.020 A 
ATOM     70  C   UNL A   1      34.087  34.174  30.976  1.00  0.00     0.020 A 
ATOM     71  C   UNL A   1      34.331  34.796  29.750  1.00  0.00     0.054 A 
BRANCH  71  72
ATOM     72  S   UNL A   1      32.995  35.661  28.878  1.00  0.00     0.124 S 
ATOM     73  O   UNL A   1      32.205  36.191  29.984  1.00  0.00    -0.237 OA
ATOM     74  O   UNL A   1      33.723  36.650  28.087  1.00  0.00    -0.237 OA
ATOM     75  O   UNL A   1      32.355  34.603  28.099  1.00  0.00    -0.744 OA
ENDBRANCH  71  72
ENDBRANCH  43  66
BRANCH  55  76
ATOM     76  C   UNL A   1      39.797  34.279  37.050  1.00  0.00    -0.014 A 
ATOM     77  C   UNL A   1      39.084  34.070  38.244  1.00  0.00     0.010 A 
ATOM     78  C   UNL A   1      40.485  35.492  36.864  1.00  0.00     0.010 A 
ATOM     79  C   UNL A   1      39.023  35.075  39.213  1.00  0.00     0.020 A 
ATOM     80  C   UNL A   1      40.448  36.488  37.843  1.00  0.00     0.020 A 
ATOM     81  C   UNL A   1      39.701  36.280  39.003  1.00  0.00     0.054 A 
BRANCH  81  82
ATOM     82  S   UNL A   1      39.629  37.563  40.284  1.00  0.00     0.124 S 
ATOM     83  O   UNL A   1      39.019  36.843  41.398  1.00  0.00    -0.237 OA
ATOM     84  O   UNL A   1      41.034  37.923  40.461  1.00  0.00    -0.237 OA
ATOM     85  O   UNL A   1      38.798  38.604  39.684  1.00  0.00    -0.744 OA
ENDBRANCH  81  82
ENDBRANCH  55  76
ENDBRANCH  29  30
ENDBRANCH  22  24
ENDBRANCH  21  22
ENDBRANCH  20  21
ENDBRANCH   1  20
TORSDOF 18
ENDMDL
MODEL 3
REMARK VINA RESULT:     -10.2      5.626      8.552
REMARK SMILES O=C(C[C@H]1C(=O)Nc2ccccc21)OCCOCCOC(=O)c1ccc(-c2c3nc(c(-c4ccc(S(=O)(=O)[O-])cc4)c4ccc([nH]4)c(-c4ccc(S(=O)(=O)[O-])cc4)c4nc(c(-c5ccc(S(=O)(=O)[O-])cc5)c5ccc2[nH]5)C=C4)C=C3)cc1
REMARK SMILES IDX 18 1 17 2 16 3 15 4 14 5 2 6 1 7 3 8 4 9 5 10 13 11 6 12
REMARK SMILES IDX 7 13 8 14 12 15 9 17 11 18 10 19 19 20 20 21 21 22 22 23
REMARK SMILES IDX 23 24 24 25 82 26 25 27 81 28 26 29 27 30 28 31 75 32 29 33
REMARK SMILES IDX 80 34 74 35 76 36 30 37 79 38 73 39 72 40 31 42 61 43 42 44
REMARK SMILES IDX 60 45 43 46 46 47 59 48 77 49 44 50 45 51 58 53 78 54 47 55
REMARK SMILES IDX 32 56 33 57 41 58 34 59 40 60 35 61 36 62 37 63 38 64 39 65
REMARK SMILES IDX 62 66 63 67 71 68 64 69 70 70 65 71 66 72 67 73 68 74 69 75
REMARK SMILES IDX 48 76 49 77 57 78 50 79 56 80 51 81 52 82 53 83 54 84 55 85
REMARK H PARENT 7 16 76 41 46 52
REMARK Flexibility Score: inf
ROOT
ATOM      1  C   UNL A   1      38.151  22.187  25.729  1.00  0.00     0.202 C 
ENDROOT
BRANCH   1   2
ATOM      2  O   UNL A   1      36.789  22.255  25.293  1.00  0.00    -0.374 OA
BRANCH   2   3
ATOM      3  C   UNL A   1      36.245  23.526  24.970  1.00  0.00     0.202 C 
BRANCH   3   4
ATOM      4  C   UNL A   1      34.897  23.552  24.245  1.00  0.00     0.261 C 
BRANCH   4   5
ATOM      5  O   UNL A   1      34.779  24.532  23.206  1.00  0.00    -0.463 OA
BRANCH   5   6
ATOM      6  C   UNL A   1      33.599  24.882  22.638  1.00  0.00     0.307 C 
ATOM      7  O   UNL A   1      33.147  24.229  21.699  1.00  0.00    -0.252 OA
BRANCH   6   8
ATOM      8  C   UNL A   1      32.889  26.113  23.134  1.00  0.00     0.141 C 
BRANCH   8   9
ATOM      9  C   UNL A   1      33.746  27.138  23.869  1.00  0.00     0.122 C 
ATOM     10  C   UNL A   1      33.922  28.356  22.938  1.00  0.00     0.232 C 
ATOM     11  C   UNL A   1      33.149  27.779  25.094  1.00  0.00    -0.011 A 
ATOM     12  O   UNL A   1      34.421  28.353  21.824  1.00  0.00    -0.274 OA
ATOM     13  N   UNL A   1      33.388  29.460  23.583  1.00  0.00    -0.325 N 
ATOM     14  C   UNL A   1      32.935  29.133  24.849  1.00  0.00     0.045 A 
ATOM     15  C   UNL A   1      32.851  27.238  26.333  1.00  0.00     0.007 A 
ATOM     16  H   UNL A   1      33.338  30.362  23.190  1.00  0.00     0.169 HD
ATOM     17  C   UNL A   1      32.375  29.978  25.782  1.00  0.00     0.026 A 
ATOM     18  C   UNL A   1      32.284  28.074  27.298  1.00  0.00     0.000 A 
ATOM     19  C   UNL A   1      32.038  29.430  27.022  1.00  0.00     0.002 A 
ENDBRANCH   8   9
ENDBRANCH   6   8
ENDBRANCH   5   6
ENDBRANCH   4   5
ENDBRANCH   3   4
ENDBRANCH   2   3
ENDBRANCH   1   2
BRANCH   1  20
ATOM     20  C   UNL A   1      38.858  20.830  25.658  1.00  0.00     0.261 C 
BRANCH  20  21
ATOM     21  O   UNL A   1      39.831  20.686  26.712  1.00  0.00    -0.460 OA
BRANCH  21  22
ATOM     22  C   UNL A   1      40.999  20.122  26.333  1.00  0.00     0.338 C 
ATOM     23  O   UNL A   1      41.150  19.041  25.781  1.00  0.00    -0.246 OA
BRANCH  22  24
ATOM     24  C   UNL A   1      42.115  21.062  26.510  1.00  0.00     0.060 A 
ATOM     25  C   UNL A   1      42.375  21.527  27.805  1.00  0.00     0.016 A 
ATOM     26  C   UNL A   1      42.755  21.622  25.404  1.00  0.00     0.016 A 
ATOM     27  C   UNL A   1      43.208  22.627  27.991  1.00  0.00     0.010 A 
ATOM     28  C   UNL A   1      43.583  22.733  25.591  1.00  0.00     0.010 A 
ATOM     29  C   UNL A   1      43.756  23.276  26.877  1.00  0.00    -0.014 A 
BRANCH  29  30
ATOM     30  C   UNL A   1      44.282  24.652  27.039  1.00  0.00     0.031 A 
ATOM     31  C   UNL A   1      43.325  25.735  27.470  1.00  0.00     0.074 A 
ATOM     32  C   UNL A   1      45.584  24.927  26.854  1.00  0.00     0.049 A 
ATOM     33  N   UNL A   1      43.552  27.004  27.690  1.00  0.00    -0.248 NA
ATOM     34  C   UNL A   1      41.924  25.329  27.680  1.00  0.00     0.031 C 
ATOM     35  C   UNL A   1      46.611  23.954  26.485  1.00  0.00     0.029 A 
ATOM     36  N   UNL A   1      46.263  26.114  26.958  1.00  0.00    -0.354 N 
ATOM     37  C   UNL A   1      42.324  27.549  28.050  1.00  0.00     0.074 A 
ATOM     38  C   UNL A   1      41.351  26.480  27.997  1.00  0.00     0.031 C 
ATOM     39  C   UNL A   1      47.794  24.586  26.393  1.00  0.00     0.029 A 
ATOM     40  C   UNL A   1      47.602  26.008  26.674  1.00  0.00     0.049 A 
ATOM     41  H   UNL A   1      45.830  26.961  27.213  1.00  0.00     0.167 HD
ATOM     42  C   UNL A   1      42.030  28.825  28.394  1.00  0.00     0.031 A 
ATOM     43  C   UNL A   1      48.559  26.956  26.638  1.00  0.00     0.031 A 
ATOM     44  C   UNL A   1      42.996  29.889  28.435  1.00  0.00     0.049 A 
ATOM     45  C   UNL A   1      48.201  28.377  26.980  1.00  0.00     0.074 A 
ATOM     46  C   UNL A   1      42.808  31.215  28.781  1.00  0.00     0.029 A 
ATOM     47  N   UNL A   1      44.338  29.745  28.112  1.00  0.00    -0.354 N 
ATOM     48  N   UNL A   1      47.040  28.874  27.337  1.00  0.00    -0.248 NA
ATOM     49  C   UNL A   1      49.290  29.364  26.931  1.00  0.00     0.031 C 
ATOM     50  C   UNL A   1      44.027  31.883  28.626  1.00  0.00     0.029 A 
ATOM     51  C   UNL A   1      44.986  30.962  28.235  1.00  0.00     0.049 A 
ATOM     52  H   UNL A   1      44.765  28.903  27.837  1.00  0.00     0.167 HD
ATOM     53  C   UNL A   1      47.266  30.223  27.591  1.00  0.00     0.074 A 
ATOM     54  C   UNL A   1      48.675  30.462  27.349  1.00  0.00     0.031 C 
ATOM     55  C   UNL A   1      46.390  31.177  27.996  1.00  0.00     0.031 A 
BRANCH  42  56
ATOM     56  C   UNL A   1      40.591  29.141  28.709  1.00  0.00    -0.014 A 
ATOM     57  C   UNL A   1      39.653  29.378  27.687  1.00  0.00     0.010 A 
ATOM     58  C   UNL A   1      40.172  29.197  30.050  1.00  0.00     0.010 A 
ATOM     59  C   UNL A   1      38.332  29.713  28.005  1.00  0.00     0.020 A 
ATOM     60  C   UNL A   1      38.847  29.507  30.371  1.00  0.00     0.020 A 
ATOM     61  C   UNL A   1      37.941  29.784  29.344  1.00  0.00     0.054 A 
BRANCH  61  62
ATOM     62  S   UNL A   1      36.223  30.221  29.733  1.00  0.00     0.124 S 
ATOM     63  O   UNL A   1      36.262  31.680  29.663  1.00  0.00    -0.237 OA
ATOM     64  O   UNL A   1      35.474  29.562  28.666  1.00  0.00    -0.237 OA
ATOM     65  O   UNL A   1      36.018  29.667  31.069  1.00  0.00    -0.744 OA
ENDBRANCH  61  62
ENDBRANCH  42  56
BRANCH  43  66
ATOM     66  C   UNL A   1      49.954  26.585  26.277  1.00  0.00    -0.014 A 
ATOM     67  C   UNL A   1      50.828  26.065  27.248  1.00  0.00     0.010 A 
ATOM     68  C   UNL A   1      50.412  26.740  24.957  1.00  0.00     0.010 A 
ATOM     69  C   UNL A   1      52.139  25.718  26.908  1.00  0.00     0.020 A 
ATOM     70  C   UNL A   1      51.713  26.371  24.606  1.00  0.00     0.020 A 
ATOM     71  C   UNL A   1      52.572  25.870  25.587  1.00  0.00     0.054 A 
BRANCH  71  72
ATOM     72  S   UNL A   1      54.256  25.351  25.152  1.00  0.00     0.124 S 
ATOM     73  O   UNL A   1      54.102  23.907  25.014  1.00  0.00    -0.237 OA
ATOM     74  O   UNL A   1      54.503  26.085  23.913  1.00  0.00    -0.237 OA
ATOM     75  O   UNL A   1      55.054  25.792  26.295  1.00  0.00    -0.744 OA
ENDBRANCH  71  72
ENDBRANCH  43  66
BRANCH  55  76
ATOM     76  C   UNL A   1      46.941  32.552  28.260  1.00  0.00    -0.014 A 
ATOM     77  C   UNL A   1      47.413  32.922  29.532  1.00  0.00     0.010 A 
ATOM     78  C   UNL A   1      47.025  33.474  27.201  1.00  0.00     0.010 A 
ATOM     79  C   UNL A   1      47.916  34.208  29.750  1.00  0.00     0.020 A 
ATOM     80  C   UNL A   1      47.553  34.750  27.409  1.00  0.00     0.020 A 
ATOM     81  C   UNL A   1      47.977  35.116  28.687  1.00  0.00     0.054 A 
BRANCH  81  82
ATOM     82  S   UNL A   1      48.656  36.771  28.985  1.00  0.00     0.124 S 
ATOM     83  O   UNL A   1      49.676  36.503  29.995  1.00  0.00    -0.237 OA
ATOM     84  O   UNL A   1      49.160  37.156  27.668  1.00  0.00    -0.237 OA
ATOM     85  O   UNL A   1      47.503  37.538  29.451  1.00  0.00    -0.744 OA
ENDBRANCH  81  82
ENDBRANCH  55  76
ENDBRANCH  29  30
ENDBRANCH  22  24
ENDBRANCH  21  22
ENDBRANCH  20  21
ENDBRANCH   1  20
TORSDOF 18
ENDMDL
