MODEL 1
REMARK VINA RESULT:     -11.5      0.000      0.000
REMARK SMILES Cc1ccc(C(=O)N2CCCC[C@@H]2C(=O)OCCOCCOC(=O)c2ccc(-c3c4nc(c(-c5ccc(S(=O)(=O)[O-])cc5)c5ccc([nH]5)c(-c5ccc(S(=O)(=O)[O-])cc5)c5nc(c(-c6ccc(S(=O)(=O)[O-])cc6)c6ccc3[nH]6)C=C5)C=C4)cc2)cc1S(=O)(=O)N1CCCCC1
REMARK SMILES IDX 18 1 17 2 16 3 14 4 15 5 13 6 8 7 9 8 10 9 12 10 11 11 6 12
REMARK SMILES IDX 7 13 5 14 1 15 2 16 3 17 86 18 4 19 85 20 87 21 88 22 89 23
REMARK SMILES IDX 90 24 91 25 95 26 92 27 94 28 93 29 19 30 20 31 21 32 22 33
REMARK SMILES IDX 23 34 24 35 25 36 26 37 84 38 27 39 83 40 28 41 29 42 30 43
REMARK SMILES IDX 77 44 31 45 82 46 76 47 78 48 32 49 81 50 75 51 74 52 33 54
REMARK SMILES IDX 63 55 44 56 62 57 45 58 48 59 61 60 79 61 46 62 47 63 60 65
REMARK SMILES IDX 80 66 49 67 34 68 35 69 43 70 36 71 42 72 37 73 38 74 39 75
REMARK SMILES IDX 40 76 41 77 64 78 65 79 73 80 66 81 72 82 67 83 68 84 69 85
REMARK SMILES IDX 70 86 71 87 50 88 51 89 59 90 52 91 58 92 53 93 54 94 55 95
REMARK SMILES IDX 56 96 57 97
REMARK H PARENT 78 53 48 64
REMARK Flexibility Score: inf
ROOT
ATOM      1  C   UNL A   1      32.225  28.804  27.292  1.00  0.00     0.202 C 
ENDROOT
BRANCH   1   2
ATOM      2  C   UNL A   1      31.110  27.786  27.549  1.00  0.00     0.261 C 
BRANCH   2   3
ATOM      3  O   UNL A   1      31.388  26.490  26.949  1.00  0.00    -0.462 OA
BRANCH   3   4
ATOM      4  C   UNL A   1      30.460  25.913  26.128  1.00  0.00     0.328 C 
ATOM      5  O   UNL A   1      29.514  25.221  26.484  1.00  0.00    -0.250 OA
BRANCH   4   6
ATOM      6  C   UNL A   1      30.621  26.400  24.664  1.00  0.00     0.195 C 
ATOM      7  N   UNL A   1      31.727  27.317  24.215  1.00  0.00    -0.325 N 
ATOM      8  C   UNL A   1      31.426  28.575  23.539  1.00  0.00     0.121 C 
ATOM      9  C   UNL A   1      29.982  29.012  23.525  1.00  0.00     0.022 C 
ATOM     10  C   UNL A   1      29.185  26.835  24.255  1.00  0.00     0.037 C 
ATOM     11  C   UNL A   1      29.128  27.828  23.124  1.00  0.00     0.005 C 
BRANCH   7  12
ATOM     12  C   UNL A   1      33.064  26.918  23.968  1.00  0.00     0.254 C 
ATOM     13  O   UNL A   1      34.029  27.671  24.111  1.00  0.00    -0.269 OA
BRANCH  12  14
ATOM     14  C   UNL A   1      33.386  25.502  23.819  1.00  0.00     0.041 A 
ATOM     15  C   UNL A   1      35.945  22.614  23.130  1.00  0.00     0.046 C 
ATOM     16  C   UNL A   1      34.642  23.249  23.260  1.00  0.00    -0.031 A 
ATOM     17  C   UNL A   1      34.215  24.041  22.188  1.00  0.00     0.005 A 
ATOM     18  C   UNL A   1      34.170  23.338  24.551  1.00  0.00     0.086 A 
ATOM     19  C   UNL A   1      33.540  25.183  22.471  1.00  0.00     0.014 A 
ATOM     20  C   UNL A   1      33.583  24.561  24.867  1.00  0.00     0.035 A 
BRANCH  18  21
ATOM     21  S   UNL A   1      34.590  22.001  25.741  1.00  0.00     0.243 S 
ATOM     22  O   UNL A   1      36.024  22.071  25.949  1.00  0.00    -0.207 OA
ATOM     23  O   UNL A   1      33.665  22.202  26.838  1.00  0.00    -0.207 OA
BRANCH  21  24
ATOM     24  N   UNL A   1      34.232  20.413  25.043  1.00  0.00    -0.198 NA
ATOM     25  C   UNL A   1      32.561  20.185  24.263  1.00  0.00     0.102 C 
ATOM     26  C   UNL A   1      35.558  19.081  25.005  1.00  0.00     0.102 C 
ATOM     27  C   UNL A   1      32.165  18.504  23.214  1.00  0.00     0.017 C 
ATOM     28  C   UNL A   1      35.149  17.328  24.102  1.00  0.00     0.017 C 
ATOM     29  C   UNL A   1      33.452  17.060  23.220  1.00  0.00     0.003 C 
ENDBRANCH  21  24
ENDBRANCH  18  21
ENDBRANCH  12  14
ENDBRANCH   7  12
ENDBRANCH   4   6
ENDBRANCH   3   4
ENDBRANCH   2   3
ENDBRANCH   1   2
BRANCH   1  30
ATOM     30  O   UNL A   1      31.604  30.000  26.825  1.00  0.00    -0.374 OA
BRANCH  30  31
ATOM     31  C   UNL A   1      32.429  31.132  26.622  1.00  0.00     0.202 C 
BRANCH  31  32
ATOM     32  C   UNL A   1      33.817  31.045  27.266  1.00  0.00     0.261 C 
BRANCH  32  33
ATOM     33  O   UNL A   1      33.885  31.882  28.436  1.00  0.00    -0.460 OA
BRANCH  33  34
ATOM     34  C   UNL A   1      34.794  32.892  28.347  1.00  0.00     0.338 C 
ATOM     35  O   UNL A   1      34.692  33.837  27.585  1.00  0.00    -0.246 OA
BRANCH  34  36
ATOM     36  C   UNL A   1      35.921  32.648  29.289  1.00  0.00     0.060 A 
ATOM     37  C   UNL A   1      37.249  32.737  28.848  1.00  0.00     0.016 A 
ATOM     38  C   UNL A   1      35.649  32.160  30.564  1.00  0.00     0.016 A 
ATOM     39  C   UNL A   1      38.299  32.273  29.659  1.00  0.00     0.010 A 
ATOM     40  C   UNL A   1      36.672  31.614  31.317  1.00  0.00     0.010 A 
ATOM     41  C   UNL A   1      38.011  31.680  30.891  1.00  0.00    -0.014 A 
BRANCH  41  42
ATOM     42  C   UNL A   1      39.012  31.006  31.779  1.00  0.00     0.031 A 
ATOM     43  C   UNL A   1      39.442  29.584  31.325  1.00  0.00     0.074 A 
ATOM     44  C   UNL A   1      39.805  31.943  32.355  1.00  0.00     0.049 A 
ATOM     45  N   UNL A   1      40.482  28.835  31.584  1.00  0.00    -0.248 NA
ATOM     46  C   UNL A   1      38.514  28.874  30.460  1.00  0.00     0.031 C 
ATOM     47  C   UNL A   1      41.107  32.415  31.920  1.00  0.00     0.029 A 
ATOM     48  N   UNL A   1      39.476  32.964  33.221  1.00  0.00    -0.354 N 
ATOM     49  C   UNL A   1      40.666  27.839  30.564  1.00  0.00     0.074 A 
ATOM     50  C   UNL A   1      39.264  27.869  30.019  1.00  0.00     0.031 C 
ATOM     51  C   UNL A   1      41.641  33.326  32.732  1.00  0.00     0.029 A 
ATOM     52  C   UNL A   1      40.626  33.627  33.681  1.00  0.00     0.049 A 
ATOM     53  H   UNL A   1      38.556  33.197  33.483  1.00  0.00     0.167 HD
ATOM     54  C   UNL A   1      42.064  27.266  30.127  1.00  0.00     0.031 A 
ATOM     55  C   UNL A   1      40.902  33.706  34.998  1.00  0.00     0.031 A 
ATOM     56  C   UNL A   1      42.944  27.866  31.561  1.00  0.00     0.049 A 
ATOM     57  C   UNL A   1      41.664  32.466  35.447  1.00  0.00     0.074 A 
ATOM     58  C   UNL A   1      44.289  28.191  31.924  1.00  0.00     0.029 A 
ATOM     59  N   UNL A   1      42.336  28.090  32.871  1.00  0.00    -0.354 N 
ATOM     60  N   UNL A   1      41.844  31.359  34.749  1.00  0.00    -0.248 NA
ATOM     61  C   UNL A   1      42.400  32.459  36.705  1.00  0.00     0.031 C 
ATOM     62  C   UNL A   1      44.364  28.942  33.099  1.00  0.00     0.029 A 
ATOM     63  C   UNL A   1      43.146  28.864  33.721  1.00  0.00     0.049 A 
ATOM     64  H   UNL A   1      41.456  27.736  33.131  1.00  0.00     0.167 HD
ATOM     65  C   UNL A   1      42.606  30.477  35.484  1.00  0.00     0.074 A 
ATOM     66  C   UNL A   1      42.974  31.248  36.669  1.00  0.00     0.031 C 
ATOM     67  C   UNL A   1      42.949  29.191  35.138  1.00  0.00     0.031 A 
BRANCH  54  68
ATOM     68  C   UNL A   1      42.799  26.193  28.485  1.00  0.00    -0.014 A 
ATOM     69  C   UNL A   1      44.235  25.697  28.085  1.00  0.00     0.010 A 
ATOM     70  C   UNL A   1      42.162  25.503  27.247  1.00  0.00     0.010 A 
ATOM     71  C   UNL A   1      44.801  24.870  27.052  1.00  0.00     0.020 A 
ATOM     72  C   UNL A   1      42.678  24.646  26.175  1.00  0.00     0.020 A 
ATOM     73  C   UNL A   1      44.004  24.324  26.100  1.00  0.00     0.054 A 
BRANCH  73  74
ATOM     74  S   UNL A   1      44.718  23.206  24.886  1.00  0.00     0.124 S 
ATOM     75  O   UNL A   1      43.570  22.872  24.048  1.00  0.00    -0.237 OA
ATOM     76  O   UNL A   1      45.735  24.039  24.246  1.00  0.00    -0.237 OA
ATOM     77  O   UNL A   1      45.244  22.110  25.696  1.00  0.00    -0.744 OA
ENDBRANCH  73  74
ENDBRANCH  54  68
BRANCH  55  78
ATOM     78  C   UNL A   1      39.847  34.593  35.604  1.00  0.00    -0.014 A 
ATOM     79  C   UNL A   1      39.031  33.897  36.544  1.00  0.00     0.010 A 
ATOM     80  C   UNL A   1      40.203  35.924  35.908  1.00  0.00     0.010 A 
ATOM     81  C   UNL A   1      38.894  34.369  37.860  1.00  0.00     0.020 A 
ATOM     82  C   UNL A   1      40.076  36.390  37.234  1.00  0.00     0.020 A 
ATOM     83  C   UNL A   1      39.490  35.578  38.216  1.00  0.00     0.054 A 
BRANCH  83  84
ATOM     84  S   UNL A   1      39.817  35.920  39.984  1.00  0.00     0.124 S 
ATOM     85  O   UNL A   1      40.037  37.360  39.985  1.00  0.00    -0.237 OA
ATOM     86  O   UNL A   1      38.596  35.462  40.646  1.00  0.00    -0.237 OA
ATOM     87  O   UNL A   1      40.989  35.091  40.253  1.00  0.00    -0.744 OA
ENDBRANCH  83  84
ENDBRANCH  55  78
BRANCH  67  88
ATOM     88  C   UNL A   1      43.564  28.222  36.150  1.00  0.00    -0.014 A 
ATOM     89  C   UNL A   1      44.868  28.367  36.652  1.00  0.00     0.010 A 
ATOM     90  C   UNL A   1      42.785  27.183  36.719  1.00  0.00     0.010 A 
ATOM     91  C   UNL A   1      45.383  27.497  37.622  1.00  0.00     0.020 A 
ATOM     92  C   UNL A   1      43.274  26.329  37.712  1.00  0.00     0.020 A 
ATOM     93  C   UNL A   1      44.578  26.492  38.156  1.00  0.00     0.054 A 
BRANCH  93  94
ATOM     94  S   UNL A   1      45.197  25.505  39.538  1.00  0.00     0.124 S 
ATOM     95  O   UNL A   1      44.887  24.145  39.105  1.00  0.00    -0.237 OA
ATOM     96  O   UNL A   1      46.617  25.848  39.565  1.00  0.00    -0.237 OA
ATOM     97  O   UNL A   1      44.426  25.990  40.681  1.00  0.00    -0.744 OA
ENDBRANCH  93  94
ENDBRANCH  67  88
ENDBRANCH  41  42
ENDBRANCH  34  36
ENDBRANCH  33  34
ENDBRANCH  32  33
ENDBRANCH  31  32
ENDBRANCH  30  31
ENDBRANCH   1  30
TORSDOF 21
ENDMDL
MODEL 2
REMARK VINA RESULT:     -11.3      5.777     10.920
REMARK SMILES Cc1ccc(C(=O)N2CCCC[C@@H]2C(=O)OCCOCCOC(=O)c2ccc(-c3c4nc(c(-c5ccc(S(=O)(=O)[O-])cc5)c5ccc([nH]5)c(-c5ccc(S(=O)(=O)[O-])cc5)c5nc(c(-c6ccc(S(=O)(=O)[O-])cc6)c6ccc3[nH]6)C=C5)C=C4)cc2)cc1S(=O)(=O)N1CCCCC1
REMARK SMILES IDX 18 1 17 2 16 3 14 4 15 5 13 6 8 7 9 8 10 9 12 10 11 11 6 12
REMARK SMILES IDX 7 13 5 14 1 15 2 16 3 17 86 18 4 19 85 20 87 21 88 22 89 23
REMARK SMILES IDX 90 24 91 25 95 26 92 27 94 28 93 29 19 30 20 31 21 32 22 33
REMARK SMILES IDX 23 34 24 35 25 36 26 37 84 38 27 39 83 40 28 41 29 42 30 43
REMARK SMILES IDX 77 44 31 45 82 46 76 47 78 48 32 49 81 50 75 51 74 52 33 54
REMARK SMILES IDX 63 55 44 56 62 57 45 58 48 59 61 60 79 61 46 62 47 63 60 65
REMARK SMILES IDX 80 66 49 67 34 68 35 69 43 70 36 71 42 72 37 73 38 74 39 75
REMARK SMILES IDX 40 76 41 77 64 78 65 79 73 80 66 81 72 82 67 83 68 84 69 85
REMARK SMILES IDX 70 86 71 87 50 88 51 89 59 90 52 91 58 92 53 93 54 94 55 95
REMARK SMILES IDX 56 96 57 97
REMARK H PARENT 78 53 48 64
REMARK Flexibility Score: inf
ROOT
ATOM      1  C   UNL A   1      34.125  29.159  26.540  1.00  0.00     0.202 C 
ENDROOT
BRANCH   1   2
ATOM      2  C   UNL A   1      32.884  28.608  25.830  1.00  0.00     0.261 C 
BRANCH   2   3
ATOM      3  O   UNL A   1      32.239  29.601  24.983  1.00  0.00    -0.462 OA
BRANCH   3   4
ATOM      4  C   UNL A   1      31.606  29.203  23.839  1.00  0.00     0.328 C 
ATOM      5  O   UNL A   1      32.142  28.721  22.850  1.00  0.00    -0.250 OA
BRANCH   4   6
ATOM      6  C   UNL A   1      30.064  29.248  24.003  1.00  0.00     0.195 C 
ATOM      7  N   UNL A   1      29.138  28.229  23.394  1.00  0.00    -0.325 N 
ATOM      8  C   UNL A   1      28.049  28.641  22.514  1.00  0.00     0.121 C 
ATOM      9  C   UNL A   1      28.043  30.082  22.067  1.00  0.00     0.022 C 
ATOM     10  C   UNL A   1      29.701  30.733  23.720  1.00  0.00     0.037 C 
ATOM     11  C   UNL A   1      28.279  30.960  23.278  1.00  0.00     0.005 C 
BRANCH   7  12
ATOM     12  C   UNL A   1      28.908  26.930  23.910  1.00  0.00     0.254 C 
ATOM     13  O   UNL A   1      27.814  26.364  23.847  1.00  0.00    -0.269 OA
BRANCH  12  14
ATOM     14  C   UNL A   1      30.036  26.080  24.278  1.00  0.00     0.041 A 
ATOM     15  C   UNL A   1      31.501  22.703  25.623  1.00  0.00     0.046 C 
ATOM     16  C   UNL A   1      31.493  24.113  25.264  1.00  0.00    -0.031 A 
ATOM     17  C   UNL A   1      30.887  24.993  26.168  1.00  0.00     0.005 A 
ATOM     18  C   UNL A   1      31.703  24.368  23.927  1.00  0.00     0.086 A 
ATOM     19  C   UNL A   1      30.166  26.024  25.665  1.00  0.00     0.014 A 
ATOM     20  C   UNL A   1      30.873  25.349  23.390  1.00  0.00     0.035 A 
BRANCH  18  21
ATOM     21  S   UNL A   1      32.812  23.252  22.976  1.00  0.00     0.243 S 
ATOM     22  O   UNL A   1      32.072  22.022  22.763  1.00  0.00    -0.207 OA
ATOM     23  O   UNL A   1      33.253  24.061  21.858  1.00  0.00    -0.207 OA
BRANCH  21  24
ATOM     24  N   UNL A   1      34.251  22.848  23.926  1.00  0.00    -0.198 NA
ATOM     25  C   UNL A   1      34.596  21.046  24.221  1.00  0.00     0.102 C 
ATOM     26  C   UNL A   1      35.419  24.209  24.490  1.00  0.00     0.102 C 
ATOM     27  C   UNL A   1      36.345  20.484  25.061  1.00  0.00     0.017 C 
ATOM     28  C   UNL A   1      37.102  23.699  25.471  1.00  0.00     0.017 C 
ATOM     29  C   UNL A   1      37.543  21.840  25.749  1.00  0.00     0.003 C 
ENDBRANCH  21  24
ENDBRANCH  18  21
ENDBRANCH  12  14
ENDBRANCH   7  12
ENDBRANCH   4   6
ENDBRANCH   3   4
ENDBRANCH   2   3
ENDBRANCH   1   2
BRANCH   1  30
ATOM     30  O   UNL A   1      33.759  30.411  27.117  1.00  0.00    -0.374 OA
BRANCH  30  31
ATOM     31  C   UNL A   1      34.669  31.007  28.024  1.00  0.00     0.202 C 
BRANCH  31  32
ATOM     32  C   UNL A   1      36.148  30.793  27.689  1.00  0.00     0.261 C 
BRANCH  32  33
ATOM     33  O   UNL A   1      36.771  29.946  28.672  1.00  0.00    -0.460 OA
BRANCH  33  34
ATOM     34  C   UNL A   1      37.790  30.538  29.355  1.00  0.00     0.338 C 
ATOM     35  O   UNL A   1      37.648  31.484  30.109  1.00  0.00    -0.246 OA
BRANCH  34  36
ATOM     36  C   UNL A   1      39.081  29.879  29.017  1.00  0.00     0.060 A 
ATOM     37  C   UNL A   1      40.172  29.954  29.896  1.00  0.00     0.016 A 
ATOM     38  C   UNL A   1      39.257  29.336  27.747  1.00  0.00     0.016 A 
ATOM     39  C   UNL A   1      41.450  29.549  29.477  1.00  0.00     0.010 A 
ATOM     40  C   UNL A   1      40.532  29.033  27.306  1.00  0.00     0.010 A 
ATOM     41  C   UNL A   1      41.643  29.112  28.165  1.00  0.00    -0.014 A 
BRANCH  41  42
ATOM     42  C   UNL A   1      42.971  28.802  27.544  1.00  0.00     0.031 A 
ATOM     43  C   UNL A   1      43.900  30.030  27.331  1.00  0.00     0.074 A 
ATOM     44  C   UNL A   1      43.355  27.553  27.904  1.00  0.00     0.049 A 
ATOM     45  N   UNL A   1      45.190  30.161  27.165  1.00  0.00    -0.248 NA
ATOM     46  C   UNL A   1      43.248  31.326  27.253  1.00  0.00     0.031 C 
ATOM     47  C   UNL A   1      44.225  27.155  28.996  1.00  0.00     0.029 A 
ATOM     48  N   UNL A   1      42.760  26.338  27.638  1.00  0.00    -0.354 N 
ATOM     49  C   UNL A   1      45.620  31.490  27.503  1.00  0.00     0.074 A 
ATOM     50  C   UNL A   1      44.278  32.159  27.373  1.00  0.00     0.031 C 
ATOM     51  C   UNL A   1      44.431  25.841  29.061  1.00  0.00     0.029 A 
ATOM     52  C   UNL A   1      43.561  25.274  28.089  1.00  0.00     0.049 A 
ATOM     53  H   UNL A   1      41.890  26.230  27.192  1.00  0.00     0.167 HD
ATOM     54  C   UNL A   1      47.032  31.841  28.099  1.00  0.00     0.031 A 
ATOM     55  C   UNL A   1      43.990  24.321  27.239  1.00  0.00     0.031 A 
ATOM     56  C   UNL A   1      47.785  30.279  27.669  1.00  0.00     0.049 A 
ATOM     57  C   UNL A   1      45.282  24.764  26.566  1.00  0.00     0.074 A 
ATOM     58  C   UNL A   1      48.890  29.478  28.097  1.00  0.00     0.029 A 
ATOM     59  N   UNL A   1      47.369  29.442  26.546  1.00  0.00    -0.354 N 
ATOM     60  N   UNL A   1      45.811  25.974  26.600  1.00  0.00    -0.248 NA
ATOM     61  C   UNL A   1      46.146  23.795  25.901  1.00  0.00     0.031 C 
ATOM     62  C   UNL A   1      48.822  28.167  27.620  1.00  0.00     0.029 A 
ATOM     63  C   UNL A   1      47.886  28.136  26.620  1.00  0.00     0.049 A 
ATOM     64  H   UNL A   1      46.791  29.758  25.815  1.00  0.00     0.167 HD
ATOM     65  C   UNL A   1      46.994  25.973  25.894  1.00  0.00     0.074 A 
ATOM     66  C   UNL A   1      47.178  24.568  25.535  1.00  0.00     0.031 C 
ATOM     67  C   UNL A   1      47.805  27.053  25.633  1.00  0.00     0.031 A 
BRANCH  54  68
ATOM     68  C   UNL A   1      47.878  33.481  29.090  1.00  0.00    -0.014 A 
ATOM     69  C   UNL A   1      47.632  35.030  29.002  1.00  0.00     0.010 A 
ATOM     70  C   UNL A   1      48.907  33.660  30.241  1.00  0.00     0.010 A 
ATOM     71  C   UNL A   1      48.078  36.198  29.715  1.00  0.00     0.020 A 
ATOM     72  C   UNL A   1      49.392  34.810  31.010  1.00  0.00     0.020 A 
ATOM     73  C   UNL A   1      48.954  36.077  30.744  1.00  0.00     0.054 A 
BRANCH  73  74
ATOM     74  S   UNL A   1      49.411  37.538  31.689  1.00  0.00     0.124 S 
ATOM     75  O   UNL A   1      48.176  38.316  31.687  1.00  0.00    -0.237 OA
ATOM     76  O   UNL A   1      49.790  36.973  32.983  1.00  0.00    -0.237 OA
ATOM     77  O   UNL A   1      50.515  38.110  30.922  1.00  0.00    -0.744 OA
ENDBRANCH  73  74
ENDBRANCH  54  68
BRANCH  55  78
ATOM     78  C   UNL A   1      42.770  23.547  26.812  1.00  0.00    -0.014 A 
ATOM     79  C   UNL A   1      42.943  22.924  25.541  1.00  0.00     0.010 A 
ATOM     80  C   UNL A   1      42.070  22.826  27.803  1.00  0.00     0.010 A 
ATOM     81  C   UNL A   1      42.758  21.540  25.391  1.00  0.00     0.020 A 
ATOM     82  C   UNL A   1      41.897  21.434  27.654  1.00  0.00     0.020 A 
ATOM     83  C   UNL A   1      42.312  20.791  26.479  1.00  0.00     0.054 A 
BRANCH  83  84
ATOM     84  S   UNL A   1      42.607  18.985  26.493  1.00  0.00     0.124 S 
ATOM     85  O   UNL A   1      43.904  18.877  25.837  1.00  0.00    -0.237 OA
ATOM     86  O   UNL A   1      42.584  18.651  27.916  1.00  0.00    -0.237 OA
ATOM     87  O   UNL A   1      41.463  18.474  25.741  1.00  0.00    -0.744 OA
ENDBRANCH  83  84
ENDBRANCH  55  78
BRANCH  67  88
ATOM     88  C   UNL A   1      48.943  26.979  24.613  1.00  0.00    -0.014 A 
ATOM     89  C   UNL A   1      48.789  27.353  23.268  1.00  0.00     0.010 A 
ATOM     90  C   UNL A   1      50.255  26.632  25.022  1.00  0.00     0.010 A 
ATOM     91  C   UNL A   1      49.865  27.330  22.372  1.00  0.00     0.020 A 
ATOM     92  C   UNL A   1      51.345  26.637  24.147  1.00  0.00     0.020 A 
ATOM     93  C   UNL A   1      51.140  26.986  22.820  1.00  0.00     0.054 A 
BRANCH  93  94
ATOM     94  S   UNL A   1      52.546  27.145  21.695  1.00  0.00     0.124 S 
ATOM     95  O   UNL A   1      51.925  26.912  20.394  1.00  0.00    -0.237 OA
ATOM     96  O   UNL A   1      52.996  28.514  21.939  1.00  0.00    -0.237 OA
ATOM     97  O   UNL A   1      53.468  26.106  22.145  1.00  0.00    -0.744 OA
ENDBRANCH  93  94
ENDBRANCH  67  88
ENDBRANCH  41  42
ENDBRANCH  34  36
ENDBRANCH  33  34
ENDBRANCH  32  33
ENDBRANCH  31  32
ENDBRANCH  30  31
ENDBRANCH   1  30
TORSDOF 21
ENDMDL
MODEL 3
REMARK VINA RESULT:     -11.1      5.457     10.452
REMARK SMILES Cc1ccc(C(=O)N2CCCC[C@@H]2C(=O)OCCOCCOC(=O)c2ccc(-c3c4nc(c(-c5ccc(S(=O)(=O)[O-])cc5)c5ccc([nH]5)c(-c5ccc(S(=O)(=O)[O-])cc5)c5nc(c(-c6ccc(S(=O)(=O)[O-])cc6)c6ccc3[nH]6)C=C5)C=C4)cc2)cc1S(=O)(=O)N1CCCCC1
REMARK SMILES IDX 18 1 17 2 16 3 14 4 15 5 13 6 8 7 9 8 10 9 12 10 11 11 6 12
REMARK SMILES IDX 7 13 5 14 1 15 2 16 3 17 86 18 4 19 85 20 87 21 88 22 89 23
REMARK SMILES IDX 90 24 91 25 95 26 92 27 94 28 93 29 19 30 20 31 21 32 22 33
REMARK SMILES IDX 23 34 24 35 25 36 26 37 84 38 27 39 83 40 28 41 29 42 30 43
REMARK SMILES IDX 77 44 31 45 82 46 76 47 78 48 32 49 81 50 75 51 74 52 33 54
REMARK SMILES IDX 63 55 44 56 62 57 45 58 48 59 61 60 79 61 46 62 47 63 60 65
REMARK SMILES IDX 80 66 49 67 34 68 35 69 43 70 36 71 42 72 37 73 38 74 39 75
REMARK SMILES IDX 40 76 41 77 64 78 65 79 73 80 66 81 72 82 67 83 68 84 69 85
REMARK SMILES IDX 70 86 71 87 50 88 51 89 59 90 52 91 58 92 53 93 54 94 55 95
REMARK SMILES IDX 56 96 57 97
REMARK H PARENT 78 53 48 64
REMARK Flexibility Score: inf
ROOT
ATOM      1  C   UNL A   1      34.048  27.388  26.349  1.00  0.00     0.202 C 
ENDROOT
BRANCH   1   2
ATOM      2  C   UNL A   1      33.859  26.515  25.103  1.00  0.00     0.261 C 
BRANCH   2   3
ATOM      3  O   UNL A   1      33.855  27.292  23.873  1.00  0.00    -0.462 OA
BRANCH   3   4
ATOM      4  C   UNL A   1      32.757  27.264  23.060  1.00  0.00     0.328 C 
ATOM      5  O   UNL A   1      32.709  26.797  21.929  1.00  0.00    -0.250 OA
BRANCH   4   6
ATOM      6  C   UNL A   1      31.483  27.724  23.817  1.00  0.00     0.195 C 
ATOM      7  N   UNL A   1      30.262  26.859  23.982  1.00  0.00    -0.325 N 
ATOM      8  C   UNL A   1      28.951  27.327  23.543  1.00  0.00     0.121 C 
ATOM      9  C   UNL A   1      28.919  28.592  22.721  1.00  0.00     0.022 C 
ATOM     10  C   UNL A   1      31.219  29.155  23.268  1.00  0.00     0.037 C 
ATOM     11  C   UNL A   1      29.794  29.625  23.399  1.00  0.00     0.005 C 
BRANCH   7  12
ATOM     12  C   UNL A   1      30.135  25.802  24.917  1.00  0.00     0.254 C 
ATOM     13  O   UNL A   1      29.312  25.810  25.835  1.00  0.00    -0.269 OA
BRANCH  12  14
ATOM     14  C   UNL A   1      30.776  24.517  24.656  1.00  0.00     0.041 A 
ATOM     15  C   UNL A   1      33.816  22.383  23.406  1.00  0.00     0.046 C 
ATOM     16  C   UNL A   1      32.441  22.661  23.792  1.00  0.00    -0.031 A 
ATOM     17  C   UNL A   1      31.637  23.307  22.846  1.00  0.00     0.005 A 
ATOM     18  C   UNL A   1      32.207  22.635  25.149  1.00  0.00     0.086 A 
ATOM     19  C   UNL A   1      30.757  24.237  23.290  1.00  0.00     0.014 A 
ATOM     20  C   UNL A   1      31.395  23.667  25.613  1.00  0.00     0.035 A 
BRANCH  18  21
ATOM     21  S   UNL A   1      33.164  21.461  26.190  1.00  0.00     0.243 S 
ATOM     22  O   UNL A   1      32.787  21.729  27.565  1.00  0.00    -0.207 OA
ATOM     23  O   UNL A   1      32.916  20.169  25.585  1.00  0.00    -0.207 OA
BRANCH  21  24
ATOM     24  N   UNL A   1      34.901  21.778  26.046  1.00  0.00    -0.198 NA
ATOM     25  C   UNL A   1      35.958  20.418  25.348  1.00  0.00     0.102 C 
ATOM     26  C   UNL A   1      35.588  23.474  26.478  1.00  0.00     0.102 C 
ATOM     27  C   UNL A   1      37.894  20.781  24.901  1.00  0.00     0.017 C 
ATOM     28  C   UNL A   1      37.549  23.829  26.193  1.00  0.00     0.017 C 
ATOM     29  C   UNL A   1      38.681  22.474  25.411  1.00  0.00     0.003 C 
ENDBRANCH  21  24
ENDBRANCH  18  21
ENDBRANCH  12  14
ENDBRANCH   7  12
ENDBRANCH   4   6
ENDBRANCH   3   4
ENDBRANCH   2   3
ENDBRANCH   1   2
BRANCH   1  30
ATOM     30  O   UNL A   1      34.229  28.729  25.900  1.00  0.00    -0.374 OA
BRANCH  30  31
ATOM     31  C   UNL A   1      34.218  29.755  26.876  1.00  0.00     0.202 C 
BRANCH  31  32
ATOM     32  C   UNL A   1      35.309  29.641  27.946  1.00  0.00     0.261 C 
BRANCH  32  33
ATOM     33  O   UNL A   1      36.595  29.980  27.395  1.00  0.00    -0.460 OA
BRANCH  33  34
ATOM     34  C   UNL A   1      37.433  30.599  28.272  1.00  0.00     0.338 C 
ATOM     35  O   UNL A   1      37.140  31.595  28.909  1.00  0.00    -0.246 OA
BRANCH  34  36
ATOM     36  C   UNL A   1      38.745  29.897  28.305  1.00  0.00     0.060 A 
ATOM     37  C   UNL A   1      39.587  30.012  29.421  1.00  0.00     0.016 A 
ATOM     38  C   UNL A   1      39.211  29.269  27.153  1.00  0.00     0.016 A 
ATOM     39  C   UNL A   1      40.916  29.559  29.358  1.00  0.00     0.010 A 
ATOM     40  C   UNL A   1      40.544  28.917  27.061  1.00  0.00     0.010 A 
ATOM     41  C   UNL A   1      41.411  29.033  28.162  1.00  0.00    -0.014 A 
BRANCH  41  42
ATOM     42  C   UNL A   1      42.840  28.661  27.910  1.00  0.00     0.031 A 
ATOM     43  C   UNL A   1      43.849  29.842  27.972  1.00  0.00     0.074 A 
ATOM     44  C   UNL A   1      43.057  27.392  28.337  1.00  0.00     0.049 A 
ATOM     45  N   UNL A   1      45.141  29.910  28.156  1.00  0.00    -0.248 NA
ATOM     46  C   UNL A   1      43.302  31.170  27.748  1.00  0.00     0.031 C 
ATOM     47  C   UNL A   1      43.586  26.947  29.613  1.00  0.00     0.029 A 
ATOM     48  N   UNL A   1      42.498  26.210  27.901  1.00  0.00    -0.354 N 
ATOM     49  C   UNL A   1      45.528  31.215  28.619  1.00  0.00     0.074 A 
ATOM     50  C   UNL A   1      44.301  31.950  28.150  1.00  0.00     0.031 C 
ATOM     51  C   UNL A   1      43.706  25.623  29.706  1.00  0.00     0.029 A 
ATOM     52  C   UNL A   1      43.100  25.105  28.529  1.00  0.00     0.049 A 
ATOM     53  H   UNL A   1      41.773  26.147  27.238  1.00  0.00     0.167 HD
ATOM     54  C   UNL A   1      46.745  31.492  29.574  1.00  0.00     0.031 A 
ATOM     55  C   UNL A   1      43.695  24.136  27.806  1.00  0.00     0.031 A 
ATOM     56  C   UNL A   1      47.512  29.897  29.331  1.00  0.00     0.049 A 
ATOM     57  C   UNL A   1      45.138  24.518  27.507  1.00  0.00     0.074 A 
ATOM     58  C   UNL A   1      48.425  29.040  30.022  1.00  0.00     0.029 A 
ATOM     59  N   UNL A   1      47.371  29.086  28.123  1.00  0.00    -0.354 N 
ATOM     60  N   UNL A   1      45.694  25.700  27.702  1.00  0.00    -0.248 NA
ATOM     61  C   UNL A   1      46.101  23.511  27.077  1.00  0.00     0.031 C 
ATOM     62  C   UNL A   1      48.426  27.736  29.521  1.00  0.00     0.029 A 
ATOM     63  C   UNL A   1      47.788  27.756  28.309  1.00  0.00     0.049 A 
ATOM     64  H   UNL A   1      47.022  29.434  27.272  1.00  0.00     0.167 HD
ATOM     65  C   UNL A   1      47.021  25.643  27.334  1.00  0.00     0.074 A 
ATOM     66  C   UNL A   1      47.229  24.233  27.012  1.00  0.00     0.031 C 
ATOM     67  C   UNL A   1      47.921  26.684  27.316  1.00  0.00     0.031 A 
BRANCH  54  68
ATOM     68  C   UNL A   1      47.374  33.084  30.783  1.00  0.00    -0.014 A 
ATOM     69  C   UNL A   1      48.393  34.258  30.564  1.00  0.00     0.010 A 
ATOM     70  C   UNL A   1      46.973  33.627  32.182  1.00  0.00     0.010 A 
ATOM     71  C   UNL A   1      48.793  35.438  31.283  1.00  0.00     0.020 A 
ATOM     72  C   UNL A   1      47.332  34.817  32.959  1.00  0.00     0.020 A 
ATOM     73  C   UNL A   1      48.236  35.727  32.486  1.00  0.00     0.054 A 
BRANCH  73  74
ATOM     74  S   UNL A   1      48.671  37.264  33.314  1.00  0.00     0.124 S 
ATOM     75  O   UNL A   1      48.256  37.009  34.690  1.00  0.00    -0.237 OA
ATOM     76  O   UNL A   1      50.115  37.341  33.102  1.00  0.00    -0.237 OA
ATOM     77  O   UNL A   1      47.890  38.270  32.599  1.00  0.00    -0.744 OA
ENDBRANCH  73  74
ENDBRANCH  54  68
BRANCH  55  78
ATOM     78  C   UNL A   1      42.597  23.426  27.058  1.00  0.00    -0.014 A 
ATOM     79  C   UNL A   1      43.043  22.910  25.806  1.00  0.00     0.010 A 
ATOM     80  C   UNL A   1      41.697  22.637  27.805  1.00  0.00     0.010 A 
ATOM     81  C   UNL A   1      42.894  21.548  25.498  1.00  0.00     0.020 A 
ATOM     82  C   UNL A   1      41.559  21.266  27.501  1.00  0.00     0.020 A 
ATOM     83  C   UNL A   1      42.221  20.718  26.393  1.00  0.00     0.054 A 
BRANCH  83  84
ATOM     84  S   UNL A   1      42.504  18.911  26.314  1.00  0.00     0.124 S 
ATOM     85  O   UNL A   1      41.252  18.426  25.750  1.00  0.00    -0.237 OA
ATOM     86  O   UNL A   1      43.679  18.793  25.450  1.00  0.00    -0.237 OA
ATOM     87  O   UNL A   1      42.753  18.570  27.712  1.00  0.00    -0.744 OA
ENDBRANCH  83  84
ENDBRANCH  55  78
BRANCH  67  88
ATOM     88  C   UNL A   1      49.285  26.558  26.633  1.00  0.00    -0.014 A 
ATOM     89  C   UNL A   1      50.210  25.552  26.954  1.00  0.00     0.010 A 
ATOM     90  C   UNL A   1      49.626  27.402  25.546  1.00  0.00     0.010 A 
ATOM     91  C   UNL A   1      51.426  25.427  26.270  1.00  0.00     0.020 A 
ATOM     92  C   UNL A   1      50.820  27.267  24.831  1.00  0.00     0.020 A 
ATOM     93  C   UNL A   1      51.718  26.277  25.203  1.00  0.00     0.054 A 
BRANCH  93  94
ATOM     94  S   UNL A   1      53.202  25.979  24.215  1.00  0.00     0.124 S 
ATOM     95  O   UNL A   1      52.714  26.203  22.857  1.00  0.00    -0.237 OA
ATOM     96  O   UNL A   1      54.132  26.985  24.724  1.00  0.00    -0.237 OA
ATOM     97  O   UNL A   1      53.557  24.598  24.534  1.00  0.00    -0.744 OA
ENDBRANCH  93  94
ENDBRANCH  67  88
ENDBRANCH  41  42
ENDBRANCH  34  36
ENDBRANCH  33  34
ENDBRANCH  32  33
ENDBRANCH  31  32
ENDBRANCH  30  31
ENDBRANCH   1  30
TORSDOF 21
ENDMDL
