MODEL 1
REMARK VINA RESULT:     -11.9      0.000      0.000
REMARK SMILES O=C(Cn1nc(C(=O)OCCOCCOC(=O)c2ccc(-c3c4nc(c(-c5ccc(S(=O)(=O)[O-])cc5)c5ccc([nH]5)c(-c5ccc(S(=O)(=O)[O-])cc5)c5nc(c(-c6ccc(S(=O)(=O)[O-])cc6)c6ccc3[nH]6)C=C5)C=C4)cc2)c2ccccc2c1=O)Nc1ccc2c(c1)C(=O)c1ccccc1C2=O
REMARK SMILES IDX 12 1 11 2 10 3 9 4 7 5 8 6 6 7 4 8 5 9 84 10 83 11 85 12
REMARK SMILES IDX 78 13 82 14 79 15 81 16 80 17 3 18 2 19 1 20 86 21 87 23
REMARK SMILES IDX 88 24 92 25 89 26 91 27 90 28 93 29 101 30 94 31 95 32
REMARK SMILES IDX 100 33 102 34 96 35 99 36 97 37 98 38 13 39 14 40 15 41
REMARK SMILES IDX 16 42 17 43 18 44 19 45 77 46 20 47 76 48 21 49 22 50 23 51
REMARK SMILES IDX 70 52 24 53 75 54 69 55 71 56 25 57 74 58 68 59 67 60 26 62
REMARK SMILES IDX 56 63 37 64 55 65 38 66 41 67 54 68 72 69 39 70 40 71 53 73
REMARK SMILES IDX 73 74 42 75 27 76 28 77 36 78 29 79 35 80 30 81 31 82 32 83
REMARK SMILES IDX 33 84 34 85 57 86 58 87 66 88 59 89 65 90 60 91 61 92 62 93
REMARK SMILES IDX 63 94 64 95 43 96 44 97 52 98 45 99 51 100 46 101 47 102
REMARK SMILES IDX 48 103 49 104 50 105
REMARK H PARENT 86 22 71 61 41 72
REMARK Flexibility Score: inf
ROOT
ATOM      1  O   UNL A   1      49.619  25.224  40.653  1.00  0.00    -0.374 OA
ENDROOT
BRANCH   1   2
ATOM      2  C   UNL A   1      50.317  24.155  40.012  1.00  0.00     0.202 C 
BRANCH   2   3
ATOM      3  C   UNL A   1      49.726  22.759  40.227  1.00  0.00     0.261 C 
BRANCH   3   4
ATOM      4  O   UNL A   1      49.045  22.315  39.044  1.00  0.00    -0.458 OA
BRANCH   4   5
ATOM      5  C   UNL A   1      49.503  21.172  38.504  1.00  0.00     0.359 C 
ATOM      6  O   UNL A   1      50.657  20.844  38.297  1.00  0.00    -0.244 OA
BRANCH   5   7
ATOM      7  C   UNL A   1      48.349  20.202  38.280  1.00  0.00     0.176 A 
ATOM      8  N   UNL A   1      46.972  18.514  39.063  1.00  0.00    -0.219 N 
ATOM      9  N   UNL A   1      48.075  19.342  39.223  1.00  0.00    -0.161 NA
ATOM     10  C   UNL A   1      46.051  18.649  38.023  1.00  0.00     0.275 A 
ATOM     11  C   UNL A   1      46.420  19.566  36.930  1.00  0.00     0.051 A 
ATOM     12  O   UNL A   1      45.004  18.014  37.939  1.00  0.00    -0.267 OA
ATOM     13  C   UNL A   1      47.594  20.302  37.017  1.00  0.00     0.022 A 
ATOM     14  C   UNL A   1      45.626  19.639  35.776  1.00  0.00     0.014 A 
ATOM     15  C   UNL A   1      48.011  21.075  35.924  1.00  0.00     0.011 A 
ATOM     16  C   UNL A   1      46.033  20.420  34.695  1.00  0.00     0.001 A 
ATOM     17  C   UNL A   1      47.234  21.125  34.763  1.00  0.00     0.001 A 
BRANCH   8  18
ATOM     18  C   UNL A   1      46.741  17.467  40.075  1.00  0.00     0.248 C 
BRANCH  18  19
ATOM     19  C   UNL A   1      45.350  17.558  40.700  1.00  0.00     0.246 C 
ATOM     20  O   UNL A   1      44.884  18.591  41.165  1.00  0.00    -0.273 OA
ATOM     21  N   UNL A   1      44.652  16.379  40.542  1.00  0.00    -0.324 N 
ATOM     22  H   UNL A   1      44.995  15.720  39.896  1.00  0.00     0.169 HD
BRANCH  21  23
ATOM     23  C   UNL A   1      43.488  16.066  41.248  1.00  0.00     0.042 A 
ATOM     24  C   UNL A   1      42.379  15.580  40.544  1.00  0.00     0.027 A 
ATOM     25  C   UNL A   1      43.645  15.802  42.605  1.00  0.00     0.039 A 
ATOM     26  C   UNL A   1      41.525  14.654  41.153  1.00  0.00     0.015 A 
ATOM     27  C   UNL A   1      42.785  14.898  43.208  1.00  0.00     0.036 A 
ATOM     28  C   UNL A   1      41.832  14.224  42.446  1.00  0.00     0.034 A 
ATOM     29  C   UNL A   1      43.206  14.328  44.496  1.00  0.00     0.194 C 
ATOM     30  C   UNL A   1      41.552  12.813  42.821  1.00  0.00     0.194 C 
ATOM     31  O   UNL A   1      43.503  15.013  45.455  1.00  0.00    -0.289 OA
ATOM     32  C   UNL A   1      43.442  12.881  44.427  1.00  0.00     0.034 A 
ATOM     33  C   UNL A   1      42.653  12.130  43.553  1.00  0.00     0.034 A 
ATOM     34  O   UNL A   1      40.582  12.206  42.410  1.00  0.00    -0.289 OA
ATOM     35  C   UNL A   1      44.607  12.364  44.990  1.00  0.00     0.013 A 
ATOM     36  C   UNL A   1      43.044  10.838  43.212  1.00  0.00     0.013 A 
ATOM     37  C   UNL A   1      45.019  11.089  44.615  1.00  0.00     0.001 A 
ATOM     38  C   UNL A   1      44.244  10.331  43.728  1.00  0.00     0.001 A 
ENDBRANCH  21  23
ENDBRANCH  18  19
ENDBRANCH   8  18
ENDBRANCH   5   7
ENDBRANCH   4   5
ENDBRANCH   3   4
ENDBRANCH   2   3
ENDBRANCH   1   2
BRANCH   1  39
ATOM     39  C   UNL A   1      49.870  26.551  40.185  1.00  0.00     0.202 C 
BRANCH  39  40
ATOM     40  C   UNL A   1      49.478  26.878  38.738  1.00  0.00     0.261 C 
BRANCH  40  41
ATOM     41  O   UNL A   1      48.147  27.413  38.649  1.00  0.00    -0.460 OA
BRANCH  41  42
ATOM     42  C   UNL A   1      47.228  26.581  38.097  1.00  0.00     0.338 C 
ATOM     43  O   UNL A   1      47.136  25.377  38.262  1.00  0.00    -0.246 OA
BRANCH  42  44
ATOM     44  C   UNL A   1      46.190  27.386  37.422  1.00  0.00     0.060 A 
ATOM     45  C   UNL A   1      46.511  28.517  36.670  1.00  0.00     0.016 A 
ATOM     46  C   UNL A   1      44.858  26.967  37.543  1.00  0.00     0.016 A 
ATOM     47  C   UNL A   1      45.493  29.213  36.013  1.00  0.00     0.010 A 
ATOM     48  C   UNL A   1      43.844  27.663  36.886  1.00  0.00     0.010 A 
ATOM     49  C   UNL A   1      44.156  28.782  36.101  1.00  0.00    -0.014 A 
BRANCH  49  50
ATOM     50  C   UNL A   1      43.108  29.411  35.261  1.00  0.00     0.031 A 
ATOM     51  C   UNL A   1      42.869  28.976  33.847  1.00  0.00     0.074 A 
ATOM     52  C   UNL A   1      42.378  30.411  35.794  1.00  0.00     0.049 A 
ATOM     53  N   UNL A   1      41.944  29.378  33.014  1.00  0.00    -0.248 NA
ATOM     54  C   UNL A   1      43.782  27.967  33.290  1.00  0.00     0.031 C 
ATOM     55  C   UNL A   1      42.549  30.934  37.151  1.00  0.00     0.029 A 
ATOM     56  N   UNL A   1      41.349  31.154  35.276  1.00  0.00    -0.354 N 
ATOM     57  C   UNL A   1      42.144  28.660  31.843  1.00  0.00     0.074 A 
ATOM     58  C   UNL A   1      43.313  27.831  32.054  1.00  0.00     0.031 C 
ATOM     59  C   UNL A   1      41.629  31.885  37.370  1.00  0.00     0.029 A 
ATOM     60  C   UNL A   1      40.828  32.066  36.163  1.00  0.00     0.049 A 
ATOM     61  H   UNL A   1      41.015  31.045  34.356  1.00  0.00     0.167 HD
ATOM     62  C   UNL A   1      41.407  28.681  30.708  1.00  0.00     0.031 A 
ATOM     63  C   UNL A   1      39.813  32.944  36.031  1.00  0.00     0.031 A 
ATOM     64  C   UNL A   1      40.257  29.529  30.506  1.00  0.00     0.049 A 
ATOM     65  C   UNL A   1      39.036  32.976  34.746  1.00  0.00     0.074 A 
ATOM     66  C   UNL A   1      39.423  29.588  29.403  1.00  0.00     0.029 A 
ATOM     67  N   UNL A   1      39.785  30.469  31.412  1.00  0.00    -0.354 N 
ATOM     68  N   UNL A   1      39.189  32.231  33.676  1.00  0.00    -0.248 NA
ATOM     69  C   UNL A   1      37.941  33.950  34.650  1.00  0.00     0.031 C 
ATOM     70  C   UNL A   1      38.499  30.615  29.606  1.00  0.00     0.029 A 
ATOM     71  C   UNL A   1      38.697  31.139  30.874  1.00  0.00     0.049 A 
ATOM     72  H   UNL A   1      40.166  30.635  32.304  1.00  0.00     0.167 HD
ATOM     73  C   UNL A   1      38.198  32.634  32.788  1.00  0.00     0.074 A 
ATOM     74  C   UNL A   1      37.438  33.671  33.454  1.00  0.00     0.031 C 
ATOM     75  C   UNL A   1      37.947  32.182  31.534  1.00  0.00     0.031 A 
BRANCH  62  76
ATOM     76  C   UNL A   1      41.791  27.751  29.583  1.00  0.00    -0.014 A 
ATOM     77  C   UNL A   1      42.974  27.982  28.856  1.00  0.00     0.010 A 
ATOM     78  C   UNL A   1      40.907  26.747  29.146  1.00  0.00     0.010 A 
ATOM     79  C   UNL A   1      43.241  27.262  27.689  1.00  0.00     0.020 A 
ATOM     80  C   UNL A   1      41.188  26.002  27.995  1.00  0.00     0.020 A 
ATOM     81  C   UNL A   1      42.338  26.287  27.258  1.00  0.00     0.054 A 
BRANCH  81  82
ATOM     82  S   UNL A   1      42.670  25.431  25.693  1.00  0.00     0.124 S 
ATOM     83  O   UNL A   1      43.852  26.132  25.202  1.00  0.00    -0.237 OA
ATOM     84  O   UNL A   1      42.891  24.054  26.131  1.00  0.00    -0.237 OA
ATOM     85  O   UNL A   1      41.452  25.648  24.917  1.00  0.00    -0.744 OA
ENDBRANCH  81  82
ENDBRANCH  62  76
BRANCH  63  86
ATOM     86  C   UNL A   1      39.456  33.813  37.186  1.00  0.00    -0.014 A 
ATOM     87  C   UNL A   1      40.008  35.103  37.308  1.00  0.00     0.010 A 
ATOM     88  C   UNL A   1      38.643  33.318  38.222  1.00  0.00     0.010 A 
ATOM     89  C   UNL A   1      39.810  35.853  38.470  1.00  0.00     0.020 A 
ATOM     90  C   UNL A   1      38.414  34.081  39.371  1.00  0.00     0.020 A 
ATOM     91  C   UNL A   1      39.027  35.329  39.501  1.00  0.00     0.054 A 
BRANCH  91  92
ATOM     92  S   UNL A   1      38.846  36.291  41.029  1.00  0.00     0.124 S 
ATOM     93  O   UNL A   1      40.202  36.254  41.568  1.00  0.00    -0.237 OA
ATOM     94  O   UNL A   1      38.400  37.591  40.534  1.00  0.00    -0.237 OA
ATOM     95  O   UNL A   1      37.849  35.541  41.789  1.00  0.00    -0.744 OA
ENDBRANCH  91  92
ENDBRANCH  63  86
BRANCH  75  96
ATOM     96  C   UNL A   1      36.805  32.804  30.768  1.00  0.00    -0.014 A 
ATOM     97  C   UNL A   1      37.062  33.834  29.843  1.00  0.00     0.010 A 
ATOM     98  C   UNL A   1      35.472  32.462  31.055  1.00  0.00     0.010 A 
ATOM     99  C   UNL A   1      36.008  34.536  29.250  1.00  0.00     0.020 A 
ATOM    100  C   UNL A   1      34.416  33.138  30.437  1.00  0.00     0.020 A 
ATOM    101  C   UNL A   1      34.691  34.189  29.559  1.00  0.00     0.054 A 
BRANCH 101 102
ATOM    102  S   UNL A   1      33.339  35.134  28.805  1.00  0.00     0.124 S 
ATOM    103  O   UNL A   1      34.056  36.197  28.109  1.00  0.00    -0.237 OA
ATOM    104  O   UNL A   1      32.692  34.143  27.948  1.00  0.00    -0.237 OA
ATOM    105  O   UNL A   1      32.542  35.567  29.952  1.00  0.00    -0.744 OA
ENDBRANCH 101 102
ENDBRANCH  75  96
ENDBRANCH  49  50
ENDBRANCH  42  44
ENDBRANCH  41  42
ENDBRANCH  40  41
ENDBRANCH  39  40
ENDBRANCH   1  39
TORSDOF 20
ENDMDL
MODEL 2
REMARK VINA RESULT:     -11.8     10.443     17.325
REMARK SMILES O=C(Cn1nc(C(=O)OCCOCCOC(=O)c2ccc(-c3c4nc(c(-c5ccc(S(=O)(=O)[O-])cc5)c5ccc([nH]5)c(-c5ccc(S(=O)(=O)[O-])cc5)c5nc(c(-c6ccc(S(=O)(=O)[O-])cc6)c6ccc3[nH]6)C=C5)C=C4)cc2)c2ccccc2c1=O)Nc1ccc2c(c1)C(=O)c1ccccc1C2=O
REMARK SMILES IDX 12 1 11 2 10 3 9 4 7 5 8 6 6 7 4 8 5 9 84 10 83 11 85 12
REMARK SMILES IDX 78 13 82 14 79 15 81 16 80 17 3 18 2 19 1 20 86 21 87 23
REMARK SMILES IDX 88 24 92 25 89 26 91 27 90 28 93 29 101 30 94 31 95 32
REMARK SMILES IDX 100 33 102 34 96 35 99 36 97 37 98 38 13 39 14 40 15 41
REMARK SMILES IDX 16 42 17 43 18 44 19 45 77 46 20 47 76 48 21 49 22 50 23 51
REMARK SMILES IDX 70 52 24 53 75 54 69 55 71 56 25 57 74 58 68 59 67 60 26 62
REMARK SMILES IDX 56 63 37 64 55 65 38 66 41 67 54 68 72 69 39 70 40 71 53 73
REMARK SMILES IDX 73 74 42 75 27 76 28 77 36 78 29 79 35 80 30 81 31 82 32 83
REMARK SMILES IDX 33 84 34 85 57 86 58 87 66 88 59 89 65 90 60 91 61 92 62 93
REMARK SMILES IDX 63 94 64 95 43 96 44 97 52 98 45 99 51 100 46 101 47 102
REMARK SMILES IDX 48 103 49 104 50 105
REMARK H PARENT 86 22 71 61 41 72
REMARK Flexibility Score: inf
ROOT
ATOM      1  O   UNL A   1      39.519  21.903  26.653  1.00  0.00    -0.374 OA
ENDROOT
BRANCH   1   2
ATOM      2  C   UNL A   1      39.345  23.220  26.128  1.00  0.00     0.202 C 
BRANCH   2   3
ATOM      3  C   UNL A   1      38.053  23.930  26.545  1.00  0.00     0.261 C 
BRANCH   3   4
ATOM      4  O   UNL A   1      36.932  23.042  26.425  1.00  0.00    -0.458 OA
BRANCH   4   5
ATOM      5  C   UNL A   1      36.354  22.995  25.212  1.00  0.00     0.359 C 
ATOM      6  O   UNL A   1      36.774  23.435  24.157  1.00  0.00    -0.244 OA
BRANCH   5   7
ATOM      7  C   UNL A   1      35.082  22.158  25.272  1.00  0.00     0.176 A 
ATOM      8  N   UNL A   1      32.781  22.024  25.489  1.00  0.00    -0.219 N 
ATOM      9  N   UNL A   1      33.954  22.767  25.519  1.00  0.00    -0.161 NA
ATOM     10  C   UNL A   1      32.719  20.696  25.064  1.00  0.00     0.275 A 
ATOM     11  C   UNL A   1      34.007  20.006  24.868  1.00  0.00     0.051 A 
ATOM     12  O   UNL A   1      31.677  20.068  24.907  1.00  0.00    -0.267 OA
ATOM     13  C   UNL A   1      35.193  20.707  25.028  1.00  0.00     0.022 A 
ATOM     14  C   UNL A   1      34.031  18.631  24.595  1.00  0.00     0.014 A 
ATOM     15  C   UNL A   1      36.417  20.024  24.971  1.00  0.00     0.011 A 
ATOM     16  C   UNL A   1      35.249  17.954  24.522  1.00  0.00     0.001 A 
ATOM     17  C   UNL A   1      36.440  18.648  24.726  1.00  0.00     0.001 A 
BRANCH   8  18
ATOM     18  C   UNL A   1      31.529  22.694  25.887  1.00  0.00     0.248 C 
BRANCH  18  19
ATOM     19  C   UNL A   1      31.501  24.166  25.476  1.00  0.00     0.246 C 
ATOM     20  O   UNL A   1      31.381  25.087  26.274  1.00  0.00    -0.273 OA
ATOM     21  N   UNL A   1      31.766  24.316  24.131  1.00  0.00    -0.324 N 
ATOM     22  H   UNL A   1      32.145  23.548  23.645  1.00  0.00     0.169 HD
BRANCH  21  23
ATOM     23  C   UNL A   1      31.527  25.494  23.420  1.00  0.00     0.042 A 
ATOM     24  C   UNL A   1      30.207  25.939  23.271  1.00  0.00     0.027 A 
ATOM     25  C   UNL A   1      32.595  26.379  23.322  1.00  0.00     0.039 A 
ATOM     26  C   UNL A   1      29.942  27.312  23.224  1.00  0.00     0.015 A 
ATOM     27  C   UNL A   1      32.327  27.737  23.258  1.00  0.00     0.036 A 
ATOM     28  C   UNL A   1      31.014  28.196  23.359  1.00  0.00     0.034 A 
ATOM     29  C   UNL A   1      33.433  28.655  23.567  1.00  0.00     0.194 C 
ATOM     30  C   UNL A   1      30.807  29.473  24.091  1.00  0.00     0.194 C 
ATOM     31  O   UNL A   1      34.501  28.621  22.987  1.00  0.00    -0.289 OA
ATOM     32  C   UNL A   1      33.192  29.449  24.779  1.00  0.00     0.034 A 
ATOM     33  C   UNL A   1      31.876  29.813  25.070  1.00  0.00     0.034 A 
ATOM     34  O   UNL A   1      29.767  30.101  24.034  1.00  0.00    -0.289 OA
ATOM     35  C   UNL A   1      34.207  29.550  25.725  1.00  0.00     0.013 A 
ATOM     36  C   UNL A   1      31.557  30.272  26.346  1.00  0.00     0.013 A 
ATOM     37  C   UNL A   1      33.880  29.967  27.012  1.00  0.00     0.001 A 
ATOM     38  C   UNL A   1      32.560  30.322  27.322  1.00  0.00     0.001 A 
ENDBRANCH  21  23
ENDBRANCH  18  19
ENDBRANCH   8  18
ENDBRANCH   5   7
ENDBRANCH   4   5
ENDBRANCH   3   4
ENDBRANCH   2   3
ENDBRANCH   1   2
BRANCH   1  39
ATOM     39  C   UNL A   1      39.362  20.807  25.749  1.00  0.00     0.202 C 
BRANCH  39  40
ATOM     40  C   UNL A   1      40.184  19.540  26.021  1.00  0.00     0.261 C 
BRANCH  40  41
ATOM     41  O   UNL A   1      41.348  19.815  26.818  1.00  0.00    -0.460 OA
BRANCH  41  42
ATOM     42  C   UNL A   1      42.450  20.183  26.117  1.00  0.00     0.338 C 
ATOM     43  O   UNL A   1      42.983  19.567  25.210  1.00  0.00    -0.246 OA
BRANCH  42  44
ATOM     44  C   UNL A   1      42.801  21.576  26.465  1.00  0.00     0.060 A 
ATOM     45  C   UNL A   1      43.173  21.939  27.760  1.00  0.00     0.016 A 
ATOM     46  C   UNL A   1      42.767  22.532  25.440  1.00  0.00     0.016 A 
ATOM     47  C   UNL A   1      43.541  23.261  28.020  1.00  0.00     0.010 A 
ATOM     48  C   UNL A   1      43.134  23.851  25.703  1.00  0.00     0.010 A 
ATOM     49  C   UNL A   1      43.542  24.222  26.991  1.00  0.00    -0.014 A 
BRANCH  49  50
ATOM     50  C   UNL A   1      44.104  25.574  27.229  1.00  0.00     0.031 A 
ATOM     51  C   UNL A   1      43.298  26.656  27.883  1.00  0.00     0.074 A 
ATOM     52  C   UNL A   1      45.364  25.821  26.821  1.00  0.00     0.049 A 
ATOM     53  N   UNL A   1      43.675  27.860  28.225  1.00  0.00    -0.248 NA
ATOM     54  C   UNL A   1      41.892  26.354  28.190  1.00  0.00     0.031 C 
ATOM     55  C   UNL A   1      46.227  24.850  26.146  1.00  0.00     0.029 A 
ATOM     56  N   UNL A   1      46.142  26.947  26.920  1.00  0.00    -0.354 N 
ATOM     57  C   UNL A   1      42.565  28.458  28.807  1.00  0.00     0.074 A 
ATOM     58  C   UNL A   1      41.483  27.499  28.727  1.00  0.00     0.031 C 
ATOM     59  C   UNL A   1      47.426  25.408  25.928  1.00  0.00     0.029 A 
ATOM     60  C   UNL A   1      47.410  26.786  26.413  1.00  0.00     0.049 A 
ATOM     61  H   UNL A   1      45.823  27.789  27.317  1.00  0.00     0.167 HD
ATOM     62  C   UNL A   1      42.470  29.685  29.371  1.00  0.00     0.031 A 
ATOM     63  C   UNL A   1      48.450  27.641  26.351  1.00  0.00     0.031 A 
ATOM     64  C   UNL A   1      43.553  30.636  29.423  1.00  0.00     0.049 A 
ATOM     65  C   UNL A   1      48.306  29.012  26.949  1.00  0.00     0.074 A 
ATOM     66  C   UNL A   1      43.562  31.889  30.011  1.00  0.00     0.029 A 
ATOM     67  N   UNL A   1      44.810  30.454  28.862  1.00  0.00    -0.354 N 
ATOM     68  N   UNL A   1      47.273  29.532  27.568  1.00  0.00    -0.248 NA
ATOM     69  C   UNL A   1      49.467  29.908  26.856  1.00  0.00     0.031 C 
ATOM     70  C   UNL A   1      44.790  32.495  29.738  1.00  0.00     0.029 A 
ATOM     71  C   UNL A   1      45.585  31.587  29.056  1.00  0.00     0.049 A 
ATOM     72  H   UNL A   1      45.107  29.640  28.395  1.00  0.00     0.167 HD
ATOM     73  C   UNL A   1      47.665  30.808  27.956  1.00  0.00     0.074 A 
ATOM     74  C   UNL A   1      49.037  30.972  27.521  1.00  0.00     0.031 C 
ATOM     75  C   UNL A   1      46.948  31.754  28.611  1.00  0.00     0.031 A 
BRANCH  62  76
ATOM     76  C   UNL A   1      41.160  30.087  30.003  1.00  0.00    -0.014 A 
ATOM     77  C   UNL A   1      40.934  29.830  31.369  1.00  0.00     0.010 A 
ATOM     78  C   UNL A   1      40.100  30.574  29.216  1.00  0.00     0.010 A 
ATOM     79  C   UNL A   1      39.663  30.005  31.922  1.00  0.00     0.020 A 
ATOM     80  C   UNL A   1      38.835  30.781  29.775  1.00  0.00     0.020 A 
ATOM     81  C   UNL A   1      38.618  30.465  31.117  1.00  0.00     0.054 A 
BRANCH  81  82
ATOM     82  S   UNL A   1      36.960  30.599  31.843  1.00  0.00     0.124 S 
ATOM     83  O   UNL A   1      36.358  31.660  31.042  1.00  0.00    -0.237 OA
ATOM     84  O   UNL A   1      36.416  29.260  31.626  1.00  0.00    -0.237 OA
ATOM     85  O   UNL A   1      37.221  30.946  33.237  1.00  0.00    -0.744 OA
ENDBRANCH  81  82
ENDBRANCH  62  76
BRANCH  63  86
ATOM     86  C   UNL A   1      49.730  27.178  25.748  1.00  0.00    -0.014 A 
ATOM     87  C   UNL A   1      50.758  26.663  26.561  1.00  0.00     0.010 A 
ATOM     88  C   UNL A   1      49.967  27.343  24.372  1.00  0.00     0.010 A 
ATOM     89  C   UNL A   1      52.017  26.386  26.024  1.00  0.00     0.020 A 
ATOM     90  C   UNL A   1      51.216  27.034  23.824  1.00  0.00     0.020 A 
ATOM     91  C   UNL A   1      52.242  26.589  24.660  1.00  0.00     0.054 A 
BRANCH  91  92
ATOM     92  S   UNL A   1      53.906  26.293  24.001  1.00  0.00     0.124 S 
ATOM     93  O   UNL A   1      53.647  26.201  22.566  1.00  0.00    -0.237 OA
ATOM     94  O   UNL A   1      54.636  27.481  24.433  1.00  0.00    -0.237 OA
ATOM     95  O   UNL A   1      54.312  25.046  24.644  1.00  0.00    -0.744 OA
ENDBRANCH  91  92
ENDBRANCH  63  86
BRANCH  75  96
ATOM     96  C   UNL A   1      47.614  33.077  28.904  1.00  0.00    -0.014 A 
ATOM     97  C   UNL A   1      47.558  34.114  27.952  1.00  0.00     0.010 A 
ATOM     98  C   UNL A   1      48.400  33.251  30.056  1.00  0.00     0.010 A 
ATOM     99  C   UNL A   1      48.306  35.282  28.129  1.00  0.00     0.020 A 
ATOM    100  C   UNL A   1      49.122  34.432  30.253  1.00  0.00     0.020 A 
ATOM    101  C   UNL A   1      49.091  35.428  29.274  1.00  0.00     0.054 A 
BRANCH 101 102
ATOM    102  S   UNL A   1      50.080  36.937  29.468  1.00  0.00     0.124 S 
ATOM    103  O   UNL A   1      49.167  37.814  30.193  1.00  0.00    -0.237 OA
ATOM    104  O   UNL A   1      51.238  36.467  30.225  1.00  0.00    -0.237 OA
ATOM    105  O   UNL A   1      50.368  37.337  28.092  1.00  0.00    -0.744 OA
ENDBRANCH 101 102
ENDBRANCH  75  96
ENDBRANCH  49  50
ENDBRANCH  42  44
ENDBRANCH  41  42
ENDBRANCH  40  41
ENDBRANCH  39  40
ENDBRANCH   1  39
TORSDOF 20
ENDMDL
MODEL 3
REMARK VINA RESULT:     -11.7      6.748     14.105
REMARK SMILES O=C(Cn1nc(C(=O)OCCOCCOC(=O)c2ccc(-c3c4nc(c(-c5ccc(S(=O)(=O)[O-])cc5)c5ccc([nH]5)c(-c5ccc(S(=O)(=O)[O-])cc5)c5nc(c(-c6ccc(S(=O)(=O)[O-])cc6)c6ccc3[nH]6)C=C5)C=C4)cc2)c2ccccc2c1=O)Nc1ccc2c(c1)C(=O)c1ccccc1C2=O
REMARK SMILES IDX 12 1 11 2 10 3 9 4 7 5 8 6 6 7 4 8 5 9 84 10 83 11 85 12
REMARK SMILES IDX 78 13 82 14 79 15 81 16 80 17 3 18 2 19 1 20 86 21 87 23
REMARK SMILES IDX 88 24 92 25 89 26 91 27 90 28 93 29 101 30 94 31 95 32
REMARK SMILES IDX 100 33 102 34 96 35 99 36 97 37 98 38 13 39 14 40 15 41
REMARK SMILES IDX 16 42 17 43 18 44 19 45 77 46 20 47 76 48 21 49 22 50 23 51
REMARK SMILES IDX 70 52 24 53 75 54 69 55 71 56 25 57 74 58 68 59 67 60 26 62
REMARK SMILES IDX 56 63 37 64 55 65 38 66 41 67 54 68 72 69 39 70 40 71 53 73
REMARK SMILES IDX 73 74 42 75 27 76 28 77 36 78 29 79 35 80 30 81 31 82 32 83
REMARK SMILES IDX 33 84 34 85 57 86 58 87 66 88 59 89 65 90 60 91 61 92 62 93
REMARK SMILES IDX 63 94 64 95 43 96 44 97 52 98 45 99 51 100 46 101 47 102
REMARK SMILES IDX 48 103 49 104 50 105
REMARK H PARENT 86 22 71 61 41 72
REMARK Flexibility Score: inf
ROOT
ATOM      1  O   UNL A   1      45.309  20.352  25.210  1.00  0.00    -0.374 OA
ENDROOT
BRANCH   1   2
ATOM      2  C   UNL A   1      44.572  19.270  24.638  1.00  0.00     0.202 C 
BRANCH   2   3
ATOM      3  C   UNL A   1      43.362  18.796  25.447  1.00  0.00     0.261 C 
BRANCH   3   4
ATOM      4  O   UNL A   1      42.342  19.806  25.463  1.00  0.00    -0.458 OA
BRANCH   4   5
ATOM      5  C   UNL A   1      41.718  19.984  26.640  1.00  0.00     0.359 C 
ATOM      6  O   UNL A   1      41.732  19.261  27.620  1.00  0.00    -0.244 OA
BRANCH   5   7
ATOM      7  C   UNL A   1      41.047  21.352  26.673  1.00  0.00     0.176 A 
ATOM      8  N   UNL A   1      39.283  22.731  26.085  1.00  0.00    -0.219 N 
ATOM      9  N   UNL A   1      39.946  21.514  25.990  1.00  0.00    -0.161 NA
ATOM     10  C   UNL A   1      39.641  23.737  26.983  1.00  0.00     0.275 A 
ATOM     11  C   UNL A   1      40.927  23.569  27.684  1.00  0.00     0.051 A 
ATOM     12  O   UNL A   1      38.990  24.760  27.172  1.00  0.00    -0.267 OA
ATOM     13  C   UNL A   1      41.667  22.411  27.492  1.00  0.00     0.022 A 
ATOM     14  C   UNL A   1      41.433  24.605  28.482  1.00  0.00     0.014 A 
ATOM     15  C   UNL A   1      42.948  22.304  28.053  1.00  0.00     0.011 A 
ATOM     16  C   UNL A   1      42.700  24.493  29.053  1.00  0.00     0.001 A 
ATOM     17  C   UNL A   1      43.464  23.349  28.825  1.00  0.00     0.001 A 
BRANCH   8  18
ATOM     18  C   UNL A   1      38.109  22.947  25.219  1.00  0.00     0.248 C 
BRANCH  18  19
ATOM     19  C   UNL A   1      36.947  22.020  25.572  1.00  0.00     0.246 C 
ATOM     20  O   UNL A   1      36.995  20.801  25.455  1.00  0.00    -0.273 OA
ATOM     21  N   UNL A   1      35.912  22.716  26.161  1.00  0.00    -0.324 N 
ATOM     22  H   UNL A   1      36.092  23.628  26.484  1.00  0.00     0.169 HD
BRANCH  21  23
ATOM     23  C   UNL A   1      34.624  22.200  26.324  1.00  0.00     0.042 A 
ATOM     24  C   UNL A   1      34.030  22.249  27.591  1.00  0.00     0.027 A 
ATOM     25  C   UNL A   1      33.848  22.115  25.173  1.00  0.00     0.039 A 
ATOM     26  C   UNL A   1      32.646  22.418  27.699  1.00  0.00     0.015 A 
ATOM     27  C   UNL A   1      32.474  22.265  25.288  1.00  0.00     0.036 A 
ATOM     28  C   UNL A   1      31.904  22.562  26.525  1.00  0.00     0.034 A 
ATOM     29  C   UNL A   1      31.729  22.582  24.061  1.00  0.00     0.194 C 
ATOM     30  C   UNL A   1      30.735  23.479  26.520  1.00  0.00     0.194 C 
ATOM     31  O   UNL A   1      31.786  21.897  23.058  1.00  0.00    -0.289 OA
ATOM     32  C   UNL A   1      31.102  23.909  24.103  1.00  0.00     0.034 A 
ATOM     33  C   UNL A   1      30.652  24.381  25.338  1.00  0.00     0.034 A 
ATOM     34  O   UNL A   1      30.003  23.615  27.481  1.00  0.00    -0.289 OA
ATOM     35  C   UNL A   1      31.244  24.752  23.004  1.00  0.00     0.013 A 
ATOM     36  C   UNL A   1      30.356  25.733  25.490  1.00  0.00     0.013 A 
ATOM     37  C   UNL A   1      30.990  26.111  23.169  1.00  0.00     0.001 A 
ATOM     38  C   UNL A   1      30.553  26.599  24.407  1.00  0.00     0.001 A 
ENDBRANCH  21  23
ENDBRANCH  18  19
ENDBRANCH   8  18
ENDBRANCH   5   7
ENDBRANCH   4   5
ENDBRANCH   3   4
ENDBRANCH   2   3
ENDBRANCH   1   2
BRANCH   1  39
ATOM     39  C   UNL A   1      45.350  21.581  24.481  1.00  0.00     0.202 C 
BRANCH  39  40
ATOM     40  C   UNL A   1      46.096  22.760  25.119  1.00  0.00     0.261 C 
BRANCH  40  41
ATOM     41  O   UNL A   1      45.954  23.966  24.350  1.00  0.00    -0.460 OA
BRANCH  41  42
ATOM     42  C   UNL A   1      46.881  24.923  24.606  1.00  0.00     0.338 C 
ATOM     43  O   UNL A   1      47.837  25.223  23.912  1.00  0.00    -0.246 OA
BRANCH  42  44
ATOM     44  C   UNL A   1      46.441  25.725  25.766  1.00  0.00     0.060 A 
ATOM     45  C   UNL A   1      45.090  25.956  26.030  1.00  0.00     0.016 A 
ATOM     46  C   UNL A   1      47.429  26.239  26.617  1.00  0.00     0.016 A 
ATOM     47  C   UNL A   1      44.730  26.681  27.168  1.00  0.00     0.010 A 
ATOM     48  C   UNL A   1      47.067  26.962  27.752  1.00  0.00     0.010 A 
ATOM     49  C   UNL A   1      45.713  27.174  28.047  1.00  0.00    -0.014 A 
BRANCH  49  50
ATOM     50  C   UNL A   1      45.324  27.782  29.342  1.00  0.00     0.031 A 
ATOM     51  C   UNL A   1      45.287  26.980  30.607  1.00  0.00     0.074 A 
ATOM     52  C   UNL A   1      44.979  29.085  29.356  1.00  0.00     0.049 A 
ATOM     53  N   UNL A   1      45.040  27.388  31.825  1.00  0.00    -0.248 NA
ATOM     54  C   UNL A   1      45.555  25.538  30.498  1.00  0.00     0.031 C 
ATOM     55  C   UNL A   1      44.951  29.952  28.177  1.00  0.00     0.029 A 
ATOM     56  N   UNL A   1      44.601  29.909  30.385  1.00  0.00    -0.354 N 
ATOM     57  C   UNL A   1      45.143  26.263  32.633  1.00  0.00     0.074 A 
ATOM     58  C   UNL A   1      45.426  25.143  31.760  1.00  0.00     0.031 C 
ATOM     59  C   UNL A   1      44.615  31.194  28.556  1.00  0.00     0.029 A 
ATOM     60  C   UNL A   1      44.369  31.207  29.995  1.00  0.00     0.049 A 
ATOM     61  H   UNL A   1      44.506  29.600  31.316  1.00  0.00     0.167 HD
ATOM     62  C   UNL A   1      45.030  26.183  33.980  1.00  0.00     0.031 A 
ATOM     63  C   UNL A   1      44.009  32.291  30.710  1.00  0.00     0.031 A 
ATOM     64  C   UNL A   1      44.727  27.306  34.834  1.00  0.00     0.049 A 
ATOM     65  C   UNL A   1      43.850  32.167  32.199  1.00  0.00     0.074 A 
ATOM     66  C   UNL A   1      44.633  27.327  36.215  1.00  0.00     0.029 A 
ATOM     67  N   UNL A   1      44.457  28.596  34.398  1.00  0.00    -0.354 N 
ATOM     68  N   UNL A   1      44.031  31.112  32.957  1.00  0.00    -0.248 NA
ATOM     69  C   UNL A   1      43.456  33.377  32.933  1.00  0.00     0.031 C 
ATOM     70  C   UNL A   1      44.229  28.605  36.608  1.00  0.00     0.029 A 
ATOM     71  C   UNL A   1      44.157  29.408  35.481  1.00  0.00     0.049 A 
ATOM     72  H   UNL A   1      44.475  28.890  33.459  1.00  0.00     0.167 HD
ATOM     73  C   UNL A   1      43.792  31.535  34.259  1.00  0.00     0.074 A 
ATOM     74  C   UNL A   1      43.475  32.946  34.188  1.00  0.00     0.031 C 
ATOM     75  C   UNL A   1      43.830  30.813  35.407  1.00  0.00     0.031 A 
BRANCH  62  76
ATOM     76  C   UNL A   1      45.251  24.845  34.643  1.00  0.00    -0.014 A 
ATOM     77  C   UNL A   1      46.554  24.441  34.987  1.00  0.00     0.010 A 
ATOM     78  C   UNL A   1      44.192  23.927  34.781  1.00  0.00     0.010 A 
ATOM     79  C   UNL A   1      46.803  23.132  35.409  1.00  0.00     0.020 A 
ATOM     80  C   UNL A   1      44.434  22.626  35.234  1.00  0.00     0.020 A 
ATOM     81  C   UNL A   1      45.742  22.229  35.516  1.00  0.00     0.054 A 
BRANCH  81  82
ATOM     82  S   UNL A   1      46.108  20.514  35.982  1.00  0.00     0.124 S 
ATOM     83  O   UNL A   1      45.232  19.759  35.092  1.00  0.00    -0.237 OA
ATOM     84  O   UNL A   1      47.538  20.411  35.695  1.00  0.00    -0.237 OA
ATOM     85  O   UNL A   1      45.752  20.459  37.397  1.00  0.00    -0.744 OA
ENDBRANCH  81  82
ENDBRANCH  62  76
BRANCH  63  86
ATOM     86  C   UNL A   1      43.840  33.594  30.008  1.00  0.00    -0.014 A 
ATOM     87  C   UNL A   1      44.942  34.451  29.817  1.00  0.00     0.010 A 
ATOM     88  C   UNL A   1      42.561  34.030  29.619  1.00  0.00     0.010 A 
ATOM     89  C   UNL A   1      44.759  35.740  29.313  1.00  0.00     0.020 A 
ATOM     90  C   UNL A   1      42.380  35.309  29.082  1.00  0.00     0.020 A 
ATOM     91  C   UNL A   1      43.475  36.167  28.964  1.00  0.00     0.054 A 
BRANCH  91  92
ATOM     92  S   UNL A   1      43.254  37.870  28.382  1.00  0.00     0.124 S 
ATOM     93  O   UNL A   1      44.341  37.999  27.415  1.00  0.00    -0.237 OA
ATOM     94  O   UNL A   1      41.908  37.840  27.815  1.00  0.00    -0.237 OA
ATOM     95  O   UNL A   1      43.398  38.669  29.596  1.00  0.00    -0.744 OA
ENDBRANCH  91  92
ENDBRANCH  63  86
BRANCH  75  96
ATOM     96  C   UNL A   1      43.513  31.518  36.703  1.00  0.00    -0.014 A 
ATOM     97  C   UNL A   1      42.175  31.642  37.124  1.00  0.00     0.010 A 
ATOM     98  C   UNL A   1      44.520  32.169  37.436  1.00  0.00     0.010 A 
ATOM     99  C   UNL A   1      41.846  32.433  38.228  1.00  0.00     0.020 A 
ATOM    100  C   UNL A   1      44.199  32.933  38.563  1.00  0.00     0.020 A 
ATOM    101  C   UNL A   1      42.861  33.082  38.935  1.00  0.00     0.054 A 
BRANCH 101 102
ATOM    102  S   UNL A   1      42.411  34.131  40.344  1.00  0.00     0.124 S 
ATOM    103  O   UNL A   1      40.987  33.851  40.495  1.00  0.00    -0.237 OA
ATOM    104  O   UNL A   1      43.270  33.623  41.411  1.00  0.00    -0.237 OA
ATOM    105  O   UNL A   1      42.736  35.480  39.885  1.00  0.00    -0.744 OA
ENDBRANCH 101 102
ENDBRANCH  75  96
ENDBRANCH  49  50
ENDBRANCH  42  44
ENDBRANCH  41  42
ENDBRANCH  40  41
ENDBRANCH  39  40
ENDBRANCH   1  39
TORSDOF 20
ENDMDL
