MODEL 1
REMARK VINA RESULT:     -12.1      0.000      0.000
REMARK SMILES Cc1ccnc(C(=O)c2[nH]c3cc(Cl)c(F)cc3c2CC(=O)OCCOCCOC(=O)c2ccc(-c3c4nc(c(-c5ccc(S(=O)(=O)[O-])cc5)c5ccc([nH]5)c(-c5ccc(S(=O)(=O)[O-])cc5)c5nc(c(-c6ccc(S(=O)(=O)[O-])cc6)c6ccc3[nH]6)C=C5)C=C4)cc2)c1
REMARK SMILES IDX 26 1 25 2 24 3 23 4 21 5 22 6 20 7 19 8 9 9 10 10 11 11
REMARK SMILES IDX 18 13 12 14 17 15 13 16 15 17 14 18 16 19 7 20 8 21 6 22
REMARK SMILES IDX 1 23 2 24 3 25 92 26 4 27 5 28 27 29 28 30 29 31 30 32 31 33
REMARK SMILES IDX 32 34 33 35 91 36 34 37 90 38 35 39 36 40 37 41 84 42 38 43
REMARK SMILES IDX 89 44 83 45 85 46 39 47 88 48 82 49 81 50 40 52 70 53 51 54
REMARK SMILES IDX 69 55 52 56 55 57 68 58 86 59 53 60 54 61 67 63 87 64 56 65
REMARK SMILES IDX 41 66 42 67 50 68 43 69 49 70 44 71 45 72 46 73 47 74 48 75
REMARK SMILES IDX 71 76 72 77 80 78 73 79 79 80 74 81 75 82 76 83 77 84 78 85
REMARK SMILES IDX 57 86 58 87 66 88 59 89 65 90 60 91 61 92 62 93 63 94 64 95
REMARK H PARENT 10 12 85 51 55 62
REMARK Flexibility Score: inf
ROOT
ATOM      1  O   UNL A   1      36.747  23.962  25.250  1.00  0.00    -0.374 OA
ENDROOT
BRANCH   1   2
ATOM      2  C   UNL A   1      35.852  22.964  24.770  1.00  0.00     0.202 C 
BRANCH   2   3
ATOM      3  C   UNL A   1      35.476  23.289  23.319  1.00  0.00     0.261 C 
BRANCH   3   4
ATOM      4  O   UNL A   1      34.242  24.074  23.250  1.00  0.00    -0.463 OA
BRANCH   4   5
ATOM      5  C   UNL A   1      33.280  23.585  22.427  1.00  0.00     0.310 C 
ATOM      6  O   UNL A   1      33.415  23.517  21.207  1.00  0.00    -0.252 OA
BRANCH   5   7
ATOM      7  C   UNL A   1      32.025  23.037  23.108  1.00  0.00     0.161 C 
BRANCH   7   8
ATOM      8  C   UNL A   1      32.075  22.031  24.264  1.00  0.00     0.000 A 
ATOM      9  C   UNL A   1      32.190  22.204  25.677  1.00  0.00     0.093 A 
ATOM     10  N   UNL A   1      32.606  20.967  26.155  1.00  0.00    -0.351 N 
ATOM     11  C   UNL A   1      32.616  19.999  25.186  1.00  0.00     0.048 A 
ATOM     12  H   UNL A   1      32.865  20.804  27.091  1.00  0.00     0.167 HD
ATOM     13  C   UNL A   1      32.233  20.609  23.998  1.00  0.00     0.007 A 
ATOM     14  C   UNL A   1      32.972  18.644  25.275  1.00  0.00     0.050 A 
ATOM     15  C   UNL A   1      32.162  19.806  22.834  1.00  0.00     0.051 A 
ATOM     16  C   UNL A   1      32.898  17.875  24.111  1.00  0.00     0.078 A 
ATOM     17  C   UNL A   1      32.485  18.446  22.914  1.00  0.00     0.142 A 
ATOM     18  Cl  UNL A   1      33.343  16.209  24.184  1.00  0.00    -0.081 Cl
ATOM     19  F   UNL A   1      32.413  17.702  21.799  1.00  0.00    -0.205 F 
BRANCH   9  20
ATOM     20  C   UNL A   1      32.247  23.333  26.641  1.00  0.00     0.227 C 
ATOM     21  O   UNL A   1      32.236  23.066  27.845  1.00  0.00    -0.285 OA
BRANCH  20  22
ATOM     22  C   UNL A   1      32.155  24.833  26.292  1.00  0.00     0.113 A 
ATOM     23  C   UNL A   1      34.037  28.115  26.504  1.00  0.00     0.044 C 
ATOM     24  C   UNL A   1      32.970  27.113  26.129  1.00  0.00    -0.047 A 
ATOM     25  C   UNL A   1      31.658  27.567  26.129  1.00  0.00     0.023 A 
ATOM     26  C   UNL A   1      33.218  25.711  26.051  1.00  0.00     0.036 A 
ATOM     27  C   UNL A   1      30.657  26.622  26.147  1.00  0.00     0.112 A 
ATOM     28  N   UNL A   1      30.872  25.290  26.269  1.00  0.00    -0.253 NA
ENDBRANCH  20  22
ENDBRANCH   9  20
ENDBRANCH   7   8
ENDBRANCH   5   7
ENDBRANCH   4   5
ENDBRANCH   3   4
ENDBRANCH   2   3
ENDBRANCH   1   2
BRANCH   1  29
ATOM     29  C   UNL A   1      37.940  23.405  25.778  1.00  0.00     0.202 C 
BRANCH  29  30
ATOM     30  C   UNL A   1      37.937  21.875  25.822  1.00  0.00     0.261 C 
BRANCH  30  31
ATOM     31  O   UNL A   1      39.225  21.457  25.450  1.00  0.00    -0.460 OA
BRANCH  31  32
ATOM     32  C   UNL A   1      39.721  20.224  25.644  1.00  0.00     0.338 C 
ATOM     33  O   UNL A   1      39.255  19.136  25.375  1.00  0.00    -0.246 OA
BRANCH  32  34
ATOM     34  C   UNL A   1      41.019  20.629  26.223  1.00  0.00     0.060 A 
ATOM     35  C   UNL A   1      40.966  20.579  27.626  1.00  0.00     0.016 A 
ATOM     36  C   UNL A   1      41.596  21.723  25.553  1.00  0.00     0.016 A 
ATOM     37  C   UNL A   1      41.148  21.764  28.311  1.00  0.00     0.010 A 
ATOM     38  C   UNL A   1      41.830  22.899  26.260  1.00  0.00     0.010 A 
ATOM     39  C   UNL A   1      41.540  22.933  27.623  1.00  0.00    -0.014 A 
BRANCH  39  40
ATOM     40  C   UNL A   1      42.005  24.004  28.492  1.00  0.00     0.031 A 
ATOM     41  C   UNL A   1      41.111  25.177  28.328  1.00  0.00     0.074 A 
ATOM     42  C   UNL A   1      43.030  24.073  29.355  1.00  0.00     0.049 A 
ATOM     43  N   UNL A   1      41.360  26.253  27.662  1.00  0.00    -0.248 NA
ATOM     44  C   UNL A   1      39.708  24.997  28.727  1.00  0.00     0.031 C 
ATOM     45  C   UNL A   1      43.866  23.027  29.931  1.00  0.00     0.029 A 
ATOM     46  N   UNL A   1      43.486  25.208  29.956  1.00  0.00    -0.354 N 
ATOM     47  C   UNL A   1      40.166  26.954  27.645  1.00  0.00     0.074 A 
ATOM     48  C   UNL A   1      39.154  26.063  28.158  1.00  0.00     0.031 C 
ATOM     49  C   UNL A   1      44.577  23.555  30.962  1.00  0.00     0.029 A 
ATOM     50  C   UNL A   1      44.357  24.995  31.008  1.00  0.00     0.049 A 
ATOM     51  H   UNL A   1      43.218  26.108  29.664  1.00  0.00     0.167 HD
ATOM     52  C   UNL A   1      40.100  28.280  27.362  1.00  0.00     0.031 A 
ATOM     53  C   UNL A   1      44.773  25.944  31.884  1.00  0.00     0.031 A 
ATOM     54  C   UNL A   1      41.299  28.769  26.742  1.00  0.00     0.049 A 
ATOM     55  C   UNL A   1      44.599  27.269  31.228  1.00  0.00     0.074 A 
ATOM     56  C   UNL A   1      41.923  28.532  25.534  1.00  0.00     0.029 A 
ATOM     57  N   UNL A   1      42.242  29.352  27.554  1.00  0.00    -0.354 N 
ATOM     58  N   UNL A   1      45.292  27.669  30.198  1.00  0.00    -0.248 NA
ATOM     59  C   UNL A   1      43.370  28.010  31.477  1.00  0.00     0.031 C 
ATOM     60  C   UNL A   1      43.317  28.570  25.821  1.00  0.00     0.029 A 
ATOM     61  C   UNL A   1      43.467  28.857  27.181  1.00  0.00     0.049 A 
ATOM     62  H   UNL A   1      42.071  30.003  28.272  1.00  0.00     0.167 HD
ATOM     63  C   UNL A   1      44.409  28.432  29.445  1.00  0.00     0.074 A 
ATOM     64  C   UNL A   1      43.275  28.681  30.328  1.00  0.00     0.031 C 
ATOM     65  C   UNL A   1      44.559  28.573  28.096  1.00  0.00     0.031 A 
BRANCH  52  66
ATOM     66  C   UNL A   1      39.038  29.165  27.941  1.00  0.00    -0.014 A 
ATOM     67  C   UNL A   1      39.284  30.011  29.044  1.00  0.00     0.010 A 
ATOM     68  C   UNL A   1      37.824  29.338  27.256  1.00  0.00     0.010 A 
ATOM     69  C   UNL A   1      38.355  30.946  29.484  1.00  0.00     0.020 A 
ATOM     70  C   UNL A   1      36.903  30.316  27.657  1.00  0.00     0.020 A 
ATOM     71  C   UNL A   1      37.173  31.104  28.777  1.00  0.00     0.054 A 
BRANCH  71  72
ATOM     72  S   UNL A   1      36.058  32.423  29.303  1.00  0.00     0.124 S 
ATOM     73  O   UNL A   1      36.530  32.691  30.658  1.00  0.00    -0.237 OA
ATOM     74  O   UNL A   1      36.329  33.471  28.323  1.00  0.00    -0.237 OA
ATOM     75  O   UNL A   1      34.736  31.810  29.209  1.00  0.00    -0.744 OA
ENDBRANCH  71  72
ENDBRANCH  52  66
BRANCH  53  76
ATOM     76  C   UNL A   1      44.847  25.816  33.363  1.00  0.00    -0.014 A 
ATOM     77  C   UNL A   1      43.847  25.104  34.054  1.00  0.00     0.010 A 
ATOM     78  C   UNL A   1      45.695  26.656  34.113  1.00  0.00     0.010 A 
ATOM     79  C   UNL A   1      43.643  25.284  35.426  1.00  0.00     0.020 A 
ATOM     80  C   UNL A   1      45.494  26.844  35.491  1.00  0.00     0.020 A 
ATOM     81  C   UNL A   1      44.442  26.184  36.128  1.00  0.00     0.054 A 
BRANCH  81  82
ATOM     82  S   UNL A   1      44.014  26.538  37.857  1.00  0.00     0.124 S 
ATOM     83  O   UNL A   1      44.811  25.548  38.575  1.00  0.00    -0.237 OA
ATOM     84  O   UNL A   1      44.450  27.924  38.012  1.00  0.00    -0.237 OA
ATOM     85  O   UNL A   1      42.568  26.334  37.906  1.00  0.00    -0.744 OA
ENDBRANCH  81  82
ENDBRANCH  53  76
BRANCH  65  86
ATOM     86  C   UNL A   1      45.853  28.129  27.447  1.00  0.00    -0.014 A 
ATOM     87  C   UNL A   1      45.945  26.785  27.039  1.00  0.00     0.010 A 
ATOM     88  C   UNL A   1      47.025  28.911  27.456  1.00  0.00     0.010 A 
ATOM     89  C   UNL A   1      47.178  26.215  26.716  1.00  0.00     0.020 A 
ATOM     90  C   UNL A   1      48.263  28.350  27.107  1.00  0.00     0.020 A 
ATOM     91  C   UNL A   1      48.335  26.994  26.777  1.00  0.00     0.054 A 
BRANCH  91  92
ATOM     92  S   UNL A   1      49.932  26.186  26.482  1.00  0.00     0.124 S 
ATOM     93  O   UNL A   1      49.798  25.741  25.096  1.00  0.00    -0.237 OA
ATOM     94  O   UNL A   1      50.889  27.268  26.702  1.00  0.00    -0.237 OA
ATOM     95  O   UNL A   1      49.970  25.113  27.474  1.00  0.00    -0.744 OA
ENDBRANCH  91  92
ENDBRANCH  65  86
ENDBRANCH  39  40
ENDBRANCH  32  34
ENDBRANCH  31  32
ENDBRANCH  30  31
ENDBRANCH  29  30
ENDBRANCH   1  29
TORSDOF 20
ENDMDL
MODEL 2
REMARK VINA RESULT:     -11.6      2.903      7.011
REMARK SMILES Cc1ccnc(C(=O)c2[nH]c3cc(Cl)c(F)cc3c2CC(=O)OCCOCCOC(=O)c2ccc(-c3c4nc(c(-c5ccc(S(=O)(=O)[O-])cc5)c5ccc([nH]5)c(-c5ccc(S(=O)(=O)[O-])cc5)c5nc(c(-c6ccc(S(=O)(=O)[O-])cc6)c6ccc3[nH]6)C=C5)C=C4)cc2)c1
REMARK SMILES IDX 26 1 25 2 24 3 23 4 21 5 22 6 20 7 19 8 9 9 10 10 11 11
REMARK SMILES IDX 18 13 12 14 17 15 13 16 15 17 14 18 16 19 7 20 8 21 6 22
REMARK SMILES IDX 1 23 2 24 3 25 92 26 4 27 5 28 27 29 28 30 29 31 30 32 31 33
REMARK SMILES IDX 32 34 33 35 91 36 34 37 90 38 35 39 36 40 37 41 84 42 38 43
REMARK SMILES IDX 89 44 83 45 85 46 39 47 88 48 82 49 81 50 40 52 70 53 51 54
REMARK SMILES IDX 69 55 52 56 55 57 68 58 86 59 53 60 54 61 67 63 87 64 56 65
REMARK SMILES IDX 41 66 42 67 50 68 43 69 49 70 44 71 45 72 46 73 47 74 48 75
REMARK SMILES IDX 71 76 72 77 80 78 73 79 79 80 74 81 75 82 76 83 77 84 78 85
REMARK SMILES IDX 57 86 58 87 66 88 59 89 65 90 60 91 61 92 62 93 63 94 64 95
REMARK H PARENT 10 12 85 51 55 62
REMARK Flexibility Score: inf
ROOT
ATOM      1  O   UNL A   1      37.124  21.796  24.271  1.00  0.00    -0.374 OA
ENDROOT
BRANCH   1   2
ATOM      2  C   UNL A   1      35.738  22.070  24.089  1.00  0.00     0.202 C 
BRANCH   2   3
ATOM      3  C   UNL A   1      35.591  23.377  23.299  1.00  0.00     0.261 C 
BRANCH   3   4
ATOM      4  O   UNL A   1      34.493  23.297  22.333  1.00  0.00    -0.463 OA
BRANCH   4   5
ATOM      5  C   UNL A   1      33.344  23.920  22.697  1.00  0.00     0.310 C 
ATOM      6  O   UNL A   1      33.232  25.143  22.745  1.00  0.00    -0.252 OA
BRANCH   5   7
ATOM      7  C   UNL A   1      32.144  23.013  22.974  1.00  0.00     0.161 C 
BRANCH   7   8
ATOM      8  C   UNL A   1      32.090  22.041  24.159  1.00  0.00     0.000 A 
ATOM      9  C   UNL A   1      32.114  22.254  25.572  1.00  0.00     0.093 A 
ATOM     10  N   UNL A   1      32.464  21.022  26.111  1.00  0.00    -0.351 N 
ATOM     11  C   UNL A   1      32.514  20.025  25.173  1.00  0.00     0.048 A 
ATOM     12  H   UNL A   1      32.655  20.880  27.067  1.00  0.00     0.167 HD
ATOM     13  C   UNL A   1      32.227  20.608  23.945  1.00  0.00     0.007 A 
ATOM     14  C   UNL A   1      32.827  18.665  25.325  1.00  0.00     0.050 A 
ATOM     15  C   UNL A   1      32.213  19.772  22.802  1.00  0.00     0.051 A 
ATOM     16  C   UNL A   1      32.810  17.863  24.180  1.00  0.00     0.078 A 
ATOM     17  C   UNL A   1      32.494  18.409  22.942  1.00  0.00     0.142 A 
ATOM     18  Cl  UNL A   1      33.205  16.190  24.330  1.00  0.00    -0.081 Cl
ATOM     19  F   UNL A   1      32.477  17.633  21.847  1.00  0.00    -0.205 F 
BRANCH   9  20
ATOM     20  C   UNL A   1      32.137  23.410  26.505  1.00  0.00     0.227 C 
ATOM     21  O   UNL A   1      32.030  23.180  27.712  1.00  0.00    -0.285 OA
BRANCH  20  22
ATOM     22  C   UNL A   1      32.116  24.900  26.108  1.00  0.00     0.113 A 
ATOM     23  C   UNL A   1      33.784  28.237  26.774  1.00  0.00     0.044 C 
ATOM     24  C   UNL A   1      32.893  27.199  26.131  1.00  0.00    -0.047 A 
ATOM     25  C   UNL A   1      31.628  27.616  25.742  1.00  0.00     0.023 A 
ATOM     26  C   UNL A   1      33.184  25.804  26.163  1.00  0.00     0.036 A 
ATOM     27  C   UNL A   1      30.685  26.644  25.494  1.00  0.00     0.112 A 
ATOM     28  N   UNL A   1      30.885  25.320  25.704  1.00  0.00    -0.253 NA
ENDBRANCH  20  22
ENDBRANCH   9  20
ENDBRANCH   7   8
ENDBRANCH   5   7
ENDBRANCH   4   5
ENDBRANCH   3   4
ENDBRANCH   2   3
ENDBRANCH   1   2
BRANCH   1  29
ATOM     29  C   UNL A   1      37.574  22.148  25.570  1.00  0.00     0.202 C 
BRANCH  29  30
ATOM     30  C   UNL A   1      38.787  21.344  26.040  1.00  0.00     0.261 C 
BRANCH  30  31
ATOM     31  O   UNL A   1      39.865  22.241  26.115  1.00  0.00    -0.460 OA
BRANCH  31  32
ATOM     32  C   UNL A   1      40.703  22.355  27.158  1.00  0.00     0.338 C 
ATOM     33  O   UNL A   1      40.979  21.564  28.036  1.00  0.00    -0.246 OA
BRANCH  32  34
ATOM     34  C   UNL A   1      41.211  23.708  26.848  1.00  0.00     0.060 A 
ATOM     35  C   UNL A   1      42.184  24.092  27.785  1.00  0.00     0.016 A 
ATOM     36  C   UNL A   1      40.192  24.592  26.448  1.00  0.00     0.016 A 
ATOM     37  C   UNL A   1      41.910  25.197  28.567  1.00  0.00     0.010 A 
ATOM     38  C   UNL A   1      39.955  25.735  27.206  1.00  0.00     0.010 A 
ATOM     39  C   UNL A   1      40.775  25.994  28.304  1.00  0.00    -0.014 A 
BRANCH  39  40
ATOM     40  C   UNL A   1      40.787  27.284  28.980  1.00  0.00     0.031 A 
ATOM     41  C   UNL A   1      41.923  28.085  28.462  1.00  0.00     0.074 A 
ATOM     42  C   UNL A   1      39.979  27.811  29.912  1.00  0.00     0.049 A 
ATOM     43  N   UNL A   1      43.049  28.302  29.052  1.00  0.00    -0.248 NA
ATOM     44  C   UNL A   1      41.881  28.445  27.038  1.00  0.00     0.031 C 
ATOM     45  C   UNL A   1      38.660  27.400  30.377  1.00  0.00     0.029 A 
ATOM     46  N   UNL A   1      40.221  28.952  30.617  1.00  0.00    -0.354 N 
ATOM     47  C   UNL A   1      43.840  28.930  28.105  1.00  0.00     0.074 A 
ATOM     48  C   UNL A   1      43.138  28.835  26.848  1.00  0.00     0.031 C 
ATOM     49  C   UNL A   1      38.129  28.404  31.124  1.00  0.00     0.029 A 
ATOM     50  C   UNL A   1      39.131  29.445  31.310  1.00  0.00     0.049 A 
ATOM     51  H   UNL A   1      41.102  29.390  30.633  1.00  0.00     0.167 HD
ATOM     52  C   UNL A   1      44.952  29.637  28.432  1.00  0.00     0.031 A 
ATOM     53  C   UNL A   1      39.067  30.664  31.904  1.00  0.00     0.031 A 
ATOM     54  C   UNL A   1      45.408  29.356  29.764  1.00  0.00     0.049 A 
ATOM     55  C   UNL A   1      40.463  31.116  32.157  1.00  0.00     0.074 A 
ATOM     56  C   UNL A   1      45.920  28.237  30.390  1.00  0.00     0.029 A 
ATOM     57  N   UNL A   1      45.006  30.206  30.765  1.00  0.00    -0.354 N 
ATOM     58  N   UNL A   1      41.269  30.549  33.011  1.00  0.00    -0.248 NA
ATOM     59  C   UNL A   1      41.106  31.968  31.166  1.00  0.00     0.031 C 
ATOM     60  C   UNL A   1      45.396  28.278  31.712  1.00  0.00     0.029 A 
ATOM     61  C   UNL A   1      44.616  29.432  31.830  1.00  0.00     0.049 A 
ATOM     62  H   UNL A   1      44.998  31.190  30.726  1.00  0.00     0.167 HD
ATOM     63  C   UNL A   1      42.529  30.646  32.437  1.00  0.00     0.074 A 
ATOM     64  C   UNL A   1      42.378  31.608  31.351  1.00  0.00     0.031 C 
ATOM     65  C   UNL A   1      43.517  29.748  32.725  1.00  0.00     0.031 A 
BRANCH  52  66
ATOM     66  C   UNL A   1      45.423  30.802  27.616  1.00  0.00    -0.014 A 
ATOM     67  C   UNL A   1      44.667  31.987  27.491  1.00  0.00     0.010 A 
ATOM     68  C   UNL A   1      46.742  30.826  27.132  1.00  0.00     0.010 A 
ATOM     69  C   UNL A   1      45.167  33.125  26.870  1.00  0.00     0.020 A 
ATOM     70  C   UNL A   1      47.276  31.986  26.553  1.00  0.00     0.020 A 
ATOM     71  C   UNL A   1      46.478  33.122  26.417  1.00  0.00     0.054 A 
BRANCH  71  72
ATOM     72  S   UNL A   1      47.127  34.666  25.740  1.00  0.00     0.124 S 
ATOM     73  O   UNL A   1      46.225  34.903  24.617  1.00  0.00    -0.237 OA
ATOM     74  O   UNL A   1      46.986  35.585  26.866  1.00  0.00    -0.237 OA
ATOM     75  O   UNL A   1      48.502  34.329  25.381  1.00  0.00    -0.744 OA
ENDBRANCH  71  72
ENDBRANCH  52  66
BRANCH  53  76
ATOM     76  C   UNL A   1      37.943  31.633  31.823  1.00  0.00    -0.014 A 
ATOM     77  C   UNL A   1      38.067  32.899  32.428  1.00  0.00     0.010 A 
ATOM     78  C   UNL A   1      36.653  31.202  31.453  1.00  0.00     0.010 A 
ATOM     79  C   UNL A   1      36.941  33.673  32.730  1.00  0.00     0.020 A 
ATOM     80  C   UNL A   1      35.517  31.974  31.756  1.00  0.00     0.020 A 
ATOM     81  C   UNL A   1      35.670  33.187  32.429  1.00  0.00     0.054 A 
BRANCH  81  82
ATOM     82  S   UNL A   1      34.234  34.127  33.018  1.00  0.00     0.124 S 
ATOM     83  O   UNL A   1      34.772  34.791  34.202  1.00  0.00    -0.237 OA
ATOM     84  O   UNL A   1      33.945  35.004  31.885  1.00  0.00    -0.237 OA
ATOM     85  O   UNL A   1      33.228  33.100  33.279  1.00  0.00    -0.744 OA
ENDBRANCH  81  82
ENDBRANCH  53  76
BRANCH  65  86
ATOM     86  C   UNL A   1      43.333  28.800  33.891  1.00  0.00    -0.014 A 
ATOM     87  C   UNL A   1      42.882  27.498  33.604  1.00  0.00     0.010 A 
ATOM     88  C   UNL A   1      43.355  29.223  35.236  1.00  0.00     0.010 A 
ATOM     89  C   UNL A   1      42.402  26.664  34.615  1.00  0.00     0.020 A 
ATOM     90  C   UNL A   1      42.899  28.378  36.259  1.00  0.00     0.020 A 
ATOM     91  C   UNL A   1      42.388  27.119  35.935  1.00  0.00     0.054 A 
BRANCH  91  92
ATOM     92  S   UNL A   1      41.633  26.060  37.199  1.00  0.00     0.124 S 
ATOM     93  O   UNL A   1      40.441  26.822  37.565  1.00  0.00    -0.237 OA
ATOM     94  O   UNL A   1      41.382  24.817  36.474  1.00  0.00    -0.237 OA
ATOM     95  O   UNL A   1      42.655  25.975  38.241  1.00  0.00    -0.744 OA
ENDBRANCH  91  92
ENDBRANCH  65  86
ENDBRANCH  39  40
ENDBRANCH  32  34
ENDBRANCH  31  32
ENDBRANCH  30  31
ENDBRANCH  29  30
ENDBRANCH   1  29
TORSDOF 20
ENDMDL
MODEL 3
REMARK VINA RESULT:     -10.9      2.199      3.803
REMARK SMILES Cc1ccnc(C(=O)c2[nH]c3cc(Cl)c(F)cc3c2CC(=O)OCCOCCOC(=O)c2ccc(-c3c4nc(c(-c5ccc(S(=O)(=O)[O-])cc5)c5ccc([nH]5)c(-c5ccc(S(=O)(=O)[O-])cc5)c5nc(c(-c6ccc(S(=O)(=O)[O-])cc6)c6ccc3[nH]6)C=C5)C=C4)cc2)c1
REMARK SMILES IDX 26 1 25 2 24 3 23 4 21 5 22 6 20 7 19 8 9 9 10 10 11 11
REMARK SMILES IDX 18 13 12 14 17 15 13 16 15 17 14 18 16 19 7 20 8 21 6 22
REMARK SMILES IDX 1 23 2 24 3 25 92 26 4 27 5 28 27 29 28 30 29 31 30 32 31 33
REMARK SMILES IDX 32 34 33 35 91 36 34 37 90 38 35 39 36 40 37 41 84 42 38 43
REMARK SMILES IDX 89 44 83 45 85 46 39 47 88 48 82 49 81 50 40 52 70 53 51 54
REMARK SMILES IDX 69 55 52 56 55 57 68 58 86 59 53 60 54 61 67 63 87 64 56 65
REMARK SMILES IDX 41 66 42 67 50 68 43 69 49 70 44 71 45 72 46 73 47 74 48 75
REMARK SMILES IDX 71 76 72 77 80 78 73 79 79 80 74 81 75 82 76 83 77 84 78 85
REMARK SMILES IDX 57 86 58 87 66 88 59 89 65 90 60 91 61 92 62 93 63 94 64 95
REMARK H PARENT 10 12 85 51 55 62
REMARK Flexibility Score: inf
ROOT
ATOM      1  O   UNL A   1      35.823  22.475  25.052  1.00  0.00    -0.374 OA
ENDROOT
BRANCH   1   2
ATOM      2  C   UNL A   1      35.394  22.372  23.698  1.00  0.00     0.202 C 
BRANCH   2   3
ATOM      3  C   UNL A   1      34.799  23.717  23.262  1.00  0.00     0.261 C 
BRANCH   3   4
ATOM      4  O   UNL A   1      33.919  23.561  22.103  1.00  0.00    -0.463 OA
BRANCH   4   5
ATOM      5  C   UNL A   1      33.106  24.615  21.836  1.00  0.00     0.310 C 
ATOM      6  O   UNL A   1      33.315  25.404  20.917  1.00  0.00    -0.252 OA
BRANCH   5   7
ATOM      7  C   UNL A   1      31.848  24.731  22.698  1.00  0.00     0.161 C 
BRANCH   7   8
ATOM      8  C   UNL A   1      31.893  24.971  24.212  1.00  0.00     0.000 A 
ATOM      9  C   UNL A   1      31.629  24.115  25.324  1.00  0.00     0.093 A 
ATOM     10  N   UNL A   1      31.418  24.975  26.394  1.00  0.00    -0.351 N 
ATOM     11  C   UNL A   1      31.675  26.284  26.082  1.00  0.00     0.048 A 
ATOM     12  H   UNL A   1      31.117  24.676  27.282  1.00  0.00     0.167 HD
ATOM     13  C   UNL A   1      32.033  26.320  24.740  1.00  0.00     0.007 A 
ATOM     14  C   UNL A   1      31.578  27.432  26.883  1.00  0.00     0.050 A 
ATOM     15  C   UNL A   1      32.354  27.577  24.174  1.00  0.00     0.051 A 
ATOM     16  C   UNL A   1      31.896  28.661  26.299  1.00  0.00     0.078 A 
ATOM     17  C   UNL A   1      32.291  28.727  24.969  1.00  0.00     0.142 A 
ATOM     18  Cl  UNL A   1      31.772  30.094  27.252  1.00  0.00    -0.081 Cl
ATOM     19  F   UNL A   1      32.598  29.910  24.413  1.00  0.00    -0.205 F 
BRANCH   9  20
ATOM     20  C   UNL A   1      31.276  22.689  25.548  1.00  0.00     0.227 C 
ATOM     21  O   UNL A   1      30.293  22.441  26.251  1.00  0.00    -0.285 OA
BRANCH  20  22
ATOM     22  C   UNL A   1      32.114  21.466  25.123  1.00  0.00     0.113 A 
ATOM     23  C   UNL A   1      32.212  18.553  22.701  1.00  0.00     0.044 C 
ATOM     24  C   UNL A   1      32.659  19.532  23.763  1.00  0.00    -0.047 A 
ATOM     25  C   UNL A   1      33.397  19.015  24.818  1.00  0.00     0.023 A 
ATOM     26  C   UNL A   1      32.137  20.854  23.863  1.00  0.00     0.036 A 
ATOM     27  C   UNL A   1      33.509  19.784  25.955  1.00  0.00     0.112 A 
ATOM     28  N   UNL A   1      32.861  20.959  26.143  1.00  0.00    -0.253 NA
ENDBRANCH  20  22
ENDBRANCH   9  20
ENDBRANCH   7   8
ENDBRANCH   5   7
ENDBRANCH   4   5
ENDBRANCH   3   4
ENDBRANCH   2   3
ENDBRANCH   1   2
BRANCH   1  29
ATOM     29  C   UNL A   1      36.823  21.521  25.372  1.00  0.00     0.202 C 
BRANCH  29  30
ATOM     30  C   UNL A   1      38.244  22.090  25.354  1.00  0.00     0.261 C 
BRANCH  30  31
ATOM     31  O   UNL A   1      39.011  21.293  26.219  1.00  0.00    -0.460 OA
BRANCH  31  32
ATOM     32  C   UNL A   1      39.712  20.209  25.849  1.00  0.00     0.338 C 
ATOM     33  O   UNL A   1      39.365  19.213  25.247  1.00  0.00    -0.246 OA
BRANCH  32  34
ATOM     34  C   UNL A   1      41.028  20.652  26.354  1.00  0.00     0.060 A 
ATOM     35  C   UNL A   1      41.049  20.623  27.759  1.00  0.00     0.016 A 
ATOM     36  C   UNL A   1      41.545  21.747  25.638  1.00  0.00     0.016 A 
ATOM     37  C   UNL A   1      41.239  21.823  28.415  1.00  0.00     0.010 A 
ATOM     38  C   UNL A   1      41.789  22.939  26.314  1.00  0.00     0.010 A 
ATOM     39  C   UNL A   1      41.568  22.989  27.690  1.00  0.00    -0.014 A 
BRANCH  39  40
ATOM     40  C   UNL A   1      42.053  24.084  28.517  1.00  0.00     0.031 A 
ATOM     41  C   UNL A   1      41.139  25.242  28.362  1.00  0.00     0.074 A 
ATOM     42  C   UNL A   1      43.109  24.183  29.339  1.00  0.00     0.049 A 
ATOM     43  N   UNL A   1      41.351  26.307  27.665  1.00  0.00    -0.248 NA
ATOM     44  C   UNL A   1      39.756  25.056  28.819  1.00  0.00     0.031 C 
ATOM     45  C   UNL A   1      43.979  23.159  29.905  1.00  0.00     0.029 A 
ATOM     46  N   UNL A   1      43.574  25.336  29.898  1.00  0.00    -0.354 N 
ATOM     47  C   UNL A   1      40.148  26.994  27.678  1.00  0.00     0.074 A 
ATOM     48  C   UNL A   1      39.167  26.103  28.248  1.00  0.00     0.031 C 
ATOM     49  C   UNL A   1      44.723  23.718  30.896  1.00  0.00     0.029 A 
ATOM     50  C   UNL A   1      44.487  25.155  30.920  1.00  0.00     0.049 A 
ATOM     51  H   UNL A   1      43.284  26.227  29.597  1.00  0.00     0.167 HD
ATOM     52  C   UNL A   1      40.055  28.313  27.370  1.00  0.00     0.031 A 
ATOM     53  C   UNL A   1      44.925  26.129  31.759  1.00  0.00     0.031 A 
ATOM     54  C   UNL A   1      41.224  28.801  26.694  1.00  0.00     0.049 A 
ATOM     55  C   UNL A   1      44.710  27.437  31.082  1.00  0.00     0.074 A 
ATOM     56  C   UNL A   1      41.805  28.544  25.468  1.00  0.00     0.029 A 
ATOM     57  N   UNL A   1      42.190  29.412  27.456  1.00  0.00    -0.354 N 
ATOM     58  N   UNL A   1      45.358  27.822  30.018  1.00  0.00    -0.248 NA
ATOM     59  C   UNL A   1      43.482  28.169  31.362  1.00  0.00     0.031 C 
ATOM     60  C   UNL A   1      43.208  28.605  25.701  1.00  0.00     0.029 A 
ATOM     61  C   UNL A   1      43.406  28.923  27.048  1.00  0.00     0.049 A 
ATOM     62  H   UNL A   1      42.039  30.077  28.166  1.00  0.00     0.167 HD
ATOM     63  C   UNL A   1      44.439  28.558  29.283  1.00  0.00     0.074 A 
ATOM     64  C   UNL A   1      43.335  28.814  30.203  1.00  0.00     0.031 C 
ATOM     65  C   UNL A   1      44.536  28.672  27.926  1.00  0.00     0.031 A 
BRANCH  52  66
ATOM     66  C   UNL A   1      39.006  29.198  27.970  1.00  0.00    -0.014 A 
ATOM     67  C   UNL A   1      39.243  29.964  29.132  1.00  0.00     0.010 A 
ATOM     68  C   UNL A   1      37.823  29.458  27.259  1.00  0.00     0.010 A 
ATOM     69  C   UNL A   1      38.333  30.903  29.601  1.00  0.00     0.020 A 
ATOM     70  C   UNL A   1      36.923  30.442  27.692  1.00  0.00     0.020 A 
ATOM     71  C   UNL A   1      37.182  31.148  28.867  1.00  0.00     0.054 A 
BRANCH  71  72
ATOM     72  S   UNL A   1      36.096  32.472  29.441  1.00  0.00     0.124 S 
ATOM     73  O   UNL A   1      36.472  32.578  30.848  1.00  0.00    -0.237 OA
ATOM     74  O   UNL A   1      36.496  33.593  28.595  1.00  0.00    -0.237 OA
ATOM     75  O   UNL A   1      34.756  31.948  29.187  1.00  0.00    -0.744 OA
ENDBRANCH  71  72
ENDBRANCH  52  66
BRANCH  53  76
ATOM     76  C   UNL A   1      45.057  26.033  33.237  1.00  0.00    -0.014 A 
ATOM     77  C   UNL A   1      46.337  25.980  33.822  1.00  0.00     0.010 A 
ATOM     78  C   UNL A   1      43.952  25.664  34.031  1.00  0.00     0.010 A 
ATOM     79  C   UNL A   1      46.522  25.498  35.122  1.00  0.00     0.020 A 
ATOM     80  C   UNL A   1      44.131  25.176  35.337  1.00  0.00     0.020 A 
ATOM     81  C   UNL A   1      45.421  25.060  35.857  1.00  0.00     0.054 A 
BRANCH  81  82
ATOM     82  S   UNL A   1      45.726  24.256  37.456  1.00  0.00     0.124 S 
ATOM     83  O   UNL A   1      45.367  22.870  37.171  1.00  0.00    -0.237 OA
ATOM     84  O   UNL A   1      47.151  24.503  37.665  1.00  0.00    -0.237 OA
ATOM     85  O   UNL A   1      44.834  24.959  38.374  1.00  0.00    -0.744 OA
ENDBRANCH  81  82
ENDBRANCH  53  76
BRANCH  65  86
ATOM     86  C   UNL A   1      45.809  28.227  27.238  1.00  0.00    -0.014 A 
ATOM     87  C   UNL A   1      45.967  26.851  26.992  1.00  0.00     0.010 A 
ATOM     88  C   UNL A   1      46.922  29.074  27.061  1.00  0.00     0.010 A 
ATOM     89  C   UNL A   1      47.211  26.320  26.646  1.00  0.00     0.020 A 
ATOM     90  C   UNL A   1      48.168  28.550  26.687  1.00  0.00     0.020 A 
ATOM     91  C   UNL A   1      48.311  27.170  26.521  1.00  0.00     0.054 A 
BRANCH  91  92
ATOM     92  S   UNL A   1      49.936  26.428  26.204  1.00  0.00     0.124 S 
ATOM     93  O   UNL A   1      49.856  25.179  26.957  1.00  0.00    -0.237 OA
ATOM     94  O   UNL A   1      49.948  26.283  24.750  1.00  0.00    -0.237 OA
ATOM     95  O   UNL A   1      50.880  27.410  26.736  1.00  0.00    -0.744 OA
ENDBRANCH  91  92
ENDBRANCH  65  86
ENDBRANCH  39  40
ENDBRANCH  32  34
ENDBRANCH  31  32
ENDBRANCH  30  31
ENDBRANCH  29  30
ENDBRANCH   1  29
TORSDOF 20
ENDMDL
