MODEL 1
REMARK VINA RESULT:      -9.8      0.000      0.000
REMARK SMILES CC(C)c1cc(OCC(=O)OCCOCCOC(=O)c2ccc(-c3c4nc(c(-c5ccc(S(=O)(=O)[O-])cc5)c5ccc([nH]5)c(-c5ccc(S(=O)(=O)[O-])cc5)c5nc(c(-c6ccc(S(=O)(=O)[O-])cc6)c6ccc3[nH]6)C=C5)C=C4)cc2)nc(Nc2ccc(F)cc2F)n1
REMARK SMILES IDX 13 1 12 2 11 3 9 4 10 5 8 6 7 7 6 8 4 9 5 10 91 11 81 12
REMARK SMILES IDX 80 13 2 14 1 15 3 16 82 17 83 19 84 20 89 21 85 22 88 23
REMARK SMILES IDX 90 24 86 25 87 26 14 27 15 28 16 29 17 30 18 31 19 32 20 33
REMARK SMILES IDX 21 34 79 35 22 36 78 37 23 38 24 39 25 40 72 41 26 42 77 43
REMARK SMILES IDX 71 44 73 45 27 46 76 47 70 48 69 49 28 51 58 52 39 53 57 54
REMARK SMILES IDX 40 55 43 56 56 57 74 58 41 59 42 60 55 62 75 63 44 64 29 65
REMARK SMILES IDX 30 66 38 67 31 68 37 69 32 70 33 71 34 72 35 73 36 74 59 75
REMARK SMILES IDX 60 76 68 77 61 78 67 79 62 80 63 81 64 82 65 83 66 84 45 85
REMARK SMILES IDX 46 86 54 87 47 88 53 89 48 90 49 91 50 92 51 93 52 94
REMARK H PARENT 82 18 73 50 43 61
REMARK Flexibility Score: inf
ROOT
ATOM      1  C   UNL A   1      34.051  28.864  25.983  1.00  0.00     0.202 C 
ENDROOT
BRANCH   1   2
ATOM      2  C   UNL A   1      33.232  28.921  24.682  1.00  0.00     0.261 C 
BRANCH   2   3
ATOM      3  O   UNL A   1      33.219  27.653  23.985  1.00  0.00    -0.461 OA
BRANCH   3   4
ATOM      4  C   UNL A   1      33.576  27.666  22.671  1.00  0.00     0.344 C 
ATOM      5  O   UNL A   1      34.265  28.523  22.132  1.00  0.00    -0.248 OA
BRANCH   4   6
ATOM      6  C   UNL A   1      33.006  26.470  21.902  1.00  0.00     0.353 C 
BRANCH   6   7
ATOM      7  O   UNL A   1      33.750  25.270  21.847  1.00  0.00    -0.466 OA
BRANCH   7   8
ATOM      8  C   UNL A   1      33.811  24.424  22.916  1.00  0.00     0.218 A 
ATOM      9  C   UNL A   1      32.977  23.041  24.627  1.00  0.00     0.052 A 
ATOM     10  C   UNL A   1      32.767  24.108  23.768  1.00  0.00     0.092 A 
ATOM     11  N   UNL A   1      34.182  22.446  24.708  1.00  0.00    -0.217 NA
ATOM     12  C   UNL A   1      35.161  22.840  23.885  1.00  0.00     0.230 A 
ATOM     13  N   UNL A   1      35.009  23.813  22.984  1.00  0.00    -0.177 NA
BRANCH   9  14
ATOM     14  C   UNL A   1      31.900  22.327  25.427  1.00  0.00     0.032 C 
ATOM     15  C   UNL A   1      32.036  20.812  25.314  1.00  0.00     0.014 C 
ATOM     16  C   UNL A   1      31.721  22.745  26.887  1.00  0.00     0.014 C 
ENDBRANCH   9  14
BRANCH  12  17
ATOM     17  N   UNL A   1      36.404  22.220  23.965  1.00  0.00    -0.322 N 
ATOM     18  H   UNL A   1      36.606  21.544  23.278  1.00  0.00     0.170 HD
BRANCH  17  19
ATOM     19  C   UNL A   1      37.397  22.460  24.923  1.00  0.00     0.077 A 
ATOM     20  C   UNL A   1      37.547  23.748  25.451  1.00  0.00     0.032 A 
ATOM     21  C   UNL A   1      38.291  21.459  25.344  1.00  0.00     0.149 A 
ATOM     22  C   UNL A   1      38.512  24.003  26.431  1.00  0.00     0.041 A 
ATOM     23  C   UNL A   1      39.266  21.709  26.305  1.00  0.00     0.080 A 
ATOM     24  F   UNL A   1      38.232  20.233  24.802  1.00  0.00    -0.205 F 
ATOM     25  C   UNL A   1      39.356  22.981  26.852  1.00  0.00     0.126 A 
ATOM     26  F   UNL A   1      40.269  23.231  27.799  1.00  0.00    -0.207 F 
ENDBRANCH  17  19
ENDBRANCH  12  17
ENDBRANCH   7   8
ENDBRANCH   6   7
ENDBRANCH   4   6
ENDBRANCH   3   4
ENDBRANCH   2   3
ENDBRANCH   1   2
BRANCH   1  27
ATOM     27  O   UNL A   1      33.936  30.027  26.804  1.00  0.00    -0.374 OA
BRANCH  27  28
ATOM     28  C   UNL A   1      34.708  29.965  28.000  1.00  0.00     0.202 C 
BRANCH  28  29
ATOM     29  C   UNL A   1      36.145  30.438  27.826  1.00  0.00     0.261 C 
BRANCH  29  30
ATOM     30  O   UNL A   1      36.975  29.278  27.864  1.00  0.00    -0.460 OA
BRANCH  30  31
ATOM     31  C   UNL A   1      37.663  29.135  29.008  1.00  0.00     0.338 C 
ATOM     32  O   UNL A   1      37.234  28.793  30.100  1.00  0.00    -0.246 OA
BRANCH  31  33
ATOM     33  C   UNL A   1      39.091  29.250  28.685  1.00  0.00     0.060 A 
ATOM     34  C   UNL A   1      39.423  29.232  27.329  1.00  0.00     0.016 A 
ATOM     35  C   UNL A   1      40.076  29.388  29.672  1.00  0.00     0.016 A 
ATOM     36  C   UNL A   1      40.754  29.259  26.953  1.00  0.00     0.010 A 
ATOM     37  C   UNL A   1      41.414  29.427  29.293  1.00  0.00     0.010 A 
ATOM     38  C   UNL A   1      41.750  29.305  27.936  1.00  0.00    -0.014 A 
BRANCH  38  39
ATOM     39  C   UNL A   1      43.139  29.029  27.530  1.00  0.00     0.031 A 
ATOM     40  C   UNL A   1      44.155  30.122  27.697  1.00  0.00     0.074 A 
ATOM     41  C   UNL A   1      43.481  27.800  27.111  1.00  0.00     0.049 A 
ATOM     42  N   UNL A   1      45.443  30.090  27.483  1.00  0.00    -0.248 NA
ATOM     43  C   UNL A   1      43.656  31.426  28.170  1.00  0.00     0.031 C 
ATOM     44  C   UNL A   1      42.558  26.674  26.958  1.00  0.00     0.029 A 
ATOM     45  N   UNL A   1      44.699  27.291  26.753  1.00  0.00    -0.354 N 
ATOM     46  C   UNL A   1      45.905  31.363  27.791  1.00  0.00     0.074 A 
ATOM     47  C   UNL A   1      44.760  32.158  28.171  1.00  0.00     0.031 C 
ATOM     48  C   UNL A   1      43.249  25.598  26.545  1.00  0.00     0.029 A 
ATOM     49  C   UNL A   1      44.652  25.970  26.382  1.00  0.00     0.049 A 
ATOM     50  H   UNL A   1      45.528  27.820  26.762  1.00  0.00     0.167 HD
ATOM     51  C   UNL A   1      47.177  31.823  27.768  1.00  0.00     0.031 A 
ATOM     52  C   UNL A   1      45.638  25.161  25.950  1.00  0.00     0.031 A 
ATOM     53  C   UNL A   1      48.299  31.015  27.376  1.00  0.00     0.049 A 
ATOM     54  C   UNL A   1      47.037  25.711  25.883  1.00  0.00     0.074 A 
ATOM     55  C   UNL A   1      49.635  31.364  27.321  1.00  0.00     0.029 A 
ATOM     56  N   UNL A   1      48.208  29.693  26.964  1.00  0.00    -0.354 N 
ATOM     57  N   UNL A   1      47.466  26.909  26.206  1.00  0.00    -0.248 NA
ATOM     58  C   UNL A   1      48.084  24.800  25.407  1.00  0.00     0.031 C 
ATOM     59  C   UNL A   1      50.347  30.268  26.821  1.00  0.00     0.029 A 
ATOM     60  C   UNL A   1      49.462  29.217  26.626  1.00  0.00     0.049 A 
ATOM     61  H   UNL A   1      47.375  29.171  26.919  1.00  0.00     0.167 HD
ATOM     62  C   UNL A   1      48.839  26.890  25.992  1.00  0.00     0.074 A 
ATOM     63  C   UNL A   1      49.168  25.555  25.530  1.00  0.00     0.031 C 
ATOM     64  C   UNL A   1      49.749  27.882  26.163  1.00  0.00     0.031 A 
BRANCH  51  65
ATOM     65  C   UNL A   1      47.405  33.264  28.139  1.00  0.00    -0.014 A 
ATOM     66  C   UNL A   1      47.674  33.646  29.467  1.00  0.00     0.010 A 
ATOM     67  C   UNL A   1      47.368  34.252  27.139  1.00  0.00     0.010 A 
ATOM     68  C   UNL A   1      47.866  34.992  29.792  1.00  0.00     0.020 A 
ATOM     69  C   UNL A   1      47.585  35.596  27.455  1.00  0.00     0.020 A 
ATOM     70  C   UNL A   1      47.819  35.960  28.784  1.00  0.00     0.054 A 
BRANCH  70  71
ATOM     71  S   UNL A   1      48.097  37.696  29.228  1.00  0.00     0.124 S 
ATOM     72  O   UNL A   1      46.931  38.350  28.638  1.00  0.00    -0.237 OA
ATOM     73  O   UNL A   1      48.121  37.654  30.688  1.00  0.00    -0.237 OA
ATOM     74  O   UNL A   1      49.374  38.016  28.596  1.00  0.00    -0.744 OA
ENDBRANCH  70  71
ENDBRANCH  51  65
BRANCH  52  75
ATOM     75  C   UNL A   1      45.326  23.763  25.547  1.00  0.00    -0.014 A 
ATOM     76  C   UNL A   1      44.969  23.454  24.224  1.00  0.00     0.010 A 
ATOM     77  C   UNL A   1      45.413  22.723  26.492  1.00  0.00     0.010 A 
ATOM     78  C   UNL A   1      44.688  22.134  23.857  1.00  0.00     0.020 A 
ATOM     79  C   UNL A   1      45.161  21.399  26.123  1.00  0.00     0.020 A 
ATOM     80  C   UNL A   1      44.790  21.114  24.807  1.00  0.00     0.054 A 
BRANCH  80  81
ATOM     81  S   UNL A   1      44.475  19.402  24.296  1.00  0.00     0.124 S 
ATOM     82  O   UNL A   1      43.156  19.152  24.867  1.00  0.00    -0.237 OA
ATOM     83  O   UNL A   1      44.529  19.493  22.839  1.00  0.00    -0.237 OA
ATOM     84  O   UNL A   1      45.574  18.656  24.907  1.00  0.00    -0.744 OA
ENDBRANCH  80  81
ENDBRANCH  52  75
BRANCH  64  85
ATOM     85  C   UNL A   1      51.187  27.549  25.872  1.00  0.00    -0.014 A 
ATOM     86  C   UNL A   1      51.760  27.833  24.620  1.00  0.00     0.010 A 
ATOM     87  C   UNL A   1      51.989  27.001  26.890  1.00  0.00     0.010 A 
ATOM     88  C   UNL A   1      53.104  27.543  24.382  1.00  0.00     0.020 A 
ATOM     89  C   UNL A   1      53.340  26.738  26.663  1.00  0.00     0.020 A 
ATOM     90  C   UNL A   1      53.885  26.997  25.404  1.00  0.00     0.054 A 
BRANCH  90  91
ATOM     91  S   UNL A   1      55.639  26.671  25.082  1.00  0.00     0.124 S 
ATOM     92  O   UNL A   1      55.838  25.389  25.754  1.00  0.00    -0.237 OA
ATOM     93  O   UNL A   1      55.695  26.630  23.622  1.00  0.00    -0.237 OA
ATOM     94  O   UNL A   1      56.322  27.809  25.694  1.00  0.00    -0.744 OA
ENDBRANCH  90  91
ENDBRANCH  64  85
ENDBRANCH  38  39
ENDBRANCH  31  33
ENDBRANCH  30  31
ENDBRANCH  29  30
ENDBRANCH  28  29
ENDBRANCH  27  28
ENDBRANCH   1  27
TORSDOF 22
ENDMDL
MODEL 2
REMARK VINA RESULT:      -9.7      1.604      8.159
REMARK SMILES CC(C)c1cc(OCC(=O)OCCOCCOC(=O)c2ccc(-c3c4nc(c(-c5ccc(S(=O)(=O)[O-])cc5)c5ccc([nH]5)c(-c5ccc(S(=O)(=O)[O-])cc5)c5nc(c(-c6ccc(S(=O)(=O)[O-])cc6)c6ccc3[nH]6)C=C5)C=C4)cc2)nc(Nc2ccc(F)cc2F)n1
REMARK SMILES IDX 13 1 12 2 11 3 9 4 10 5 8 6 7 7 6 8 4 9 5 10 91 11 81 12
REMARK SMILES IDX 80 13 2 14 1 15 3 16 82 17 83 19 84 20 89 21 85 22 88 23
REMARK SMILES IDX 90 24 86 25 87 26 14 27 15 28 16 29 17 30 18 31 19 32 20 33
REMARK SMILES IDX 21 34 79 35 22 36 78 37 23 38 24 39 25 40 72 41 26 42 77 43
REMARK SMILES IDX 71 44 73 45 27 46 76 47 70 48 69 49 28 51 58 52 39 53 57 54
REMARK SMILES IDX 40 55 43 56 56 57 74 58 41 59 42 60 55 62 75 63 44 64 29 65
REMARK SMILES IDX 30 66 38 67 31 68 37 69 32 70 33 71 34 72 35 73 36 74 59 75
REMARK SMILES IDX 60 76 68 77 61 78 67 79 62 80 63 81 64 82 65 83 66 84 45 85
REMARK SMILES IDX 46 86 54 87 47 88 53 89 48 90 49 91 50 92 51 93 52 94
REMARK H PARENT 82 18 73 50 43 61
REMARK Flexibility Score: inf
ROOT
ATOM      1  C   UNL A   1      32.925  29.190  25.527  1.00  0.00     0.202 C 
ENDROOT
BRANCH   1   2
ATOM      2  C   UNL A   1      31.919  29.339  24.373  1.00  0.00     0.261 C 
BRANCH   2   3
ATOM      3  O   UNL A   1      31.017  28.211  24.281  1.00  0.00    -0.461 OA
BRANCH   3   4
ATOM      4  C   UNL A   1      30.517  27.917  23.049  1.00  0.00     0.344 C 
ATOM      5  O   UNL A   1      29.454  28.327  22.599  1.00  0.00    -0.248 OA
BRANCH   4   6
ATOM      6  C   UNL A   1      31.438  26.985  22.256  1.00  0.00     0.353 C 
BRANCH   6   7
ATOM      7  O   UNL A   1      31.346  25.590  22.461  1.00  0.00    -0.466 OA
BRANCH   7   8
ATOM      8  C   UNL A   1      31.984  24.982  23.504  1.00  0.00     0.218 A 
ATOM      9  C   UNL A   1      32.184  23.966  25.615  1.00  0.00     0.052 A 
ATOM     10  C   UNL A   1      31.487  24.829  24.786  1.00  0.00     0.092 A 
ATOM     11  N   UNL A   1      33.351  23.421  25.222  1.00  0.00    -0.217 NA
ATOM     12  C   UNL A   1      33.795  23.656  23.982  1.00  0.00     0.230 A 
ATOM     13  N   UNL A   1      33.140  24.420  23.105  1.00  0.00    -0.177 NA
BRANCH   9  14
ATOM     14  C   UNL A   1      31.678  23.411  26.938  1.00  0.00     0.032 C 
ATOM     15  C   UNL A   1      30.308  22.760  26.780  1.00  0.00     0.014 C 
ATOM     16  C   UNL A   1      32.623  22.498  27.719  1.00  0.00     0.014 C 
ENDBRANCH   9  14
BRANCH  12  17
ATOM     17  N   UNL A   1      34.997  23.088  23.574  1.00  0.00    -0.322 N 
ATOM     18  H   UNL A   1      35.066  22.831  22.625  1.00  0.00     0.170 HD
BRANCH  17  19
ATOM     19  C   UNL A   1      36.120  22.844  24.375  1.00  0.00     0.077 A 
ATOM     20  C   UNL A   1      36.739  21.588  24.329  1.00  0.00     0.032 A 
ATOM     21  C   UNL A   1      36.628  23.803  25.269  1.00  0.00     0.149 A 
ATOM     22  C   UNL A   1      37.879  21.331  25.097  1.00  0.00     0.041 A 
ATOM     23  C   UNL A   1      37.751  23.550  26.051  1.00  0.00     0.080 A 
ATOM     24  F   UNL A   1      36.015  24.990  25.402  1.00  0.00    -0.205 F 
ATOM     25  C   UNL A   1      38.376  22.317  25.943  1.00  0.00     0.126 A 
ATOM     26  F   UNL A   1      39.476  22.067  26.666  1.00  0.00    -0.207 F 
ENDBRANCH  17  19
ENDBRANCH  12  17
ENDBRANCH   7   8
ENDBRANCH   6   7
ENDBRANCH   4   6
ENDBRANCH   3   4
ENDBRANCH   2   3
ENDBRANCH   1   2
BRANCH   1  27
ATOM     27  O   UNL A   1      33.104  30.371  26.310  1.00  0.00    -0.374 OA
BRANCH  27  28
ATOM     28  C   UNL A   1      33.724  30.138  27.571  1.00  0.00     0.202 C 
BRANCH  28  29
ATOM     29  C   UNL A   1      35.175  30.596  27.634  1.00  0.00     0.261 C 
BRANCH  29  30
ATOM     30  O   UNL A   1      35.964  29.446  27.933  1.00  0.00    -0.460 OA
BRANCH  30  31
ATOM     31  C   UNL A   1      36.516  29.465  29.157  1.00  0.00     0.338 C 
ATOM     32  O   UNL A   1      35.956  29.303  30.231  1.00  0.00    -0.246 OA
BRANCH  31  33
ATOM     33  C   UNL A   1      37.974  29.502  28.987  1.00  0.00     0.060 A 
ATOM     34  C   UNL A   1      38.448  29.407  27.677  1.00  0.00     0.016 A 
ATOM     35  C   UNL A   1      38.854  29.640  30.069  1.00  0.00     0.016 A 
ATOM     36  C   UNL A   1      39.811  29.357  27.447  1.00  0.00     0.010 A 
ATOM     37  C   UNL A   1      40.225  29.602  29.836  1.00  0.00     0.010 A 
ATOM     38  C   UNL A   1      40.698  29.404  28.530  1.00  0.00    -0.014 A 
BRANCH  38  39
ATOM     39  C   UNL A   1      42.106  29.047  28.289  1.00  0.00     0.031 A 
ATOM     40  C   UNL A   1      42.426  27.621  27.946  1.00  0.00     0.074 A 
ATOM     41  C   UNL A   1      43.048  30.005  28.294  1.00  0.00     0.049 A 
ATOM     42  N   UNL A   1      43.574  27.089  27.620  1.00  0.00    -0.248 NA
ATOM     43  C   UNL A   1      41.305  26.664  27.969  1.00  0.00     0.031 C 
ATOM     44  C   UNL A   1      42.811  31.420  28.582  1.00  0.00     0.029 A 
ATOM     45  N   UNL A   1      44.389  29.932  28.034  1.00  0.00    -0.354 N 
ATOM     46  C   UNL A   1      43.313  25.742  27.404  1.00  0.00     0.074 A 
ATOM     47  C   UNL A   1      41.910  25.525  27.670  1.00  0.00     0.031 C 
ATOM     48  C   UNL A   1      43.972  32.087  28.471  1.00  0.00     0.029 A 
ATOM     49  C   UNL A   1      45.031  31.141  28.132  1.00  0.00     0.049 A 
ATOM     50  H   UNL A   1      44.848  29.094  27.798  1.00  0.00     0.167 HD
ATOM     51  C   UNL A   1      44.171  24.774  27.008  1.00  0.00     0.031 A 
ATOM     52  C   UNL A   1      46.334  31.441  27.972  1.00  0.00     0.031 A 
ATOM     53  C   UNL A   1      45.566  25.012  26.759  1.00  0.00     0.049 A 
ATOM     54  C   UNL A   1      47.279  30.336  27.583  1.00  0.00     0.074 A 
ATOM     55  C   UNL A   1      46.533  24.117  26.344  1.00  0.00     0.029 A 
ATOM     56  N   UNL A   1      46.192  26.242  26.911  1.00  0.00    -0.354 N 
ATOM     57  N   UNL A   1      47.015  29.071  27.352  1.00  0.00    -0.248 NA
ATOM     58  C   UNL A   1      48.691  30.699  27.419  1.00  0.00     0.031 C 
ATOM     59  C   UNL A   1      47.757  24.793  26.300  1.00  0.00     0.029 A 
ATOM     60  C   UNL A   1      47.540  26.124  26.625  1.00  0.00     0.049 A 
ATOM     61  H   UNL A   1      45.743  27.074  27.182  1.00  0.00     0.167 HD
ATOM     62  C   UNL A   1      48.226  28.490  26.995  1.00  0.00     0.074 A 
ATOM     63  C   UNL A   1      49.217  29.548  27.023  1.00  0.00     0.031 C 
ATOM     64  C   UNL A   1      48.497  27.200  26.670  1.00  0.00     0.031 A 
BRANCH  51  65
ATOM     65  C   UNL A   1      43.628  23.377  26.860  1.00  0.00    -0.014 A 
ATOM     66  C   UNL A   1      43.173  22.647  27.974  1.00  0.00     0.010 A 
ATOM     67  C   UNL A   1      43.556  22.792  25.584  1.00  0.00     0.010 A 
ATOM     68  C   UNL A   1      42.688  21.344  27.817  1.00  0.00     0.020 A 
ATOM     69  C   UNL A   1      43.048  21.500  25.419  1.00  0.00     0.020 A 
ATOM     70  C   UNL A   1      42.631  20.778  26.539  1.00  0.00     0.054 A 
BRANCH  70  71
ATOM     71  S   UNL A   1      41.975  19.097  26.360  1.00  0.00     0.124 S 
ATOM     72  O   UNL A   1      42.005  18.612  27.738  1.00  0.00    -0.237 OA
ATOM     73  O   UNL A   1      40.644  19.329  25.805  1.00  0.00    -0.237 OA
ATOM     74  O   UNL A   1      42.920  18.450  25.453  1.00  0.00    -0.744 OA
ENDBRANCH  70  71
ENDBRANCH  51  65
BRANCH  52  75
ATOM     75  C   UNL A   1      46.807  32.834  28.190  1.00  0.00    -0.014 A 
ATOM     76  C   UNL A   1      47.235  33.264  29.458  1.00  0.00     0.010 A 
ATOM     77  C   UNL A   1      46.854  33.738  27.111  1.00  0.00     0.010 A 
ATOM     78  C   UNL A   1      47.687  34.574  29.645  1.00  0.00     0.020 A 
ATOM     79  C   UNL A   1      47.331  35.039  27.288  1.00  0.00     0.020 A 
ATOM     80  C   UNL A   1      47.735  35.453  28.558  1.00  0.00     0.054 A 
BRANCH  80  81
ATOM     81  S   UNL A   1      48.376  37.131  28.813  1.00  0.00     0.124 S 
ATOM     82  O   UNL A   1      48.427  37.647  27.449  1.00  0.00    -0.237 OA
ATOM     83  O   UNL A   1      47.363  37.727  29.679  1.00  0.00    -0.237 OA
ATOM     84  O   UNL A   1      49.674  36.908  29.447  1.00  0.00    -0.744 OA
ENDBRANCH  80  81
ENDBRANCH  52  75
BRANCH  64  85
ATOM     85  C   UNL A   1      49.917  26.874  26.296  1.00  0.00    -0.014 A 
ATOM     86  C   UNL A   1      50.816  26.348  27.241  1.00  0.00     0.010 A 
ATOM     87  C   UNL A   1      50.337  27.040  24.963  1.00  0.00     0.010 A 
ATOM     88  C   UNL A   1      52.120  26.024  26.865  1.00  0.00     0.020 A 
ATOM     89  C   UNL A   1      51.631  26.689  24.579  1.00  0.00     0.020 A 
ATOM     90  C   UNL A   1      52.520  26.197  25.537  1.00  0.00     0.054 A 
BRANCH  90  91
ATOM     91  S   UNL A   1      54.205  25.727  25.066  1.00  0.00     0.124 S 
ATOM     92  O   UNL A   1      54.258  24.328  25.483  1.00  0.00    -0.237 OA
ATOM     93  O   UNL A   1      54.211  25.953  23.622  1.00  0.00    -0.237 OA
ATOM     94  O   UNL A   1      55.048  26.640  25.835  1.00  0.00    -0.744 OA
ENDBRANCH  90  91
ENDBRANCH  64  85
ENDBRANCH  38  39
ENDBRANCH  31  33
ENDBRANCH  30  31
ENDBRANCH  29  30
ENDBRANCH  28  29
ENDBRANCH  27  28
ENDBRANCH   1  27
TORSDOF 22
ENDMDL
MODEL 3
REMARK VINA RESULT:      -9.6      5.715      7.379
REMARK SMILES CC(C)c1cc(OCC(=O)OCCOCCOC(=O)c2ccc(-c3c4nc(c(-c5ccc(S(=O)(=O)[O-])cc5)c5ccc([nH]5)c(-c5ccc(S(=O)(=O)[O-])cc5)c5nc(c(-c6ccc(S(=O)(=O)[O-])cc6)c6ccc3[nH]6)C=C5)C=C4)cc2)nc(Nc2ccc(F)cc2F)n1
REMARK SMILES IDX 13 1 12 2 11 3 9 4 10 5 8 6 7 7 6 8 4 9 5 10 91 11 81 12
REMARK SMILES IDX 80 13 2 14 1 15 3 16 82 17 83 19 84 20 89 21 85 22 88 23
REMARK SMILES IDX 90 24 86 25 87 26 14 27 15 28 16 29 17 30 18 31 19 32 20 33
REMARK SMILES IDX 21 34 79 35 22 36 78 37 23 38 24 39 25 40 72 41 26 42 77 43
REMARK SMILES IDX 71 44 73 45 27 46 76 47 70 48 69 49 28 51 58 52 39 53 57 54
REMARK SMILES IDX 40 55 43 56 56 57 74 58 41 59 42 60 55 62 75 63 44 64 29 65
REMARK SMILES IDX 30 66 38 67 31 68 37 69 32 70 33 71 34 72 35 73 36 74 59 75
REMARK SMILES IDX 60 76 68 77 61 78 67 79 62 80 63 81 64 82 65 83 66 84 45 85
REMARK SMILES IDX 46 86 54 87 47 88 53 89 48 90 49 91 50 92 51 93 52 94
REMARK H PARENT 82 18 73 50 43 61
REMARK Flexibility Score: inf
ROOT
ATOM      1  C   UNL A   1      31.678  27.799  26.117  1.00  0.00     0.202 C 
ENDROOT
BRANCH   1   2
ATOM      2  C   UNL A   1      31.241  26.816  25.018  1.00  0.00     0.261 C 
BRANCH   2   3
ATOM      3  O   UNL A   1      32.355  26.068  24.475  1.00  0.00    -0.461 OA
BRANCH   3   4
ATOM      4  C   UNL A   1      32.673  26.292  23.170  1.00  0.00     0.344 C 
ATOM      5  O   UNL A   1      33.181  27.316  22.730  1.00  0.00    -0.248 OA
BRANCH   4   6
ATOM      6  C   UNL A   1      32.313  25.105  22.272  1.00  0.00     0.353 C 
BRANCH   6   7
ATOM      7  O   UNL A   1      33.341  24.246  21.823  1.00  0.00    -0.466 OA
BRANCH   7   8
ATOM      8  C   UNL A   1      33.844  23.263  22.624  1.00  0.00     0.218 A 
ATOM      9  C   UNL A   1      35.276  22.304  24.226  1.00  0.00     0.052 A 
ATOM     10  C   UNL A   1      35.070  23.282  23.266  1.00  0.00     0.092 A 
ATOM     11  N   UNL A   1      34.375  21.321  24.416  1.00  0.00    -0.217 NA
ATOM     12  C   UNL A   1      33.232  21.342  23.721  1.00  0.00     0.230 A 
ATOM     13  N   UNL A   1      32.937  22.291  22.830  1.00  0.00    -0.177 NA
BRANCH   9  14
ATOM     14  C   UNL A   1      36.395  22.300  25.255  1.00  0.00     0.032 C 
ATOM     15  C   UNL A   1      37.421  21.211  24.956  1.00  0.00     0.014 C 
ATOM     16  C   UNL A   1      37.091  23.633  25.536  1.00  0.00     0.014 C 
ENDBRANCH   9  14
BRANCH  12  17
ATOM     17  N   UNL A   1      32.299  20.329  23.922  1.00  0.00    -0.322 N 
ATOM     18  H   UNL A   1      31.350  20.580  23.843  1.00  0.00     0.170 HD
BRANCH  17  19
ATOM     19  C   UNL A   1      32.573  18.989  24.224  1.00  0.00     0.077 A 
ATOM     20  C   UNL A   1      32.662  18.591  25.564  1.00  0.00     0.032 A 
ATOM     21  C   UNL A   1      32.813  18.028  23.227  1.00  0.00     0.149 A 
ATOM     22  C   UNL A   1      32.905  17.253  25.890  1.00  0.00     0.041 A 
ATOM     23  C   UNL A   1      33.073  16.697  23.542  1.00  0.00     0.080 A 
ATOM     24  F   UNL A   1      32.816  18.386  21.933  1.00  0.00    -0.205 F 
ATOM     25  C   UNL A   1      33.100  16.320  24.877  1.00  0.00     0.126 A 
ATOM     26  F   UNL A   1      33.320  15.038  25.198  1.00  0.00    -0.207 F 
ENDBRANCH  17  19
ENDBRANCH  12  17
ENDBRANCH   7   8
ENDBRANCH   6   7
ENDBRANCH   4   6
ENDBRANCH   3   4
ENDBRANCH   2   3
ENDBRANCH   1   2
BRANCH   1  27
ATOM     27  O   UNL A   1      31.783  29.157  25.686  1.00  0.00    -0.374 OA
BRANCH  27  28
ATOM     28  C   UNL A   1      33.112  29.559  25.367  1.00  0.00     0.202 C 
BRANCH  28  29
ATOM     29  C   UNL A   1      34.164  29.012  26.323  1.00  0.00     0.261 C 
BRANCH  29  30
ATOM     30  O   UNL A   1      33.993  29.691  27.566  1.00  0.00    -0.460 OA
BRANCH  30  31
ATOM     31  C   UNL A   1      34.648  30.860  27.645  1.00  0.00     0.338 C 
ATOM     32  O   UNL A   1      34.294  31.945  27.208  1.00  0.00    -0.246 OA
BRANCH  31  33
ATOM     33  C   UNL A   1      35.788  30.671  28.550  1.00  0.00     0.060 A 
ATOM     34  C   UNL A   1      36.854  31.560  28.398  1.00  0.00     0.016 A 
ATOM     35  C   UNL A   1      35.813  29.669  29.529  1.00  0.00     0.016 A 
ATOM     36  C   UNL A   1      37.995  31.395  29.162  1.00  0.00     0.010 A 
ATOM     37  C   UNL A   1      36.956  29.510  30.308  1.00  0.00     0.010 A 
ATOM     38  C   UNL A   1      38.065  30.340  30.081  1.00  0.00    -0.014 A 
BRANCH  38  39
ATOM     39  C   UNL A   1      39.380  30.005  30.654  1.00  0.00     0.031 A 
ATOM     40  C   UNL A   1      39.792  30.688  31.926  1.00  0.00     0.074 A 
ATOM     41  C   UNL A   1      40.133  29.048  30.086  1.00  0.00     0.049 A 
ATOM     42  N   UNL A   1      40.861  30.501  32.653  1.00  0.00    -0.248 NA
ATOM     43  C   UNL A   1      38.877  31.717  32.454  1.00  0.00     0.031 C 
ATOM     44  C   UNL A   1      39.785  28.312  28.870  1.00  0.00     0.029 A 
ATOM     45  N   UNL A   1      41.336  28.523  30.468  1.00  0.00    -0.354 N 
ATOM     46  C   UNL A   1      40.748  31.388  33.717  1.00  0.00     0.074 A 
ATOM     47  C   UNL A   1      39.529  32.140  33.526  1.00  0.00     0.031 C 
ATOM     48  C   UNL A   1      40.753  27.418  28.610  1.00  0.00     0.029 A 
ATOM     49  C   UNL A   1      41.796  27.541  29.626  1.00  0.00     0.049 A 
ATOM     50  H   UNL A   1      41.825  28.819  31.269  1.00  0.00     0.167 HD
ATOM     51  C   UNL A   1      41.586  31.550  34.766  1.00  0.00     0.031 A 
ATOM     52  C   UNL A   1      42.939  26.830  29.673  1.00  0.00     0.031 A 
ATOM     53  C   UNL A   1      42.799  30.798  34.929  1.00  0.00     0.049 A 
ATOM     54  C   UNL A   1      43.881  27.066  30.822  1.00  0.00     0.074 A 
ATOM     55  C   UNL A   1      43.724  30.864  35.953  1.00  0.00     0.029 A 
ATOM     56  N   UNL A   1      43.256  29.841  34.033  1.00  0.00    -0.354 N 
ATOM     57  N   UNL A   1      43.749  27.887  31.838  1.00  0.00    -0.248 NA
ATOM     58  C   UNL A   1      45.116  26.275  30.839  1.00  0.00     0.031 C 
ATOM     59  C   UNL A   1      44.771  29.987  35.647  1.00  0.00     0.029 A 
ATOM     60  C   UNL A   1      44.465  29.327  34.465  1.00  0.00     0.049 A 
ATOM     61  H   UNL A   1      42.788  29.568  33.211  1.00  0.00     0.167 HD
ATOM     62  C   UNL A   1      44.875  27.695  32.629  1.00  0.00     0.074 A 
ATOM     63  C   UNL A   1      45.667  26.668  31.980  1.00  0.00     0.031 C 
ATOM     64  C   UNL A   1      45.227  28.309  33.787  1.00  0.00     0.031 A 
BRANCH  51  65
ATOM     65  C   UNL A   1      41.234  32.602  35.785  1.00  0.00    -0.014 A 
ATOM     66  C   UNL A   1      40.467  32.292  36.923  1.00  0.00     0.010 A 
ATOM     67  C   UNL A   1      41.694  33.919  35.609  1.00  0.00     0.010 A 
ATOM     68  C   UNL A   1      40.137  33.288  37.848  1.00  0.00     0.020 A 
ATOM     69  C   UNL A   1      41.389  34.912  36.544  1.00  0.00     0.020 A 
ATOM     70  C   UNL A   1      40.599  34.593  37.651  1.00  0.00     0.054 A 
BRANCH  70  71
ATOM     71  S   UNL A   1      40.179  35.861  38.879  1.00  0.00     0.124 S 
ATOM     72  O   UNL A   1      39.140  35.193  39.659  1.00  0.00    -0.237 OA
ATOM     73  O   UNL A   1      41.447  36.070  39.571  1.00  0.00    -0.237 OA
ATOM     74  O   UNL A   1      39.720  36.988  38.071  1.00  0.00    -0.744 OA
ENDBRANCH  70  71
ENDBRANCH  51  65
BRANCH  52  75
ATOM     75  C   UNL A   1      43.245  25.847  28.599  1.00  0.00    -0.014 A 
ATOM     76  C   UNL A   1      42.819  24.512  28.696  1.00  0.00     0.010 A 
ATOM     77  C   UNL A   1      43.950  26.257  27.451  1.00  0.00     0.010 A 
ATOM     78  C   UNL A   1      43.106  23.602  27.673  1.00  0.00     0.020 A 
ATOM     79  C   UNL A   1      44.214  25.359  26.414  1.00  0.00     0.020 A 
ATOM     80  C   UNL A   1      43.798  24.031  26.537  1.00  0.00     0.054 A 
BRANCH  80  81
ATOM     81  S   UNL A   1      44.111  22.847  25.199  1.00  0.00     0.124 S 
ATOM     82  O   UNL A   1      44.955  21.857  25.860  1.00  0.00    -0.237 OA
ATOM     83  O   UNL A   1      42.764  22.402  24.851  1.00  0.00    -0.237 OA
ATOM     84  O   UNL A   1      44.775  23.655  24.177  1.00  0.00    -0.744 OA
ENDBRANCH  80  81
ENDBRANCH  52  75
BRANCH  64  85
ATOM     85  C   UNL A   1      46.509  27.864  34.435  1.00  0.00    -0.014 A 
ATOM     86  C   UNL A   1      46.532  26.787  35.339  1.00  0.00     0.010 A 
ATOM     87  C   UNL A   1      47.717  28.495  34.084  1.00  0.00     0.010 A 
ATOM     88  C   UNL A   1      47.737  26.370  35.905  1.00  0.00     0.020 A 
ATOM     89  C   UNL A   1      48.927  28.062  34.627  1.00  0.00     0.020 A 
ATOM     90  C   UNL A   1      48.927  27.011  35.546  1.00  0.00     0.054 A 
BRANCH  90  91
ATOM     91  S   UNL A   1      50.484  26.423  36.263  1.00  0.00     0.124 S 
ATOM     92  O   UNL A   1      50.036  25.298  37.080  1.00  0.00    -0.237 OA
ATOM     93  O   UNL A   1      51.268  26.068  35.082  1.00  0.00    -0.237 OA
ATOM     94  O   UNL A   1      50.981  27.577  37.009  1.00  0.00    -0.744 OA
ENDBRANCH  90  91
ENDBRANCH  64  85
ENDBRANCH  38  39
ENDBRANCH  31  33
ENDBRANCH  30  31
ENDBRANCH  29  30
ENDBRANCH  28  29
ENDBRANCH  27  28
ENDBRANCH   1  27
TORSDOF 22
ENDMDL
