MODEL 1
REMARK VINA RESULT:     -10.1      0.000      0.000
REMARK SMILES C[C@@H](C(=O)OCCOCCOC(=O)c1ccc(-c2c3nc(c(-c4ccc(S(=O)(=O)[O-])cc4)c4ccc([nH]4)c(-c4ccc(S(=O)(=O)[O-])cc4)c4nc(c(-c5ccc(S(=O)(=O)[O-])cc5)c5ccc2[nH]5)C=C4)C=C3)cc1)c1ccc(C[C@@H]2CCC[C@@H]2O)cc1F
REMARK SMILES IDX 7 1 6 2 5 3 3 4 4 5 2 6 1 7 74 8 75 9 86 10 76 11 85 12
REMARK SMILES IDX 87 13 77 14 78 15 79 16 80 17 83 18 81 19 82 20 84 21 8 23
REMARK SMILES IDX 9 24 10 25 11 26 12 27 13 28 14 29 15 30 73 31 16 32 72 33
REMARK SMILES IDX 17 34 18 35 19 36 66 37 20 38 71 39 65 40 67 41 21 42 70 43
REMARK SMILES IDX 64 44 63 45 22 47 52 48 33 49 51 50 34 51 37 52 50 53 68 54
REMARK SMILES IDX 35 55 36 56 49 58 69 59 38 60 23 61 24 62 32 63 25 64 31 65
REMARK SMILES IDX 26 66 27 67 28 68 29 69 30 70 53 71 54 72 62 73 55 74 61 75
REMARK SMILES IDX 56 76 57 77 58 78 59 79 60 80 39 81 40 82 48 83 41 84 47 85
REMARK SMILES IDX 42 86 43 87 44 88 45 89 46 90
REMARK H PARENT 84 22 67 46 37 57
REMARK Flexibility Score: inf
ROOT
ATOM      1  C   UNL A   1      36.082  22.155  24.963  1.00  0.00     0.202 C 
ENDROOT
BRANCH   1   2
ATOM      2  C   UNL A   1      35.030  21.048  25.075  1.00  0.00     0.261 C 
BRANCH   2   3
ATOM      3  O   UNL A   1      33.906  21.326  24.228  1.00  0.00    -0.463 OA
BRANCH   3   4
ATOM      4  C   UNL A   1      32.702  21.390  24.854  1.00  0.00     0.313 C 
ATOM      5  O   UNL A   1      31.928  20.443  24.956  1.00  0.00    -0.252 OA
BRANCH   4   6
ATOM      6  C   UNL A   1      32.447  22.755  25.506  1.00  0.00     0.129 C 
ATOM      7  C   UNL A   1      31.102  22.790  26.243  1.00  0.00     0.025 C 
BRANCH   6   8
ATOM      8  C   UNL A   1      32.741  23.924  24.560  1.00  0.00     0.002 A 
ATOM      9  C   UNL A   1      33.817  24.783  24.849  1.00  0.00     0.008 A 
ATOM     10  C   UNL A   1      31.954  24.263  23.453  1.00  0.00     0.127 A 
ATOM     11  C   UNL A   1      34.060  25.938  24.101  1.00  0.00     0.004 A 
ATOM     12  C   UNL A   1      32.169  25.440  22.724  1.00  0.00     0.043 A 
ATOM     13  F   UNL A   1      30.933  23.487  23.067  1.00  0.00    -0.207 F 
ATOM     14  C   UNL A   1      33.192  26.324  23.080  1.00  0.00    -0.045 A 
BRANCH  14  15
ATOM     15  C   UNL A   1      33.331  27.671  22.413  1.00  0.00     0.041 C 
BRANCH  15  16
ATOM     16  C   UNL A   1      32.576  28.870  23.044  1.00  0.00     0.022 C 
ATOM     17  C   UNL A   1      32.757  29.052  24.557  1.00  0.00     0.007 C 
ATOM     18  C   UNL A   1      31.050  28.900  22.898  1.00  0.00     0.117 C 
ATOM     19  C   UNL A   1      31.515  28.457  25.229  1.00  0.00     0.003 C 
ATOM     20  C   UNL A   1      30.521  28.149  24.113  1.00  0.00     0.032 C 
BRANCH  18  21
ATOM     21  O   UNL A   1      30.586  28.386  21.667  1.00  0.00    -0.393 OA
ATOM     22  H   UNL A   1      29.822  27.809  21.826  1.00  0.00     0.210 HD
ENDBRANCH  18  21
ENDBRANCH  15  16
ENDBRANCH  14  15
ENDBRANCH   6   8
ENDBRANCH   4   6
ENDBRANCH   3   4
ENDBRANCH   2   3
ENDBRANCH   1   2
BRANCH   1  23
ATOM     23  O   UNL A   1      36.390  22.865  26.163  1.00  0.00    -0.374 OA
BRANCH  23  24
ATOM     24  C   UNL A   1      37.288  23.974  26.070  1.00  0.00     0.202 C 
BRANCH  24  25
ATOM     25  C   UNL A   1      38.789  23.682  26.208  1.00  0.00     0.261 C 
BRANCH  25  26
ATOM     26  O   UNL A   1      39.393  24.356  27.329  1.00  0.00    -0.460 OA
BRANCH  26  27
ATOM     27  C   UNL A   1      39.975  25.541  27.031  1.00  0.00     0.338 C 
ATOM     28  O   UNL A   1      40.497  25.860  25.968  1.00  0.00    -0.246 OA
BRANCH  27  29
ATOM     29  C   UNL A   1      39.742  26.519  28.108  1.00  0.00     0.060 A 
ATOM     30  C   UNL A   1      40.446  27.730  28.048  1.00  0.00     0.016 A 
ATOM     31  C   UNL A   1      38.934  26.224  29.208  1.00  0.00     0.016 A 
ATOM     32  C   UNL A   1      40.381  28.631  29.108  1.00  0.00     0.010 A 
ATOM     33  C   UNL A   1      38.879  27.126  30.278  1.00  0.00     0.010 A 
ATOM     34  C   UNL A   1      39.630  28.315  30.249  1.00  0.00    -0.014 A 
BRANCH  34  35
ATOM     35  C   UNL A   1      39.759  29.163  31.460  1.00  0.00     0.031 A 
ATOM     36  C   UNL A   1      40.904  28.915  32.407  1.00  0.00     0.074 A 
ATOM     37  C   UNL A   1      38.898  30.169  31.693  1.00  0.00     0.049 A 
ATOM     38  N   UNL A   1      41.203  29.531  33.521  1.00  0.00    -0.248 NA
ATOM     39  C   UNL A   1      41.835  27.834  32.047  1.00  0.00     0.031 C 
ATOM     40  C   UNL A   1      37.777  30.540  30.830  1.00  0.00     0.029 A 
ATOM     41  N   UNL A   1      38.834  31.064  32.731  1.00  0.00    -0.354 N 
ATOM     42  C   UNL A   1      42.354  28.911  33.997  1.00  0.00     0.074 A 
ATOM     43  C   UNL A   1      42.680  27.853  33.066  1.00  0.00     0.031 C 
ATOM     44  C   UNL A   1      37.130  31.582  31.381  1.00  0.00     0.029 A 
ATOM     45  C   UNL A   1      37.772  31.933  32.646  1.00  0.00     0.049 A 
ATOM     46  H   UNL A   1      39.486  31.082  33.468  1.00  0.00     0.167 HD
ATOM     47  C   UNL A   1      43.078  29.200  35.105  1.00  0.00     0.031 A 
ATOM     48  C   UNL A   1      37.353  32.889  33.499  1.00  0.00     0.031 A 
ATOM     49  C   UNL A   1      42.743  30.242  36.041  1.00  0.00     0.049 A 
ATOM     50  C   UNL A   1      38.131  33.145  34.763  1.00  0.00     0.074 A 
ATOM     51  C   UNL A   1      43.416  30.613  37.192  1.00  0.00     0.029 A 
ATOM     52  N   UNL A   1      41.639  31.073  35.937  1.00  0.00    -0.354 N 
ATOM     53  N   UNL A   1      39.227  32.560  35.190  1.00  0.00    -0.248 NA
ATOM     54  C   UNL A   1      37.622  34.195  35.656  1.00  0.00     0.031 C 
ATOM     55  C   UNL A   1      42.690  31.636  37.811  1.00  0.00     0.029 A 
ATOM     56  C   UNL A   1      41.597  31.941  37.016  1.00  0.00     0.049 A 
ATOM     57  H   UNL A   1      40.981  31.051  35.205  1.00  0.00     0.167 HD
ATOM     58  C   UNL A   1      39.549  33.189  36.388  1.00  0.00     0.074 A 
ATOM     59  C   UNL A   1      38.542  34.206  36.612  1.00  0.00     0.031 C 
ATOM     60  C   UNL A   1      40.587  32.947  37.228  1.00  0.00     0.031 A 
BRANCH  47  61
ATOM     61  C   UNL A   1      44.289  28.351  35.382  1.00  0.00    -0.014 A 
ATOM     62  C   UNL A   1      45.579  28.789  35.032  1.00  0.00     0.010 A 
ATOM     63  C   UNL A   1      44.138  27.110  36.028  1.00  0.00     0.010 A 
ATOM     64  C   UNL A   1      46.693  27.984  35.288  1.00  0.00     0.020 A 
ATOM     65  C   UNL A   1      45.252  26.314  36.309  1.00  0.00     0.020 A 
ATOM     66  C   UNL A   1      46.521  26.749  35.921  1.00  0.00     0.054 A 
BRANCH  66  67
ATOM     67  S   UNL A   1      47.984  25.729  36.255  1.00  0.00     0.124 S 
ATOM     68  O   UNL A   1      48.587  26.432  37.386  1.00  0.00    -0.237 OA
ATOM     69  O   UNL A   1      47.404  24.425  36.563  1.00  0.00    -0.237 OA
ATOM     70  O   UNL A   1      48.743  25.793  35.009  1.00  0.00    -0.744 OA
ENDBRANCH  66  67
ENDBRANCH  47  61
BRANCH  48  71
ATOM     71  C   UNL A   1      36.118  33.662  33.196  1.00  0.00    -0.014 A 
ATOM     72  C   UNL A   1      36.192  34.950  32.639  1.00  0.00     0.010 A 
ATOM     73  C   UNL A   1      34.854  33.103  33.463  1.00  0.00     0.010 A 
ATOM     74  C   UNL A   1      35.025  35.670  32.366  1.00  0.00     0.020 A 
ATOM     75  C   UNL A   1      33.686  33.809  33.167  1.00  0.00     0.020 A 
ATOM     76  C   UNL A   1      33.779  35.093  32.629  1.00  0.00     0.054 A 
BRANCH  76  77
ATOM     77  S   UNL A   1      32.275  36.021  32.214  1.00  0.00     0.124 S 
ATOM     78  O   UNL A   1      32.445  36.250  30.782  1.00  0.00    -0.237 OA
ATOM     79  O   UNL A   1      31.215  35.088  32.586  1.00  0.00    -0.237 OA
ATOM     80  O   UNL A   1      32.368  37.212  33.054  1.00  0.00    -0.744 OA
ENDBRANCH  76  77
ENDBRANCH  48  71
BRANCH  60  81
ATOM     81  C   UNL A   1      40.710  33.815  38.452  1.00  0.00    -0.014 A 
ATOM     82  C   UNL A   1      41.385  35.047  38.408  1.00  0.00     0.010 A 
ATOM     83  C   UNL A   1      40.088  33.416  39.649  1.00  0.00     0.010 A 
ATOM     84  C   UNL A   1      41.461  35.852  39.548  1.00  0.00     0.020 A 
ATOM     85  C   UNL A   1      40.140  34.230  40.784  1.00  0.00     0.020 A 
ATOM     86  C   UNL A   1      40.839  35.437  40.730  1.00  0.00     0.054 A 
BRANCH  86  87
ATOM     87  S   UNL A   1      40.915  36.518  42.185  1.00  0.00     0.124 S 
ATOM     88  O   UNL A   1      39.745  37.370  41.991  1.00  0.00    -0.237 OA
ATOM     89  O   UNL A   1      40.827  35.572  43.295  1.00  0.00    -0.237 OA
ATOM     90  O   UNL A   1      42.206  37.191  42.049  1.00  0.00    -0.744 OA
ENDBRANCH  86  87
ENDBRANCH  60  81
ENDBRANCH  34  35
ENDBRANCH  27  29
ENDBRANCH  26  27
ENDBRANCH  25  26
ENDBRANCH  24  25
ENDBRANCH  23  24
ENDBRANCH   1  23
TORSDOF 21
ENDMDL
MODEL 2
REMARK VINA RESULT:      -9.6      5.347      6.558
REMARK SMILES C[C@@H](C(=O)OCCOCCOC(=O)c1ccc(-c2c3nc(c(-c4ccc(S(=O)(=O)[O-])cc4)c4ccc([nH]4)c(-c4ccc(S(=O)(=O)[O-])cc4)c4nc(c(-c5ccc(S(=O)(=O)[O-])cc5)c5ccc2[nH]5)C=C4)C=C3)cc1)c1ccc(C[C@@H]2CCC[C@@H]2O)cc1F
REMARK SMILES IDX 7 1 6 2 5 3 3 4 4 5 2 6 1 7 74 8 75 9 86 10 76 11 85 12
REMARK SMILES IDX 87 13 77 14 78 15 79 16 80 17 83 18 81 19 82 20 84 21 8 23
REMARK SMILES IDX 9 24 10 25 11 26 12 27 13 28 14 29 15 30 73 31 16 32 72 33
REMARK SMILES IDX 17 34 18 35 19 36 66 37 20 38 71 39 65 40 67 41 21 42 70 43
REMARK SMILES IDX 64 44 63 45 22 47 52 48 33 49 51 50 34 51 37 52 50 53 68 54
REMARK SMILES IDX 35 55 36 56 49 58 69 59 38 60 23 61 24 62 32 63 25 64 31 65
REMARK SMILES IDX 26 66 27 67 28 68 29 69 30 70 53 71 54 72 62 73 55 74 61 75
REMARK SMILES IDX 56 76 57 77 58 78 59 79 60 80 39 81 40 82 48 83 41 84 47 85
REMARK SMILES IDX 42 86 43 87 44 88 45 89 46 90
REMARK H PARENT 84 22 67 46 37 57
REMARK Flexibility Score: inf
ROOT
ATOM      1  C   UNL A   1      34.874  21.462  25.246  1.00  0.00     0.202 C 
ENDROOT
BRANCH   1   2
ATOM      2  C   UNL A   1      33.738  22.048  24.403  1.00  0.00     0.261 C 
BRANCH   2   3
ATOM      3  O   UNL A   1      32.945  22.958  25.180  1.00  0.00    -0.463 OA
BRANCH   3   4
ATOM      4  C   UNL A   1      32.160  23.807  24.466  1.00  0.00     0.313 C 
ATOM      5  O   UNL A   1      31.587  23.503  23.423  1.00  0.00    -0.252 OA
BRANCH   4   6
ATOM      6  C   UNL A   1      31.986  25.168  25.152  1.00  0.00     0.129 C 
ATOM      7  C   UNL A   1      31.238  25.041  26.485  1.00  0.00     0.025 C 
BRANCH   6   8
ATOM      8  C   UNL A   1      31.493  26.254  24.189  1.00  0.00     0.002 A 
ATOM      9  C   UNL A   1      32.423  27.152  23.637  1.00  0.00     0.008 A 
ATOM     10  C   UNL A   1      30.147  26.481  23.876  1.00  0.00     0.127 A 
ATOM     11  C   UNL A   1      32.024  28.241  22.857  1.00  0.00     0.004 A 
ATOM     12  C   UNL A   1      29.738  27.592  23.127  1.00  0.00     0.043 A 
ATOM     13  F   UNL A   1      29.187  25.658  24.315  1.00  0.00    -0.207 F 
ATOM     14  C   UNL A   1      30.672  28.520  22.658  1.00  0.00    -0.045 A 
BRANCH  14  15
ATOM     15  C   UNL A   1      30.236  29.805  21.997  1.00  0.00     0.041 C 
BRANCH  15  16
ATOM     16  C   UNL A   1      28.816  30.338  22.321  1.00  0.00     0.022 C 
ATOM     17  C   UNL A   1      27.968  30.757  21.113  1.00  0.00     0.007 C 
ATOM     18  C   UNL A   1      28.714  31.570  23.228  1.00  0.00     0.117 C 
ATOM     19  C   UNL A   1      28.061  32.283  21.011  1.00  0.00     0.003 C 
ATOM     20  C   UNL A   1      28.758  32.763  22.281  1.00  0.00     0.032 C 
BRANCH  18  21
ATOM     21  O   UNL A   1      29.696  31.614  24.242  1.00  0.00    -0.393 OA
ATOM     22  H   UNL A   1      30.541  31.293  23.888  1.00  0.00     0.210 HD
ENDBRANCH  18  21
ENDBRANCH  15  16
ENDBRANCH  14  15
ENDBRANCH   6   8
ENDBRANCH   4   6
ENDBRANCH   3   4
ENDBRANCH   2   3
ENDBRANCH   1   2
BRANCH   1  23
ATOM     23  O   UNL A   1      35.545  20.323  24.705  1.00  0.00    -0.374 OA
BRANCH  23  24
ATOM     24  C   UNL A   1      36.941  20.179  24.981  1.00  0.00     0.202 C 
BRANCH  24  25
ATOM     25  C   UNL A   1      37.821  21.430  24.850  1.00  0.00     0.261 C 
BRANCH  25  26
ATOM     26  O   UNL A   1      38.183  21.998  26.123  1.00  0.00    -0.460 OA
BRANCH  26  27
ATOM     27  C   UNL A   1      39.514  22.034  26.370  1.00  0.00     0.338 C 
ATOM     28  O   UNL A   1      40.359  21.237  25.975  1.00  0.00    -0.246 OA
BRANCH  27  29
ATOM     29  C   UNL A   1      39.885  23.292  27.042  1.00  0.00     0.060 A 
ATOM     30  C   UNL A   1      39.274  24.471  26.593  1.00  0.00     0.016 A 
ATOM     31  C   UNL A   1      40.881  23.338  28.019  1.00  0.00     0.016 A 
ATOM     32  C   UNL A   1      39.689  25.705  27.087  1.00  0.00     0.010 A 
ATOM     33  C   UNL A   1      41.305  24.582  28.505  1.00  0.00     0.010 A 
ATOM     34  C   UNL A   1      40.736  25.771  28.015  1.00  0.00    -0.014 A 
BRANCH  34  35
ATOM     35  C   UNL A   1      41.327  27.090  28.350  1.00  0.00     0.031 A 
ATOM     36  C   UNL A   1      42.811  27.288  28.190  1.00  0.00     0.074 A 
ATOM     37  C   UNL A   1      40.550  28.114  28.748  1.00  0.00     0.049 A 
ATOM     38  N   UNL A   1      43.534  28.352  28.427  1.00  0.00    -0.248 NA
ATOM     39  C   UNL A   1      43.580  26.136  27.693  1.00  0.00     0.031 C 
ATOM     40  C   UNL A   1      39.096  28.064  28.898  1.00  0.00     0.029 A 
ATOM     41  N   UNL A   1      40.881  29.398  29.100  1.00  0.00    -0.354 N 
ATOM     42  C   UNL A   1      44.842  27.998  28.112  1.00  0.00     0.074 A 
ATOM     43  C   UNL A   1      44.815  26.613  27.695  1.00  0.00     0.031 C 
ATOM     44  C   UNL A   1      38.661  29.263  29.321  1.00  0.00     0.029 A 
ATOM     45  C   UNL A   1      39.805  30.156  29.498  1.00  0.00     0.049 A 
ATOM     46  H   UNL A   1      41.801  29.745  29.071  1.00  0.00     0.167 HD
ATOM     47  C   UNL A   1      45.962  28.758  28.158  1.00  0.00     0.031 A 
ATOM     48  C   UNL A   1      39.750  31.417  29.971  1.00  0.00     0.031 A 
ATOM     49  C   UNL A   1      45.991  30.131  28.590  1.00  0.00     0.049 A 
ATOM     50  C   UNL A   1      41.018  32.221  30.085  1.00  0.00     0.074 A 
ATOM     51  C   UNL A   1      47.077  30.985  28.670  1.00  0.00     0.029 A 
ATOM     52  N   UNL A   1      44.886  30.848  29.020  1.00  0.00    -0.354 N 
ATOM     53  N   UNL A   1      42.245  31.875  29.766  1.00  0.00    -0.248 NA
ATOM     54  C   UNL A   1      40.895  33.586  30.612  1.00  0.00     0.031 C 
ATOM     55  C   UNL A   1      46.636  32.204  29.197  1.00  0.00     0.029 A 
ATOM     56  C   UNL A   1      45.267  32.126  29.391  1.00  0.00     0.049 A 
ATOM     57  H   UNL A   1      43.966  30.499  29.059  1.00  0.00     0.167 HD
ATOM     58  C   UNL A   1      43.033  32.989  30.034  1.00  0.00     0.074 A 
ATOM     59  C   UNL A   1      42.145  34.023  30.526  1.00  0.00     0.031 C 
ATOM     60  C   UNL A   1      44.373  33.145  29.882  1.00  0.00     0.031 A 
BRANCH  47  61
ATOM     61  C   UNL A   1      47.259  28.105  27.761  1.00  0.00    -0.014 A 
ATOM     62  C   UNL A   1      48.115  27.542  28.724  1.00  0.00     0.010 A 
ATOM     63  C   UNL A   1      47.612  28.028  26.401  1.00  0.00     0.010 A 
ATOM     64  C   UNL A   1      49.320  26.947  28.339  1.00  0.00     0.020 A 
ATOM     65  C   UNL A   1      48.804  27.411  26.010  1.00  0.00     0.020 A 
ATOM     66  C   UNL A   1      49.659  26.890  26.984  1.00  0.00     0.054 A 
BRANCH  66  67
ATOM     67  S   UNL A   1      51.221  26.100  26.509  1.00  0.00     0.124 S 
ATOM     68  O   UNL A   1      52.187  26.826  27.331  1.00  0.00    -0.237 OA
ATOM     69  O   UNL A   1      51.003  24.705  26.881  1.00  0.00    -0.237 OA
ATOM     70  O   UNL A   1      51.314  26.352  25.073  1.00  0.00    -0.744 OA
ENDBRANCH  66  67
ENDBRANCH  47  61
BRANCH  48  71
ATOM     71  C   UNL A   1      38.444  31.991  30.397  1.00  0.00    -0.014 A 
ATOM     72  C   UNL A   1      37.951  31.778  31.695  1.00  0.00     0.010 A 
ATOM     73  C   UNL A   1      37.689  32.765  29.495  1.00  0.00     0.010 A 
ATOM     74  C   UNL A   1      36.719  32.317  32.081  1.00  0.00     0.020 A 
ATOM     75  C   UNL A   1      36.470  33.326  29.886  1.00  0.00     0.020 A 
ATOM     76  C   UNL A   1      35.989  33.090  31.173  1.00  0.00     0.054 A 
BRANCH  76  77
ATOM     77  S   UNL A   1      34.420  33.828  31.712  1.00  0.00     0.124 S 
ATOM     78  O   UNL A   1      33.763  34.109  30.439  1.00  0.00    -0.237 OA
ATOM     79  O   UNL A   1      33.826  32.760  32.511  1.00  0.00    -0.237 OA
ATOM     80  O   UNL A   1      34.841  35.003  32.473  1.00  0.00    -0.744 OA
ENDBRANCH  76  77
ENDBRANCH  48  71
BRANCH  60  81
ATOM     81  C   UNL A   1      44.960  34.488  30.222  1.00  0.00    -0.014 A 
ATOM     82  C   UNL A   1      45.056  35.508  29.259  1.00  0.00     0.010 A 
ATOM     83  C   UNL A   1      45.370  34.751  31.543  1.00  0.00     0.010 A 
ATOM     84  C   UNL A   1      45.578  36.758  29.603  1.00  0.00     0.020 A 
ATOM     85  C   UNL A   1      45.867  36.008  31.896  1.00  0.00     0.020 A 
ATOM     86  C   UNL A   1      45.982  37.000  30.921  1.00  0.00     0.054 A 
BRANCH  86  87
ATOM     87  S   UNL A   1      46.616  38.644  31.353  1.00  0.00     0.124 S 
ATOM     88  O   UNL A   1      46.067  39.472  30.283  1.00  0.00    -0.237 OA
ATOM     89  O   UNL A   1      46.045  38.870  32.679  1.00  0.00    -0.237 OA
ATOM     90  O   UNL A   1      48.067  38.473  31.328  1.00  0.00    -0.744 OA
ENDBRANCH  86  87
ENDBRANCH  60  81
ENDBRANCH  34  35
ENDBRANCH  27  29
ENDBRANCH  26  27
ENDBRANCH  25  26
ENDBRANCH  24  25
ENDBRANCH  23  24
ENDBRANCH   1  23
TORSDOF 21
ENDMDL
MODEL 3
REMARK VINA RESULT:      -9.6      7.228     12.885
REMARK SMILES C[C@@H](C(=O)OCCOCCOC(=O)c1ccc(-c2c3nc(c(-c4ccc(S(=O)(=O)[O-])cc4)c4ccc([nH]4)c(-c4ccc(S(=O)(=O)[O-])cc4)c4nc(c(-c5ccc(S(=O)(=O)[O-])cc5)c5ccc2[nH]5)C=C4)C=C3)cc1)c1ccc(C[C@@H]2CCC[C@@H]2O)cc1F
REMARK SMILES IDX 7 1 6 2 5 3 3 4 4 5 2 6 1 7 74 8 75 9 86 10 76 11 85 12
REMARK SMILES IDX 87 13 77 14 78 15 79 16 80 17 83 18 81 19 82 20 84 21 8 23
REMARK SMILES IDX 9 24 10 25 11 26 12 27 13 28 14 29 15 30 73 31 16 32 72 33
REMARK SMILES IDX 17 34 18 35 19 36 66 37 20 38 71 39 65 40 67 41 21 42 70 43
REMARK SMILES IDX 64 44 63 45 22 47 52 48 33 49 51 50 34 51 37 52 50 53 68 54
REMARK SMILES IDX 35 55 36 56 49 58 69 59 38 60 23 61 24 62 32 63 25 64 31 65
REMARK SMILES IDX 26 66 27 67 28 68 29 69 30 70 53 71 54 72 62 73 55 74 61 75
REMARK SMILES IDX 56 76 57 77 58 78 59 79 60 80 39 81 40 82 48 83 41 84 47 85
REMARK SMILES IDX 42 86 43 87 44 88 45 89 46 90
REMARK H PARENT 84 22 67 46 37 57
REMARK Flexibility Score: inf
ROOT
ATOM      1  C   UNL A   1      34.828  33.354  28.813  1.00  0.00     0.202 C 
ENDROOT
BRANCH   1   2
ATOM      2  C   UNL A   1      35.155  32.154  27.920  1.00  0.00     0.261 C 
BRANCH   2   3
ATOM      3  O   UNL A   1      34.090  31.193  27.947  1.00  0.00    -0.463 OA
BRANCH   3   4
ATOM      4  C   UNL A   1      34.238  30.132  27.111  1.00  0.00     0.313 C 
ATOM      5  O   UNL A   1      35.178  29.344  27.157  1.00  0.00    -0.252 OA
BRANCH   4   6
ATOM      6  C   UNL A   1      33.050  29.965  26.153  1.00  0.00     0.129 C 
ATOM      7  C   UNL A   1      31.746  30.486  26.770  1.00  0.00     0.025 C 
BRANCH   6   8
ATOM      8  C   UNL A   1      32.999  28.572  25.516  1.00  0.00     0.002 A 
ATOM      9  C   UNL A   1      32.380  27.521  26.218  1.00  0.00     0.008 A 
ATOM     10  C   UNL A   1      33.609  28.235  24.302  1.00  0.00     0.127 A 
ATOM     11  C   UNL A   1      32.413  26.204  25.752  1.00  0.00     0.004 A 
ATOM     12  C   UNL A   1      33.678  26.911  23.850  1.00  0.00     0.043 A 
ATOM     13  F   UNL A   1      34.187  29.169  23.536  1.00  0.00    -0.207 F 
ATOM     14  C   UNL A   1      33.130  25.869  24.604  1.00  0.00    -0.045 A 
BRANCH  14  15
ATOM     15  C   UNL A   1      33.341  24.426  24.217  1.00  0.00     0.041 C 
BRANCH  15  16
ATOM     16  C   UNL A   1      32.101  23.494  24.199  1.00  0.00     0.022 C 
ATOM     17  C   UNL A   1      31.781  22.782  25.519  1.00  0.00     0.007 C 
ATOM     18  C   UNL A   1      32.105  22.332  23.199  1.00  0.00     0.117 C 
ATOM     19  C   UNL A   1      32.331  21.356  25.400  1.00  0.00     0.003 C 
ATOM     20  C   UNL A   1      32.752  21.171  23.944  1.00  0.00     0.032 C 
BRANCH  18  21
ATOM     21  O   UNL A   1      32.734  22.639  21.972  1.00  0.00    -0.393 OA
ATOM     22  H   UNL A   1      32.494  21.970  21.311  1.00  0.00     0.210 HD
ENDBRANCH  18  21
ENDBRANCH  15  16
ENDBRANCH  14  15
ENDBRANCH   6   8
ENDBRANCH   4   6
ENDBRANCH   3   4
ENDBRANCH   2   3
ENDBRANCH   1   2
BRANCH   1  23
ATOM     23  O   UNL A   1      35.486  33.403  30.080  1.00  0.00    -0.374 OA
BRANCH  23  24
ATOM     24  C   UNL A   1      35.324  32.286  30.958  1.00  0.00     0.202 C 
BRANCH  24  25
ATOM     25  C   UNL A   1      36.597  31.575  31.439  1.00  0.00     0.261 C 
BRANCH  25  26
ATOM     26  O   UNL A   1      37.452  31.159  30.357  1.00  0.00    -0.460 OA
BRANCH  26  27
ATOM     27  C   UNL A   1      37.344  29.852  30.019  1.00  0.00     0.338 C 
ATOM     28  O   UNL A   1      36.322  29.173  30.016  1.00  0.00    -0.246 OA
BRANCH  27  29
ATOM     29  C   UNL A   1      38.611  29.355  29.454  1.00  0.00     0.060 A 
ATOM     30  C   UNL A   1      39.562  28.844  30.347  1.00  0.00     0.016 A 
ATOM     31  C   UNL A   1      38.908  29.477  28.095  1.00  0.00     0.016 A 
ATOM     32  C   UNL A   1      40.832  28.495  29.893  1.00  0.00     0.010 A 
ATOM     33  C   UNL A   1      40.190  29.137  27.643  1.00  0.00     0.010 A 
ATOM     34  C   UNL A   1      41.167  28.679  28.545  1.00  0.00    -0.014 A 
BRANCH  34  35
ATOM     35  C   UNL A   1      42.582  28.534  28.123  1.00  0.00     0.031 A 
ATOM     36  C   UNL A   1      43.524  29.695  28.307  1.00  0.00     0.074 A 
ATOM     37  C   UNL A   1      43.038  27.371  27.624  1.00  0.00     0.049 A 
ATOM     38  N   UNL A   1      44.793  29.787  28.006  1.00  0.00    -0.248 NA
ATOM     39  C   UNL A   1      42.959  30.911  28.914  1.00  0.00     0.031 C 
ATOM     40  C   UNL A   1      42.240  26.159  27.440  1.00  0.00     0.029 A 
ATOM     41  N   UNL A   1      44.288  27.021  27.181  1.00  0.00    -0.354 N 
ATOM     42  C   UNL A   1      45.179  31.069  28.383  1.00  0.00     0.074 A 
ATOM     43  C   UNL A   1      44.002  31.727  28.908  1.00  0.00     0.031 C 
ATOM     44  C   UNL A   1      43.020  25.200  26.912  1.00  0.00     0.029 A 
ATOM     45  C   UNL A   1      44.362  25.737  26.695  1.00  0.00     0.049 A 
ATOM     46  H   UNL A   1      45.060  27.631  27.207  1.00  0.00     0.167 HD
ATOM     47  C   UNL A   1      46.403  31.645  28.307  1.00  0.00     0.031 A 
ATOM     48  C   UNL A   1      45.388  25.076  26.122  1.00  0.00     0.031 A 
ATOM     49  C   UNL A   1      47.570  30.996  27.769  1.00  0.00     0.049 A 
ATOM     50  C   UNL A   1      46.722  25.760  25.980  1.00  0.00     0.074 A 
ATOM     51  C   UNL A   1      48.855  31.496  27.652  1.00  0.00     0.029 A 
ATOM     52  N   UNL A   1      47.592  29.709  27.254  1.00  0.00    -0.354 N 
ATOM     53  N   UNL A   1      47.074  26.968  26.358  1.00  0.00    -0.248 NA
ATOM     54  C   UNL A   1      47.799  24.991  25.343  1.00  0.00     0.031 C 
ATOM     55  C   UNL A   1      49.643  30.529  27.018  1.00  0.00     0.029 A 
ATOM     56  C   UNL A   1      48.862  29.406  26.794  1.00  0.00     0.049 A 
ATOM     57  H   UNL A   1      46.818  29.101  27.218  1.00  0.00     0.167 HD
ATOM     58  C   UNL A   1      48.418  27.091  26.025  1.00  0.00     0.074 A 
ATOM     59  C   UNL A   1      48.820  25.834  25.428  1.00  0.00     0.031 C 
ATOM     60  C   UNL A   1      49.248  28.151  26.199  1.00  0.00     0.031 A 
BRANCH  47  61
ATOM     61  C   UNL A   1      46.531  33.064  28.790  1.00  0.00    -0.014 A 
ATOM     62  C   UNL A   1      46.290  34.150  27.929  1.00  0.00     0.010 A 
ATOM     63  C   UNL A   1      46.871  33.316  30.132  1.00  0.00     0.010 A 
ATOM     64  C   UNL A   1      46.423  35.462  28.391  1.00  0.00     0.020 A 
ATOM     65  C   UNL A   1      46.980  34.627  30.604  1.00  0.00     0.020 A 
ATOM     66  C   UNL A   1      46.772  35.692  29.726  1.00  0.00     0.054 A 
BRANCH  66  67
ATOM     67  S   UNL A   1      46.924  37.405  30.304  1.00  0.00     0.124 S 
ATOM     68  O   UNL A   1      47.616  37.231  31.579  1.00  0.00    -0.237 OA
ATOM     69  O   UNL A   1      47.708  38.034  29.245  1.00  0.00    -0.237 OA
ATOM     70  O   UNL A   1      45.540  37.860  30.406  1.00  0.00    -0.744 OA
ENDBRANCH  66  67
ENDBRANCH  47  61
BRANCH  48  71
ATOM     71  C   UNL A   1      45.186  23.690  25.618  1.00  0.00    -0.014 A 
ATOM     72  C   UNL A   1      44.617  23.458  24.354  1.00  0.00     0.010 A 
ATOM     73  C   UNL A   1      45.572  22.591  26.407  1.00  0.00     0.010 A 
ATOM     74  C   UNL A   1      44.424  22.152  23.894  1.00  0.00     0.020 A 
ATOM     75  C   UNL A   1      45.406  21.284  25.939  1.00  0.00     0.020 A 
ATOM     76  C   UNL A   1      44.824  21.073  24.689  1.00  0.00     0.054 A 
BRANCH  76  77
ATOM     77  S   UNL A   1      44.619  19.387  24.050  1.00  0.00     0.124 S 
ATOM     78  O   UNL A   1      45.857  18.745  24.482  1.00  0.00    -0.237 OA
ATOM     79  O   UNL A   1      43.403  18.939  24.723  1.00  0.00    -0.237 OA
ATOM     80  O   UNL A   1      44.486  19.584  22.608  1.00  0.00    -0.744 OA
ENDBRANCH  76  77
ENDBRANCH  48  71
BRANCH  60  81
ATOM     81  C   UNL A   1      50.682  27.991  25.770  1.00  0.00    -0.014 A 
ATOM     82  C   UNL A   1      51.661  27.514  26.659  1.00  0.00     0.010 A 
ATOM     83  C   UNL A   1      51.042  28.268  24.438  1.00  0.00     0.010 A 
ATOM     84  C   UNL A   1      52.981  27.344  26.231  1.00  0.00     0.020 A 
ATOM     85  C   UNL A   1      52.354  28.074  24.000  1.00  0.00     0.020 A 
ATOM     86  C   UNL A   1      53.319  27.627  24.904  1.00  0.00     0.054 A 
BRANCH  86  87
ATOM     87  S   UNL A   1      55.030  27.358  24.361  1.00  0.00     0.124 S 
ATOM     88  O   UNL A   1      55.552  26.498  25.420  1.00  0.00    -0.237 OA
ATOM     89  O   UNL A   1      54.857  26.718  23.059  1.00  0.00    -0.237 OA
ATOM     90  O   UNL A   1      55.595  28.705  24.316  1.00  0.00    -0.744 OA
ENDBRANCH  86  87
ENDBRANCH  60  81
ENDBRANCH  34  35
ENDBRANCH  27  29
ENDBRANCH  26  27
ENDBRANCH  25  26
ENDBRANCH  24  25
ENDBRANCH  23  24
ENDBRANCH   1  23
TORSDOF 21
ENDMDL
