MODEL 1
REMARK VINA RESULT:     -12.0      0.000      0.000
REMARK SMILES CC1(C)[C@@]2(C(=O)OCCOCCOC(=O)c3ccc(-c4c5nc(c(-c6ccc(S(=O)(=O)[O-])cc6)c6ccc([nH]6)c(-c6ccc(S(=O)(=O)[O-])cc6)c6nc(c(-c7ccc(S(=O)(=O)[O-])cc7)c7ccc4[nH]7)C=C6)C=C5)cc3)CC[C@]1(C)/C(=N/NC(=O)c1ccc(Cl)cc1)C2
REMARK SMILES IDX 11 1 10 2 9 3 8 4 7 5 5 6 6 7 4 8 1 9 2 10 3 11 78 12 76 13
REMARK SMILES IDX 92 14 77 15 79 16 80 17 81 18 82 19 83 20 84 22 85 23 86 24
REMARK SMILES IDX 91 25 87 26 90 27 88 28 89 29 12 30 13 31 14 32 15 33 16 34
REMARK SMILES IDX 17 35 75 36 18 37 74 38 19 39 20 40 21 41 68 42 22 43 73 44
REMARK SMILES IDX 67 45 69 46 23 47 72 48 66 49 65 50 24 52 54 53 35 54 53 55
REMARK SMILES IDX 36 56 39 57 52 58 70 59 37 60 38 61 51 63 71 64 40 65 25 66
REMARK SMILES IDX 26 67 34 68 27 69 33 70 28 71 29 72 30 73 31 74 32 75 55 76
REMARK SMILES IDX 56 77 64 78 57 79 63 80 58 81 59 82 60 83 61 84 62 85 41 86
REMARK SMILES IDX 42 87 50 88 43 89 49 90 44 91 45 92 46 93 47 94 48 95
REMARK H PARENT 82 21 69 51 39 62
REMARK Flexibility Score: inf
ROOT
ATOM      1  C   UNL A   1      41.227  21.763  26.133  1.00  0.00     0.202 C 
ENDROOT
BRANCH   1   2
ATOM      2  O   UNL A   1      40.126  22.139  26.954  1.00  0.00    -0.374 OA
BRANCH   2   3
ATOM      3  C   UNL A   1      38.961  22.602  26.267  1.00  0.00     0.202 C 
BRANCH   3   4
ATOM      4  C   UNL A   1      38.245  21.557  25.396  1.00  0.00     0.261 C 
BRANCH   4   5
ATOM      5  O   UNL A   1      36.946  21.992  24.922  1.00  0.00    -0.463 OA
BRANCH   5   6
ATOM      6  C   UNL A   1      35.974  21.040  24.917  1.00  0.00     0.313 C 
ATOM      7  O   UNL A   1      36.187  19.839  25.037  1.00  0.00    -0.252 OA
BRANCH   6   8
ATOM      8  C   UNL A   1      34.571  21.602  24.695  1.00  0.00     0.079 C 
ATOM      9  C   UNL A   1      33.934  21.564  27.244  1.00  0.00     0.013 C 
ATOM     10  C   UNL A   1      34.015  22.383  25.928  1.00  0.00    -0.008 C 
ATOM     11  C   UNL A   1      34.780  23.680  26.247  1.00  0.00     0.013 C 
ATOM     12  C   UNL A   1      32.629  22.597  25.258  1.00  0.00     0.014 C 
ATOM     13  C   UNL A   1      33.499  20.475  24.505  1.00  0.00     0.021 C 
ATOM     14  C   UNL A   1      34.378  22.605  23.514  1.00  0.00     0.073 C 
ATOM     15  C   UNL A   1      32.174  21.159  24.927  1.00  0.00     0.014 C 
ATOM     16  C   UNL A   1      31.628  23.444  26.019  1.00  0.00     0.018 C 
ATOM     17  C   UNL A   1      33.021  23.158  23.866  1.00  0.00     0.046 C 
ATOM     18  N   UNL A   1      32.153  23.912  23.281  1.00  0.00    -0.181 NA
BRANCH  18  19
ATOM     19  N   UNL A   1      32.025  24.547  22.099  1.00  0.00    -0.243 N 
ATOM     20  C   UNL A   1      31.947  25.813  21.580  1.00  0.00     0.271 C 
ATOM     21  H   UNL A   1      31.970  23.885  21.372  1.00  0.00     0.194 HD
ATOM     22  O   UNL A   1      31.836  25.960  20.361  1.00  0.00    -0.267 OA
BRANCH  20  23
ATOM     23  C   UNL A   1      31.919  27.008  22.401  1.00  0.00     0.041 A 
ATOM     24  C   UNL A   1      30.660  27.461  22.796  1.00  0.00     0.015 A 
ATOM     25  C   UNL A   1      33.085  27.662  22.794  1.00  0.00     0.015 A 
ATOM     26  C   UNL A   1      30.582  28.415  23.800  1.00  0.00     0.021 A 
ATOM     27  C   UNL A   1      32.995  28.645  23.775  1.00  0.00     0.021 A 
ATOM     28  C   UNL A   1      31.755  28.954  24.329  1.00  0.00     0.041 A 
ATOM     29  Cl  UNL A   1      31.754  29.890  25.761  1.00  0.00    -0.084 Cl
ENDBRANCH  20  23
ENDBRANCH  18  19
ENDBRANCH   6   8
ENDBRANCH   5   6
ENDBRANCH   4   5
ENDBRANCH   3   4
ENDBRANCH   2   3
ENDBRANCH   1   2
BRANCH   1  30
ATOM     30  C   UNL A   1      42.274  22.853  25.839  1.00  0.00     0.261 C 
BRANCH  30  31
ATOM     31  O   UNL A   1      42.263  23.944  26.774  1.00  0.00    -0.460 OA
BRANCH  31  32
ATOM     32  C   UNL A   1      42.015  25.167  26.238  1.00  0.00     0.338 C 
ATOM     33  O   UNL A   1      42.045  25.470  25.053  1.00  0.00    -0.246 OA
BRANCH  32  34
ATOM     34  C   UNL A   1      41.545  26.082  27.295  1.00  0.00     0.060 A 
ATOM     35  C   UNL A   1      42.129  27.349  27.376  1.00  0.00     0.016 A 
ATOM     36  C   UNL A   1      40.522  25.727  28.179  1.00  0.00     0.016 A 
ATOM     37  C   UNL A   1      41.694  28.258  28.344  1.00  0.00     0.010 A 
ATOM     38  C   UNL A   1      40.031  26.669  29.092  1.00  0.00     0.010 A 
ATOM     39  C   UNL A   1      40.652  27.923  29.223  1.00  0.00    -0.014 A 
BRANCH  39  40
ATOM     40  C   UNL A   1      40.377  28.793  30.403  1.00  0.00     0.031 A 
ATOM     41  C   UNL A   1      41.275  28.662  31.612  1.00  0.00     0.074 A 
ATOM     42  C   UNL A   1      39.425  29.749  30.386  1.00  0.00     0.049 A 
ATOM     43  N   UNL A   1      41.290  29.367  32.715  1.00  0.00    -0.248 NA
ATOM     44  C   UNL A   1      42.290  27.595  31.573  1.00  0.00     0.031 C 
ATOM     45  C   UNL A   1      38.499  30.011  29.283  1.00  0.00     0.029 A 
ATOM     46  N   UNL A   1      39.097  30.701  31.325  1.00  0.00    -0.354 N 
ATOM     47  C   UNL A   1      42.311  28.827  33.490  1.00  0.00     0.074 A 
ATOM     48  C   UNL A   1      42.843  27.695  32.771  1.00  0.00     0.031 C 
ATOM     49  C   UNL A   1      37.738  31.076  29.593  1.00  0.00     0.029 A 
ATOM     50  C   UNL A   1      38.095  31.555  30.928  1.00  0.00     0.049 A 
ATOM     51  H   UNL A   1      39.541  30.763  32.201  1.00  0.00     0.167 HD
ATOM     52  C   UNL A   1      42.797  29.248  34.681  1.00  0.00     0.031 A 
ATOM     53  C   UNL A   1      37.532  32.606  31.561  1.00  0.00     0.031 A 
ATOM     54  C   UNL A   1      42.285  30.374  35.408  1.00  0.00     0.049 A 
ATOM     55  C   UNL A   1      38.035  33.011  32.927  1.00  0.00     0.074 A 
ATOM     56  C   UNL A   1      42.720  30.881  36.620  1.00  0.00     0.029 A 
ATOM     57  N   UNL A   1      41.225  31.166  34.997  1.00  0.00    -0.354 N 
ATOM     58  N   UNL A   1      39.021  32.503  33.627  1.00  0.00    -0.248 NA
ATOM     59  C   UNL A   1      37.353  34.139  33.580  1.00  0.00     0.031 C 
ATOM     60  C   UNL A   1      41.882  31.943  36.972  1.00  0.00     0.029 A 
ATOM     61  C   UNL A   1      40.973  32.143  35.945  1.00  0.00     0.049 A 
ATOM     62  H   UNL A   1      40.727  31.052  34.155  1.00  0.00     0.167 HD
ATOM     63  C   UNL A   1      39.097  33.270  34.788  1.00  0.00     0.074 A 
ATOM     64  C   UNL A   1      38.068  34.282  34.688  1.00  0.00     0.031 C 
ATOM     65  C   UNL A   1      39.947  33.148  35.837  1.00  0.00     0.031 A 
BRANCH  52  66
ATOM     66  C   UNL A   1      43.940  28.467  35.274  1.00  0.00    -0.014 A 
ATOM     67  C   UNL A   1      43.708  27.370  36.124  1.00  0.00     0.010 A 
ATOM     68  C   UNL A   1      45.263  28.821  34.958  1.00  0.00     0.010 A 
ATOM     69  C   UNL A   1      44.779  26.666  36.679  1.00  0.00     0.020 A 
ATOM     70  C   UNL A   1      46.337  28.099  35.484  1.00  0.00     0.020 A 
ATOM     71  C   UNL A   1      46.088  27.036  36.354  1.00  0.00     0.054 A 
BRANCH  71  72
ATOM     72  S   UNL A   1      47.459  26.086  37.066  1.00  0.00     0.124 S 
ATOM     73  O   UNL A   1      48.240  27.131  37.722  1.00  0.00    -0.237 OA
ATOM     74  O   UNL A   1      46.773  25.158  37.961  1.00  0.00    -0.237 OA
ATOM     75  O   UNL A   1      48.095  25.472  35.904  1.00  0.00    -0.744 OA
ENDBRANCH  71  72
ENDBRANCH  52  66
BRANCH  53  76
ATOM     76  C   UNL A   1      36.419  33.364  30.916  1.00  0.00    -0.014 A 
ATOM     77  C   UNL A   1      36.536  33.838  29.596  1.00  0.00     0.010 A 
ATOM     78  C   UNL A   1      35.237  33.631  31.630  1.00  0.00     0.010 A 
ATOM     79  C   UNL A   1      35.498  34.571  29.010  1.00  0.00     0.020 A 
ATOM     80  C   UNL A   1      34.186  34.337  31.038  1.00  0.00     0.020 A 
ATOM     81  C   UNL A   1      34.327  34.811  29.732  1.00  0.00     0.054 A 
BRANCH  81  82
ATOM     82  S   UNL A   1      32.969  35.710  28.931  1.00  0.00     0.124 S 
ATOM     83  O   UNL A   1      32.124  36.063  30.066  1.00  0.00    -0.237 OA
ATOM     84  O   UNL A   1      33.666  36.820  28.288  1.00  0.00    -0.237 OA
ATOM     85  O   UNL A   1      32.403  34.724  28.011  1.00  0.00    -0.744 OA
ENDBRANCH  81  82
ENDBRANCH  53  76
BRANCH  65  86
ATOM     86  C   UNL A   1      39.836  34.151  36.956  1.00  0.00    -0.014 A 
ATOM     87  C   UNL A   1      40.229  35.489  36.784  1.00  0.00     0.010 A 
ATOM     88  C   UNL A   1      39.257  33.762  38.180  1.00  0.00     0.010 A 
ATOM     89  C   UNL A   1      40.073  36.412  37.823  1.00  0.00     0.020 A 
ATOM     90  C   UNL A   1      39.071  34.688  39.209  1.00  0.00     0.020 A 
ATOM     91  C   UNL A   1      39.494  36.006  39.029  1.00  0.00     0.054 A 
BRANCH  91  92
ATOM     92  S   UNL A   1      39.261  37.234  40.344  1.00  0.00     0.124 S 
ATOM     93  O   UNL A   1      38.492  38.270  39.659  1.00  0.00    -0.237 OA
ATOM     94  O   UNL A   1      38.532  36.479  41.360  1.00  0.00    -0.237 OA
ATOM     95  O   UNL A   1      40.623  37.612  40.713  1.00  0.00    -0.744 OA
ENDBRANCH  91  92
ENDBRANCH  65  86
ENDBRANCH  39  40
ENDBRANCH  32  34
ENDBRANCH  31  32
ENDBRANCH  30  31
ENDBRANCH   1  30
TORSDOF 19
ENDMDL
MODEL 2
REMARK VINA RESULT:     -11.9      1.431      2.191
REMARK SMILES CC1(C)[C@@]2(C(=O)OCCOCCOC(=O)c3ccc(-c4c5nc(c(-c6ccc(S(=O)(=O)[O-])cc6)c6ccc([nH]6)c(-c6ccc(S(=O)(=O)[O-])cc6)c6nc(c(-c7ccc(S(=O)(=O)[O-])cc7)c7ccc4[nH]7)C=C6)C=C5)cc3)CC[C@]1(C)/C(=N/NC(=O)c1ccc(Cl)cc1)C2
REMARK SMILES IDX 11 1 10 2 9 3 8 4 7 5 5 6 6 7 4 8 1 9 2 10 3 11 78 12 76 13
REMARK SMILES IDX 92 14 77 15 79 16 80 17 81 18 82 19 83 20 84 22 85 23 86 24
REMARK SMILES IDX 91 25 87 26 90 27 88 28 89 29 12 30 13 31 14 32 15 33 16 34
REMARK SMILES IDX 17 35 75 36 18 37 74 38 19 39 20 40 21 41 68 42 22 43 73 44
REMARK SMILES IDX 67 45 69 46 23 47 72 48 66 49 65 50 24 52 54 53 35 54 53 55
REMARK SMILES IDX 36 56 39 57 52 58 70 59 37 60 38 61 51 63 71 64 40 65 25 66
REMARK SMILES IDX 26 67 34 68 27 69 33 70 28 71 29 72 30 73 31 74 32 75 55 76
REMARK SMILES IDX 56 77 64 78 57 79 63 80 58 81 59 82 60 83 61 84 62 85 41 86
REMARK SMILES IDX 42 87 50 88 43 89 49 90 44 91 45 92 46 93 47 94 48 95
REMARK H PARENT 82 21 69 51 39 62
REMARK Flexibility Score: inf
ROOT
ATOM      1  C   UNL A   1      39.862  21.762  26.260  1.00  0.00     0.202 C 
ENDROOT
BRANCH   1   2
ATOM      2  O   UNL A   1      38.461  21.930  26.065  1.00  0.00    -0.374 OA
BRANCH   2   3
ATOM      3  C   UNL A   1      37.888  21.210  24.971  1.00  0.00     0.202 C 
BRANCH   3   4
ATOM      4  C   UNL A   1      36.528  20.552  25.249  1.00  0.00     0.261 C 
BRANCH   4   5
ATOM      5  O   UNL A   1      35.414  21.245  24.632  1.00  0.00    -0.463 OA
BRANCH   5   6
ATOM      6  C   UNL A   1      34.584  21.902  25.487  1.00  0.00     0.313 C 
ATOM      7  O   UNL A   1      34.408  21.579  26.656  1.00  0.00    -0.252 OA
BRANCH   6   8
ATOM      8  C   UNL A   1      33.841  23.069  24.841  1.00  0.00     0.079 C 
ATOM      9  C   UNL A   1      32.330  21.536  23.334  1.00  0.00     0.013 C 
ATOM     10  C   UNL A   1      32.403  22.697  24.362  1.00  0.00    -0.008 C 
ATOM     11  C   UNL A   1      31.429  22.353  25.503  1.00  0.00     0.013 C 
ATOM     12  C   UNL A   1      32.178  24.094  23.718  1.00  0.00     0.014 C 
ATOM     13  C   UNL A   1      34.520  23.548  23.513  1.00  0.00     0.021 C 
ATOM     14  C   UNL A   1      33.614  24.345  25.712  1.00  0.00     0.073 C 
ATOM     15  C   UNL A   1      33.361  24.221  22.734  1.00  0.00     0.014 C 
ATOM     16  C   UNL A   1      30.805  24.362  23.132  1.00  0.00     0.018 C 
ATOM     17  C   UNL A   1      32.587  25.053  24.867  1.00  0.00     0.046 C 
ATOM     18  N   UNL A   1      32.041  26.222  24.865  1.00  0.00    -0.181 NA
BRANCH  18  19
ATOM     19  N   UNL A   1      32.126  27.358  25.585  1.00  0.00    -0.243 N 
ATOM     20  C   UNL A   1      31.723  28.668  25.550  1.00  0.00     0.271 C 
ATOM     21  H   UNL A   1      32.650  27.193  26.404  1.00  0.00     0.194 HD
ATOM     22  O   UNL A   1      32.029  29.420  26.478  1.00  0.00    -0.267 OA
BRANCH  20  23
ATOM     23  C   UNL A   1      31.000  29.246  24.434  1.00  0.00     0.041 A 
ATOM     24  C   UNL A   1      31.015  28.522  23.242  1.00  0.00     0.015 A 
ATOM     25  C   UNL A   1      30.309  30.451  24.546  1.00  0.00     0.015 A 
ATOM     26  C   UNL A   1      30.123  28.872  22.239  1.00  0.00     0.021 A 
ATOM     27  C   UNL A   1      29.442  30.815  23.519  1.00  0.00     0.021 A 
ATOM     28  C   UNL A   1      29.295  29.981  22.413  1.00  0.00     0.041 A 
ATOM     29  Cl  UNL A   1      27.970  30.291  21.376  1.00  0.00    -0.084 Cl
ENDBRANCH  20  23
ENDBRANCH  18  19
ENDBRANCH   6   8
ENDBRANCH   5   6
ENDBRANCH   4   5
ENDBRANCH   3   4
ENDBRANCH   2   3
ENDBRANCH   1   2
BRANCH   1  30
ATOM     30  C   UNL A   1      40.670  23.029  26.596  1.00  0.00     0.261 C 
BRANCH  30  31
ATOM     31  O   UNL A   1      39.917  24.248  26.495  1.00  0.00    -0.460 OA
BRANCH  31  32
ATOM     32  C   UNL A   1      40.653  25.372  26.297  1.00  0.00     0.338 C 
ATOM     33  O   UNL A   1      41.189  25.726  25.257  1.00  0.00    -0.246 OA
BRANCH  32  34
ATOM     34  C   UNL A   1      40.599  26.216  27.506  1.00  0.00     0.060 A 
ATOM     35  C   UNL A   1      39.621  25.933  28.462  1.00  0.00     0.016 A 
ATOM     36  C   UNL A   1      41.511  27.252  27.726  1.00  0.00     0.016 A 
ATOM     37  C   UNL A   1      39.551  26.689  29.636  1.00  0.00     0.010 A 
ATOM     38  C   UNL A   1      41.492  27.953  28.938  1.00  0.00     0.010 A 
ATOM     39  C   UNL A   1      40.475  27.717  29.880  1.00  0.00    -0.014 A 
BRANCH  39  40
ATOM     40  C   UNL A   1      40.233  28.673  31.000  1.00  0.00     0.031 A 
ATOM     41  C   UNL A   1      41.135  28.597  32.210  1.00  0.00     0.074 A 
ATOM     42  C   UNL A   1      39.308  29.652  30.922  1.00  0.00     0.049 A 
ATOM     43  N   UNL A   1      41.178  29.374  33.263  1.00  0.00    -0.248 NA
ATOM     44  C   UNL A   1      42.119  27.501  32.239  1.00  0.00     0.031 C 
ATOM     45  C   UNL A   1      38.383  29.866  29.809  1.00  0.00     0.029 A 
ATOM     46  N   UNL A   1      39.015  30.675  31.796  1.00  0.00    -0.354 N 
ATOM     47  C   UNL A   1      42.189  28.859  34.068  1.00  0.00     0.074 A 
ATOM     48  C   UNL A   1      42.683  27.666  33.424  1.00  0.00     0.031 C 
ATOM     49  C   UNL A   1      37.655  30.972  30.050  1.00  0.00     0.029 A 
ATOM     50  C   UNL A   1      38.035  31.529  31.347  1.00  0.00     0.049 A 
ATOM     51  H   UNL A   1      39.466  30.783  32.664  1.00  0.00     0.167 HD
ATOM     52  C   UNL A   1      42.695  29.345  35.224  1.00  0.00     0.031 A 
ATOM     53  C   UNL A   1      37.507  32.636  31.911  1.00  0.00     0.031 A 
ATOM     54  C   UNL A   1      42.221  30.532  35.877  1.00  0.00     0.049 A 
ATOM     55  C   UNL A   1      38.030  33.118  33.243  1.00  0.00     0.074 A 
ATOM     56  C   UNL A   1      42.678  31.107  37.049  1.00  0.00     0.029 A 
ATOM     57  N   UNL A   1      41.181  31.325  35.418  1.00  0.00    -0.354 N 
ATOM     58  N   UNL A   1      39.007  32.630  33.972  1.00  0.00    -0.248 NA
ATOM     59  C   UNL A   1      37.387  34.307  33.822  1.00  0.00     0.031 C 
ATOM     60  C   UNL A   1      41.874  32.214  37.332  1.00  0.00     0.029 A 
ATOM     61  C   UNL A   1      40.964  32.370  36.299  1.00  0.00     0.049 A 
ATOM     62  H   UNL A   1      40.674  31.169  34.588  1.00  0.00     0.167 HD
ATOM     63  C   UNL A   1      39.113  33.472  35.077  1.00  0.00     0.074 A 
ATOM     64  C   UNL A   1      38.113  34.504  34.914  1.00  0.00     0.031 C 
ATOM     65  C   UNL A   1      39.966  33.396  36.128  1.00  0.00     0.031 A 
BRANCH  52  66
ATOM     66  C   UNL A   1      43.819  28.573  35.863  1.00  0.00    -0.014 A 
ATOM     67  C   UNL A   1      45.164  28.883  35.586  1.00  0.00     0.010 A 
ATOM     68  C   UNL A   1      43.527  27.540  36.770  1.00  0.00     0.010 A 
ATOM     69  C   UNL A   1      46.195  28.147  36.175  1.00  0.00     0.020 A 
ATOM     70  C   UNL A   1      44.555  26.823  37.386  1.00  0.00     0.020 A 
ATOM     71  C   UNL A   1      45.882  27.120  37.072  1.00  0.00     0.054 A 
BRANCH  71  72
ATOM     72  S   UNL A   1      47.242  26.201  37.843  1.00  0.00     0.124 S 
ATOM     73  O   UNL A   1      47.578  27.057  38.978  1.00  0.00    -0.237 OA
ATOM     74  O   UNL A   1      46.614  24.927  38.181  1.00  0.00    -0.237 OA
ATOM     75  O   UNL A   1      48.255  26.134  36.793  1.00  0.00    -0.744 OA
ENDBRANCH  71  72
ENDBRANCH  52  66
BRANCH  53  76
ATOM     76  C   UNL A   1      36.412  33.381  31.222  1.00  0.00    -0.014 A 
ATOM     77  C   UNL A   1      35.175  33.602  31.855  1.00  0.00     0.010 A 
ATOM     78  C   UNL A   1      36.599  33.863  29.913  1.00  0.00     0.010 A 
ATOM     79  C   UNL A   1      34.147  34.279  31.190  1.00  0.00     0.020 A 
ATOM     80  C   UNL A   1      35.584  34.565  29.256  1.00  0.00     0.020 A 
ATOM     81  C   UNL A   1      34.360  34.761  29.896  1.00  0.00     0.054 A 
BRANCH  81  82
ATOM     82  S   UNL A   1      33.033  35.690  29.076  1.00  0.00     0.124 S 
ATOM     83  O   UNL A   1      32.447  34.679  28.202  1.00  0.00    -0.237 OA
ATOM     84  O   UNL A   1      32.205  36.113  30.201  1.00  0.00    -0.237 OA
ATOM     85  O   UNL A   1      33.744  36.770  28.394  1.00  0.00    -0.744 OA
ENDBRANCH  81  82
ENDBRANCH  53  76
BRANCH  65  86
ATOM     86  C   UNL A   1      39.892  34.475  37.177  1.00  0.00    -0.014 A 
ATOM     87  C   UNL A   1      40.626  35.668  37.056  1.00  0.00     0.010 A 
ATOM     88  C   UNL A   1      39.013  34.322  38.266  1.00  0.00     0.010 A 
ATOM     89  C   UNL A   1      40.505  36.674  38.019  1.00  0.00     0.020 A 
ATOM     90  C   UNL A   1      38.866  35.338  39.214  1.00  0.00     0.020 A 
ATOM     91  C   UNL A   1      39.624  36.503  39.092  1.00  0.00     0.054 A 
BRANCH  91  92
ATOM     92  S   UNL A   1      39.452  37.844  40.302  1.00  0.00     0.124 S 
ATOM     93  O   UNL A   1      38.155  38.413  39.943  1.00  0.00    -0.237 OA
ATOM     94  O   UNL A   1      39.493  37.131  41.576  1.00  0.00    -0.237 OA
ATOM     95  O   UNL A   1      40.603  38.702  40.038  1.00  0.00    -0.744 OA
ENDBRANCH  91  92
ENDBRANCH  65  86
ENDBRANCH  39  40
ENDBRANCH  32  34
ENDBRANCH  31  32
ENDBRANCH  30  31
ENDBRANCH   1  30
TORSDOF 19
ENDMDL
MODEL 3
REMARK VINA RESULT:     -11.8      6.041     11.921
REMARK SMILES CC1(C)[C@@]2(C(=O)OCCOCCOC(=O)c3ccc(-c4c5nc(c(-c6ccc(S(=O)(=O)[O-])cc6)c6ccc([nH]6)c(-c6ccc(S(=O)(=O)[O-])cc6)c6nc(c(-c7ccc(S(=O)(=O)[O-])cc7)c7ccc4[nH]7)C=C6)C=C5)cc3)CC[C@]1(C)/C(=N/NC(=O)c1ccc(Cl)cc1)C2
REMARK SMILES IDX 11 1 10 2 9 3 8 4 7 5 5 6 6 7 4 8 1 9 2 10 3 11 78 12 76 13
REMARK SMILES IDX 92 14 77 15 79 16 80 17 81 18 82 19 83 20 84 22 85 23 86 24
REMARK SMILES IDX 91 25 87 26 90 27 88 28 89 29 12 30 13 31 14 32 15 33 16 34
REMARK SMILES IDX 17 35 75 36 18 37 74 38 19 39 20 40 21 41 68 42 22 43 73 44
REMARK SMILES IDX 67 45 69 46 23 47 72 48 66 49 65 50 24 52 54 53 35 54 53 55
REMARK SMILES IDX 36 56 39 57 52 58 70 59 37 60 38 61 51 63 71 64 40 65 25 66
REMARK SMILES IDX 26 67 34 68 27 69 33 70 28 71 29 72 30 73 31 74 32 75 55 76
REMARK SMILES IDX 56 77 64 78 57 79 63 80 58 81 59 82 60 83 61 84 62 85 41 86
REMARK SMILES IDX 42 87 50 88 43 89 49 90 44 91 45 92 46 93 47 94 48 95
REMARK H PARENT 82 21 69 51 39 62
REMARK Flexibility Score: inf
ROOT
ATOM      1  C   UNL A   1      35.027  33.012  29.115  1.00  0.00     0.202 C 
ENDROOT
BRANCH   1   2
ATOM      2  O   UNL A   1      34.734  32.461  27.834  1.00  0.00    -0.374 OA
BRANCH   2   3
ATOM      3  C   UNL A   1      33.581  31.619  27.762  1.00  0.00     0.202 C 
BRANCH   3   4
ATOM      4  C   UNL A   1      33.769  30.301  26.996  1.00  0.00     0.261 C 
BRANCH   4   5
ATOM      5  O   UNL A   1      32.562  29.503  26.913  1.00  0.00    -0.463 OA
BRANCH   5   6
ATOM      6  C   UNL A   1      31.802  29.701  25.802  1.00  0.00     0.313 C 
ATOM      7  O   UNL A   1      31.324  30.783  25.480  1.00  0.00    -0.252 OA
BRANCH   6   8
ATOM      8  C   UNL A   1      31.551  28.426  25.000  1.00  0.00     0.079 C 
ATOM      9  C   UNL A   1      33.348  28.983  23.167  1.00  0.00     0.013 C 
ATOM     10  C   UNL A   1      32.795  27.952  24.186  1.00  0.00    -0.008 C 
ATOM     11  C   UNL A   1      33.979  27.495  25.057  1.00  0.00     0.013 C 
ATOM     12  C   UNL A   1      32.004  26.795  23.512  1.00  0.00     0.014 C 
ATOM     13  C   UNL A   1      30.477  28.629  23.877  1.00  0.00     0.021 C 
ATOM     14  C   UNL A   1      31.129  27.149  25.795  1.00  0.00     0.073 C 
ATOM     15  C   UNL A   1      30.819  27.526  22.844  1.00  0.00     0.014 C 
ATOM     16  C   UNL A   1      32.792  25.863  22.613  1.00  0.00     0.018 C 
ATOM     17  C   UNL A   1      31.335  26.104  24.729  1.00  0.00     0.046 C 
ATOM     18  N   UNL A   1      31.054  24.851  24.600  1.00  0.00    -0.181 NA
BRANCH  18  19
ATOM     19  N   UNL A   1      30.446  23.891  25.323  1.00  0.00    -0.243 N 
ATOM     20  C   UNL A   1      30.727  22.722  25.981  1.00  0.00     0.271 C 
ATOM     21  H   UNL A   1      29.486  24.096  25.406  1.00  0.00     0.194 HD
ATOM     22  O   UNL A   1      29.820  22.120  26.560  1.00  0.00    -0.267 OA
BRANCH  20  23
ATOM     23  C   UNL A   1      32.041  22.106  25.979  1.00  0.00     0.041 A 
ATOM     24  C   UNL A   1      32.340  21.286  24.891  1.00  0.00     0.015 A 
ATOM     25  C   UNL A   1      32.965  22.333  26.997  1.00  0.00     0.015 A 
ATOM     26  C   UNL A   1      33.658  20.903  24.690  1.00  0.00     0.021 A 
ATOM     27  C   UNL A   1      34.278  21.913  26.805  1.00  0.00     0.021 A 
ATOM     28  C   UNL A   1      34.631  21.276  25.617  1.00  0.00     0.041 A 
ATOM     29  Cl  UNL A   1      36.302  21.114  25.289  1.00  0.00    -0.084 Cl
ENDBRANCH  20  23
ENDBRANCH  18  19
ENDBRANCH   6   8
ENDBRANCH   5   6
ENDBRANCH   4   5
ENDBRANCH   3   4
ENDBRANCH   2   3
ENDBRANCH   1   2
BRANCH   1  30
ATOM     30  C   UNL A   1      35.167  32.015  30.280  1.00  0.00     0.261 C 
BRANCH  30  31
ATOM     31  O   UNL A   1      35.911  30.831  29.952  1.00  0.00    -0.460 OA
BRANCH  31  32
ATOM     32  C   UNL A   1      36.675  30.327  30.955  1.00  0.00     0.338 C 
ATOM     33  O   UNL A   1      36.301  30.011  32.076  1.00  0.00    -0.246 OA
BRANCH  32  34
ATOM     34  C   UNL A   1      38.037  30.063  30.453  1.00  0.00     0.060 A 
ATOM     35  C   UNL A   1      38.276  30.221  29.086  1.00  0.00     0.016 A 
ATOM     36  C   UNL A   1      39.082  29.699  31.308  1.00  0.00     0.016 A 
ATOM     37  C   UNL A   1      39.558  30.009  28.572  1.00  0.00     0.010 A 
ATOM     38  C   UNL A   1      40.382  29.569  30.804  1.00  0.00     0.010 A 
ATOM     39  C   UNL A   1      40.622  29.665  29.422  1.00  0.00    -0.014 A 
BRANCH  39  40
ATOM     40  C   UNL A   1      41.910  29.195  28.835  1.00  0.00     0.031 A 
ATOM     41  C   UNL A   1      43.079  30.152  28.818  1.00  0.00     0.074 A 
ATOM     42  C   UNL A   1      42.087  27.925  28.413  1.00  0.00     0.049 A 
ATOM     43  N   UNL A   1      44.317  29.944  28.445  1.00  0.00    -0.248 NA
ATOM     44  C   UNL A   1      42.821  31.525  29.285  1.00  0.00     0.031 C 
ATOM     45  C   UNL A   1      41.060  26.882  28.390  1.00  0.00     0.029 A 
ATOM     46  N   UNL A   1      43.214  27.289  27.944  1.00  0.00    -0.354 N 
ATOM     47  C   UNL A   1      44.973  31.156  28.634  1.00  0.00     0.074 A 
ATOM     48  C   UNL A   1      43.989  32.111  29.082  1.00  0.00     0.031 C 
ATOM     49  C   UNL A   1      41.614  25.730  27.970  1.00  0.00     0.029 A 
ATOM     50  C   UNL A   1      43.025  25.955  27.661  1.00  0.00     0.049 A 
ATOM     51  H   UNL A   1      44.076  27.747  27.823  1.00  0.00     0.167 HD
ATOM     52  C   UNL A   1      46.285  31.453  28.486  1.00  0.00     0.031 A 
ATOM     53  C   UNL A   1      43.889  25.021  27.211  1.00  0.00     0.031 A 
ATOM     54  C   UNL A   1      47.279  30.515  28.047  1.00  0.00     0.049 A 
ATOM     55  C   UNL A   1      45.334  25.392  26.974  1.00  0.00     0.074 A 
ATOM     56  C   UNL A   1      48.636  30.723  27.875  1.00  0.00     0.029 A 
ATOM     57  N   UNL A   1      47.027  29.196  27.708  1.00  0.00    -0.354 N 
ATOM     58  N   UNL A   1      45.938  26.537  27.187  1.00  0.00    -0.248 NA
ATOM     59  C   UNL A   1      46.214  24.339  26.446  1.00  0.00     0.031 C 
ATOM     60  C   UNL A   1      49.194  29.544  27.372  1.00  0.00     0.029 A 
ATOM     61  C   UNL A   1      48.199  28.583  27.300  1.00  0.00     0.049 A 
ATOM     62  H   UNL A   1      46.146  28.758  27.752  1.00  0.00     0.167 HD
ATOM     63  C   UNL A   1      47.273  26.331  26.849  1.00  0.00     0.074 A 
ATOM     64  C   UNL A   1      47.391  24.951  26.432  1.00  0.00     0.031 C 
ATOM     65  C   UNL A   1      48.308  27.207  26.887  1.00  0.00     0.031 A 
BRANCH  52  66
ATOM     66  C   UNL A   1      46.712  32.864  28.793  1.00  0.00    -0.014 A 
ATOM     67  C   UNL A   1      47.112  33.237  30.089  1.00  0.00     0.010 A 
ATOM     68  C   UNL A   1      46.736  33.822  27.766  1.00  0.00     0.010 A 
ATOM     69  C   UNL A   1      47.490  34.554  30.361  1.00  0.00     0.020 A 
ATOM     70  C   UNL A   1      47.145  35.132  28.026  1.00  0.00     0.020 A 
ATOM     71  C   UNL A   1      47.503  35.494  29.325  1.00  0.00     0.054 A 
BRANCH  71  72
ATOM     72  S   UNL A   1      48.027  37.189  29.701  1.00  0.00     0.124 S 
ATOM     73  O   UNL A   1      49.321  37.260  29.027  1.00  0.00    -0.237 OA
ATOM     74  O   UNL A   1      46.962  37.991  29.104  1.00  0.00    -0.237 OA
ATOM     75  O   UNL A   1      48.083  37.219  31.160  1.00  0.00    -0.744 OA
ENDBRANCH  71  72
ENDBRANCH  52  66
BRANCH  53  76
ATOM     76  C   UNL A   1      43.420  23.628  26.949  1.00  0.00    -0.014 A 
ATOM     77  C   UNL A   1      43.143  23.190  25.641  1.00  0.00     0.010 A 
ATOM     78  C   UNL A   1      43.232  22.732  28.018  1.00  0.00     0.010 A 
ATOM     79  C   UNL A   1      42.678  21.891  25.409  1.00  0.00     0.020 A 
ATOM     80  C   UNL A   1      42.796  21.424  27.788  1.00  0.00     0.020 A 
ATOM     81  C   UNL A   1      42.513  21.014  26.484  1.00  0.00     0.054 A 
BRANCH  81  82
ATOM     82  S   UNL A   1      41.968  19.314  26.155  1.00  0.00     0.124 S 
ATOM     83  O   UNL A   1      42.783  18.949  25.001  1.00  0.00    -0.237 OA
ATOM     84  O   UNL A   1      42.296  18.632  27.404  1.00  0.00    -0.237 OA
ATOM     85  O   UNL A   1      40.538  19.459  25.890  1.00  0.00    -0.744 OA
ENDBRANCH  81  82
ENDBRANCH  53  76
BRANCH  65  86
ATOM     86  C   UNL A   1      49.675  26.702  26.503  1.00  0.00    -0.014 A 
ATOM     87  C   UNL A   1      50.156  26.817  25.187  1.00  0.00     0.010 A 
ATOM     88  C   UNL A   1      50.521  26.173  27.496  1.00  0.00     0.010 A 
ATOM     89  C   UNL A   1      51.446  26.384  24.865  1.00  0.00     0.020 A 
ATOM     90  C   UNL A   1      51.822  25.767  27.185  1.00  0.00     0.020 A 
ATOM     91  C   UNL A   1      52.272  25.863  25.867  1.00  0.00     0.054 A 
BRANCH  91  92
ATOM     92  S   UNL A   1      53.957  25.351  25.432  1.00  0.00     0.124 S 
ATOM     93  O   UNL A   1      54.581  25.211  26.745  1.00  0.00    -0.237 OA
ATOM     94  O   UNL A   1      53.734  24.103  24.706  1.00  0.00    -0.237 OA
ATOM     95  O   UNL A   1      54.458  26.456  24.619  1.00  0.00    -0.744 OA
ENDBRANCH  91  92
ENDBRANCH  65  86
ENDBRANCH  39  40
ENDBRANCH  32  34
ENDBRANCH  31  32
ENDBRANCH  30  31
ENDBRANCH   1  30
TORSDOF 19
ENDMDL
