MODEL 1
REMARK VINA RESULT:     -10.9      0.000      0.000
REMARK SMILES COc1ccc(-c2nc3cc(N4C[C@@H](C(=O)OCCOCCOC(=O)c5ccc(-c6c7nc(c(-c8ccc(S(=O)(=O)[O-])cc8)c8ccc([nH]8)c(-c8ccc(S(=O)(=O)[O-])cc8)c8nc(c(-c9ccc(S(=O)(=O)[O-])cc9)c9ccc6[nH]9)C=C8)C=C7)cc5)CC4=O)ccc3o2)cc1
REMARK SMILES IDX 20 1 19 2 18 3 17 4 15 5 16 6 14 7 12 8 13 9 87 10 86 11
REMARK SMILES IDX 88 12 11 13 7 14 8 15 92 16 9 17 91 18 10 19 90 20 89 21
REMARK SMILES IDX 6 22 3 23 4 24 94 25 5 26 93 27 2 28 1 29 21 30 22 31 23 32
REMARK SMILES IDX 24 33 25 34 26 35 27 36 85 37 28 38 84 39 29 40 30 41 31 42
REMARK SMILES IDX 78 43 32 44 83 45 77 46 79 47 33 48 82 49 76 50 75 51 34 53
REMARK SMILES IDX 64 54 45 55 63 56 46 57 49 58 62 59 80 60 47 61 48 62 61 64
REMARK SMILES IDX 81 65 50 66 35 67 36 68 44 69 37 70 43 71 38 72 39 73 40 74
REMARK SMILES IDX 41 75 42 76 65 77 66 78 74 79 67 80 73 81 68 82 69 83 70 84
REMARK SMILES IDX 71 85 72 86 51 87 52 88 60 89 53 90 59 91 54 92 55 93 56 94
REMARK SMILES IDX 57 95 58 96
REMARK H PARENT 79 52 49 63
REMARK Flexibility Score: inf
ROOT
ATOM      1  O   UNL A   1      34.339  32.694  27.945  1.00  0.00    -0.374 OA
ENDROOT
BRANCH   1   2
ATOM      2  C   UNL A   1      33.126  32.022  27.610  1.00  0.00     0.202 C 
BRANCH   2   3
ATOM      3  C   UNL A   1      33.260  30.640  26.971  1.00  0.00     0.261 C 
BRANCH   3   4
ATOM      4  O   UNL A   1      32.039  29.899  27.091  1.00  0.00    -0.463 OA
BRANCH   4   5
ATOM      5  C   UNL A   1      31.681  29.201  25.989  1.00  0.00     0.311 C 
ATOM      6  O   UNL A   1      31.229  29.679  24.955  1.00  0.00    -0.252 OA
BRANCH   5   7
ATOM      7  C   UNL A   1      31.872  27.726  26.152  1.00  0.00     0.128 C 
ATOM      8  N   UNL A   1      32.536  25.849  25.007  1.00  0.00    -0.311 N 
ATOM      9  C   UNL A   1      32.695  27.278  24.980  1.00  0.00     0.141 C 
ATOM     10  C   UNL A   1      31.309  25.494  25.568  1.00  0.00     0.227 C 
ATOM     11  C   UNL A   1      30.680  26.771  26.104  1.00  0.00     0.117 C 
ATOM     12  O   UNL A   1      30.826  24.380  25.697  1.00  0.00    -0.274 OA
BRANCH   8  13
ATOM     13  C   UNL A   1      33.560  24.981  24.599  1.00  0.00     0.046 A 
ATOM     14  C   UNL A   1      37.261  22.580  25.098  1.00  0.00     0.227 A 
ATOM     15  N   UNL A   1      36.668  23.447  25.888  1.00  0.00    -0.209 NA
ATOM     16  O   UNL A   1      36.703  22.443  23.849  1.00  0.00    -0.436 OA
ATOM     17  C   UNL A   1      35.621  23.878  25.145  1.00  0.00     0.112 A 
ATOM     18  C   UNL A   1      35.609  23.272  23.903  1.00  0.00     0.155 A 
ATOM     19  C   UNL A   1      34.608  24.757  25.500  1.00  0.00     0.058 A 
ATOM     20  C   UNL A   1      34.606  23.475  22.960  1.00  0.00     0.051 A 
ATOM     21  C   UNL A   1      33.551  24.326  23.357  1.00  0.00     0.030 A 
BRANCH  14  22
ATOM     22  C   UNL A   1      38.286  21.646  25.512  1.00  0.00     0.037 A 
ATOM     23  C   UNL A   1      40.471  20.024  26.199  1.00  0.00     0.118 A 
ATOM     24  C   UNL A   1      39.365  19.488  25.527  1.00  0.00     0.047 A 
ATOM     25  C   UNL A   1      40.484  21.376  26.527  1.00  0.00     0.047 A 
ATOM     26  C   UNL A   1      38.266  20.290  25.195  1.00  0.00     0.017 A 
ATOM     27  C   UNL A   1      39.402  22.180  26.179  1.00  0.00     0.017 A 
BRANCH  23  28
ATOM     28  O   UNL A   1      41.488  19.145  26.455  1.00  0.00    -0.497 OA
ATOM     29  C   UNL A   1      42.154  19.313  27.702  1.00  0.00     0.278 C 
ENDBRANCH  23  28
ENDBRANCH  14  22
ENDBRANCH   8  13
ENDBRANCH   5   7
ENDBRANCH   4   5
ENDBRANCH   3   4
ENDBRANCH   2   3
ENDBRANCH   1   2
BRANCH   1  30
ATOM     30  C   UNL A   1      35.548  31.935  27.986  1.00  0.00     0.202 C 
BRANCH  30  31
ATOM     31  C   UNL A   1      35.857  31.153  29.267  1.00  0.00     0.261 C 
BRANCH  31  32
ATOM     32  O   UNL A   1      36.280  29.803  29.001  1.00  0.00    -0.460 OA
BRANCH  32  33
ATOM     33  C   UNL A   1      37.081  29.267  29.953  1.00  0.00     0.338 C 
ATOM     34  O   UNL A   1      36.771  28.998  31.108  1.00  0.00    -0.246 OA
BRANCH  33  35
ATOM     35  C   UNL A   1      38.369  28.853  29.372  1.00  0.00     0.060 A 
ATOM     36  C   UNL A   1      39.287  28.219  30.221  1.00  0.00     0.016 A 
ATOM     37  C   UNL A   1      38.716  29.161  28.055  1.00  0.00     0.016 A 
ATOM     38  C   UNL A   1      40.574  27.938  29.771  1.00  0.00     0.010 A 
ATOM     39  C   UNL A   1      40.014  28.886  27.609  1.00  0.00     0.010 A 
ATOM     40  C   UNL A   1      40.958  28.309  28.477  1.00  0.00    -0.014 A 
BRANCH  40  41
ATOM     41  C   UNL A   1      42.386  28.220  28.088  1.00  0.00     0.031 A 
ATOM     42  C   UNL A   1      43.282  29.408  28.315  1.00  0.00     0.074 A 
ATOM     43  C   UNL A   1      42.889  27.084  27.574  1.00  0.00     0.049 A 
ATOM     44  N   UNL A   1      44.554  29.548  28.044  1.00  0.00    -0.248 NA
ATOM     45  C   UNL A   1      42.661  30.594  28.928  1.00  0.00     0.031 C 
ATOM     46  C   UNL A   1      42.134  25.851  27.348  1.00  0.00     0.029 A 
ATOM     47  N   UNL A   1      44.158  26.785  27.147  1.00  0.00    -0.354 N 
ATOM     48  C   UNL A   1      44.885  30.839  28.445  1.00  0.00     0.074 A 
ATOM     49  C   UNL A   1      43.675  31.448  28.954  1.00  0.00     0.031 C 
ATOM     50  C   UNL A   1      42.955  24.929  26.816  1.00  0.00     0.029 A 
ATOM     51  C   UNL A   1      44.283  25.515  26.635  1.00  0.00     0.049 A 
ATOM     52  H   UNL A   1      44.909  27.419  27.201  1.00  0.00     0.167 HD
ATOM     53  C   UNL A   1      46.088  31.459  28.396  1.00  0.00     0.031 A 
ATOM     54  C   UNL A   1      45.341  24.901  26.070  1.00  0.00     0.031 A 
ATOM     55  C   UNL A   1      47.287  30.857  27.878  1.00  0.00     0.049 A 
ATOM     56  C   UNL A   1      46.652  25.633  25.965  1.00  0.00     0.074 A 
ATOM     57  C   UNL A   1      48.558  31.399  27.800  1.00  0.00     0.029 A 
ATOM     58  N   UNL A   1      47.363  29.583  27.336  1.00  0.00    -0.354 N 
ATOM     59  N   UNL A   1      46.954  26.843  26.373  1.00  0.00    -0.248 NA
ATOM     60  C   UNL A   1      47.766  24.914  25.333  1.00  0.00     0.031 C 
ATOM     61  C   UNL A   1      49.391  30.471  27.164  1.00  0.00     0.029 A 
ATOM     62  C   UNL A   1      48.651  29.330  26.899  1.00  0.00     0.049 A 
ATOM     63  H   UNL A   1      46.611  28.951  27.273  1.00  0.00     0.167 HD
ATOM     64  C   UNL A   1      48.300  27.019  26.070  1.00  0.00     0.074 A 
ATOM     65  C   UNL A   1      48.756  25.789  25.454  1.00  0.00     0.031 C 
ATOM     66  C   UNL A   1      49.090  28.101  26.286  1.00  0.00     0.031 A 
BRANCH  53  67
ATOM     67  C   UNL A   1      46.154  32.880  28.888  1.00  0.00    -0.014 A 
ATOM     68  C   UNL A   1      46.479  33.178  30.225  1.00  0.00     0.010 A 
ATOM     69  C   UNL A   1      45.913  33.937  27.992  1.00  0.00     0.010 A 
ATOM     70  C   UNL A   1      46.518  34.504  30.665  1.00  0.00     0.020 A 
ATOM     71  C   UNL A   1      45.978  35.265  28.421  1.00  0.00     0.020 A 
ATOM     72  C   UNL A   1      46.262  35.539  29.761  1.00  0.00     0.054 A 
BRANCH  72  73
ATOM     73  S   UNL A   1      46.330  37.253  30.354  1.00  0.00     0.124 S 
ATOM     74  O   UNL A   1      44.952  37.694  30.153  1.00  0.00    -0.237 OA
ATOM     75  O   UNL A   1      46.740  37.094  31.747  1.00  0.00    -0.237 OA
ATOM     76  O   UNL A   1      47.318  37.883  29.484  1.00  0.00    -0.744 OA
ENDBRANCH  72  73
ENDBRANCH  53  67
BRANCH  54  77
ATOM     77  C   UNL A   1      45.194  23.517  25.543  1.00  0.00    -0.014 A 
ATOM     78  C   UNL A   1      44.710  23.291  24.243  1.00  0.00     0.010 A 
ATOM     79  C   UNL A   1      45.558  22.416  26.339  1.00  0.00     0.010 A 
ATOM     80  C   UNL A   1      44.586  21.988  23.752  1.00  0.00     0.020 A 
ATOM     81  C   UNL A   1      45.459  21.114  25.843  1.00  0.00     0.020 A 
ATOM     82  C   UNL A   1      44.966  20.908  24.554  1.00  0.00     0.054 A 
BRANCH  82  83
ATOM     83  S   UNL A   1      44.861  19.229  23.872  1.00  0.00     0.124 S 
ATOM     84  O   UNL A   1      43.864  18.611  24.738  1.00  0.00    -0.237 OA
ATOM     85  O   UNL A   1      44.441  19.474  22.495  1.00  0.00    -0.237 OA
ATOM     86  O   UNL A   1      46.223  18.718  24.016  1.00  0.00    -0.744 OA
ENDBRANCH  82  83
ENDBRANCH  54  77
BRANCH  66  87
ATOM     87  C   UNL A   1      50.538  27.997  25.886  1.00  0.00    -0.014 A 
ATOM     88  C   UNL A   1      51.512  27.527  26.784  1.00  0.00     0.010 A 
ATOM     89  C   UNL A   1      50.916  28.318  24.569  1.00  0.00     0.010 A 
ATOM     90  C   UNL A   1      52.845  27.406  26.379  1.00  0.00     0.020 A 
ATOM     91  C   UNL A   1      52.242  28.173  24.153  1.00  0.00     0.020 A 
ATOM     92  C   UNL A   1      53.202  27.731  25.066  1.00  0.00     0.054 A 
BRANCH  92  93
ATOM     93  S   UNL A   1      54.928  27.520  24.551  1.00  0.00     0.124 S 
ATOM     94  O   UNL A   1      55.574  27.136  25.803  1.00  0.00    -0.237 OA
ATOM     95  O   UNL A   1      54.837  26.468  23.542  1.00  0.00    -0.237 OA
ATOM     96  O   UNL A   1      55.299  28.836  24.037  1.00  0.00    -0.744 OA
ENDBRANCH  92  93
ENDBRANCH  66  87
ENDBRANCH  40  41
ENDBRANCH  33  35
ENDBRANCH  32  33
ENDBRANCH  31  32
ENDBRANCH  30  31
ENDBRANCH   1  30
TORSDOF 20
ENDMDL
MODEL 2
REMARK VINA RESULT:     -10.6      1.916      2.915
REMARK SMILES COc1ccc(-c2nc3cc(N4C[C@@H](C(=O)OCCOCCOC(=O)c5ccc(-c6c7nc(c(-c8ccc(S(=O)(=O)[O-])cc8)c8ccc([nH]8)c(-c8ccc(S(=O)(=O)[O-])cc8)c8nc(c(-c9ccc(S(=O)(=O)[O-])cc9)c9ccc6[nH]9)C=C8)C=C7)cc5)CC4=O)ccc3o2)cc1
REMARK SMILES IDX 20 1 19 2 18 3 17 4 15 5 16 6 14 7 12 8 13 9 87 10 86 11
REMARK SMILES IDX 88 12 11 13 7 14 8 15 92 16 9 17 91 18 10 19 90 20 89 21
REMARK SMILES IDX 6 22 3 23 4 24 94 25 5 26 93 27 2 28 1 29 21 30 22 31 23 32
REMARK SMILES IDX 24 33 25 34 26 35 27 36 85 37 28 38 84 39 29 40 30 41 31 42
REMARK SMILES IDX 78 43 32 44 83 45 77 46 79 47 33 48 82 49 76 50 75 51 34 53
REMARK SMILES IDX 64 54 45 55 63 56 46 57 49 58 62 59 80 60 47 61 48 62 61 64
REMARK SMILES IDX 81 65 50 66 35 67 36 68 44 69 37 70 43 71 38 72 39 73 40 74
REMARK SMILES IDX 41 75 42 76 65 77 66 78 74 79 67 80 73 81 68 82 69 83 70 84
REMARK SMILES IDX 71 85 72 86 51 87 52 88 60 89 53 90 59 91 54 92 55 93 56 94
REMARK SMILES IDX 57 95 58 96
REMARK H PARENT 79 52 49 63
REMARK Flexibility Score: inf
ROOT
ATOM      1  O   UNL A   1      34.746  32.759  28.042  1.00  0.00    -0.374 OA
ENDROOT
BRANCH   1   2
ATOM      2  C   UNL A   1      33.661  31.838  27.936  1.00  0.00     0.202 C 
BRANCH   2   3
ATOM      3  C   UNL A   1      33.847  30.668  26.970  1.00  0.00     0.261 C 
BRANCH   3   4
ATOM      4  O   UNL A   1      32.649  29.886  26.877  1.00  0.00    -0.463 OA
BRANCH   4   5
ATOM      5  C   UNL A   1      31.706  30.378  26.041  1.00  0.00     0.311 C 
ATOM      6  O   UNL A   1      31.326  31.542  25.997  1.00  0.00    -0.252 OA
BRANCH   5   7
ATOM      7  C   UNL A   1      31.123  29.329  25.146  1.00  0.00     0.128 C 
ATOM      8  N   UNL A   1      31.693  27.832  23.502  1.00  0.00    -0.311 N 
ATOM      9  C   UNL A   1      32.285  28.558  24.592  1.00  0.00     0.141 C 
ATOM     10  C   UNL A   1      30.603  28.524  22.973  1.00  0.00     0.227 C 
ATOM     11  C   UNL A   1      30.349  29.714  23.887  1.00  0.00     0.117 C 
ATOM     12  O   UNL A   1      29.907  28.229  22.015  1.00  0.00    -0.274 OA
BRANCH   8  13
ATOM     13  C   UNL A   1      32.141  26.554  23.131  1.00  0.00     0.046 A 
ATOM     14  C   UNL A   1      32.754  22.186  23.628  1.00  0.00     0.227 A 
ATOM     15  N   UNL A   1      32.287  23.102  24.448  1.00  0.00    -0.209 NA
ATOM     16  O   UNL A   1      33.230  22.656  22.427  1.00  0.00    -0.436 OA
ATOM     17  C   UNL A   1      32.409  24.247  23.733  1.00  0.00     0.112 A 
ATOM     18  C   UNL A   1      32.967  24.003  22.493  1.00  0.00     0.155 A 
ATOM     19  C   UNL A   1      32.008  25.530  24.076  1.00  0.00     0.058 A 
ATOM     20  C   UNL A   1      33.143  24.986  21.525  1.00  0.00     0.051 A 
ATOM     21  C   UNL A   1      32.678  26.275  21.865  1.00  0.00     0.030 A 
BRANCH  14  22
ATOM     22  C   UNL A   1      32.610  20.757  23.813  1.00  0.00     0.037 A 
ATOM     23  C   UNL A   1      32.601  17.992  24.293  1.00  0.00     0.118 A 
ATOM     24  C   UNL A   1      32.273  18.501  23.030  1.00  0.00     0.047 A 
ATOM     25  C   UNL A   1      32.935  18.871  25.319  1.00  0.00     0.047 A 
ATOM     26  C   UNL A   1      32.262  19.881  22.789  1.00  0.00     0.017 A 
ATOM     27  C   UNL A   1      32.945  20.241  25.076  1.00  0.00     0.017 A 
BRANCH  23  28
ATOM     28  O   UNL A   1      32.590  16.629  24.401  1.00  0.00    -0.497 OA
ATOM     29  C   UNL A   1      32.952  16.103  25.673  1.00  0.00     0.278 C 
ENDBRANCH  23  28
ENDBRANCH  14  22
ENDBRANCH   8  13
ENDBRANCH   5   7
ENDBRANCH   4   5
ENDBRANCH   3   4
ENDBRANCH   2   3
ENDBRANCH   1   2
BRANCH   1  30
ATOM     30  C   UNL A   1      36.067  32.240  28.200  1.00  0.00     0.202 C 
BRANCH  30  31
ATOM     31  C   UNL A   1      36.379  31.462  29.483  1.00  0.00     0.261 C 
BRANCH  31  32
ATOM     32  O   UNL A   1      36.532  30.050  29.248  1.00  0.00    -0.460 OA
BRANCH  32  33
ATOM     33  C   UNL A   1      37.297  29.408  30.164  1.00  0.00     0.338 C 
ATOM     34  O   UNL A   1      36.962  29.067  31.293  1.00  0.00    -0.246 OA
BRANCH  33  35
ATOM     35  C   UNL A   1      38.571  28.979  29.563  1.00  0.00     0.060 A 
ATOM     36  C   UNL A   1      39.508  28.366  30.406  1.00  0.00     0.016 A 
ATOM     37  C   UNL A   1      38.888  29.254  28.232  1.00  0.00     0.016 A 
ATOM     38  C   UNL A   1      40.785  28.074  29.934  1.00  0.00     0.010 A 
ATOM     39  C   UNL A   1      40.175  28.968  27.763  1.00  0.00     0.010 A 
ATOM     40  C   UNL A   1      41.139  28.412  28.623  1.00  0.00    -0.014 A 
BRANCH  40  41
ATOM     41  C   UNL A   1      42.558  28.313  28.204  1.00  0.00     0.031 A 
ATOM     42  C   UNL A   1      43.468  29.492  28.417  1.00  0.00     0.074 A 
ATOM     43  C   UNL A   1      43.040  27.175  27.672  1.00  0.00     0.049 A 
ATOM     44  N   UNL A   1      44.736  29.623  28.120  1.00  0.00    -0.248 NA
ATOM     45  C   UNL A   1      42.870  30.680  29.050  1.00  0.00     0.031 C 
ATOM     46  C   UNL A   1      42.270  25.950  27.456  1.00  0.00     0.029 A 
ATOM     47  N   UNL A   1      44.297  26.868  27.217  1.00  0.00    -0.354 N 
ATOM     48  C   UNL A   1      45.086  30.908  28.521  1.00  0.00     0.074 A 
ATOM     49  C   UNL A   1      43.892  31.525  29.058  1.00  0.00     0.031 C 
ATOM     50  C   UNL A   1      43.071  25.024  26.902  1.00  0.00     0.029 A 
ATOM     51  C   UNL A   1      44.400  25.600  26.697  1.00  0.00     0.049 A 
ATOM     52  H   UNL A   1      45.054  27.495  27.259  1.00  0.00     0.167 HD
ATOM     53  C   UNL A   1      46.294  31.519  28.450  1.00  0.00     0.031 A 
ATOM     54  C   UNL A   1      45.440  24.979  26.106  1.00  0.00     0.031 A 
ATOM     55  C   UNL A   1      47.476  30.909  27.903  1.00  0.00     0.049 A 
ATOM     56  C   UNL A   1      46.755  25.701  25.978  1.00  0.00     0.074 A 
ATOM     57  C   UNL A   1      48.750  31.441  27.801  1.00  0.00     0.029 A 
ATOM     58  N   UNL A   1      47.529  29.637  27.353  1.00  0.00    -0.354 N 
ATOM     59  N   UNL A   1      47.076  26.906  26.385  1.00  0.00    -0.248 NA
ATOM     60  C   UNL A   1      47.850  24.975  25.318  1.00  0.00     0.031 C 
ATOM     61  C   UNL A   1      49.560  30.509  27.143  1.00  0.00     0.029 A 
ATOM     62  C   UNL A   1      48.806  29.376  26.887  1.00  0.00     0.049 A 
ATOM     63  H   UNL A   1      46.770  29.012  27.303  1.00  0.00     0.167 HD
ATOM     64  C   UNL A   1      48.417  27.073  26.054  1.00  0.00     0.074 A 
ATOM     65  C   UNL A   1      48.849  25.842  25.423  1.00  0.00     0.031 C 
ATOM     66  C   UNL A   1      49.221  28.147  26.259  1.00  0.00     0.031 A 
BRANCH  53  67
ATOM     67  C   UNL A   1      46.382  32.937  28.947  1.00  0.00    -0.014 A 
ATOM     68  C   UNL A   1      46.217  34.029  28.076  1.00  0.00     0.010 A 
ATOM     69  C   UNL A   1      46.609  33.181  30.314  1.00  0.00     0.010 A 
ATOM     70  C   UNL A   1      46.319  35.338  28.555  1.00  0.00     0.020 A 
ATOM     71  C   UNL A   1      46.685  34.487  30.803  1.00  0.00     0.020 A 
ATOM     72  C   UNL A   1      46.558  35.559  29.915  1.00  0.00     0.054 A 
BRANCH  72  73
ATOM     73  S   UNL A   1      46.676  37.267  30.515  1.00  0.00     0.124 S 
ATOM     74  O   UNL A   1      46.296  38.028  29.327  1.00  0.00    -0.237 OA
ATOM     75  O   UNL A   1      45.711  37.291  31.610  1.00  0.00    -0.237 OA
ATOM     76  O   UNL A   1      48.074  37.398  30.917  1.00  0.00    -0.744 OA
ENDBRANCH  72  73
ENDBRANCH  53  67
BRANCH  54  77
ATOM     77  C   UNL A   1      45.271  23.600  25.575  1.00  0.00    -0.014 A 
ATOM     78  C   UNL A   1      45.641  22.483  26.343  1.00  0.00     0.010 A 
ATOM     79  C   UNL A   1      44.717  23.399  24.297  1.00  0.00     0.010 A 
ATOM     80  C   UNL A   1      45.468  21.190  25.841  1.00  0.00     0.020 A 
ATOM     81  C   UNL A   1      44.520  22.108  23.801  1.00  0.00     0.020 A 
ATOM     82  C   UNL A   1      44.904  21.011  24.574  1.00  0.00     0.054 A 
BRANCH  82  83
ATOM     83  S   UNL A   1      44.625  19.322  23.969  1.00  0.00     0.124 S 
ATOM     84  O   UNL A   1      43.392  18.954  24.656  1.00  0.00    -0.237 OA
ATOM     85  O   UNL A   1      44.514  19.519  22.526  1.00  0.00    -0.237 OA
ATOM     86  O   UNL A   1      45.823  18.605  24.401  1.00  0.00    -0.744 OA
ENDBRANCH  82  83
ENDBRANCH  54  77
BRANCH  66  87
ATOM     87  C   UNL A   1      50.659  28.033  25.828  1.00  0.00    -0.014 A 
ATOM     88  C   UNL A   1      51.112  28.616  24.632  1.00  0.00     0.010 A 
ATOM     89  C   UNL A   1      51.583  27.383  26.668  1.00  0.00     0.010 A 
ATOM     90  C   UNL A   1      52.460  28.527  24.270  1.00  0.00     0.020 A 
ATOM     91  C   UNL A   1      52.935  27.315  26.322  1.00  0.00     0.020 A 
ATOM     92  C   UNL A   1      53.363  27.877  25.117  1.00  0.00     0.054 A 
BRANCH  92  93
ATOM     93  S   UNL A   1      55.114  27.816  24.648  1.00  0.00     0.124 S 
ATOM     94  O   UNL A   1      55.174  28.798  23.568  1.00  0.00    -0.237 OA
ATOM     95  O   UNL A   1      55.792  28.198  25.885  1.00  0.00    -0.237 OA
ATOM     96  O   UNL A   1      55.315  26.428  24.239  1.00  0.00    -0.744 OA
ENDBRANCH  92  93
ENDBRANCH  66  87
ENDBRANCH  40  41
ENDBRANCH  33  35
ENDBRANCH  32  33
ENDBRANCH  31  32
ENDBRANCH  30  31
ENDBRANCH   1  30
TORSDOF 20
ENDMDL
MODEL 3
REMARK VINA RESULT:     -10.0      5.855     11.031
REMARK SMILES COc1ccc(-c2nc3cc(N4C[C@@H](C(=O)OCCOCCOC(=O)c5ccc(-c6c7nc(c(-c8ccc(S(=O)(=O)[O-])cc8)c8ccc([nH]8)c(-c8ccc(S(=O)(=O)[O-])cc8)c8nc(c(-c9ccc(S(=O)(=O)[O-])cc9)c9ccc6[nH]9)C=C8)C=C7)cc5)CC4=O)ccc3o2)cc1
REMARK SMILES IDX 20 1 19 2 18 3 17 4 15 5 16 6 14 7 12 8 13 9 87 10 86 11
REMARK SMILES IDX 88 12 11 13 7 14 8 15 92 16 9 17 91 18 10 19 90 20 89 21
REMARK SMILES IDX 6 22 3 23 4 24 94 25 5 26 93 27 2 28 1 29 21 30 22 31 23 32
REMARK SMILES IDX 24 33 25 34 26 35 27 36 85 37 28 38 84 39 29 40 30 41 31 42
REMARK SMILES IDX 78 43 32 44 83 45 77 46 79 47 33 48 82 49 76 50 75 51 34 53
REMARK SMILES IDX 64 54 45 55 63 56 46 57 49 58 62 59 80 60 47 61 48 62 61 64
REMARK SMILES IDX 81 65 50 66 35 67 36 68 44 69 37 70 43 71 38 72 39 73 40 74
REMARK SMILES IDX 41 75 42 76 65 77 66 78 74 79 67 80 73 81 68 82 69 83 70 84
REMARK SMILES IDX 71 85 72 86 51 87 52 88 60 89 53 90 59 91 54 92 55 93 56 94
REMARK SMILES IDX 57 95 58 96
REMARK H PARENT 79 52 49 63
REMARK Flexibility Score: inf
ROOT
ATOM      1  O   UNL A   1      43.554  19.032  26.231  1.00  0.00    -0.374 OA
ENDROOT
BRANCH   1   2
ATOM      2  C   UNL A   1      44.600  18.524  25.403  1.00  0.00     0.202 C 
BRANCH   2   3
ATOM      3  C   UNL A   1      44.722  19.128  24.005  1.00  0.00     0.261 C 
BRANCH   3   4
ATOM      4  O   UNL A   1      44.548  20.551  24.044  1.00  0.00    -0.463 OA
BRANCH   4   5
ATOM      5  C   UNL A   1      45.674  21.260  24.290  1.00  0.00     0.311 C 
ATOM      6  O   UNL A   1      46.778  20.787  24.532  1.00  0.00    -0.252 OA
BRANCH   5   7
ATOM      7  C   UNL A   1      45.443  22.738  24.264  1.00  0.00     0.128 C 
ATOM      8  N   UNL A   1      45.544  24.609  25.591  1.00  0.00    -0.311 N 
ATOM      9  C   UNL A   1      46.097  23.286  25.499  1.00  0.00     0.141 C 
ATOM     10  C   UNL A   1      44.271  24.660  25.022  1.00  0.00     0.227 C 
ATOM     11  C   UNL A   1      44.032  23.315  24.354  1.00  0.00     0.117 C 
ATOM     12  O   UNL A   1      43.497  25.602  24.974  1.00  0.00    -0.274 OA
BRANCH   8  13
ATOM     13  C   UNL A   1      46.279  25.686  26.110  1.00  0.00     0.046 A 
ATOM     14  C   UNL A   1      48.786  27.798  29.104  1.00  0.00     0.227 A 
ATOM     15  N   UNL A   1      48.167  26.639  29.144  1.00  0.00    -0.209 NA
ATOM     16  O   UNL A   1      48.556  28.551  27.977  1.00  0.00    -0.436 OA
ATOM     17  C   UNL A   1      47.526  26.589  27.951  1.00  0.00     0.112 A 
ATOM     18  C   UNL A   1      47.757  27.735  27.214  1.00  0.00     0.155 A 
ATOM     19  C   UNL A   1      46.766  25.560  27.417  1.00  0.00     0.058 A 
ATOM     20  C   UNL A   1      47.280  27.924  25.921  1.00  0.00     0.051 A 
ATOM     21  C   UNL A   1      46.557  26.844  25.368  1.00  0.00     0.030 A 
BRANCH  14  22
ATOM     22  C   UNL A   1      49.817  28.220  30.030  1.00  0.00     0.037 A 
ATOM     23  C   UNL A   1      51.881  29.250  31.628  1.00  0.00     0.118 A 
ATOM     24  C   UNL A   1      51.810  27.880  31.345  1.00  0.00     0.047 A 
ATOM     25  C   UNL A   1      50.916  30.107  31.108  1.00  0.00     0.047 A 
ATOM     26  C   UNL A   1      50.774  27.358  30.560  1.00  0.00     0.017 A 
ATOM     27  C   UNL A   1      49.896  29.594  30.311  1.00  0.00     0.017 A 
BRANCH  23  28
ATOM     28  O   UNL A   1      52.946  29.640  32.392  1.00  0.00    -0.497 OA
ATOM     29  C   UNL A   1      53.886  28.620  32.715  1.00  0.00     0.278 C 
ENDBRANCH  23  28
ENDBRANCH  14  22
ENDBRANCH   8  13
ENDBRANCH   5   7
ENDBRANCH   4   5
ENDBRANCH   3   4
ENDBRANCH   2   3
ENDBRANCH   1   2
BRANCH   1  30
ATOM     30  C   UNL A   1      42.271  18.410  26.166  1.00  0.00     0.202 C 
BRANCH  30  31
ATOM     31  C   UNL A   1      41.040  19.320  26.097  1.00  0.00     0.261 C 
BRANCH  31  32
ATOM     32  O   UNL A   1      41.387  20.706  25.922  1.00  0.00    -0.460 OA
BRANCH  32  33
ATOM     33  C   UNL A   1      40.621  21.571  26.630  1.00  0.00     0.338 C 
ATOM     34  O   UNL A   1      39.426  21.458  26.882  1.00  0.00    -0.246 OA
BRANCH  33  35
ATOM     35  C   UNL A   1      41.455  22.613  27.249  1.00  0.00     0.060 A 
ATOM     36  C   UNL A   1      42.798  22.300  27.501  1.00  0.00     0.016 A 
ATOM     37  C   UNL A   1      40.921  23.834  27.666  1.00  0.00     0.016 A 
ATOM     38  C   UNL A   1      43.598  23.185  28.218  1.00  0.00     0.010 A 
ATOM     39  C   UNL A   1      41.726  24.718  28.394  1.00  0.00     0.010 A 
ATOM     40  C   UNL A   1      43.055  24.380  28.705  1.00  0.00    -0.014 A 
BRANCH  40  41
ATOM     41  C   UNL A   1      43.840  25.201  29.659  1.00  0.00     0.031 A 
ATOM     42  C   UNL A   1      44.148  26.633  29.312  1.00  0.00     0.074 A 
ATOM     43  C   UNL A   1      44.244  24.689  30.835  1.00  0.00     0.049 A 
ATOM     44  N   UNL A   1      44.822  27.522  29.994  1.00  0.00    -0.248 NA
ATOM     45  C   UNL A   1      43.626  27.126  28.026  1.00  0.00     0.031 C 
ATOM     46  C   UNL A   1      43.970  23.331  31.305  1.00  0.00     0.029 A 
ATOM     47  N   UNL A   1      44.973  25.257  31.850  1.00  0.00    -0.354 N 
ATOM     48  C   UNL A   1      44.813  28.678  29.219  1.00  0.00     0.074 A 
ATOM     49  C   UNL A   1      44.089  28.368  28.005  1.00  0.00     0.031 C 
ATOM     50  C   UNL A   1      44.532  23.169  32.515  1.00  0.00     0.029 A 
ATOM     51  C   UNL A   1      45.229  24.398  32.891  1.00  0.00     0.049 A 
ATOM     52  H   UNL A   1      45.283  26.191  31.833  1.00  0.00     0.167 HD
ATOM     53  C   UNL A   1      45.356  29.888  29.495  1.00  0.00     0.031 A 
ATOM     54  C   UNL A   1      45.957  24.575  34.011  1.00  0.00     0.031 A 
ATOM     55  C   UNL A   1      46.087  30.190  30.696  1.00  0.00     0.049 A 
ATOM     56  C   UNL A   1      46.608  25.908  34.266  1.00  0.00     0.074 A 
ATOM     57  C   UNL A   1      46.663  31.391  31.074  1.00  0.00     0.029 A 
ATOM     58  N   UNL A   1      46.355  29.282  31.709  1.00  0.00    -0.354 N 
ATOM     59  N   UNL A   1      46.568  26.997  33.536  1.00  0.00    -0.248 NA
ATOM     60  C   UNL A   1      47.395  26.038  35.500  1.00  0.00     0.031 C 
ATOM     61  C   UNL A   1      47.323  31.194  32.292  1.00  0.00     0.029 A 
ATOM     62  C   UNL A   1      47.110  29.887  32.700  1.00  0.00     0.049 A 
ATOM     63  H   UNL A   1      46.053  28.346  31.722  1.00  0.00     0.167 HD
ATOM     64  C   UNL A   1      47.303  27.950  34.236  1.00  0.00     0.074 A 
ATOM     65  C   UNL A   1      47.767  27.311  35.451  1.00  0.00     0.031 C 
ATOM     66  C   UNL A   1      47.566  29.239  33.904  1.00  0.00     0.031 A 
BRANCH  53  67
ATOM     67  C   UNL A   1      45.208  30.966  28.455  1.00  0.00    -0.014 A 
ATOM     68  C   UNL A   1      44.107  31.842  28.462  1.00  0.00     0.010 A 
ATOM     69  C   UNL A   1      46.200  31.122  27.469  1.00  0.00     0.010 A 
ATOM     70  C   UNL A   1      43.980  32.826  27.477  1.00  0.00     0.020 A 
ATOM     71  C   UNL A   1      46.091  32.121  26.499  1.00  0.00     0.020 A 
ATOM     72  C   UNL A   1      44.970  32.956  26.499  1.00  0.00     0.054 A 
BRANCH  72  73
ATOM     73  S   UNL A   1      44.788  34.247  25.237  1.00  0.00     0.124 S 
ATOM     74  O   UNL A   1      44.525  33.458  24.036  1.00  0.00    -0.237 OA
ATOM     75  O   UNL A   1      43.656  35.025  25.736  1.00  0.00    -0.237 OA
ATOM     76  O   UNL A   1      46.073  34.939  25.260  1.00  0.00    -0.744 OA
ENDBRANCH  72  73
ENDBRANCH  53  67
BRANCH  54  77
ATOM     77  C   UNL A   1      46.121  23.449  34.970  1.00  0.00    -0.014 A 
ATOM     78  C   UNL A   1      45.328  23.369  36.127  1.00  0.00     0.010 A 
ATOM     79  C   UNL A   1      47.066  22.437  34.715  1.00  0.00     0.010 A 
ATOM     80  C   UNL A   1      45.482  22.301  37.017  1.00  0.00     0.020 A 
ATOM     81  C   UNL A   1      47.205  21.356  35.589  1.00  0.00     0.020 A 
ATOM     82  C   UNL A   1      46.416  21.299  36.739  1.00  0.00     0.054 A 
BRANCH  82  83
ATOM     83  S   UNL A   1      46.551  19.887  37.872  1.00  0.00     0.124 S 
ATOM     84  O   UNL A   1      46.030  20.445  39.115  1.00  0.00    -0.237 OA
ATOM     85  O   UNL A   1      45.709  18.884  37.225  1.00  0.00    -0.237 OA
ATOM     86  O   UNL A   1      47.980  19.584  37.868  1.00  0.00    -0.744 OA
ENDBRANCH  82  83
ENDBRANCH  54  77
BRANCH  66  87
ATOM     87  C   UNL A   1      48.364  30.060  34.880  1.00  0.00    -0.014 A 
ATOM     88  C   UNL A   1      47.753  30.681  35.984  1.00  0.00     0.010 A 
ATOM     89  C   UNL A   1      49.759  30.159  34.723  1.00  0.00     0.010 A 
ATOM     90  C   UNL A   1      48.521  31.409  36.898  1.00  0.00     0.020 A 
ATOM     91  C   UNL A   1      50.533  30.864  35.648  1.00  0.00     0.020 A 
ATOM     92  C   UNL A   1      49.906  31.497  36.724  1.00  0.00     0.054 A 
BRANCH  92  93
ATOM     93  S   UNL A   1      50.886  32.408  37.948  1.00  0.00     0.124 S 
ATOM     94  O   UNL A   1      51.614  31.332  38.617  1.00  0.00    -0.237 OA
ATOM     95  O   UNL A   1      51.698  33.294  37.117  1.00  0.00    -0.237 OA
ATOM     96  O   UNL A   1      49.880  33.081  38.766  1.00  0.00    -0.744 OA
ENDBRANCH  92  93
ENDBRANCH  66  87
ENDBRANCH  40  41
ENDBRANCH  33  35
ENDBRANCH  32  33
ENDBRANCH  31  32
ENDBRANCH  30  31
ENDBRANCH   1  30
TORSDOF 20
ENDMDL
