MODEL 1
REMARK VINA RESULT:      -9.2      0.000      0.000
REMARK SMILES CCC[C@H](c1ccccc1)[C@@](C)(O)C(=O)OCCOCCOC(=O)c1ccc(-c2c3nc(c(-c4ccc(S(=O)(=O)[O-])cc4)c4ccc([nH]4)c(-c4ccc(S(=O)(=O)[O-])cc4)c4nc(c(-c5ccc(S(=O)(=O)[O-])cc5)c5ccc2[nH]5)C=C4)C=C3)cc1
REMARK SMILES IDX 19 1 18 2 17 3 16 4 14 5 15 6 11 7 12 8 4 9 3 10 2 11 1 12
REMARK SMILES IDX 5 13 6 14 10 15 7 16 9 17 8 18 13 19 20 21 21 22 22 23 23 24
REMARK SMILES IDX 24 25 25 26 26 27 84 28 27 29 83 30 28 31 29 32 30 33 77 34
REMARK SMILES IDX 31 35 82 36 76 37 78 38 32 39 81 40 75 41 74 42 33 44 63 45
REMARK SMILES IDX 44 46 62 47 45 48 48 49 61 50 79 51 46 52 47 53 60 55 80 56
REMARK SMILES IDX 49 57 34 58 35 59 43 60 36 61 42 62 37 63 38 64 39 65 40 66
REMARK SMILES IDX 41 67 64 68 65 69 73 70 66 71 72 72 67 73 68 74 69 75 70 76
REMARK SMILES IDX 71 77 50 78 51 79 59 80 52 81 58 82 53 83 54 84 55 85 56 86
REMARK SMILES IDX 57 87
REMARK H PARENT 13 20 78 43 48 54
REMARK Flexibility Score: inf
ROOT
ATOM      1  O   UNL A   1      31.655  29.422  25.346  1.00  0.00    -0.374 OA
ENDROOT
BRANCH   1   2
ATOM      2  C   UNL A   1      31.490  28.059  25.766  1.00  0.00     0.202 C 
BRANCH   2   3
ATOM      3  C   UNL A   1      30.795  27.124  24.773  1.00  0.00     0.261 C 
BRANCH   3   4
ATOM      4  O   UNL A   1      30.423  25.853  25.355  1.00  0.00    -0.461 OA
BRANCH   4   5
ATOM      5  C   UNL A   1      31.474  25.049  25.659  1.00  0.00     0.338 C 
ATOM      6  O   UNL A   1      32.090  25.146  26.715  1.00  0.00    -0.249 OA
BRANCH   5   7
ATOM      7  C   UNL A   1      31.853  24.068  24.516  1.00  0.00     0.165 C 
ATOM      8  C   UNL A   1      30.658  23.837  23.571  1.00  0.00     0.055 C 
BRANCH   7   9
ATOM      9  C   UNL A   1      33.112  24.626  23.743  1.00  0.00     0.062 C 
BRANCH   9  10
ATOM     10  C   UNL A   1      32.912  24.834  22.185  1.00  0.00     0.012 C 
BRANCH  10  11
ATOM     11  C   UNL A   1      33.095  26.196  21.494  1.00  0.00    -0.003 C 
ATOM     12  C   UNL A   1      33.395  27.390  22.400  1.00  0.00     0.004 C 
ENDBRANCH  10  11
ENDBRANCH   9  10
BRANCH   9  13
ATOM     13  C   UNL A   1      34.512  24.080  24.143  1.00  0.00    -0.041 A 
ATOM     14  C   UNL A   1      35.150  24.361  25.367  1.00  0.00     0.004 A 
ATOM     15  C   UNL A   1      35.255  23.319  23.223  1.00  0.00     0.004 A 
ATOM     16  C   UNL A   1      36.430  23.895  25.676  1.00  0.00     0.000 A 
ATOM     17  C   UNL A   1      36.537  22.843  23.529  1.00  0.00     0.000 A 
ATOM     18  C   UNL A   1      37.125  23.130  24.757  1.00  0.00     0.000 A 
ENDBRANCH   9  13
ENDBRANCH   7   9
BRANCH   7  19
ATOM     19  O   UNL A   1      32.123  22.749  25.010  1.00  0.00    -0.378 OA
ATOM     20  H   UNL A   1      31.975  22.102  24.302  1.00  0.00     0.212 HD
ENDBRANCH   7  19
ENDBRANCH   5   7
ENDBRANCH   4   5
ENDBRANCH   3   4
ENDBRANCH   2   3
ENDBRANCH   1   2
BRANCH   1  21
ATOM     21  C   UNL A   1      32.895  30.024  25.713  1.00  0.00     0.202 C 
BRANCH  21  22
ATOM     22  C   UNL A   1      32.912  30.751  27.064  1.00  0.00     0.261 C 
BRANCH  22  23
ATOM     23  O   UNL A   1      33.815  30.101  27.971  1.00  0.00    -0.460 OA
BRANCH  23  24
ATOM     24  C   UNL A   1      34.790  30.924  28.427  1.00  0.00     0.338 C 
ATOM     25  O   UNL A   1      34.648  32.028  28.912  1.00  0.00    -0.246 OA
BRANCH  24  26
ATOM     26  C   UNL A   1      36.074  30.200  28.483  1.00  0.00     0.060 A 
ATOM     27  C   UNL A   1      36.402  29.655  29.729  1.00  0.00     0.016 A 
ATOM     28  C   UNL A   1      36.951  30.086  27.401  1.00  0.00     0.016 A 
ATOM     29  C   UNL A   1      37.653  29.095  29.931  1.00  0.00     0.010 A 
ATOM     30  C   UNL A   1      38.219  29.524  27.609  1.00  0.00     0.010 A 
ATOM     31  C   UNL A   1      38.594  29.092  28.894  1.00  0.00    -0.014 A 
BRANCH  31  32
ATOM     32  C   UNL A   1      40.006  28.842  29.275  1.00  0.00     0.031 A 
ATOM     33  C   UNL A   1      40.635  27.530  28.879  1.00  0.00     0.074 A 
ATOM     34  C   UNL A   1      40.760  29.834  29.781  1.00  0.00     0.049 A 
ATOM     35  N   UNL A   1      41.892  27.171  28.915  1.00  0.00    -0.248 NA
ATOM     36  C   UNL A   1      39.731  26.493  28.355  1.00  0.00     0.031 C 
ATOM     37  C   UNL A   1      40.271  31.165  30.142  1.00  0.00     0.029 A 
ATOM     38  N   UNL A   1      42.107  29.889  30.034  1.00  0.00    -0.354 N 
ATOM     39  C   UNL A   1      41.929  25.873  28.416  1.00  0.00     0.074 A 
ATOM     40  C   UNL A   1      40.567  25.493  28.121  1.00  0.00     0.031 C 
ATOM     41  C   UNL A   1      41.311  31.918  30.540  1.00  0.00     0.029 A 
ATOM     42  C   UNL A   1      42.531  31.115  30.488  1.00  0.00     0.049 A 
ATOM     43  H   UNL A   1      42.713  29.124  29.904  1.00  0.00     0.167 HD
ATOM     44  C   UNL A   1      43.003  25.074  28.208  1.00  0.00     0.031 A 
ATOM     45  C   UNL A   1      43.764  31.543  30.822  1.00  0.00     0.031 A 
ATOM     46  C   UNL A   1      44.356  25.455  28.514  1.00  0.00     0.049 A 
ATOM     47  C   UNL A   1      44.933  30.610  30.652  1.00  0.00     0.074 A 
ATOM     48  C   UNL A   1      45.516  24.719  28.343  1.00  0.00     0.029 A 
ATOM     49  N   UNL A   1      44.732  26.672  29.061  1.00  0.00    -0.354 N 
ATOM     50  N   UNL A   1      44.953  29.392  30.163  1.00  0.00    -0.248 NA
ATOM     51  C   UNL A   1      46.249  31.114  31.067  1.00  0.00     0.031 C 
ATOM     52  C   UNL A   1      46.584  25.466  28.850  1.00  0.00     0.029 A 
ATOM     53  C   UNL A   1      46.101  26.696  29.268  1.00  0.00     0.049 A 
ATOM     54  H   UNL A   1      44.116  27.411  29.272  1.00  0.00     0.167 HD
ATOM     55  C   UNL A   1      46.285  28.992  30.191  1.00  0.00     0.074 A 
ATOM     56  C   UNL A   1      47.042  30.109  30.722  1.00  0.00     0.031 C 
ATOM     57  C   UNL A   1      46.835  27.811  29.815  1.00  0.00     0.031 A 
BRANCH  44  58
ATOM     58  C   UNL A   1      42.748  23.690  27.667  1.00  0.00    -0.014 A 
ATOM     59  C   UNL A   1      42.703  23.437  26.283  1.00  0.00     0.010 A 
ATOM     60  C   UNL A   1      42.585  22.618  28.562  1.00  0.00     0.010 A 
ATOM     61  C   UNL A   1      42.462  22.144  25.808  1.00  0.00     0.020 A 
ATOM     62  C   UNL A   1      42.375  21.319  28.092  1.00  0.00     0.020 A 
ATOM     63  C   UNL A   1      42.299  21.093  26.717  1.00  0.00     0.054 A 
BRANCH  63  64
ATOM     64  S   UNL A   1      42.014  19.420  26.073  1.00  0.00     0.124 S 
ATOM     65  O   UNL A   1      42.822  19.422  24.856  1.00  0.00    -0.237 OA
ATOM     66  O   UNL A   1      42.510  18.572  27.154  1.00  0.00    -0.237 OA
ATOM     67  O   UNL A   1      40.570  19.371  25.859  1.00  0.00    -0.744 OA
ENDBRANCH  63  64
ENDBRANCH  44  58
BRANCH  45  68
ATOM     68  C   UNL A   1      43.950  32.917  31.371  1.00  0.00    -0.014 A 
ATOM     69  C   UNL A   1      44.166  34.018  30.527  1.00  0.00     0.010 A 
ATOM     70  C   UNL A   1      43.907  33.122  32.763  1.00  0.00     0.010 A 
ATOM     71  C   UNL A   1      44.350  35.298  31.066  1.00  0.00     0.020 A 
ATOM     72  C   UNL A   1      44.059  34.401  33.303  1.00  0.00     0.020 A 
ATOM     73  C   UNL A   1      44.291  35.480  32.451  1.00  0.00     0.054 A 
BRANCH  73  74
ATOM     74  S   UNL A   1      44.476  37.154  33.126  1.00  0.00     0.124 S 
ATOM     75  O   UNL A   1      43.811  37.036  34.419  1.00  0.00    -0.237 OA
ATOM     76  O   UNL A   1      45.927  37.316  33.171  1.00  0.00    -0.237 OA
ATOM     77  O   UNL A   1      43.794  37.996  32.145  1.00  0.00    -0.744 OA
ENDBRANCH  73  74
ENDBRANCH  45  68
BRANCH  57  78
ATOM     78  C   UNL A   1      48.331  27.673  29.946  1.00  0.00    -0.014 A 
ATOM     79  C   UNL A   1      48.917  27.135  31.105  1.00  0.00     0.010 A 
ATOM     80  C   UNL A   1      49.160  28.067  28.880  1.00  0.00     0.010 A 
ATOM     81  C   UNL A   1      50.307  27.043  31.217  1.00  0.00     0.020 A 
ATOM     82  C   UNL A   1      50.549  27.945  28.974  1.00  0.00     0.020 A 
ATOM     83  C   UNL A   1      51.114  27.454  30.152  1.00  0.00     0.054 A 
BRANCH  83  84
ATOM     84  S   UNL A   1      52.915  27.317  30.319  1.00  0.00     0.124 S 
ATOM     85  O   UNL A   1      53.235  26.296  29.326  1.00  0.00    -0.237 OA
ATOM     86  O   UNL A   1      53.372  28.667  30.003  1.00  0.00    -0.237 OA
ATOM     87  O   UNL A   1      53.104  26.911  31.711  1.00  0.00    -0.744 OA
ENDBRANCH  83  84
ENDBRANCH  57  78
ENDBRANCH  31  32
ENDBRANCH  24  26
ENDBRANCH  23  24
ENDBRANCH  22  23
ENDBRANCH  21  22
ENDBRANCH   1  21
TORSDOF 22
ENDMDL
MODEL 2
REMARK VINA RESULT:      -9.0      2.908      9.148
REMARK SMILES CCC[C@H](c1ccccc1)[C@@](C)(O)C(=O)OCCOCCOC(=O)c1ccc(-c2c3nc(c(-c4ccc(S(=O)(=O)[O-])cc4)c4ccc([nH]4)c(-c4ccc(S(=O)(=O)[O-])cc4)c4nc(c(-c5ccc(S(=O)(=O)[O-])cc5)c5ccc2[nH]5)C=C4)C=C3)cc1
REMARK SMILES IDX 19 1 18 2 17 3 16 4 14 5 15 6 11 7 12 8 4 9 3 10 2 11 1 12
REMARK SMILES IDX 5 13 6 14 10 15 7 16 9 17 8 18 13 19 20 21 21 22 22 23 23 24
REMARK SMILES IDX 24 25 25 26 26 27 84 28 27 29 83 30 28 31 29 32 30 33 77 34
REMARK SMILES IDX 31 35 82 36 76 37 78 38 32 39 81 40 75 41 74 42 33 44 63 45
REMARK SMILES IDX 44 46 62 47 45 48 48 49 61 50 79 51 46 52 47 53 60 55 80 56
REMARK SMILES IDX 49 57 34 58 35 59 43 60 36 61 42 62 37 63 38 64 39 65 40 66
REMARK SMILES IDX 41 67 64 68 65 69 73 70 66 71 72 72 67 73 68 74 69 75 70 76
REMARK SMILES IDX 71 77 50 78 51 79 59 80 52 81 58 82 53 83 54 84 55 85 56 86
REMARK SMILES IDX 57 87
REMARK H PARENT 13 20 78 43 48 54
REMARK Flexibility Score: inf
ROOT
ATOM      1  O   UNL A   1      35.505  22.445  25.236  1.00  0.00    -0.374 OA
ENDROOT
BRANCH   1   2
ATOM      2  C   UNL A   1      35.037  22.828  23.933  1.00  0.00     0.202 C 
BRANCH   2   3
ATOM      3  C   UNL A   1      33.530  22.710  23.693  1.00  0.00     0.261 C 
BRANCH   3   4
ATOM      4  O   UNL A   1      32.816  23.941  23.951  1.00  0.00    -0.461 OA
BRANCH   4   5
ATOM      5  C   UNL A   1      31.488  23.780  24.180  1.00  0.00     0.338 C 
ATOM      6  O   UNL A   1      30.732  23.297  23.344  1.00  0.00    -0.249 OA
BRANCH   5   7
ATOM      7  C   UNL A   1      31.026  24.332  25.556  1.00  0.00     0.165 C 
ATOM      8  C   UNL A   1      32.074  24.039  26.647  1.00  0.00     0.055 C 
BRANCH   7   9
ATOM      9  C   UNL A   1      30.732  25.879  25.428  1.00  0.00     0.062 C 
BRANCH   9  10
ATOM     10  C   UNL A   1      30.141  26.342  24.032  1.00  0.00     0.012 C 
BRANCH  10  11
ATOM     11  C   UNL A   1      30.740  27.498  23.214  1.00  0.00    -0.003 C 
ATOM     12  C   UNL A   1      30.229  28.902  23.534  1.00  0.00     0.004 C 
ENDBRANCH  10  11
ENDBRANCH   9  10
BRANCH   9  13
ATOM     13  C   UNL A   1      31.756  26.868  26.052  1.00  0.00    -0.041 A 
ATOM     14  C   UNL A   1      31.443  27.801  27.059  1.00  0.00     0.004 A 
ATOM     15  C   UNL A   1      33.070  26.920  25.552  1.00  0.00     0.004 A 
ATOM     16  C   UNL A   1      32.376  28.710  27.564  1.00  0.00     0.000 A 
ATOM     17  C   UNL A   1      34.013  27.826  26.059  1.00  0.00     0.000 A 
ATOM     18  C   UNL A   1      33.666  28.721  27.065  1.00  0.00     0.000 A 
ENDBRANCH   9  13
ENDBRANCH   7   9
BRANCH   7  19
ATOM     19  O   UNL A   1      29.863  23.649  26.045  1.00  0.00    -0.378 OA
ATOM     20  H   UNL A   1      30.132  22.834  26.496  1.00  0.00     0.212 HD
ENDBRANCH   7  19
ENDBRANCH   5   7
ENDBRANCH   4   5
ENDBRANCH   3   4
ENDBRANCH   2   3
ENDBRANCH   1   2
BRANCH   1  21
ATOM     21  C   UNL A   1      36.247  21.228  25.281  1.00  0.00     0.202 C 
BRANCH  21  22
ATOM     22  C   UNL A   1      37.773  21.372  25.205  1.00  0.00     0.261 C 
BRANCH  22  23
ATOM     23  O   UNL A   1      38.159  22.732  25.453  1.00  0.00    -0.460 OA
BRANCH  23  24
ATOM     24  C   UNL A   1      39.299  22.834  26.178  1.00  0.00     0.338 C 
ATOM     25  O   UNL A   1      40.243  22.070  26.169  1.00  0.00    -0.246 OA
BRANCH  24  26
ATOM     26  C   UNL A   1      39.364  24.156  26.831  1.00  0.00     0.060 A 
ATOM     27  C   UNL A   1      40.162  25.106  26.185  1.00  0.00     0.016 A 
ATOM     28  C   UNL A   1      38.724  24.461  28.035  1.00  0.00     0.016 A 
ATOM     29  C   UNL A   1      40.418  26.323  26.795  1.00  0.00     0.010 A 
ATOM     30  C   UNL A   1      38.989  25.691  28.654  1.00  0.00     0.010 A 
ATOM     31  C   UNL A   1      39.893  26.594  28.064  1.00  0.00    -0.014 A 
BRANCH  31  32
ATOM     32  C   UNL A   1      40.504  27.720  28.813  1.00  0.00     0.031 A 
ATOM     33  C   UNL A   1      39.668  28.948  29.071  1.00  0.00     0.074 A 
ATOM     34  C   UNL A   1      41.697  27.568  29.415  1.00  0.00     0.049 A 
ATOM     35  N   UNL A   1      39.906  29.958  29.867  1.00  0.00    -0.248 NA
ATOM     36  C   UNL A   1      38.387  29.041  28.353  1.00  0.00     0.031 C 
ATOM     37  C   UNL A   1      42.563  26.396  29.288  1.00  0.00     0.029 A 
ATOM     38  N   UNL A   1      42.363  28.387  30.291  1.00  0.00    -0.354 N 
ATOM     39  C   UNL A   1      38.806  30.800  29.748  1.00  0.00     0.074 A 
ATOM     40  C   UNL A   1      37.918  30.205  28.775  1.00  0.00     0.031 C 
ATOM     41  C   UNL A   1      43.633  26.556  30.085  1.00  0.00     0.029 A 
ATOM     42  C   UNL A   1      43.541  27.851  30.756  1.00  0.00     0.049 A 
ATOM     43  H   UNL A   1      42.031  29.273  30.562  1.00  0.00     0.167 HD
ATOM     44  C   UNL A   1      38.550  31.960  30.401  1.00  0.00     0.031 A 
ATOM     45  C   UNL A   1      44.442  28.348  31.625  1.00  0.00     0.031 A 
ATOM     46  C   UNL A   1      39.443  32.553  31.360  1.00  0.00     0.049 A 
ATOM     47  C   UNL A   1      44.170  29.675  32.282  1.00  0.00     0.074 A 
ATOM     48  C   UNL A   1      39.278  33.725  32.077  1.00  0.00     0.029 A 
ATOM     49  N   UNL A   1      40.670  32.025  31.732  1.00  0.00    -0.354 N 
ATOM     50  N   UNL A   1      43.117  30.451  32.172  1.00  0.00    -0.248 NA
ATOM     51  C   UNL A   1      45.203  30.188  33.192  1.00  0.00     0.031 C 
ATOM     52  C   UNL A   1      40.437  33.941  32.830  1.00  0.00     0.029 A 
ATOM     53  C   UNL A   1      41.291  32.866  32.641  1.00  0.00     0.049 A 
ATOM     54  H   UNL A   1      41.045  31.179  31.398  1.00  0.00     0.167 HD
ATOM     55  C   UNL A   1      43.351  31.533  33.014  1.00  0.00     0.074 A 
ATOM     56  C   UNL A   1      44.633  31.296  33.645  1.00  0.00     0.031 C 
ATOM     57  C   UNL A   1      42.578  32.623  33.245  1.00  0.00     0.031 A 
BRANCH  44  58
ATOM     58  C   UNL A   1      37.273  32.684  30.060  1.00  0.00    -0.014 A 
ATOM     59  C   UNL A   1      37.218  33.633  29.022  1.00  0.00     0.010 A 
ATOM     60  C   UNL A   1      36.097  32.384  30.771  1.00  0.00     0.010 A 
ATOM     61  C   UNL A   1      36.021  34.293  28.728  1.00  0.00     0.020 A 
ATOM     62  C   UNL A   1      34.892  33.019  30.461  1.00  0.00     0.020 A 
ATOM     63  C   UNL A   1      34.865  33.982  29.451  1.00  0.00     0.054 A 
BRANCH  63  64
ATOM     64  S   UNL A   1      33.318  34.833  29.033  1.00  0.00     0.124 S 
ATOM     65  O   UNL A   1      32.707  33.903  28.087  1.00  0.00    -0.237 OA
ATOM     66  O   UNL A   1      32.651  34.941  30.327  1.00  0.00    -0.237 OA
ATOM     67  O   UNL A   1      33.763  36.100  28.456  1.00  0.00    -0.744 OA
ENDBRANCH  63  64
ENDBRANCH  44  58
BRANCH  45  68
ATOM     68  C   UNL A   1      45.697  27.594  31.907  1.00  0.00    -0.014 A 
ATOM     69  C   UNL A   1      45.784  26.696  32.984  1.00  0.00     0.010 A 
ATOM     70  C   UNL A   1      46.821  27.778  31.080  1.00  0.00     0.010 A 
ATOM     71  C   UNL A   1      46.976  26.007  33.236  1.00  0.00     0.020 A 
ATOM     72  C   UNL A   1      48.001  27.069  31.309  1.00  0.00     0.020 A 
ATOM     73  C   UNL A   1      48.076  26.196  32.394  1.00  0.00     0.054 A 
BRANCH  73  74
ATOM     74  S   UNL A   1      49.594  25.252  32.705  1.00  0.00     0.124 S 
ATOM     75  O   UNL A   1      50.428  26.234  33.389  1.00  0.00    -0.237 OA
ATOM     76  O   UNL A   1      49.113  24.145  33.528  1.00  0.00    -0.237 OA
ATOM     77  O   UNL A   1      50.042  24.873  31.366  1.00  0.00    -0.744 OA
ENDBRANCH  73  74
ENDBRANCH  45  68
BRANCH  57  78
ATOM     78  C   UNL A   1      43.091  33.635  34.238  1.00  0.00    -0.014 A 
ATOM     79  C   UNL A   1      42.801  33.526  35.610  1.00  0.00     0.010 A 
ATOM     80  C   UNL A   1      43.899  34.697  33.793  1.00  0.00     0.010 A 
ATOM     81  C   UNL A   1      43.263  34.490  36.509  1.00  0.00     0.020 A 
ATOM     82  C   UNL A   1      44.392  35.644  34.694  1.00  0.00     0.020 A 
ATOM     83  C   UNL A   1      44.052  35.547  36.044  1.00  0.00     0.054 A 
BRANCH  83  84
ATOM     84  S   UNL A   1      44.647  36.780  37.233  1.00  0.00     0.124 S 
ATOM     85  O   UNL A   1      44.736  35.998  38.462  1.00  0.00    -0.237 OA
ATOM     86  O   UNL A   1      45.923  37.194  36.657  1.00  0.00    -0.237 OA
ATOM     87  O   UNL A   1      43.603  37.804  37.222  1.00  0.00    -0.744 OA
ENDBRANCH  83  84
ENDBRANCH  57  78
ENDBRANCH  31  32
ENDBRANCH  24  26
ENDBRANCH  23  24
ENDBRANCH  22  23
ENDBRANCH  21  22
ENDBRANCH   1  21
TORSDOF 22
ENDMDL
MODEL 3
REMARK VINA RESULT:      -8.9      2.967      8.615
REMARK SMILES CCC[C@H](c1ccccc1)[C@@](C)(O)C(=O)OCCOCCOC(=O)c1ccc(-c2c3nc(c(-c4ccc(S(=O)(=O)[O-])cc4)c4ccc([nH]4)c(-c4ccc(S(=O)(=O)[O-])cc4)c4nc(c(-c5ccc(S(=O)(=O)[O-])cc5)c5ccc2[nH]5)C=C4)C=C3)cc1
REMARK SMILES IDX 19 1 18 2 17 3 16 4 14 5 15 6 11 7 12 8 4 9 3 10 2 11 1 12
REMARK SMILES IDX 5 13 6 14 10 15 7 16 9 17 8 18 13 19 20 21 21 22 22 23 23 24
REMARK SMILES IDX 24 25 25 26 26 27 84 28 27 29 83 30 28 31 29 32 30 33 77 34
REMARK SMILES IDX 31 35 82 36 76 37 78 38 32 39 81 40 75 41 74 42 33 44 63 45
REMARK SMILES IDX 44 46 62 47 45 48 48 49 61 50 79 51 46 52 47 53 60 55 80 56
REMARK SMILES IDX 49 57 34 58 35 59 43 60 36 61 42 62 37 63 38 64 39 65 40 66
REMARK SMILES IDX 41 67 64 68 65 69 73 70 66 71 72 72 67 73 68 74 69 75 70 76
REMARK SMILES IDX 71 77 50 78 51 79 59 80 52 81 58 82 53 83 54 84 55 85 56 86
REMARK SMILES IDX 57 87
REMARK H PARENT 13 20 78 43 48 54
REMARK Flexibility Score: inf
ROOT
ATOM      1  O   UNL A   1      32.671  28.489  25.573  1.00  0.00    -0.374 OA
ENDROOT
BRANCH   1   2
ATOM      2  C   UNL A   1      31.719  27.424  25.711  1.00  0.00     0.202 C 
BRANCH   2   3
ATOM      3  C   UNL A   1      31.882  26.241  24.753  1.00  0.00     0.261 C 
BRANCH   3   4
ATOM      4  O   UNL A   1      31.456  24.983  25.327  1.00  0.00    -0.461 OA
BRANCH   4   5
ATOM      5  C   UNL A   1      32.443  24.292  25.952  1.00  0.00     0.338 C 
ATOM      6  O   UNL A   1      33.525  24.799  26.231  1.00  0.00    -0.249 OA
BRANCH   5   7
ATOM      7  C   UNL A   1      32.092  22.799  26.201  1.00  0.00     0.165 C 
ATOM      8  C   UNL A   1      30.566  22.598  26.273  1.00  0.00     0.055 C 
BRANCH   7   9
ATOM      9  C   UNL A   1      32.746  21.911  25.070  1.00  0.00     0.062 C 
BRANCH   9  10
ATOM     10  C   UNL A   1      32.178  20.437  24.953  1.00  0.00     0.012 C 
BRANCH  10  11
ATOM     11  C   UNL A   1      32.910  19.317  24.196  1.00  0.00    -0.003 C 
ATOM     12  C   UNL A   1      32.313  18.890  22.856  1.00  0.00     0.004 C 
ENDBRANCH  10  11
ENDBRANCH   9  10
BRANCH   9  13
ATOM     13  C   UNL A   1      34.281  22.027  24.852  1.00  0.00    -0.041 A 
ATOM     14  C   UNL A   1      35.247  21.591  25.780  1.00  0.00     0.004 A 
ATOM     15  C   UNL A   1      34.777  22.673  23.705  1.00  0.00     0.004 A 
ATOM     16  C   UNL A   1      36.620  21.755  25.575  1.00  0.00     0.000 A 
ATOM     17  C   UNL A   1      36.153  22.835  23.490  1.00  0.00     0.000 A 
ATOM     18  C   UNL A   1      37.075  22.375  24.425  1.00  0.00     0.000 A 
ENDBRANCH   9  13
ENDBRANCH   7   9
BRANCH   7  19
ATOM     19  O   UNL A   1      32.529  22.353  27.492  1.00  0.00    -0.378 OA
ATOM     20  H   UNL A   1      32.004  21.584  27.763  1.00  0.00     0.212 HD
ENDBRANCH   7  19
ENDBRANCH   5   7
ENDBRANCH   4   5
ENDBRANCH   3   4
ENDBRANCH   2   3
ENDBRANCH   1   2
BRANCH   1  21
ATOM     21  C   UNL A   1      32.117  29.804  25.583  1.00  0.00     0.202 C 
BRANCH  21  22
ATOM     22  C   UNL A   1      32.324  30.607  26.873  1.00  0.00     0.261 C 
BRANCH  22  23
ATOM     23  O   UNL A   1      33.409  30.057  27.636  1.00  0.00    -0.460 OA
BRANCH  23  24
ATOM     24  C   UNL A   1      34.359  30.974  27.942  1.00  0.00     0.338 C 
ATOM     25  O   UNL A   1      34.185  32.146  28.209  1.00  0.00    -0.246 OA
BRANCH  24  26
ATOM     26  C   UNL A   1      35.656  30.304  28.150  1.00  0.00     0.060 A 
ATOM     27  C   UNL A   1      35.826  29.700  29.400  1.00  0.00     0.016 A 
ATOM     28  C   UNL A   1      36.686  30.294  27.206  1.00  0.00     0.016 A 
ATOM     29  C   UNL A   1      37.061  29.184  29.756  1.00  0.00     0.010 A 
ATOM     30  C   UNL A   1      37.938  29.776  27.570  1.00  0.00     0.010 A 
ATOM     31  C   UNL A   1      38.143  29.284  28.872  1.00  0.00    -0.014 A 
BRANCH  31  32
ATOM     32  C   UNL A   1      39.495  29.072  29.445  1.00  0.00     0.031 A 
ATOM     33  C   UNL A   1      39.890  29.866  30.664  1.00  0.00     0.074 A 
ATOM     34  C   UNL A   1      40.267  28.060  29.011  1.00  0.00     0.049 A 
ATOM     35  N   UNL A   1      40.919  29.709  31.455  1.00  0.00    -0.248 NA
ATOM     36  C   UNL A   1      38.998  30.970  31.055  1.00  0.00     0.031 C 
ATOM     37  C   UNL A   1      39.954  27.186  27.881  1.00  0.00     0.029 A 
ATOM     38  N   UNL A   1      41.450  27.569  29.501  1.00  0.00    -0.354 N 
ATOM     39  C   UNL A   1      40.795  30.688  32.436  1.00  0.00     0.074 A 
ATOM     40  C   UNL A   1      39.615  31.458  32.120  1.00  0.00     0.031 C 
ATOM     41  C   UNL A   1      40.906  26.242  27.783  1.00  0.00     0.029 A 
ATOM     42  C   UNL A   1      41.907  26.463  28.824  1.00  0.00     0.049 A 
ATOM     43  H   UNL A   1      41.927  27.969  30.263  1.00  0.00     0.167 HD
ATOM     44  C   UNL A   1      41.586  30.916  33.512  1.00  0.00     0.031 A 
ATOM     45  C   UNL A   1      43.008  25.711  29.024  1.00  0.00     0.031 A 
ATOM     46  C   UNL A   1      42.766  30.153  33.816  1.00  0.00     0.049 A 
ATOM     47  C   UNL A   1      43.912  26.032  30.185  1.00  0.00     0.074 A 
ATOM     48  C   UNL A   1      43.637  30.303  34.881  1.00  0.00     0.029 A 
ATOM     49  N   UNL A   1      43.246  29.100  33.052  1.00  0.00    -0.354 N 
ATOM     50  N   UNL A   1      43.771  26.950  31.112  1.00  0.00    -0.248 NA
ATOM     51  C   UNL A   1      45.117  25.205  30.333  1.00  0.00     0.031 C 
ATOM     52  C   UNL A   1      44.681  29.385  34.722  1.00  0.00     0.029 A 
ATOM     53  C   UNL A   1      44.422  28.614  33.601  1.00  0.00     0.049 A 
ATOM     54  H   UNL A   1      42.816  28.750  32.239  1.00  0.00     0.167 HD
ATOM     55  C   UNL A   1      44.858  26.798  31.967  1.00  0.00     0.074 A 
ATOM     56  C   UNL A   1      45.631  25.683  31.458  1.00  0.00     0.031 C 
ATOM     57  C   UNL A   1      45.189  27.514  33.070  1.00  0.00     0.031 A 
BRANCH  44  58
ATOM     58  C   UNL A   1      41.223  32.070  34.412  1.00  0.00    -0.014 A 
ATOM     59  C   UNL A   1      41.794  33.345  34.242  1.00  0.00     0.010 A 
ATOM     60  C   UNL A   1      40.266  31.882  35.425  1.00  0.00     0.010 A 
ATOM     61  C   UNL A   1      41.440  34.398  35.093  1.00  0.00     0.020 A 
ATOM     62  C   UNL A   1      39.888  32.938  36.258  1.00  0.00     0.020 A 
ATOM     63  C   UNL A   1      40.490  34.186  36.096  1.00  0.00     0.054 A 
BRANCH  63  64
ATOM     64  S   UNL A   1      40.030  35.576  37.169  1.00  0.00     0.124 S 
ATOM     65  O   UNL A   1      39.627  36.589  36.197  1.00  0.00    -0.237 OA
ATOM     66  O   UNL A   1      38.950  35.015  37.976  1.00  0.00    -0.237 OA
ATOM     67  O   UNL A   1      41.260  35.873  37.900  1.00  0.00    -0.744 OA
ENDBRANCH  63  64
ENDBRANCH  44  58
BRANCH  45  68
ATOM     68  C   UNL A   1      43.325  24.595  28.088  1.00  0.00    -0.014 A 
ATOM     69  C   UNL A   1      42.806  23.305  28.287  1.00  0.00     0.010 A 
ATOM     70  C   UNL A   1      44.158  24.832  26.978  1.00  0.00     0.010 A 
ATOM     71  C   UNL A   1      43.127  22.269  27.401  1.00  0.00     0.020 A 
ATOM     72  C   UNL A   1      44.455  23.809  26.075  1.00  0.00     0.020 A 
ATOM     73  C   UNL A   1      43.947  22.530  26.298  1.00  0.00     0.054 A 
BRANCH  73  74
ATOM     74  S   UNL A   1      44.305  21.187  25.132  1.00  0.00     0.124 S 
ATOM     75  O   UNL A   1      45.637  20.766  25.553  1.00  0.00    -0.237 OA
ATOM     76  O   UNL A   1      43.226  20.241  25.401  1.00  0.00    -0.237 OA
ATOM     77  O   UNL A   1      44.239  21.841  23.827  1.00  0.00    -0.744 OA
ENDBRANCH  73  74
ENDBRANCH  45  68
BRANCH  57  78
ATOM     78  C   UNL A   1      46.433  27.099  33.814  1.00  0.00    -0.014 A 
ATOM     79  C   UNL A   1      46.387  26.132  34.834  1.00  0.00     0.010 A 
ATOM     80  C   UNL A   1      47.672  27.669  33.468  1.00  0.00     0.010 A 
ATOM     81  C   UNL A   1      47.547  25.782  35.530  1.00  0.00     0.020 A 
ATOM     82  C   UNL A   1      48.840  27.297  34.139  1.00  0.00     0.020 A 
ATOM     83  C   UNL A   1      48.766  26.372  35.181  1.00  0.00     0.054 A 
BRANCH  83  84
ATOM     84  S   UNL A   1      50.258  25.895  36.095  1.00  0.00     0.124 S 
ATOM     85  O   UNL A   1      49.709  25.513  37.393  1.00  0.00    -0.237 OA
ATOM     86  O   UNL A   1      50.791  24.799  35.291  1.00  0.00    -0.237 OA
ATOM     87  O   UNL A   1      51.068  27.112  36.095  1.00  0.00    -0.744 OA
ENDBRANCH  83  84
ENDBRANCH  57  78
ENDBRANCH  31  32
ENDBRANCH  24  26
ENDBRANCH  23  24
ENDBRANCH  22  23
ENDBRANCH  21  22
ENDBRANCH   1  21
TORSDOF 22
ENDMDL
