MODEL 1
REMARK VINA RESULT:     -10.6      0.000      0.000
REMARK SMILES COc1cc(OC(F)(F)F)cc2c1O[C@@H](C(F)(F)F)C(C(=O)OCCOCCOC(=O)c1ccc(-c3c4nc(c(-c5ccc(S(=O)(=O)[O-])cc5)c5ccc([nH]5)c(-c5ccc(S(=O)(=O)[O-])cc5)c5nc(c(-c6ccc(S(=O)(=O)[O-])cc6)c6ccc3[nH]6)C=C5)C=C4)cc1)=C2
REMARK SMILES IDX 27 1 26 2 25 3 24 4 23 5 21 6 22 7 20 8 3 9 4 10 13 11 5 12
REMARK SMILES IDX 12 13 14 14 11 15 92 16 15 17 2 18 1 19 6 20 7 21 8 22 9 23
REMARK SMILES IDX 10 24 16 25 17 26 18 27 19 28 28 29 29 30 30 31 31 32 32 33
REMARK SMILES IDX 33 34 91 35 34 36 90 37 35 38 36 39 37 40 84 41 38 42 89 43
REMARK SMILES IDX 83 44 85 45 39 46 88 47 82 48 81 49 40 51 70 52 51 53 69 54
REMARK SMILES IDX 52 55 55 56 68 57 86 58 53 59 54 60 67 62 87 63 56 64 41 65
REMARK SMILES IDX 42 66 50 67 43 68 49 69 44 70 45 71 46 72 47 73 48 74 71 75
REMARK SMILES IDX 72 76 80 77 73 78 79 79 74 80 75 81 76 82 77 83 78 84 57 85
REMARK SMILES IDX 58 86 66 87 59 88 65 89 60 90 61 91 62 92 63 93 64 94
REMARK H PARENT 85 50 55 61
REMARK Flexibility Score: inf
ROOT
ATOM      1  C   UNL A   1      34.294  31.548  27.571  1.00  0.00     0.202 C 
ENDROOT
BRANCH   1   2
ATOM      2  O   UNL A   1      33.291  30.538  27.496  1.00  0.00    -0.374 OA
BRANCH   2   3
ATOM      3  C   UNL A   1      32.088  30.830  26.790  1.00  0.00     0.202 C 
BRANCH   3   4
ATOM      4  C   UNL A   1      31.527  29.748  25.860  1.00  0.00     0.261 C 
BRANCH   4   5
ATOM      5  O   UNL A   1      32.388  28.600  25.786  1.00  0.00    -0.460 OA
BRANCH   5   6
ATOM      6  C   UNL A   1      31.932  27.512  26.450  1.00  0.00     0.338 C 
ATOM      7  O   UNL A   1      31.135  27.505  27.375  1.00  0.00    -0.246 OA
BRANCH   6   8
ATOM      8  C   UNL A   1      32.415  26.273  25.822  1.00  0.00     0.087 C 
ATOM      9  C   UNL A   1      33.035  22.329  24.615  1.00  0.00     0.165 A 
ATOM     10  C   UNL A   1      34.241  21.689  24.913  1.00  0.00     0.097 A 
ATOM     11  C   UNL A   1      32.834  23.654  25.008  1.00  0.00     0.170 A 
ATOM     12  C   UNL A   1      35.263  22.380  25.567  1.00  0.00     0.134 A 
ATOM     13  C   UNL A   1      33.849  24.357  25.681  1.00  0.00     0.025 A 
ATOM     14  O   UNL A   1      31.593  24.209  24.822  1.00  0.00    -0.471 OA
ATOM     15  C   UNL A   1      35.068  23.720  25.932  1.00  0.00     0.059 A 
ATOM     16  C   UNL A   1      33.551  25.683  26.233  1.00  0.00     0.027 C 
ATOM     17  C   UNL A   1      31.602  25.653  24.712  1.00  0.00     0.316 C 
BRANCH   9  18
ATOM     18  O   UNL A   1      32.072  21.547  24.029  1.00  0.00    -0.493 OA
ATOM     19  C   UNL A   1      32.435  20.170  23.949  1.00  0.00     0.278 C 
ENDBRANCH   9  18
BRANCH  12  20
ATOM     20  O   UNL A   1      36.479  21.864  25.919  1.00  0.00    -0.406 OA
BRANCH  20  21
ATOM     21  C   UNL A   1      37.543  22.001  24.990  1.00  0.00     0.573 C 
ATOM     22  F   UNL A   1      37.169  21.613  23.751  1.00  0.00    -0.132 F 
ATOM     23  F   UNL A   1      37.983  23.278  24.945  1.00  0.00    -0.132 F 
ATOM     24  F   UNL A   1      38.572  21.219  25.382  1.00  0.00    -0.132 F 
ENDBRANCH  20  21
ENDBRANCH  12  20
BRANCH  17  25
ATOM     25  C   UNL A   1      30.158  26.127  24.472  1.00  0.00     0.430 C 
ATOM     26  F   UNL A   1      29.434  26.105  25.614  1.00  0.00    -0.167 F 
ATOM     27  F   UNL A   1      30.169  27.430  24.070  1.00  0.00    -0.167 F 
ATOM     28  F   UNL A   1      29.509  25.432  23.519  1.00  0.00    -0.167 F 
ENDBRANCH  17  25
ENDBRANCH   6   8
ENDBRANCH   5   6
ENDBRANCH   4   5
ENDBRANCH   3   4
ENDBRANCH   2   3
ENDBRANCH   1   2
BRANCH   1  29
ATOM     29  C   UNL A   1      34.848  31.926  28.951  1.00  0.00     0.261 C 
BRANCH  29  30
ATOM     30  O   UNL A   1      35.730  30.931  29.494  1.00  0.00    -0.460 OA
BRANCH  30  31
ATOM     31  C   UNL A   1      36.792  31.427  30.176  1.00  0.00     0.338 C 
ATOM     32  O   UNL A   1      36.771  32.267  31.064  1.00  0.00    -0.246 OA
BRANCH  31  33
ATOM     33  C   UNL A   1      38.000  30.662  29.830  1.00  0.00     0.060 A 
ATOM     34  C   UNL A   1      38.884  30.321  30.863  1.00  0.00     0.016 A 
ATOM     35  C   UNL A   1      38.295  30.345  28.503  1.00  0.00     0.016 A 
ATOM     36  C   UNL A   1      40.090  29.690  30.568  1.00  0.00     0.010 A 
ATOM     37  C   UNL A   1      39.509  29.723  28.209  1.00  0.00     0.010 A 
ATOM     38  C   UNL A   1      40.423  29.420  29.235  1.00  0.00    -0.014 A 
BRANCH  38  39
ATOM     39  C   UNL A   1      41.784  28.951  28.885  1.00  0.00     0.031 A 
ATOM     40  C   UNL A   1      42.907  29.948  28.841  1.00  0.00     0.074 A 
ATOM     41  C   UNL A   1      42.006  27.660  28.582  1.00  0.00     0.049 A 
ATOM     42  N   UNL A   1      44.142  29.787  28.447  1.00  0.00    -0.248 NA
ATOM     43  C   UNL A   1      42.587  31.311  29.294  1.00  0.00     0.031 C 
ATOM     44  C   UNL A   1      41.005  26.597  28.628  1.00  0.00     0.029 A 
ATOM     45  N   UNL A   1      43.147  27.034  28.150  1.00  0.00    -0.354 N 
ATOM     46  C   UNL A   1      44.745  31.031  28.584  1.00  0.00     0.074 A 
ATOM     47  C   UNL A   1      43.731  31.942  29.071  1.00  0.00     0.031 C 
ATOM     48  C   UNL A   1      41.571  25.450  28.215  1.00  0.00     0.029 A 
ATOM     49  C   UNL A   1      42.958  25.710  27.836  1.00  0.00     0.049 A 
ATOM     50  H   UNL A   1      44.017  27.489  28.074  1.00  0.00     0.167 HD
ATOM     51  C   UNL A   1      46.029  31.384  28.330  1.00  0.00     0.031 A 
ATOM     52  C   UNL A   1      43.797  24.819  27.274  1.00  0.00     0.031 A 
ATOM     53  C   UNL A   1      47.023  30.477  27.819  1.00  0.00     0.049 A 
ATOM     54  C   UNL A   1      45.199  25.244  26.930  1.00  0.00     0.074 A 
ATOM     55  C   UNL A   1      48.353  30.727  27.535  1.00  0.00     0.029 A 
ATOM     56  N   UNL A   1      46.790  29.145  27.505  1.00  0.00    -0.354 N 
ATOM     57  N   UNL A   1      45.765  26.418  27.080  1.00  0.00    -0.248 NA
ATOM     58  C   UNL A   1      46.080  24.221  26.350  1.00  0.00     0.031 C 
ATOM     59  C   UNL A   1      48.909  29.563  26.993  1.00  0.00     0.029 A 
ATOM     60  C   UNL A   1      47.944  28.567  27.005  1.00  0.00     0.049 A 
ATOM     61  H   UNL A   1      45.930  28.679  27.621  1.00  0.00     0.167 HD
ATOM     62  C   UNL A   1      47.076  26.269  26.639  1.00  0.00     0.074 A 
ATOM     63  C   UNL A   1      47.221  24.888  26.225  1.00  0.00     0.031 C 
ATOM     64  C   UNL A   1      48.071  27.190  26.589  1.00  0.00     0.031 A 
BRANCH  51  65
ATOM     65  C   UNL A   1      46.403  32.826  28.551  1.00  0.00    -0.014 A 
ATOM     66  C   UNL A   1      46.797  33.295  29.819  1.00  0.00     0.010 A 
ATOM     67  C   UNL A   1      46.350  33.733  27.476  1.00  0.00     0.010 A 
ATOM     68  C   UNL A   1      47.068  34.652  30.019  1.00  0.00     0.020 A 
ATOM     69  C   UNL A   1      46.652  35.084  27.665  1.00  0.00     0.020 A 
ATOM     70  C   UNL A   1      46.983  35.540  28.943  1.00  0.00     0.054 A 
BRANCH  70  71
ATOM     71  S   UNL A   1      47.317  37.298  29.235  1.00  0.00     0.124 S 
ATOM     72  O   UNL A   1      47.774  37.289  30.623  1.00  0.00    -0.237 OA
ATOM     73  O   UNL A   1      48.341  37.601  28.238  1.00  0.00    -0.237 OA
ATOM     74  O   UNL A   1      46.024  37.939  29.010  1.00  0.00    -0.744 OA
ENDBRANCH  70  71
ENDBRANCH  51  65
BRANCH  52  75
ATOM     75  C   UNL A   1      43.312  23.443  26.987  1.00  0.00    -0.014 A 
ATOM     76  C   UNL A   1      43.086  23.021  25.666  1.00  0.00     0.010 A 
ATOM     77  C   UNL A   1      43.125  22.527  28.039  1.00  0.00     0.010 A 
ATOM     78  C   UNL A   1      42.689  21.707  25.401  1.00  0.00     0.020 A 
ATOM     79  C   UNL A   1      42.754  21.206  27.778  1.00  0.00     0.020 A 
ATOM     80  C   UNL A   1      42.537  20.804  26.458  1.00  0.00     0.054 A 
BRANCH  80  81
ATOM     81  S   UNL A   1      42.115  19.081  26.082  1.00  0.00     0.124 S 
ATOM     82  O   UNL A   1      42.512  18.395  27.307  1.00  0.00    -0.237 OA
ATOM     83  O   UNL A   1      40.676  19.158  25.836  1.00  0.00    -0.237 OA
ATOM     84  O   UNL A   1      42.924  18.780  24.903  1.00  0.00    -0.744 OA
ENDBRANCH  80  81
ENDBRANCH  52  75
BRANCH  64  85
ATOM     85  C   UNL A   1      49.422  26.731  26.104  1.00  0.00    -0.014 A 
ATOM     86  C   UNL A   1      49.833  26.933  24.775  1.00  0.00     0.010 A 
ATOM     87  C   UNL A   1      50.319  26.144  27.017  1.00  0.00     0.010 A 
ATOM     88  C   UNL A   1      51.108  26.530  24.361  1.00  0.00     0.020 A 
ATOM     89  C   UNL A   1      51.603  25.768  26.615  1.00  0.00     0.020 A 
ATOM     90  C   UNL A   1      51.985  25.952  25.284  1.00  0.00     0.054 A 
BRANCH  90  91
ATOM     91  S   UNL A   1      53.649  25.484  24.735  1.00  0.00     0.124 S 
ATOM     92  O   UNL A   1      53.695  26.052  23.389  1.00  0.00    -0.237 OA
ATOM     93  O   UNL A   1      54.507  26.136  25.722  1.00  0.00    -0.237 OA
ATOM     94  O   UNL A   1      53.637  24.024  24.795  1.00  0.00    -0.744 OA
ENDBRANCH  90  91
ENDBRANCH  64  85
ENDBRANCH  38  39
ENDBRANCH  31  33
ENDBRANCH  30  31
ENDBRANCH  29  30
ENDBRANCH   1  29
TORSDOF 21
ENDMDL
MODEL 2
REMARK VINA RESULT:     -10.4      5.945     11.779
REMARK SMILES COc1cc(OC(F)(F)F)cc2c1O[C@@H](C(F)(F)F)C(C(=O)OCCOCCOC(=O)c1ccc(-c3c4nc(c(-c5ccc(S(=O)(=O)[O-])cc5)c5ccc([nH]5)c(-c5ccc(S(=O)(=O)[O-])cc5)c5nc(c(-c6ccc(S(=O)(=O)[O-])cc6)c6ccc3[nH]6)C=C5)C=C4)cc1)=C2
REMARK SMILES IDX 27 1 26 2 25 3 24 4 23 5 21 6 22 7 20 8 3 9 4 10 13 11 5 12
REMARK SMILES IDX 12 13 14 14 11 15 92 16 15 17 2 18 1 19 6 20 7 21 8 22 9 23
REMARK SMILES IDX 10 24 16 25 17 26 18 27 19 28 28 29 29 30 30 31 31 32 32 33
REMARK SMILES IDX 33 34 91 35 34 36 90 37 35 38 36 39 37 40 84 41 38 42 89 43
REMARK SMILES IDX 83 44 85 45 39 46 88 47 82 48 81 49 40 51 70 52 51 53 69 54
REMARK SMILES IDX 52 55 55 56 68 57 86 58 53 59 54 60 67 62 87 63 56 64 41 65
REMARK SMILES IDX 42 66 50 67 43 68 49 69 44 70 45 71 46 72 47 73 48 74 71 75
REMARK SMILES IDX 72 76 80 77 73 78 79 79 74 80 75 81 76 82 77 83 78 84 57 85
REMARK SMILES IDX 58 86 66 87 59 88 65 89 60 90 61 91 62 92 63 93 64 94
REMARK H PARENT 85 50 55 61
REMARK Flexibility Score: inf
ROOT
ATOM      1  C   UNL A   1      39.931  21.926  26.605  1.00  0.00     0.202 C 
ENDROOT
BRANCH   1   2
ATOM      2  O   UNL A   1      38.572  22.318  26.420  1.00  0.00    -0.374 OA
BRANCH   2   3
ATOM      3  C   UNL A   1      37.886  21.857  25.258  1.00  0.00     0.202 C 
BRANCH   3   4
ATOM      4  C   UNL A   1      36.424  21.426  25.419  1.00  0.00     0.261 C 
BRANCH   4   5
ATOM      5  O   UNL A   1      35.543  22.551  25.571  1.00  0.00    -0.460 OA
BRANCH   5   6
ATOM      6  C   UNL A   1      34.351  22.257  26.142  1.00  0.00     0.338 C 
ATOM      7  O   UNL A   1      34.115  21.326  26.896  1.00  0.00    -0.246 OA
BRANCH   6   8
ATOM      8  C   UNL A   1      33.359  23.304  25.854  1.00  0.00     0.087 C 
ATOM      9  C   UNL A   1      31.118  26.399  24.182  1.00  0.00     0.165 A 
ATOM     10  C   UNL A   1      31.025  27.628  24.840  1.00  0.00     0.097 A 
ATOM     11  C   UNL A   1      31.858  25.359  24.750  1.00  0.00     0.170 A 
ATOM     12  C   UNL A   1      31.635  27.810  26.083  1.00  0.00     0.134 A 
ATOM     13  C   UNL A   1      32.490  25.534  25.993  1.00  0.00     0.025 A 
ATOM     14  O   UNL A   1      32.042  24.214  24.017  1.00  0.00    -0.471 OA
ATOM     15  C   UNL A   1      32.351  26.752  26.664  1.00  0.00     0.059 A 
ATOM     16  C   UNL A   1      33.399  24.491  26.483  1.00  0.00     0.027 C 
ATOM     17  C   UNL A   1      32.295  23.034  24.817  1.00  0.00     0.316 C 
BRANCH   9  18
ATOM     18  O   UNL A   1      30.540  26.342  22.939  1.00  0.00    -0.493 OA
ATOM     19  C   UNL A   1      31.382  26.839  21.901  1.00  0.00     0.278 C 
ENDBRANCH   9  18
BRANCH  12  20
ATOM     20  O   UNL A   1      31.622  28.962  26.819  1.00  0.00    -0.406 OA
BRANCH  20  21
ATOM     21  C   UNL A   1      32.186  30.123  26.229  1.00  0.00     0.573 C 
ATOM     22  F   UNL A   1      32.432  31.076  27.155  1.00  0.00    -0.132 F 
ATOM     23  F   UNL A   1      33.332  29.825  25.579  1.00  0.00    -0.132 F 
ATOM     24  F   UNL A   1      31.314  30.626  25.330  1.00  0.00    -0.132 F 
ENDBRANCH  20  21
ENDBRANCH  12  20
BRANCH  17  25
ATOM     25  C   UNL A   1      32.445  21.831  23.870  1.00  0.00     0.430 C 
ATOM     26  F   UNL A   1      31.591  21.917  22.824  1.00  0.00    -0.167 F 
ATOM     27  F   UNL A   1      33.695  21.835  23.325  1.00  0.00    -0.167 F 
ATOM     28  F   UNL A   1      32.289  20.640  24.476  1.00  0.00    -0.167 F 
ENDBRANCH  17  25
ENDBRANCH   6   8
ENDBRANCH   5   6
ENDBRANCH   4   5
ENDBRANCH   3   4
ENDBRANCH   2   3
ENDBRANCH   1   2
BRANCH   1  29
ATOM     29  C   UNL A   1      41.029  22.975  26.389  1.00  0.00     0.261 C 
BRANCH  29  30
ATOM     30  O   UNL A   1      40.517  24.314  26.307  1.00  0.00    -0.460 OA
BRANCH  30  31
ATOM     31  C   UNL A   1      41.464  25.275  26.174  1.00  0.00     0.338 C 
ATOM     32  O   UNL A   1      42.102  25.549  25.167  1.00  0.00    -0.246 OA
BRANCH  31  33
ATOM     33  C   UNL A   1      41.498  26.105  27.389  1.00  0.00     0.060 A 
ATOM     34  C   UNL A   1      40.487  25.923  28.342  1.00  0.00     0.016 A 
ATOM     35  C   UNL A   1      42.468  27.094  27.556  1.00  0.00     0.016 A 
ATOM     36  C   UNL A   1      40.421  26.757  29.456  1.00  0.00     0.010 A 
ATOM     37  C   UNL A   1      42.393  27.936  28.667  1.00  0.00     0.010 A 
ATOM     38  C   UNL A   1      41.353  27.790  29.604  1.00  0.00    -0.014 A 
BRANCH  38  39
ATOM     39  C   UNL A   1      41.171  28.815  30.657  1.00  0.00     0.031 A 
ATOM     40  C   UNL A   1      42.043  28.762  31.880  1.00  0.00     0.074 A 
ATOM     41  C   UNL A   1      40.222  29.760  30.538  1.00  0.00     0.049 A 
ATOM     42  N   UNL A   1      41.981  29.475  32.973  1.00  0.00    -0.248 NA
ATOM     43  C   UNL A   1      43.122  27.760  31.869  1.00  0.00     0.031 C 
ATOM     44  C   UNL A   1      39.345  29.935  29.382  1.00  0.00     0.029 A 
ATOM     45  N   UNL A   1      39.826  30.735  31.416  1.00  0.00    -0.354 N 
ATOM     46  C   UNL A   1      43.000  28.999  33.790  1.00  0.00     0.074 A 
ATOM     47  C   UNL A   1      43.643  27.916  33.077  1.00  0.00     0.031 C 
ATOM     48  C   UNL A   1      38.493  30.943  29.633  1.00  0.00     0.029 A 
ATOM     49  C   UNL A   1      38.739  31.453  30.981  1.00  0.00     0.049 A 
ATOM     50  H   UNL A   1      40.278  30.905  32.275  1.00  0.00     0.167 HD
ATOM     51  C   UNL A   1      43.367  29.425  35.023  1.00  0.00     0.031 A 
ATOM     52  C   UNL A   1      38.003  32.390  31.611  1.00  0.00     0.031 A 
ATOM     53  C   UNL A   1      42.701  30.485  35.735  1.00  0.00     0.049 A 
ATOM     54  C   UNL A   1      38.378  32.804  33.008  1.00  0.00     0.074 A 
ATOM     55  C   UNL A   1      42.997  31.002  36.983  1.00  0.00     0.029 A 
ATOM     56  N   UNL A   1      41.598  31.183  35.264  1.00  0.00    -0.354 N 
ATOM     57  N   UNL A   1      39.354  32.359  33.765  1.00  0.00    -0.248 NA
ATOM     58  C   UNL A   1      37.561  33.852  33.633  1.00  0.00     0.031 C 
ATOM     59  C   UNL A   1      42.035  31.970  37.292  1.00  0.00     0.029 A 
ATOM     60  C   UNL A   1      41.182  32.106  36.208  1.00  0.00     0.049 A 
ATOM     61  H   UNL A   1      41.172  31.041  34.387  1.00  0.00     0.167 HD
ATOM     62  C   UNL A   1      39.285  33.093  34.946  1.00  0.00     0.074 A 
ATOM     63  C   UNL A   1      38.177  34.016  34.797  1.00  0.00     0.031 C 
ATOM     64  C   UNL A   1      40.072  33.015  36.048  1.00  0.00     0.031 A 
BRANCH  51  65
ATOM     65  C   UNL A   1      44.506  28.701  35.691  1.00  0.00    -0.014 A 
ATOM     66  C   UNL A   1      45.840  29.112  35.515  1.00  0.00     0.010 A 
ATOM     67  C   UNL A   1      44.240  27.582  36.501  1.00  0.00     0.010 A 
ATOM     68  C   UNL A   1      46.888  28.381  36.083  1.00  0.00     0.020 A 
ATOM     69  C   UNL A   1      45.282  26.868  37.098  1.00  0.00     0.020 A 
ATOM     70  C   UNL A   1      46.602  27.257  36.863  1.00  0.00     0.054 A 
BRANCH  70  71
ATOM     71  S   UNL A   1      47.980  26.313  37.569  1.00  0.00     0.124 S 
ATOM     72  O   UNL A   1      48.444  25.550  36.412  1.00  0.00    -0.237 OA
ATOM     73  O   UNL A   1      48.883  27.362  38.033  1.00  0.00    -0.237 OA
ATOM     74  O   UNL A   1      47.354  25.522  38.625  1.00  0.00    -0.744 OA
ENDBRANCH  70  71
ENDBRANCH  51  65
BRANCH  52  75
ATOM     75  C   UNL A   1      36.825  32.977  30.919  1.00  0.00    -0.014 A 
ATOM     76  C   UNL A   1      35.524  32.747  31.395  1.00  0.00     0.010 A 
ATOM     77  C   UNL A   1      37.008  33.817  29.804  1.00  0.00     0.010 A 
ATOM     78  C   UNL A   1      34.426  33.352  30.775  1.00  0.00     0.020 A 
ATOM     79  C   UNL A   1      35.917  34.446  29.199  1.00  0.00     0.020 A 
ATOM     80  C   UNL A   1      34.631  34.208  29.688  1.00  0.00     0.054 A 
BRANCH  80  81
ATOM     81  S   UNL A   1      33.202  35.057  28.962  1.00  0.00     0.124 S 
ATOM     82  O   UNL A   1      33.812  36.259  28.405  1.00  0.00    -0.237 OA
ATOM     83  O   UNL A   1      32.721  34.080  27.986  1.00  0.00    -0.237 OA
ATOM     84  O   UNL A   1      32.317  35.272  30.103  1.00  0.00    -0.744 OA
ENDBRANCH  80  81
ENDBRANCH  52  75
BRANCH  64  85
ATOM     85  C   UNL A   1      39.793  33.978  37.173  1.00  0.00    -0.014 A 
ATOM     86  C   UNL A   1      39.057  33.590  38.306  1.00  0.00     0.010 A 
ATOM     87  C   UNL A   1      40.335  35.276  37.119  1.00  0.00     0.010 A 
ATOM     88  C   UNL A   1      38.844  34.494  39.353  1.00  0.00     0.020 A 
ATOM     89  C   UNL A   1      40.150  36.171  38.175  1.00  0.00     0.020 A 
ATOM     90  C   UNL A   1      39.394  35.778  39.282  1.00  0.00     0.054 A 
BRANCH  90  91
ATOM     91  S   UNL A   1      39.147  36.914  40.674  1.00  0.00     0.124 S 
ATOM     92  O   UNL A   1      38.318  37.956  40.072  1.00  0.00    -0.237 OA
ATOM     93  O   UNL A   1      38.477  36.070  41.661  1.00  0.00    -0.237 OA
ATOM     94  O   UNL A   1      40.502  37.325  41.032  1.00  0.00    -0.744 OA
ENDBRANCH  90  91
ENDBRANCH  64  85
ENDBRANCH  38  39
ENDBRANCH  31  33
ENDBRANCH  30  31
ENDBRANCH  29  30
ENDBRANCH   1  29
TORSDOF 21
ENDMDL
MODEL 3
REMARK VINA RESULT:     -10.3      2.817      9.408
REMARK SMILES COc1cc(OC(F)(F)F)cc2c1O[C@@H](C(F)(F)F)C(C(=O)OCCOCCOC(=O)c1ccc(-c3c4nc(c(-c5ccc(S(=O)(=O)[O-])cc5)c5ccc([nH]5)c(-c5ccc(S(=O)(=O)[O-])cc5)c5nc(c(-c6ccc(S(=O)(=O)[O-])cc6)c6ccc3[nH]6)C=C5)C=C4)cc1)=C2
REMARK SMILES IDX 27 1 26 2 25 3 24 4 23 5 21 6 22 7 20 8 3 9 4 10 13 11 5 12
REMARK SMILES IDX 12 13 14 14 11 15 92 16 15 17 2 18 1 19 6 20 7 21 8 22 9 23
REMARK SMILES IDX 10 24 16 25 17 26 18 27 19 28 28 29 29 30 30 31 31 32 32 33
REMARK SMILES IDX 33 34 91 35 34 36 90 37 35 38 36 39 37 40 84 41 38 42 89 43
REMARK SMILES IDX 83 44 85 45 39 46 88 47 82 48 81 49 40 51 70 52 51 53 69 54
REMARK SMILES IDX 52 55 55 56 68 57 86 58 53 59 54 60 67 62 87 63 56 64 41 65
REMARK SMILES IDX 42 66 50 67 43 68 49 69 44 70 45 71 46 72 47 73 48 74 71 75
REMARK SMILES IDX 72 76 80 77 73 78 79 79 74 80 75 81 76 82 77 83 78 84 57 85
REMARK SMILES IDX 58 86 66 87 59 88 65 89 60 90 61 91 62 92 63 93 64 94
REMARK H PARENT 85 50 55 61
REMARK Flexibility Score: inf
ROOT
ATOM      1  C   UNL A   1      36.926  21.500  24.259  1.00  0.00     0.202 C 
ENDROOT
BRANCH   1   2
ATOM      2  O   UNL A   1      36.965  22.871  23.869  1.00  0.00    -0.374 OA
BRANCH   2   3
ATOM      3  C   UNL A   1      35.896  23.721  24.276  1.00  0.00     0.202 C 
BRANCH   3   4
ATOM      4  C   UNL A   1      34.929  23.188  25.339  1.00  0.00     0.261 C 
BRANCH   4   5
ATOM      5  O   UNL A   1      33.570  23.168  24.873  1.00  0.00    -0.460 OA
BRANCH   5   6
ATOM      6  C   UNL A   1      32.648  23.479  25.814  1.00  0.00     0.338 C 
ATOM      7  O   UNL A   1      32.224  22.741  26.689  1.00  0.00    -0.246 OA
BRANCH   6   8
ATOM      8  C   UNL A   1      32.296  24.906  25.753  1.00  0.00     0.087 C 
ATOM      9  C   UNL A   1      31.864  28.921  24.712  1.00  0.00     0.165 A 
ATOM     10  C   UNL A   1      32.380  29.918  25.545  1.00  0.00     0.097 A 
ATOM     11  C   UNL A   1      31.998  27.578  25.069  1.00  0.00     0.170 A 
ATOM     12  C   UNL A   1      32.992  29.579  26.753  1.00  0.00     0.134 A 
ATOM     13  C   UNL A   1      32.627  27.222  26.275  1.00  0.00     0.025 A 
ATOM     14  O   UNL A   1      31.604  26.621  24.167  1.00  0.00    -0.471 OA
ATOM     15  C   UNL A   1      33.096  28.230  27.122  1.00  0.00     0.059 A 
ATOM     16  C   UNL A   1      32.907  25.807  26.541  1.00  0.00     0.027 C 
ATOM     17  C   UNL A   1      31.243  25.355  24.769  1.00  0.00     0.316 C 
BRANCH   9  18
ATOM     18  O   UNL A   1      31.339  29.352  23.520  1.00  0.00    -0.493 OA
ATOM     19  C   UNL A   1      29.955  29.684  23.600  1.00  0.00     0.278 C 
ENDBRANCH   9  18
BRANCH  12  20
ATOM     20  O   UNL A   1      33.540  30.459  27.646  1.00  0.00    -0.406 OA
BRANCH  20  21
ATOM     21  C   UNL A   1      34.954  30.568  27.675  1.00  0.00     0.573 C 
ATOM     22  F   UNL A   1      35.536  29.654  26.868  1.00  0.00    -0.132 F 
ATOM     23  F   UNL A   1      35.350  31.806  27.307  1.00  0.00    -0.132 F 
ATOM     24  F   UNL A   1      35.385  30.349  28.936  1.00  0.00    -0.132 F 
ENDBRANCH  20  21
ENDBRANCH  12  20
BRANCH  17  25
ATOM     25  C   UNL A   1      30.791  24.400  23.651  1.00  0.00     0.430 C 
ATOM     26  F   UNL A   1      30.487  23.175  24.138  1.00  0.00    -0.167 F 
ATOM     27  F   UNL A   1      29.639  24.868  23.091  1.00  0.00    -0.167 F 
ATOM     28  F   UNL A   1      31.684  24.273  22.651  1.00  0.00    -0.167 F 
ENDBRANCH  17  25
ENDBRANCH   6   8
ENDBRANCH   5   6
ENDBRANCH   4   5
ENDBRANCH   3   4
ENDBRANCH   2   3
ENDBRANCH   1   2
BRANCH   1  29
ATOM     29  C   UNL A   1      38.008  20.982  25.216  1.00  0.00     0.261 C 
BRANCH  29  30
ATOM     30  O   UNL A   1      38.363  21.934  26.230  1.00  0.00    -0.460 OA
BRANCH  30  31
ATOM     31  C   UNL A   1      39.685  21.983  26.523  1.00  0.00     0.338 C 
ATOM     32  O   UNL A   1      40.532  21.141  26.259  1.00  0.00    -0.246 OA
BRANCH  31  33
ATOM     33  C   UNL A   1      40.024  23.313  27.056  1.00  0.00     0.060 A 
ATOM     34  C   UNL A   1      39.433  24.434  26.456  1.00  0.00     0.016 A 
ATOM     35  C   UNL A   1      40.957  23.460  28.082  1.00  0.00     0.016 A 
ATOM     36  C   UNL A   1      39.804  25.715  26.859  1.00  0.00     0.010 A 
ATOM     37  C   UNL A   1      41.335  24.744  28.475  1.00  0.00     0.010 A 
ATOM     38  C   UNL A   1      40.784  25.875  27.846  1.00  0.00    -0.014 A 
BRANCH  38  39
ATOM     39  C   UNL A   1      41.344  27.216  28.132  1.00  0.00     0.031 A 
ATOM     40  C   UNL A   1      42.826  27.426  28.004  1.00  0.00     0.074 A 
ATOM     41  C   UNL A   1      40.545  28.221  28.529  1.00  0.00     0.049 A 
ATOM     42  N   UNL A   1      43.544  28.472  28.317  1.00  0.00    -0.248 NA
ATOM     43  C   UNL A   1      43.600  26.298  27.460  1.00  0.00     0.031 C 
ATOM     44  C   UNL A   1      39.090  28.148  28.650  1.00  0.00     0.029 A 
ATOM     45  N   UNL A   1      40.855  29.497  28.926  1.00  0.00    -0.354 N 
ATOM     46  C   UNL A   1      44.858  28.124  28.026  1.00  0.00     0.074 A 
ATOM     47  C   UNL A   1      44.839  26.762  27.541  1.00  0.00     0.031 C 
ATOM     48  C   UNL A   1      38.635  29.322  29.118  1.00  0.00     0.029 A 
ATOM     49  C   UNL A   1      39.768  30.211  29.367  1.00  0.00     0.049 A 
ATOM     50  H   UNL A   1      41.768  29.865  28.897  1.00  0.00     0.167 HD
ATOM     51  C   UNL A   1      45.980  28.874  28.152  1.00  0.00     0.031 A 
ATOM     52  C   UNL A   1      39.698  31.428  29.941  1.00  0.00     0.031 A 
ATOM     53  C   UNL A   1      45.992  30.220  28.663  1.00  0.00     0.049 A 
ATOM     54  C   UNL A   1      40.961  32.222  30.140  1.00  0.00     0.074 A 
ATOM     55  C   UNL A   1      47.070  31.071  28.824  1.00  0.00     0.029 A 
ATOM     56  N   UNL A   1      44.871  30.906  29.109  1.00  0.00    -0.354 N 
ATOM     57  N   UNL A   1      42.197  31.891  29.846  1.00  0.00    -0.248 NA
ATOM     58  C   UNL A   1      40.821  33.556  30.739  1.00  0.00     0.031 C 
ATOM     59  C   UNL A   1      46.609  32.249  29.422  1.00  0.00     0.029 A 
ATOM     60  C   UNL A   1      45.234  32.160  29.570  1.00  0.00     0.049 A 
ATOM     61  H   UNL A   1      43.952  30.552  29.099  1.00  0.00     0.167 HD
ATOM     62  C   UNL A   1      42.978  32.987  30.198  1.00  0.00     0.074 A 
ATOM     63  C   UNL A   1      42.073  33.993  30.719  1.00  0.00     0.031 C 
ATOM     64  C   UNL A   1      44.321  33.149  30.093  1.00  0.00     0.031 A 
BRANCH  51  65
ATOM     65  C   UNL A   1      47.287  28.224  27.778  1.00  0.00    -0.014 A 
ATOM     66  C   UNL A   1      47.749  28.217  26.448  1.00  0.00     0.010 A 
ATOM     67  C   UNL A   1      48.064  27.600  28.772  1.00  0.00     0.010 A 
ATOM     68  C   UNL A   1      48.927  27.544  26.111  1.00  0.00     0.020 A 
ATOM     69  C   UNL A   1      49.259  26.955  28.444  1.00  0.00     0.020 A 
ATOM     70  C   UNL A   1      49.669  26.909  27.110  1.00  0.00     0.054 A 
BRANCH  70  71
ATOM     71  S   UNL A   1      51.181  26.023  26.642  1.00  0.00     0.124 S 
ATOM     72  O   UNL A   1      50.874  24.660  27.069  1.00  0.00    -0.237 OA
ATOM     73  O   UNL A   1      51.241  26.231  25.198  1.00  0.00    -0.237 OA
ATOM     74  O   UNL A   1      52.229  26.695  27.408  1.00  0.00    -0.744 OA
ENDBRANCH  70  71
ENDBRANCH  51  65
BRANCH  52  75
ATOM     75  C   UNL A   1      38.377  31.950  30.382  1.00  0.00    -0.014 A 
ATOM     76  C   UNL A   1      37.873  31.644  31.657  1.00  0.00     0.010 A 
ATOM     77  C   UNL A   1      37.640  32.806  29.542  1.00  0.00     0.010 A 
ATOM     78  C   UNL A   1      36.659  32.188  32.087  1.00  0.00     0.020 A 
ATOM     79  C   UNL A   1      36.441  33.374  29.978  1.00  0.00     0.020 A 
ATOM     80  C   UNL A   1      35.957  33.060  31.249  1.00  0.00     0.054 A 
BRANCH  80  81
ATOM     81  S   UNL A   1      34.434  33.829  31.866  1.00  0.00     0.124 S 
ATOM     82  O   UNL A   1      33.806  32.728  32.587  1.00  0.00    -0.237 OA
ATOM     83  O   UNL A   1      34.949  34.919  32.695  1.00  0.00    -0.237 OA
ATOM     84  O   UNL A   1      33.748  34.255  30.649  1.00  0.00    -0.744 OA
ENDBRANCH  80  81
ENDBRANCH  52  75
BRANCH  64  85
ATOM     85  C   UNL A   1      44.899  34.475  30.513  1.00  0.00    -0.014 A 
ATOM     86  C   UNL A   1      44.973  35.560  29.621  1.00  0.00     0.010 A 
ATOM     87  C   UNL A   1      45.314  34.655  31.846  1.00  0.00     0.010 A 
ATOM     88  C   UNL A   1      45.480  36.792  30.049  1.00  0.00     0.020 A 
ATOM     89  C   UNL A   1      45.792  35.892  32.284  1.00  0.00     0.020 A 
ATOM     90  C   UNL A   1      45.884  36.951  31.378  1.00  0.00     0.054 A 
BRANCH  90  91
ATOM     91  S   UNL A   1      46.490  38.572  31.920  1.00  0.00     0.124 S 
ATOM     92  O   UNL A   1      47.631  38.782  31.032  1.00  0.00    -0.237 OA
ATOM     93  O   UNL A   1      45.340  39.441  31.680  1.00  0.00    -0.237 OA
ATOM     94  O   UNL A   1      46.825  38.365  33.327  1.00  0.00    -0.744 OA
ENDBRANCH  90  91
ENDBRANCH  64  85
ENDBRANCH  38  39
ENDBRANCH  31  33
ENDBRANCH  30  31
ENDBRANCH  29  30
ENDBRANCH   1  29
TORSDOF 21
ENDMDL
