MODEL 1
REMARK VINA RESULT:      -9.9      0.000      0.000
REMARK SMILES COc1ccccc1-c1ccc(C(=O)OCCOCCOC(=O)c2ccc(-c3c4nc(c(-c5ccc(S(=O)(=O)[O-])cc5)c5ccc([nH]5)c(-c5ccc(S(=O)(=O)[O-])cc5)c5nc(c(-c6ccc(S(=O)(=O)[O-])cc6)c6ccc3[nH]6)C=C5)C=C4)cc2)c(O)c1
REMARK SMILES IDX 19 1 18 2 17 3 16 4 15 5 13 6 14 7 12 8 9 9 10 10 86 11
REMARK SMILES IDX 11 12 84 13 8 14 3 15 4 16 5 17 7 18 6 19 2 20 1 21 85 22
REMARK SMILES IDX 20 24 21 25 22 26 23 27 24 28 25 29 83 30 26 31 82 32 27 33
REMARK SMILES IDX 28 34 29 35 76 36 30 37 81 38 75 39 77 40 31 41 80 42 74 43
REMARK SMILES IDX 73 44 32 46 62 47 43 48 61 49 44 50 47 51 60 52 78 53 45 54
REMARK SMILES IDX 46 55 59 57 79 58 48 59 33 60 34 61 42 62 35 63 41 64 36 65
REMARK SMILES IDX 37 66 38 67 39 68 40 69 63 70 64 71 72 72 65 73 71 74 66 75
REMARK SMILES IDX 67 76 68 77 69 78 70 79 49 80 50 81 58 82 51 83 57 84 52 85
REMARK SMILES IDX 53 86 54 87 55 88 56 89
REMARK H PARENT 85 23 77 45 47 56
REMARK Flexibility Score: inf
ROOT
ATOM      1  C   UNL A   1      37.426  20.614  24.692  1.00  0.00     0.202 C 
ENDROOT
BRANCH   1   2
ATOM      2  O   UNL A   1      36.155  20.085  25.073  1.00  0.00    -0.374 OA
BRANCH   2   3
ATOM      3  C   UNL A   1      35.047  20.988  25.094  1.00  0.00     0.202 C 
BRANCH   3   4
ATOM      4  C   UNL A   1      34.168  20.952  26.345  1.00  0.00     0.261 C 
BRANCH   4   5
ATOM      5  O   UNL A   1      33.737  22.276  26.686  1.00  0.00    -0.460 OA
BRANCH   5   6
ATOM      6  C   UNL A   1      32.606  22.686  26.076  1.00  0.00     0.341 C 
ATOM      7  O   UNL A   1      31.648  21.987  25.770  1.00  0.00    -0.246 OA
BRANCH   6   8
ATOM      8  C   UNL A   1      32.542  24.161  25.980  1.00  0.00     0.101 A 
ATOM      9  C   UNL A   1      32.840  26.951  26.063  1.00  0.00    -0.011 A 
ATOM     10  C   UNL A   1      33.798  26.156  25.417  1.00  0.00     0.010 A 
ATOM     11  C   UNL A   1      31.660  26.345  26.532  1.00  0.00     0.056 A 
ATOM     12  C   UNL A   1      33.654  24.773  25.384  1.00  0.00     0.020 A 
ATOM     13  C   UNL A   1      31.516  24.953  26.502  1.00  0.00     0.130 A 
BRANCH   9  14
ATOM     14  C   UNL A   1      33.190  28.336  26.415  1.00  0.00     0.024 A 
ATOM     15  C   UNL A   1      32.318  29.409  26.130  1.00  0.00     0.126 A 
ATOM     16  C   UNL A   1      32.614  30.707  26.554  1.00  0.00     0.047 A 
ATOM     17  C   UNL A   1      33.767  30.955  27.295  1.00  0.00     0.004 A 
ATOM     18  C   UNL A   1      34.359  28.614  27.145  1.00  0.00     0.012 A 
ATOM     19  C   UNL A   1      34.644  29.911  27.583  1.00  0.00     0.001 A 
BRANCH  15  20
ATOM     20  O   UNL A   1      31.180  29.277  25.371  1.00  0.00    -0.496 OA
ATOM     21  C   UNL A   1      31.445  29.243  23.967  1.00  0.00     0.278 C 
ENDBRANCH  15  20
ENDBRANCH   9  14
BRANCH  13  22
ATOM     22  O   UNL A   1      30.409  24.385  27.060  1.00  0.00    -0.507 OA
ATOM     23  H   UNL A   1      29.608  24.343  26.575  1.00  0.00     0.293 HD
ENDBRANCH  13  22
ENDBRANCH   6   8
ENDBRANCH   5   6
ENDBRANCH   4   5
ENDBRANCH   3   4
ENDBRANCH   2   3
ENDBRANCH   1   2
BRANCH   1  24
ATOM     24  C   UNL A   1      37.635  22.123  24.864  1.00  0.00     0.261 C 
BRANCH  24  25
ATOM     25  O   UNL A   1      38.010  22.481  26.206  1.00  0.00    -0.460 OA
BRANCH  25  26
ATOM     26  C   UNL A   1      39.324  22.763  26.375  1.00  0.00     0.338 C 
ATOM     27  O   UNL A   1      40.276  22.105  25.979  1.00  0.00    -0.246 OA
BRANCH  26  28
ATOM     28  C   UNL A   1      39.478  24.105  26.965  1.00  0.00     0.060 A 
ATOM     29  C   UNL A   1      40.186  25.063  26.228  1.00  0.00     0.016 A 
ATOM     30  C   UNL A   1      39.000  24.402  28.243  1.00  0.00     0.016 A 
ATOM     31  C   UNL A   1      40.455  26.313  26.784  1.00  0.00     0.010 A 
ATOM     32  C   UNL A   1      39.282  25.652  28.803  1.00  0.00     0.010 A 
ATOM     33  C   UNL A   1      40.037  26.601  28.088  1.00  0.00    -0.014 A 
BRANCH  33  34
ATOM     34  C   UNL A   1      40.505  27.838  28.758  1.00  0.00     0.031 A 
ATOM     35  C   UNL A   1      41.901  27.883  29.315  1.00  0.00     0.074 A 
ATOM     36  C   UNL A   1      39.700  28.912  28.856  1.00  0.00     0.049 A 
ATOM     37  N   UNL A   1      42.496  28.838  29.981  1.00  0.00    -0.248 NA
ATOM     38  C   UNL A   1      42.736  26.691  29.093  1.00  0.00     0.031 C 
ATOM     39  C   UNL A   1      38.344  29.006  28.316  1.00  0.00     0.029 A 
ATOM     40  N   UNL A   1      39.910  30.129  29.455  1.00  0.00    -0.354 N 
ATOM     41  C   UNL A   1      43.770  28.361  30.268  1.00  0.00     0.074 A 
ATOM     42  C   UNL A   1      43.853  27.023  29.725  1.00  0.00     0.031 C 
ATOM     43  C   UNL A   1      37.838  30.215  28.619  1.00  0.00     0.029 A 
ATOM     44  C   UNL A   1      38.819  30.964  29.402  1.00  0.00     0.049 A 
ATOM     45  H   UNL A   1      40.761  30.380  29.883  1.00  0.00     0.167 HD
ATOM     46  C   UNL A   1      44.779  28.983  30.923  1.00  0.00     0.031 A 
ATOM     47  C   UNL A   1      38.627  32.182  29.943  1.00  0.00     0.031 A 
ATOM     48  C   UNL A   1      44.687  30.309  31.472  1.00  0.00     0.049 A 
ATOM     49  C   UNL A   1      39.739  32.826  30.729  1.00  0.00     0.074 A 
ATOM     50  C   UNL A   1      45.659  31.032  32.143  1.00  0.00     0.029 A 
ATOM     51  N   UNL A   1      43.557  31.110  31.423  1.00  0.00    -0.354 N 
ATOM     52  N   UNL A   1      40.944  32.370  30.977  1.00  0.00    -0.248 NA
ATOM     53  C   UNL A   1      39.467  34.152  31.302  1.00  0.00     0.031 C 
ATOM     54  C   UNL A   1      45.098  32.248  32.545  1.00  0.00     0.029 A 
ATOM     55  C   UNL A   1      43.797  32.310  32.072  1.00  0.00     0.049 A 
ATOM     56  H   UNL A   1      42.708  30.863  30.990  1.00  0.00     0.167 HD
ATOM     57  C   UNL A   1      41.583  33.366  31.708  1.00  0.00     0.074 A 
ATOM     58  C   UNL A   1      40.636  34.450  31.855  1.00  0.00     0.031 C 
ATOM     59  C   UNL A   1      42.844  33.381  32.209  1.00  0.00     0.031 A 
BRANCH  46  60
ATOM     60  C   UNL A   1      46.061  28.215  31.112  1.00  0.00    -0.014 A 
ATOM     61  C   UNL A   1      47.220  28.540  30.385  1.00  0.00     0.010 A 
ATOM     62  C   UNL A   1      46.115  27.176  32.058  1.00  0.00     0.010 A 
ATOM     63  C   UNL A   1      48.398  27.813  30.571  1.00  0.00     0.020 A 
ATOM     64  C   UNL A   1      47.299  26.463  32.266  1.00  0.00     0.020 A 
ATOM     65  C   UNL A   1      48.429  26.776  31.509  1.00  0.00     0.054 A 
BRANCH  65  66
ATOM     66  S   UNL A   1      49.977  25.859  31.744  1.00  0.00     0.124 S 
ATOM     67  O   UNL A   1      49.753  25.218  33.038  1.00  0.00    -0.237 OA
ATOM     68  O   UNL A   1      49.996  24.960  30.593  1.00  0.00    -0.237 OA
ATOM     69  O   UNL A   1      51.002  26.900  31.734  1.00  0.00    -0.744 OA
ENDBRANCH  65  66
ENDBRANCH  46  60
BRANCH  47  70
ATOM     70  C   UNL A   1      37.315  32.868  29.777  1.00  0.00    -0.014 A 
ATOM     71  C   UNL A   1      37.036  33.614  28.619  1.00  0.00     0.010 A 
ATOM     72  C   UNL A   1      36.334  32.772  30.782  1.00  0.00     0.010 A 
ATOM     73  C   UNL A   1      35.807  34.264  28.475  1.00  0.00     0.020 A 
ATOM     74  C   UNL A   1      35.094  33.398  30.630  1.00  0.00     0.020 A 
ATOM     75  C   UNL A   1      34.842  34.149  29.480  1.00  0.00     0.054 A 
BRANCH  75  76
ATOM     76  S   UNL A   1      33.234  34.956  29.249  1.00  0.00     0.124 S 
ATOM     77  O   UNL A   1      33.624  36.272  28.753  1.00  0.00    -0.237 OA
ATOM     78  O   UNL A   1      32.579  34.082  28.280  1.00  0.00    -0.237 OA
ATOM     79  O   UNL A   1      32.648  34.939  30.587  1.00  0.00    -0.744 OA
ENDBRANCH  75  76
ENDBRANCH  47  70
BRANCH  59  80
ATOM     80  C   UNL A   1      43.292  34.626  32.929  1.00  0.00    -0.014 A 
ATOM     81  C   UNL A   1      43.801  35.733  32.229  1.00  0.00     0.010 A 
ATOM     82  C   UNL A   1      43.139  34.709  34.326  1.00  0.00     0.010 A 
ATOM     83  C   UNL A   1      44.174  36.892  32.916  1.00  0.00     0.020 A 
ATOM     84  C   UNL A   1      43.486  35.875  35.014  1.00  0.00     0.020 A 
ATOM     85  C   UNL A   1      44.014  36.956  34.305  1.00  0.00     0.054 A 
BRANCH  85  86
ATOM     86  S   UNL A   1      44.458  38.489  35.167  1.00  0.00     0.124 S 
ATOM     87  O   UNL A   1      45.912  38.503  35.032  1.00  0.00    -0.237 OA
ATOM     88  O   UNL A   1      43.744  39.508  34.401  1.00  0.00    -0.237 OA
ATOM     89  O   UNL A   1      43.961  38.279  36.525  1.00  0.00    -0.744 OA
ENDBRANCH  85  86
ENDBRANCH  59  80
ENDBRANCH  33  34
ENDBRANCH  26  28
ENDBRANCH  25  26
ENDBRANCH  24  25
ENDBRANCH   1  24
TORSDOF 20
ENDMDL
MODEL 2
REMARK VINA RESULT:      -9.8      3.524      8.894
REMARK SMILES COc1ccccc1-c1ccc(C(=O)OCCOCCOC(=O)c2ccc(-c3c4nc(c(-c5ccc(S(=O)(=O)[O-])cc5)c5ccc([nH]5)c(-c5ccc(S(=O)(=O)[O-])cc5)c5nc(c(-c6ccc(S(=O)(=O)[O-])cc6)c6ccc3[nH]6)C=C5)C=C4)cc2)c(O)c1
REMARK SMILES IDX 19 1 18 2 17 3 16 4 15 5 13 6 14 7 12 8 9 9 10 10 86 11
REMARK SMILES IDX 11 12 84 13 8 14 3 15 4 16 5 17 7 18 6 19 2 20 1 21 85 22
REMARK SMILES IDX 20 24 21 25 22 26 23 27 24 28 25 29 83 30 26 31 82 32 27 33
REMARK SMILES IDX 28 34 29 35 76 36 30 37 81 38 75 39 77 40 31 41 80 42 74 43
REMARK SMILES IDX 73 44 32 46 62 47 43 48 61 49 44 50 47 51 60 52 78 53 45 54
REMARK SMILES IDX 46 55 59 57 79 58 48 59 33 60 34 61 42 62 35 63 41 64 36 65
REMARK SMILES IDX 37 66 38 67 39 68 40 69 63 70 64 71 72 72 65 73 71 74 66 75
REMARK SMILES IDX 67 76 68 77 69 78 70 79 49 80 50 81 58 82 51 83 57 84 52 85
REMARK SMILES IDX 53 86 54 87 55 88 56 89
REMARK H PARENT 85 23 77 45 47 56
REMARK Flexibility Score: inf
ROOT
ATOM      1  C   UNL A   1      39.740  22.082  26.448  1.00  0.00     0.202 C 
ENDROOT
BRANCH   1   2
ATOM      2  O   UNL A   1      38.390  22.296  26.035  1.00  0.00    -0.374 OA
BRANCH   2   3
ATOM      3  C   UNL A   1      37.767  21.269  25.259  1.00  0.00     0.202 C 
BRANCH   3   4
ATOM      4  C   UNL A   1      36.262  21.088  25.458  1.00  0.00     0.261 C 
BRANCH   4   5
ATOM      5  O   UNL A   1      35.717  22.209  26.167  1.00  0.00    -0.460 OA
BRANCH   5   6
ATOM      6  C   UNL A   1      34.402  22.120  26.456  1.00  0.00     0.341 C 
ATOM      7  O   UNL A   1      33.844  21.199  27.038  1.00  0.00    -0.246 OA
BRANCH   6   8
ATOM      8  C   UNL A   1      33.693  23.386  26.165  1.00  0.00     0.101 A 
ATOM      9  C   UNL A   1      32.745  26.004  25.816  1.00  0.00    -0.011 A 
ATOM     10  C   UNL A   1      33.910  25.580  25.160  1.00  0.00     0.010 A 
ATOM     11  C   UNL A   1      31.983  25.058  26.525  1.00  0.00     0.056 A 
ATOM     12  C   UNL A   1      34.384  24.285  25.340  1.00  0.00     0.020 A 
ATOM     13  C   UNL A   1      32.460  23.756  26.709  1.00  0.00     0.130 A 
BRANCH   9  14
ATOM     14  C   UNL A   1      32.476  27.447  25.918  1.00  0.00     0.024 A 
ATOM     15  C   UNL A   1      31.752  28.133  24.919  1.00  0.00     0.126 A 
ATOM     16  C   UNL A   1      31.417  29.481  25.071  1.00  0.00     0.047 A 
ATOM     17  C   UNL A   1      31.770  30.162  26.233  1.00  0.00     0.004 A 
ATOM     18  C   UNL A   1      32.839  28.161  27.074  1.00  0.00     0.012 A 
ATOM     19  C   UNL A   1      32.487  29.505  27.231  1.00  0.00     0.001 A 
BRANCH  15  20
ATOM     20  O   UNL A   1      31.397  27.563  23.719  1.00  0.00    -0.496 OA
ATOM     21  C   UNL A   1      30.061  27.882  23.323  1.00  0.00     0.278 C 
ENDBRANCH  15  20
ENDBRANCH   9  14
BRANCH  13  22
ATOM     22  O   UNL A   1      31.753  22.890  27.490  1.00  0.00    -0.507 OA
ATOM     23  H   UNL A   1      30.938  22.542  27.184  1.00  0.00     0.293 HD
ENDBRANCH  13  22
ENDBRANCH   6   8
ENDBRANCH   5   6
ENDBRANCH   4   5
ENDBRANCH   3   4
ENDBRANCH   2   3
ENDBRANCH   1   2
BRANCH   1  24
ATOM     24  C   UNL A   1      40.627  23.322  26.606  1.00  0.00     0.261 C 
BRANCH  24  25
ATOM     25  O   UNL A   1      39.886  24.550  26.506  1.00  0.00    -0.460 OA
BRANCH  25  26
ATOM     26  C   UNL A   1      40.644  25.665  26.370  1.00  0.00     0.338 C 
ATOM     27  O   UNL A   1      41.076  26.140  25.329  1.00  0.00    -0.246 OA
BRANCH  26  28
ATOM     28  C   UNL A   1      40.743  26.366  27.663  1.00  0.00     0.060 A 
ATOM     29  C   UNL A   1      39.724  26.152  28.600  1.00  0.00     0.016 A 
ATOM     30  C   UNL A   1      41.775  27.267  27.930  1.00  0.00     0.016 A 
ATOM     31  C   UNL A   1      39.710  26.871  29.794  1.00  0.00     0.010 A 
ATOM     32  C   UNL A   1      41.752  27.997  29.123  1.00  0.00     0.010 A 
ATOM     33  C   UNL A   1      40.703  27.824  30.046  1.00  0.00    -0.014 A 
BRANCH  33  34
ATOM     34  C   UNL A   1      40.573  28.738  31.205  1.00  0.00     0.031 A 
ATOM     35  C   UNL A   1      39.555  29.844  31.153  1.00  0.00     0.074 A 
ATOM     36  C   UNL A   1      41.343  28.576  32.296  1.00  0.00     0.049 A 
ATOM     37  N   UNL A   1      39.308  30.783  32.028  1.00  0.00    -0.248 NA
ATOM     38  C   UNL A   1      38.703  29.897  29.953  1.00  0.00     0.031 C 
ATOM     39  C   UNL A   1      42.333  27.516  32.485  1.00  0.00     0.029 A 
ATOM     40  N   UNL A   1      41.416  29.314  33.452  1.00  0.00    -0.354 N 
ATOM     41  C   UNL A   1      38.283  31.547  31.482  1.00  0.00     0.074 A 
ATOM     42  C   UNL A   1      37.970  30.976  30.190  1.00  0.00     0.031 C 
ATOM     43  C   UNL A   1      42.922  27.679  33.683  1.00  0.00     0.029 A 
ATOM     44  C   UNL A   1      42.378  28.872  34.328  1.00  0.00     0.049 A 
ATOM     45  H   UNL A   1      40.834  30.087  33.635  1.00  0.00     0.167 HD
ATOM     46  C   UNL A   1      37.657  32.626  32.010  1.00  0.00     0.031 A 
ATOM     47  C   UNL A   1      42.788  29.384  35.505  1.00  0.00     0.031 A 
ATOM     48  C   UNL A   1      37.980  33.199  33.289  1.00  0.00     0.049 A 
ATOM     49  C   UNL A   1      42.125  30.627  36.040  1.00  0.00     0.074 A 
ATOM     50  C   UNL A   1      37.395  34.285  33.918  1.00  0.00     0.029 A 
ATOM     51  N   UNL A   1      38.980  32.740  34.133  1.00  0.00    -0.354 N 
ATOM     52  N   UNL A   1      41.145  31.327  35.521  1.00  0.00    -0.248 NA
ATOM     53  C   UNL A   1      42.621  31.143  37.324  1.00  0.00     0.031 C 
ATOM     54  C   UNL A   1      38.077  34.514  35.117  1.00  0.00     0.029 A 
ATOM     55  C   UNL A   1      39.046  33.534  35.265  1.00  0.00     0.049 A 
ATOM     56  H   UNL A   1      39.557  31.963  33.953  1.00  0.00     0.167 HD
ATOM     57  C   UNL A   1      40.887  32.349  36.429  1.00  0.00     0.074 A 
ATOM     58  C   UNL A   1      41.807  32.170  37.532  1.00  0.00     0.031 C 
ATOM     59  C   UNL A   1      39.967  33.343  36.357  1.00  0.00     0.031 A 
BRANCH  46  60
ATOM     60  C   UNL A   1      36.581  33.279  31.182  1.00  0.00    -0.014 A 
ATOM     61  C   UNL A   1      36.882  33.916  29.966  1.00  0.00     0.010 A 
ATOM     62  C   UNL A   1      35.243  33.223  31.614  1.00  0.00     0.010 A 
ATOM     63  C   UNL A   1      35.870  34.521  29.216  1.00  0.00     0.020 A 
ATOM     64  C   UNL A   1      34.225  33.803  30.852  1.00  0.00     0.020 A 
ATOM     65  C   UNL A   1      34.548  34.464  29.666  1.00  0.00     0.054 A 
BRANCH  65  66
ATOM     66  S   UNL A   1      33.251  35.241  28.663  1.00  0.00     0.124 S 
ATOM     67  O   UNL A   1      32.657  34.087  27.992  1.00  0.00    -0.237 OA
ATOM     68  O   UNL A   1      32.409  35.884  29.669  1.00  0.00    -0.237 OA
ATOM     69  O   UNL A   1      33.986  36.157  27.794  1.00  0.00    -0.744 OA
ENDBRANCH  65  66
ENDBRANCH  46  60
BRANCH  47  70
ATOM     70  C   UNL A   1      43.900  28.732  36.249  1.00  0.00    -0.014 A 
ATOM     71  C   UNL A   1      45.215  29.219  36.146  1.00  0.00     0.010 A 
ATOM     72  C   UNL A   1      43.645  27.618  37.071  1.00  0.00     0.010 A 
ATOM     73  C   UNL A   1      46.257  28.596  36.840  1.00  0.00     0.020 A 
ATOM     74  C   UNL A   1      44.680  27.009  37.787  1.00  0.00     0.020 A 
ATOM     75  C   UNL A   1      45.982  27.496  37.658  1.00  0.00     0.054 A 
BRANCH  75  76
ATOM     76  S   UNL A   1      47.339  26.736  38.591  1.00  0.00     0.124 S 
ATOM     77  O   UNL A   1      46.658  25.651  39.288  1.00  0.00    -0.237 OA
ATOM     78  O   UNL A   1      48.261  26.330  37.532  1.00  0.00    -0.237 OA
ATOM     79  O   UNL A   1      47.821  27.823  39.440  1.00  0.00    -0.744 OA
ENDBRANCH  75  76
ENDBRANCH  47  70
BRANCH  59  80
ATOM     80  C   UNL A   1      39.876  34.295  37.521  1.00  0.00    -0.014 A 
ATOM     81  C   UNL A   1      39.079  34.006  38.642  1.00  0.00     0.010 A 
ATOM     82  C   UNL A   1      40.655  35.467  37.517  1.00  0.00     0.010 A 
ATOM     83  C   UNL A   1      39.042  34.886  39.727  1.00  0.00     0.020 A 
ATOM     84  C   UNL A   1      40.641  36.336  38.611  1.00  0.00     0.020 A 
ATOM     85  C   UNL A   1      39.824  36.046  39.705  1.00  0.00     0.054 A 
BRANCH  85  86
ATOM     86  S   UNL A   1      39.797  37.147  41.146  1.00  0.00     0.124 S 
ATOM     87  O   UNL A   1      41.220  37.382  41.376  1.00  0.00    -0.237 OA
ATOM     88  O   UNL A   1      39.040  38.298  40.659  1.00  0.00    -0.237 OA
ATOM     89  O   UNL A   1      39.123  36.357  42.174  1.00  0.00    -0.744 OA
ENDBRANCH  85  86
ENDBRANCH  59  80
ENDBRANCH  33  34
ENDBRANCH  26  28
ENDBRANCH  25  26
ENDBRANCH  24  25
ENDBRANCH   1  24
TORSDOF 20
ENDMDL
MODEL 3
REMARK VINA RESULT:      -9.8      3.279      3.986
REMARK SMILES COc1ccccc1-c1ccc(C(=O)OCCOCCOC(=O)c2ccc(-c3c4nc(c(-c5ccc(S(=O)(=O)[O-])cc5)c5ccc([nH]5)c(-c5ccc(S(=O)(=O)[O-])cc5)c5nc(c(-c6ccc(S(=O)(=O)[O-])cc6)c6ccc3[nH]6)C=C5)C=C4)cc2)c(O)c1
REMARK SMILES IDX 19 1 18 2 17 3 16 4 15 5 13 6 14 7 12 8 9 9 10 10 86 11
REMARK SMILES IDX 11 12 84 13 8 14 3 15 4 16 5 17 7 18 6 19 2 20 1 21 85 22
REMARK SMILES IDX 20 24 21 25 22 26 23 27 24 28 25 29 83 30 26 31 82 32 27 33
REMARK SMILES IDX 28 34 29 35 76 36 30 37 81 38 75 39 77 40 31 41 80 42 74 43
REMARK SMILES IDX 73 44 32 46 62 47 43 48 61 49 44 50 47 51 60 52 78 53 45 54
REMARK SMILES IDX 46 55 59 57 79 58 48 59 33 60 34 61 42 62 35 63 41 64 36 65
REMARK SMILES IDX 37 66 38 67 39 68 40 69 63 70 64 71 72 72 65 73 71 74 66 75
REMARK SMILES IDX 67 76 68 77 69 78 70 79 49 80 50 81 58 82 51 83 57 84 52 85
REMARK SMILES IDX 53 86 54 87 55 88 56 89
REMARK H PARENT 85 23 77 45 47 56
REMARK Flexibility Score: inf
ROOT
ATOM      1  C   UNL A   1      39.217  21.747  26.500  1.00  0.00     0.202 C 
ENDROOT
BRANCH   1   2
ATOM      2  O   UNL A   1      38.624  21.392  25.250  1.00  0.00    -0.374 OA
BRANCH   2   3
ATOM      3  C   UNL A   1      37.277  21.811  25.018  1.00  0.00     0.202 C 
BRANCH   3   4
ATOM      4  C   UNL A   1      36.186  20.783  25.317  1.00  0.00     0.261 C 
BRANCH   4   5
ATOM      5  O   UNL A   1      34.893  21.340  25.051  1.00  0.00    -0.460 OA
BRANCH   5   6
ATOM      6  C   UNL A   1      34.278  21.897  26.115  1.00  0.00     0.341 C 
ATOM      7  O   UNL A   1      34.282  21.473  27.264  1.00  0.00    -0.246 OA
BRANCH   6   8
ATOM      8  C   UNL A   1      33.733  23.234  25.793  1.00  0.00     0.101 A 
ATOM      9  C   UNL A   1      32.960  25.924  25.574  1.00  0.00    -0.011 A 
ATOM     10  C   UNL A   1      34.306  25.560  25.422  1.00  0.00     0.010 A 
ATOM     11  C   UNL A   1      31.991  24.910  25.687  1.00  0.00     0.056 A 
ATOM     12  C   UNL A   1      34.689  24.228  25.539  1.00  0.00     0.020 A 
ATOM     13  C   UNL A   1      32.376  23.570  25.807  1.00  0.00     0.130 A 
BRANCH   9  14
ATOM     14  C   UNL A   1      32.633  27.336  25.823  1.00  0.00     0.024 A 
ATOM     15  C   UNL A   1      32.406  28.237  24.760  1.00  0.00     0.126 A 
ATOM     16  C   UNL A   1      32.001  29.551  25.006  1.00  0.00     0.047 A 
ATOM     17  C   UNL A   1      31.785  29.984  26.312  1.00  0.00     0.004 A 
ATOM     18  C   UNL A   1      32.429  27.802  27.134  1.00  0.00     0.012 A 
ATOM     19  C   UNL A   1      32.007  29.113  27.376  1.00  0.00     0.001 A 
BRANCH  15  20
ATOM     20  O   UNL A   1      32.633  27.921  23.442  1.00  0.00    -0.496 OA
ATOM     21  C   UNL A   1      33.514  28.838  22.790  1.00  0.00     0.278 C 
ENDBRANCH  15  20
ENDBRANCH   9  14
BRANCH  13  22
ATOM     22  O   UNL A   1      31.423  22.619  26.022  1.00  0.00    -0.507 OA
ATOM     23  H   UNL A   1      30.525  22.869  26.119  1.00  0.00     0.293 HD
ENDBRANCH  13  22
ENDBRANCH   6   8
ENDBRANCH   5   6
ENDBRANCH   4   5
ENDBRANCH   3   4
ENDBRANCH   2   3
ENDBRANCH   1   2
BRANCH   1  24
ATOM     24  C   UNL A   1      40.229  22.900  26.491  1.00  0.00     0.261 C 
BRANCH  24  25
ATOM     25  O   UNL A   1      39.598  24.191  26.536  1.00  0.00    -0.460 OA
BRANCH  25  26
ATOM     26  C   UNL A   1      40.424  25.238  26.299  1.00  0.00     0.338 C 
ATOM     27  O   UNL A   1      40.894  25.576  25.221  1.00  0.00    -0.246 OA
BRANCH  26  28
ATOM     28  C   UNL A   1      40.555  26.060  27.514  1.00  0.00     0.060 A 
ATOM     29  C   UNL A   1      39.541  25.966  28.477  1.00  0.00     0.016 A 
ATOM     30  C   UNL A   1      41.612  26.958  27.681  1.00  0.00     0.016 A 
ATOM     31  C   UNL A   1      39.558  26.800  29.593  1.00  0.00     0.010 A 
ATOM     32  C   UNL A   1      41.620  27.802  28.796  1.00  0.00     0.010 A 
ATOM     33  C   UNL A   1      40.577  27.748  29.741  1.00  0.00    -0.014 A 
BRANCH  33  34
ATOM     34  C   UNL A   1      40.483  28.775  30.805  1.00  0.00     0.031 A 
ATOM     35  C   UNL A   1      41.391  28.673  32.001  1.00  0.00     0.074 A 
ATOM     36  C   UNL A   1      39.609  29.793  30.702  1.00  0.00     0.049 A 
ATOM     37  N   UNL A   1      41.442  29.428  33.067  1.00  0.00    -0.248 NA
ATOM     38  C   UNL A   1      42.368  27.572  31.991  1.00  0.00     0.031 C 
ATOM     39  C   UNL A   1      38.709  30.025  29.573  1.00  0.00     0.029 A 
ATOM     40  N   UNL A   1      39.332  30.819  31.570  1.00  0.00    -0.354 N 
ATOM     41  C   UNL A   1      42.448  28.889  33.862  1.00  0.00     0.074 A 
ATOM     42  C   UNL A   1      42.963  27.730  33.166  1.00  0.00     0.031 C 
ATOM     43  C   UNL A   1      37.971  31.121  29.823  1.00  0.00     0.029 A 
ATOM     44  C   UNL A   1      38.320  31.645  31.142  1.00  0.00     0.049 A 
ATOM     45  H   UNL A   1      39.812  30.951  32.420  1.00  0.00     0.167 HD
ATOM     46  C   UNL A   1      42.902  29.322  35.062  1.00  0.00     0.031 A 
ATOM     47  C   UNL A   1      37.728  32.689  31.754  1.00  0.00     0.031 A 
ATOM     48  C   UNL A   1      42.378  30.467  35.757  1.00  0.00     0.049 A 
ATOM     49  C   UNL A   1      38.202  33.110  33.121  1.00  0.00     0.074 A 
ATOM     50  C   UNL A   1      42.779  30.994  36.973  1.00  0.00     0.029 A 
ATOM     51  N   UNL A   1      41.334  31.260  35.303  1.00  0.00    -0.354 N 
ATOM     52  N   UNL A   1      39.165  32.601  33.852  1.00  0.00    -0.248 NA
ATOM     53  C   UNL A   1      37.512  34.250  33.741  1.00  0.00     0.031 C 
ATOM     54  C   UNL A   1      41.943  32.072  37.278  1.00  0.00     0.029 A 
ATOM     55  C   UNL A   1      41.061  32.256  36.225  1.00  0.00     0.049 A 
ATOM     56  H   UNL A   1      40.859  31.132  34.451  1.00  0.00     0.167 HD
ATOM     57  C   UNL A   1      39.217  33.378  35.005  1.00  0.00     0.074 A 
ATOM     58  C   UNL A   1      38.195  34.395  34.870  1.00  0.00     0.031 C 
ATOM     59  C   UNL A   1      40.040  33.262  36.076  1.00  0.00     0.031 A 
BRANCH  46  60
ATOM     60  C   UNL A   1      44.001  28.526  35.717  1.00  0.00    -0.014 A 
ATOM     61  C   UNL A   1      45.355  28.835  35.498  1.00  0.00     0.010 A 
ATOM     62  C   UNL A   1      43.670  27.476  36.592  1.00  0.00     0.010 A 
ATOM     63  C   UNL A   1      46.359  28.082  36.111  1.00  0.00     0.020 A 
ATOM     64  C   UNL A   1      44.672  26.737  37.228  1.00  0.00     0.020 A 
ATOM     65  C   UNL A   1      46.011  27.034  36.970  1.00  0.00     0.054 A 
BRANCH  65  66
ATOM     66  S   UNL A   1      47.335  26.084  37.768  1.00  0.00     0.124 S 
ATOM     67  O   UNL A   1      46.983  26.205  39.180  1.00  0.00    -0.237 OA
ATOM     68  O   UNL A   1      47.167  24.753  37.191  1.00  0.00    -0.237 OA
ATOM     69  O   UNL A   1      48.554  26.783  37.367  1.00  0.00    -0.744 OA
ENDBRANCH  65  66
ENDBRANCH  46  60
BRANCH  47  70
ATOM     70  C   UNL A   1      36.603  33.399  31.085  1.00  0.00    -0.014 A 
ATOM     71  C   UNL A   1      36.753  33.922  29.789  1.00  0.00     0.010 A 
ATOM     72  C   UNL A   1      35.369  33.551  31.746  1.00  0.00     0.010 A 
ATOM     73  C   UNL A   1      35.697  34.597  29.171  1.00  0.00     0.020 A 
ATOM     74  C   UNL A   1      34.302  34.202  31.121  1.00  0.00     0.020 A 
ATOM     75  C   UNL A   1      34.476  34.730  29.840  1.00  0.00     0.054 A 
BRANCH  75  76
ATOM     76  S   UNL A   1      33.101  35.563  28.999  1.00  0.00     0.124 S 
ATOM     77  O   UNL A   1      32.307  36.047  30.123  1.00  0.00    -0.237 OA
ATOM     78  O   UNL A   1      33.785  36.589  28.217  1.00  0.00    -0.237 OA
ATOM     79  O   UNL A   1      32.487  34.496  28.211  1.00  0.00    -0.744 OA
ENDBRANCH  75  76
ENDBRANCH  47  70
BRANCH  59  80
ATOM     80  C   UNL A   1      39.903  34.284  37.175  1.00  0.00    -0.014 A 
ATOM     81  C   UNL A   1      40.537  35.535  37.094  1.00  0.00     0.010 A 
ATOM     82  C   UNL A   1      39.070  34.007  38.275  1.00  0.00     0.010 A 
ATOM     83  C   UNL A   1      40.363  36.482  38.107  1.00  0.00     0.020 A 
ATOM     84  C   UNL A   1      38.872  34.960  39.277  1.00  0.00     0.020 A 
ATOM     85  C   UNL A   1      39.531  36.189  39.193  1.00  0.00     0.054 A 
BRANCH  85  86
ATOM     86  S   UNL A   1      39.281  37.452  40.470  1.00  0.00     0.124 S 
ATOM     87  O   UNL A   1      38.941  36.643  41.636  1.00  0.00    -0.237 OA
ATOM     88  O   UNL A   1      40.580  38.118  40.523  1.00  0.00    -0.237 OA
ATOM     89  O   UNL A   1      38.191  38.269  39.941  1.00  0.00    -0.744 OA
ENDBRANCH  85  86
ENDBRANCH  59  80
ENDBRANCH  33  34
ENDBRANCH  26  28
ENDBRANCH  25  26
ENDBRANCH  24  25
ENDBRANCH   1  24
TORSDOF 20
ENDMDL
