MODEL 1
REMARK VINA RESULT:     -10.9      0.000      0.000
REMARK SMILES Cc1[nH]c2c(C(=O)N3CC[C@H](O)C[C@@H]3C(=O)OCCOCCOC(=O)c3ccc(-c4c5nc(c(-c6ccc(S(=O)(=O)[O-])cc6)c6ccc([nH]6)c(-c6ccc(S(=O)(=O)[O-])cc6)c6nc(c(-c7ccc(S(=O)(=O)[O-])cc7)c7ccc4[nH]7)C=C6)C=C5)cc3)cccc2c1C
REMARK SMILES IDX 21 1 20 2 19 3 18 4 17 5 15 6 16 7 14 8 8 9 9 10 10 11 13 12
REMARK SMILES IDX 11 13 6 14 7 15 5 16 1 17 2 18 3 19 90 20 4 21 89 23 91 24
REMARK SMILES IDX 88 25 86 26 87 27 12 28 22 30 23 31 24 32 25 33 26 34 27 35
REMARK SMILES IDX 85 36 28 37 84 38 29 39 30 40 31 41 78 42 32 43 83 44 77 45
REMARK SMILES IDX 79 46 33 47 82 48 76 49 75 50 34 52 64 53 45 54 63 55 46 56
REMARK SMILES IDX 49 57 62 58 80 59 47 60 48 61 61 63 81 64 50 65 35 66 36 67
REMARK SMILES IDX 44 68 37 69 43 70 38 71 39 72 40 73 41 74 42 75 65 76 66 77
REMARK SMILES IDX 74 78 67 79 73 80 68 81 69 82 70 83 71 84 72 85 51 86 52 87
REMARK SMILES IDX 60 88 53 89 59 90 54 91 55 92 56 93 57 94 58 95
REMARK H PARENT 3 22 12 29 79 51 49 62
REMARK Flexibility Score: inf
ROOT
ATOM      1  C   UNL A   1      36.745  21.939  24.836  1.00  0.00     0.202 C 
ENDROOT
BRANCH   1   2
ATOM      2  O   UNL A   1      36.585  22.706  23.645  1.00  0.00    -0.374 OA
BRANCH   2   3
ATOM      3  C   UNL A   1      35.246  22.980  23.241  1.00  0.00     0.202 C 
BRANCH   3   4
ATOM      4  C   UNL A   1      34.745  24.406  23.492  1.00  0.00     0.261 C 
BRANCH   4   5
ATOM      5  O   UNL A   1      33.957  24.936  22.399  1.00  0.00    -0.462 OA
BRANCH   5   6
ATOM      6  C   UNL A   1      33.586  26.246  22.536  1.00  0.00     0.329 C 
ATOM      7  O   UNL A   1      33.707  27.091  21.658  1.00  0.00    -0.250 OA
BRANCH   6   8
ATOM      8  C   UNL A   1      32.856  26.519  23.862  1.00  0.00     0.198 C 
ATOM      9  N   UNL A   1      31.434  26.832  23.672  1.00  0.00    -0.325 N 
ATOM     10  C   UNL A   1      30.985  28.223  23.574  1.00  0.00     0.123 C 
ATOM     11  C   UNL A   1      31.623  29.090  24.650  1.00  0.00     0.053 C 
ATOM     12  C   UNL A   1      33.580  27.498  24.785  1.00  0.00     0.069 C 
ATOM     13  C   UNL A   1      33.140  28.952  24.630  1.00  0.00     0.118 C 
BRANCH   9  14
ATOM     14  C   UNL A   1      30.545  25.797  23.944  1.00  0.00     0.256 C 
ATOM     15  O   UNL A   1      29.356  25.887  23.641  1.00  0.00    -0.269 OA
BRANCH  14  16
ATOM     16  C   UNL A   1      31.004  24.637  24.749  1.00  0.00     0.064 A 
ATOM     17  C   UNL A   1      31.826  20.859  21.601  1.00  0.00     0.064 C 
ATOM     18  C   UNL A   1      31.870  21.635  22.867  1.00  0.00     0.016 A 
ATOM     19  N   UNL A   1      31.510  22.954  22.914  1.00  0.00    -0.358 N 
ATOM     20  C   UNL A   1      32.254  21.275  24.146  1.00  0.00    -0.023 A 
ATOM     21  C   UNL A   1      31.437  23.411  24.208  1.00  0.00     0.059 A 
ATOM     22  H   UNL A   1      31.327  23.508  22.121  1.00  0.00     0.166 HD
ATOM     23  C   UNL A   1      31.964  22.388  25.001  1.00  0.00     0.003 A 
ATOM     24  C   UNL A   1      32.822  19.968  24.573  1.00  0.00     0.047 C 
ATOM     25  C   UNL A   1      32.104  22.609  26.387  1.00  0.00     0.010 A 
ATOM     26  C   UNL A   1      31.155  24.819  26.136  1.00  0.00     0.016 A 
ATOM     27  C   UNL A   1      31.700  23.825  26.942  1.00  0.00     0.002 A 
ENDBRANCH  14  16
ENDBRANCH   9  14
BRANCH  13  28
ATOM     28  O   UNL A   1      33.681  29.533  23.454  1.00  0.00    -0.393 OA
ATOM     29  H   UNL A   1      33.150  29.267  22.687  1.00  0.00     0.210 HD
ENDBRANCH  13  28
ENDBRANCH   6   8
ENDBRANCH   5   6
ENDBRANCH   4   5
ENDBRANCH   3   4
ENDBRANCH   2   3
ENDBRANCH   1   2
BRANCH   1  30
ATOM     30  C   UNL A   1      38.182  21.561  25.210  1.00  0.00     0.261 C 
BRANCH  30  31
ATOM     31  O   UNL A   1      38.604  22.224  26.415  1.00  0.00    -0.460 OA
BRANCH  31  32
ATOM     32  C   UNL A   1      39.837  22.771  26.382  1.00  0.00     0.338 C 
ATOM     33  O   UNL A   1      40.813  22.332  25.790  1.00  0.00    -0.246 OA
BRANCH  32  34
ATOM     34  C   UNL A   1      39.816  24.116  27.003  1.00  0.00     0.060 A 
ATOM     35  C   UNL A   1      40.577  25.114  26.382  1.00  0.00     0.016 A 
ATOM     36  C   UNL A   1      39.117  24.399  28.180  1.00  0.00     0.016 A 
ATOM     37  C   UNL A   1      40.719  26.365  26.981  1.00  0.00     0.010 A 
ATOM     38  C   UNL A   1      39.261  25.657  28.781  1.00  0.00     0.010 A 
ATOM     39  C   UNL A   1      40.105  26.630  28.212  1.00  0.00    -0.014 A 
BRANCH  39  40
ATOM     40  C   UNL A   1      40.488  27.854  28.964  1.00  0.00     0.031 A 
ATOM     41  C   UNL A   1      41.868  27.941  29.566  1.00  0.00     0.074 A 
ATOM     42  C   UNL A   1      39.655  28.909  29.051  1.00  0.00     0.049 A 
ATOM     43  N   UNL A   1      42.421  28.924  30.233  1.00  0.00    -0.248 NA
ATOM     44  C   UNL A   1      42.741  26.770  29.391  1.00  0.00     0.031 C 
ATOM     45  C   UNL A   1      38.316  28.979  28.469  1.00  0.00     0.029 A 
ATOM     46  N   UNL A   1      39.823  30.130  29.658  1.00  0.00    -0.354 N 
ATOM     47  C   UNL A   1      43.702  28.488  30.558  1.00  0.00     0.074 A 
ATOM     48  C   UNL A   1      43.830  27.140  30.051  1.00  0.00     0.031 C 
ATOM     49  C   UNL A   1      37.786  30.185  28.741  1.00  0.00     0.029 A 
ATOM     50  C   UNL A   1      38.731  30.958  29.545  1.00  0.00     0.049 A 
ATOM     51  H   UNL A   1      40.647  30.387  30.130  1.00  0.00     0.167 HD
ATOM     52  C   UNL A   1      44.688  29.151  31.209  1.00  0.00     0.031 A 
ATOM     53  C   UNL A   1      38.511  32.192  30.045  1.00  0.00     0.031 A 
ATOM     54  C   UNL A   1      44.561  30.489  31.727  1.00  0.00     0.049 A 
ATOM     55  C   UNL A   1      39.590  32.874  30.847  1.00  0.00     0.074 A 
ATOM     56  C   UNL A   1      45.510  31.246  32.393  1.00  0.00     0.029 A 
ATOM     57  N   UNL A   1      43.417  31.267  31.646  1.00  0.00    -0.354 N 
ATOM     58  N   UNL A   1      40.802  32.455  31.126  1.00  0.00    -0.248 NA
ATOM     59  C   UNL A   1      39.273  34.203  31.392  1.00  0.00     0.031 C 
ATOM     60  C   UNL A   1      44.918  32.454  32.774  1.00  0.00     0.029 A 
ATOM     61  C   UNL A   1      43.625  32.482  32.279  1.00  0.00     0.049 A 
ATOM     62  H   UNL A   1      42.580  30.996  31.205  1.00  0.00     0.167 HD
ATOM     63  C   UNL A   1      41.401  33.482  31.852  1.00  0.00     0.074 A 
ATOM     64  C   UNL A   1      40.424  34.546  31.955  1.00  0.00     0.031 C 
ATOM     65  C   UNL A   1      42.649  33.538  32.380  1.00  0.00     0.031 A 
BRANCH  52  66
ATOM     66  C   UNL A   1      45.990  28.425  31.431  1.00  0.00    -0.014 A 
ATOM     67  C   UNL A   1      47.046  28.515  30.505  1.00  0.00     0.010 A 
ATOM     68  C   UNL A   1      46.178  27.677  32.609  1.00  0.00     0.010 A 
ATOM     69  C   UNL A   1      48.250  27.842  30.736  1.00  0.00     0.020 A 
ATOM     70  C   UNL A   1      47.391  27.029  32.858  1.00  0.00     0.020 A 
ATOM     71  C   UNL A   1      48.414  27.102  31.911  1.00  0.00     0.054 A 
BRANCH  71  72
ATOM     72  S   UNL A   1      49.996  26.261  32.195  1.00  0.00     0.124 S 
ATOM     73  O   UNL A   1      49.577  25.085  32.956  1.00  0.00    -0.237 OA
ATOM     74  O   UNL A   1      50.464  25.996  30.838  1.00  0.00    -0.237 OA
ATOM     75  O   UNL A   1      50.781  27.238  32.944  1.00  0.00    -0.744 OA
ENDBRANCH  71  72
ENDBRANCH  52  66
BRANCH  53  76
ATOM     76  C   UNL A   1      37.202  32.864  29.814  1.00  0.00    -0.014 A 
ATOM     77  C   UNL A   1      36.161  32.760  30.754  1.00  0.00     0.010 A 
ATOM     78  C   UNL A   1      36.986  33.610  28.639  1.00  0.00     0.010 A 
ATOM     79  C   UNL A   1      34.929  33.376  30.517  1.00  0.00     0.020 A 
ATOM     80  C   UNL A   1      35.768  34.254  28.415  1.00  0.00     0.020 A 
ATOM     81  C   UNL A   1      34.742  34.125  29.353  1.00  0.00     0.054 A 
BRANCH  81  82
ATOM     82  S   UNL A   1      33.154  34.965  29.098  1.00  0.00     0.124 S 
ATOM     83  O   UNL A   1      32.520  34.119  28.092  1.00  0.00    -0.237 OA
ATOM     84  O   UNL A   1      32.560  34.920  30.432  1.00  0.00    -0.237 OA
ATOM     85  O   UNL A   1      33.542  36.298  28.642  1.00  0.00    -0.744 OA
ENDBRANCH  81  82
ENDBRANCH  53  76
BRANCH  65  86
ATOM     86  C   UNL A   1      43.056  34.807  33.088  1.00  0.00    -0.014 A 
ATOM     87  C   UNL A   1      42.857  34.974  34.470  1.00  0.00     0.010 A 
ATOM     88  C   UNL A   1      43.705  35.826  32.365  1.00  0.00     0.010 A 
ATOM     89  C   UNL A   1      43.268  36.148  35.107  1.00  0.00     0.020 A 
ATOM     90  C   UNL A   1      44.147  36.987  33.004  1.00  0.00     0.020 A 
ATOM     91  C   UNL A   1      43.913  37.147  34.371  1.00  0.00     0.054 A 
BRANCH  91  92
ATOM     92  S   UNL A   1      44.475  38.642  35.232  1.00  0.00     0.124 S 
ATOM     93  O   UNL A   1      44.062  38.376  36.606  1.00  0.00    -0.237 OA
ATOM     94  O   UNL A   1      45.917  38.623  34.994  1.00  0.00    -0.237 OA
ATOM     95  O   UNL A   1      43.753  39.721  34.562  1.00  0.00    -0.744 OA
ENDBRANCH  91  92
ENDBRANCH  65  86
ENDBRANCH  39  40
ENDBRANCH  32  34
ENDBRANCH  31  32
ENDBRANCH  30  31
ENDBRANCH   1  30
TORSDOF 20
ENDMDL
MODEL 2
REMARK VINA RESULT:     -10.8      4.303      9.947
REMARK SMILES Cc1[nH]c2c(C(=O)N3CC[C@H](O)C[C@@H]3C(=O)OCCOCCOC(=O)c3ccc(-c4c5nc(c(-c6ccc(S(=O)(=O)[O-])cc6)c6ccc([nH]6)c(-c6ccc(S(=O)(=O)[O-])cc6)c6nc(c(-c7ccc(S(=O)(=O)[O-])cc7)c7ccc4[nH]7)C=C6)C=C5)cc3)cccc2c1C
REMARK SMILES IDX 21 1 20 2 19 3 18 4 17 5 15 6 16 7 14 8 8 9 9 10 10 11 13 12
REMARK SMILES IDX 11 13 6 14 7 15 5 16 1 17 2 18 3 19 90 20 4 21 89 23 91 24
REMARK SMILES IDX 88 25 86 26 87 27 12 28 22 30 23 31 24 32 25 33 26 34 27 35
REMARK SMILES IDX 85 36 28 37 84 38 29 39 30 40 31 41 78 42 32 43 83 44 77 45
REMARK SMILES IDX 79 46 33 47 82 48 76 49 75 50 34 52 64 53 45 54 63 55 46 56
REMARK SMILES IDX 49 57 62 58 80 59 47 60 48 61 61 63 81 64 50 65 35 66 36 67
REMARK SMILES IDX 44 68 37 69 43 70 38 71 39 72 40 73 41 74 42 75 65 76 66 77
REMARK SMILES IDX 74 78 67 79 73 80 68 81 69 82 70 83 71 84 72 85 51 86 52 87
REMARK SMILES IDX 60 88 53 89 59 90 54 91 55 92 56 93 57 94 58 95
REMARK H PARENT 3 22 12 29 79 51 49 62
REMARK Flexibility Score: inf
ROOT
ATOM      1  C   UNL A   1      34.034  31.476  27.687  1.00  0.00     0.202 C 
ENDROOT
BRANCH   1   2
ATOM      2  O   UNL A   1      33.308  30.275  27.439  1.00  0.00    -0.374 OA
BRANCH   2   3
ATOM      3  C   UNL A   1      33.233  29.846  26.082  1.00  0.00     0.202 C 
BRANCH   3   4
ATOM      4  C   UNL A   1      31.896  29.245  25.638  1.00  0.00     0.261 C 
BRANCH   4   5
ATOM      5  O   UNL A   1      31.926  27.802  25.526  1.00  0.00    -0.462 OA
BRANCH   5   6
ATOM      6  C   UNL A   1      31.364  27.128  26.576  1.00  0.00     0.329 C 
ATOM      7  O   UNL A   1      31.262  27.582  27.710  1.00  0.00    -0.250 OA
BRANCH   6   8
ATOM      8  C   UNL A   1      30.731  25.793  26.152  1.00  0.00     0.198 C 
ATOM      9  N   UNL A   1      31.712  24.853  25.592  1.00  0.00    -0.325 N 
ATOM     10  C   UNL A   1      31.928  24.778  24.145  1.00  0.00     0.123 C 
ATOM     11  C   UNL A   1      30.609  24.748  23.387  1.00  0.00     0.053 C 
ATOM     12  C   UNL A   1      29.469  25.940  25.301  1.00  0.00     0.069 C 
ATOM     13  C   UNL A   1      29.720  25.916  23.795  1.00  0.00     0.118 C 
BRANCH   9  14
ATOM     14  C   UNL A   1      32.132  23.839  26.445  1.00  0.00     0.256 C 
ATOM     15  O   UNL A   1      31.514  23.584  27.478  1.00  0.00    -0.269 OA
BRANCH  14  16
ATOM     16  C   UNL A   1      33.428  23.162  26.188  1.00  0.00     0.064 A 
ATOM     17  C   UNL A   1      32.444  18.380  25.171  1.00  0.00     0.064 C 
ATOM     18  C   UNL A   1      33.228  19.640  25.260  1.00  0.00     0.016 A 
ATOM     19  N   UNL A   1      32.630  20.840  25.534  1.00  0.00    -0.358 N 
ATOM     20  C   UNL A   1      34.577  19.889  25.092  1.00  0.00    -0.023 A 
ATOM     21  C   UNL A   1      33.560  21.825  25.764  1.00  0.00     0.059 A 
ATOM     22  H   UNL A   1      31.656  20.981  25.561  1.00  0.00     0.166 HD
ATOM     23  C   UNL A   1      34.795  21.265  25.428  1.00  0.00     0.003 A 
ATOM     24  C   UNL A   1      35.621  18.912  24.681  1.00  0.00     0.047 C 
ATOM     25  C   UNL A   1      35.944  22.081  25.478  1.00  0.00     0.010 A 
ATOM     26  C   UNL A   1      34.597  23.943  26.229  1.00  0.00     0.016 A 
ATOM     27  C   UNL A   1      35.834  23.415  25.875  1.00  0.00     0.002 A 
ENDBRANCH  14  16
ENDBRANCH   9  14
BRANCH  13  28
ATOM     28  O   UNL A   1      30.268  27.145  23.342  1.00  0.00    -0.393 OA
ATOM     29  H   UNL A   1      29.725  27.493  22.617  1.00  0.00     0.210 HD
ENDBRANCH  13  28
ENDBRANCH   6   8
ENDBRANCH   5   6
ENDBRANCH   4   5
ENDBRANCH   3   4
ENDBRANCH   2   3
ENDBRANCH   1   2
BRANCH   1  30
ATOM     30  C   UNL A   1      35.153  31.388  28.730  1.00  0.00     0.261 C 
BRANCH  30  31
ATOM     31  O   UNL A   1      35.730  30.071  28.774  1.00  0.00    -0.460 OA
BRANCH  31  32
ATOM     32  C   UNL A   1      36.459  29.786  29.873  1.00  0.00     0.338 C 
ATOM     33  O   UNL A   1      36.027  29.439  30.964  1.00  0.00    -0.246 OA
BRANCH  32  34
ATOM     34  C   UNL A   1      37.901  29.748  29.534  1.00  0.00     0.060 A 
ATOM     35  C   UNL A   1      38.233  29.717  28.174  1.00  0.00     0.016 A 
ATOM     36  C   UNL A   1      38.908  29.696  30.502  1.00  0.00     0.016 A 
ATOM     37  C   UNL A   1      39.557  29.541  27.778  1.00  0.00     0.010 A 
ATOM     38  C   UNL A   1      40.240  29.518  30.102  1.00  0.00     0.010 A 
ATOM     39  C   UNL A   1      40.565  29.387  28.738  1.00  0.00    -0.014 A 
BRANCH  39  40
ATOM     40  C   UNL A   1      41.912  28.926  28.308  1.00  0.00     0.031 A 
ATOM     41  C   UNL A   1      43.049  29.918  28.273  1.00  0.00     0.074 A 
ATOM     42  C   UNL A   1      42.149  27.632  28.025  1.00  0.00     0.049 A 
ATOM     43  N   UNL A   1      44.306  29.726  27.962  1.00  0.00    -0.248 NA
ATOM     44  C   UNL A   1      42.727  31.306  28.642  1.00  0.00     0.031 C 
ATOM     45  C   UNL A   1      41.155  26.560  28.072  1.00  0.00     0.029 A 
ATOM     46  N   UNL A   1      43.308  26.998  27.649  1.00  0.00    -0.354 N 
ATOM     47  C   UNL A   1      44.923  30.967  28.092  1.00  0.00     0.074 A 
ATOM     48  C   UNL A   1      43.895  31.910  28.474  1.00  0.00     0.031 C 
ATOM     49  C   UNL A   1      41.751  25.399  27.745  1.00  0.00     0.029 A 
ATOM     50  C   UNL A   1      43.157  25.649  27.431  1.00  0.00     0.049 A 
ATOM     51  H   UNL A   1      44.167  27.467  27.545  1.00  0.00     0.167 HD
ATOM     52  C   UNL A   1      46.227  31.293  27.924  1.00  0.00     0.031 A 
ATOM     53  C   UNL A   1      44.044  24.723  27.011  1.00  0.00     0.031 A 
ATOM     54  C   UNL A   1      47.251  30.359  27.533  1.00  0.00     0.049 A 
ATOM     55  C   UNL A   1      45.471  25.128  26.740  1.00  0.00     0.074 A 
ATOM     56  C   UNL A   1      48.603  30.597  27.346  1.00  0.00     0.029 A 
ATOM     57  N   UNL A   1      47.042  29.017  27.261  1.00  0.00    -0.354 N 
ATOM     58  N   UNL A   1      46.040  26.301  26.890  1.00  0.00    -0.248 NA
ATOM     59  C   UNL A   1      46.378  24.078  26.252  1.00  0.00     0.031 C 
ATOM     60  C   UNL A   1      49.197  29.414  26.896  1.00  0.00     0.029 A 
ATOM     61  C   UNL A   1      48.232  28.420  26.875  1.00  0.00     0.049 A 
ATOM     62  H   UNL A   1      46.176  28.555  27.331  1.00  0.00     0.167 HD
ATOM     63  C   UNL A   1      47.377  26.121  26.545  1.00  0.00     0.074 A 
ATOM     64  C   UNL A   1      47.534  24.725  26.194  1.00  0.00     0.031 C 
ATOM     65  C   UNL A   1      48.383  27.030  26.526  1.00  0.00     0.031 A 
BRANCH  52  66
ATOM     66  C   UNL A   1      46.620  32.734  28.130  1.00  0.00    -0.014 A 
ATOM     67  C   UNL A   1      47.052  33.203  29.384  1.00  0.00     0.010 A 
ATOM     68  C   UNL A   1      46.602  33.622  27.038  1.00  0.00     0.010 A 
ATOM     69  C   UNL A   1      47.423  34.541  29.550  1.00  0.00     0.020 A 
ATOM     70  C   UNL A   1      47.001  34.953  27.193  1.00  0.00     0.020 A 
ATOM     71  C   UNL A   1      47.394  35.408  28.453  1.00  0.00     0.054 A 
BRANCH  71  72
ATOM     72  S   UNL A   1      47.904  37.132  28.693  1.00  0.00     0.124 S 
ATOM     73  O   UNL A   1      47.634  37.329  30.116  1.00  0.00    -0.237 OA
ATOM     74  O   UNL A   1      49.315  37.102  28.320  1.00  0.00    -0.237 OA
ATOM     75  O   UNL A   1      47.037  37.881  27.787  1.00  0.00    -0.744 OA
ENDBRANCH  71  72
ENDBRANCH  52  66
BRANCH  53  76
ATOM     76  C   UNL A   1      43.606  23.314  26.807  1.00  0.00    -0.014 A 
ATOM     77  C   UNL A   1      43.638  22.727  25.529  1.00  0.00     0.010 A 
ATOM     78  C   UNL A   1      43.143  22.551  27.896  1.00  0.00     0.010 A 
ATOM     79  C   UNL A   1      43.204  21.411  25.344  1.00  0.00     0.020 A 
ATOM     80  C   UNL A   1      42.740  21.226  27.719  1.00  0.00     0.020 A 
ATOM     81  C   UNL A   1      42.764  20.667  26.441  1.00  0.00     0.054 A 
BRANCH  81  82
ATOM     82  S   UNL A   1      42.263  18.942  26.184  1.00  0.00     0.124 S 
ATOM     83  O   UNL A   1      40.876  19.088  25.753  1.00  0.00    -0.237 OA
ATOM     84  O   UNL A   1      43.203  18.493  25.159  1.00  0.00    -0.237 OA
ATOM     85  O   UNL A   1      42.450  18.332  27.499  1.00  0.00    -0.744 OA
ENDBRANCH  81  82
ENDBRANCH  53  76
BRANCH  65  86
ATOM     86  C   UNL A   1      49.762  26.545  26.150  1.00  0.00    -0.014 A 
ATOM     87  C   UNL A   1      50.333  26.848  24.902  1.00  0.00     0.010 A 
ATOM     88  C   UNL A   1      50.522  25.823  27.090  1.00  0.00     0.010 A 
ATOM     89  C   UNL A   1      51.623  26.410  24.589  1.00  0.00     0.020 A 
ATOM     90  C   UNL A   1      51.824  25.412  26.794  1.00  0.00     0.020 A 
ATOM     91  C   UNL A   1      52.362  25.696  25.538  1.00  0.00     0.054 A 
BRANCH  91  92
ATOM     92  S   UNL A   1      54.050  25.178  25.121  1.00  0.00     0.124 S 
ATOM     93  O   UNL A   1      54.282  25.880  23.862  1.00  0.00    -0.237 OA
ATOM     94  O   UNL A   1      54.823  25.662  26.262  1.00  0.00    -0.237 OA
ATOM     95  O   UNL A   1      53.951  23.724  25.014  1.00  0.00    -0.744 OA
ENDBRANCH  91  92
ENDBRANCH  65  86
ENDBRANCH  39  40
ENDBRANCH  32  34
ENDBRANCH  31  32
ENDBRANCH  30  31
ENDBRANCH   1  30
TORSDOF 20
ENDMDL
MODEL 3
REMARK VINA RESULT:     -10.7      4.355      9.969
REMARK SMILES Cc1[nH]c2c(C(=O)N3CC[C@H](O)C[C@@H]3C(=O)OCCOCCOC(=O)c3ccc(-c4c5nc(c(-c6ccc(S(=O)(=O)[O-])cc6)c6ccc([nH]6)c(-c6ccc(S(=O)(=O)[O-])cc6)c6nc(c(-c7ccc(S(=O)(=O)[O-])cc7)c7ccc4[nH]7)C=C6)C=C5)cc3)cccc2c1C
REMARK SMILES IDX 21 1 20 2 19 3 18 4 17 5 15 6 16 7 14 8 8 9 9 10 10 11 13 12
REMARK SMILES IDX 11 13 6 14 7 15 5 16 1 17 2 18 3 19 90 20 4 21 89 23 91 24
REMARK SMILES IDX 88 25 86 26 87 27 12 28 22 30 23 31 24 32 25 33 26 34 27 35
REMARK SMILES IDX 85 36 28 37 84 38 29 39 30 40 31 41 78 42 32 43 83 44 77 45
REMARK SMILES IDX 79 46 33 47 82 48 76 49 75 50 34 52 64 53 45 54 63 55 46 56
REMARK SMILES IDX 49 57 62 58 80 59 47 60 48 61 61 63 81 64 50 65 35 66 36 67
REMARK SMILES IDX 44 68 37 69 43 70 38 71 39 72 40 73 41 74 42 75 65 76 66 77
REMARK SMILES IDX 74 78 67 79 73 80 68 81 69 82 70 83 71 84 72 85 51 86 52 87
REMARK SMILES IDX 60 88 53 89 59 90 54 91 55 92 56 93 57 94 58 95
REMARK H PARENT 3 22 12 29 79 51 49 62
REMARK Flexibility Score: inf
ROOT
ATOM      1  C   UNL A   1      34.429  31.436  28.028  1.00  0.00     0.202 C 
ENDROOT
BRANCH   1   2
ATOM      2  O   UNL A   1      33.654  30.303  27.645  1.00  0.00    -0.374 OA
BRANCH   2   3
ATOM      3  C   UNL A   1      33.798  29.860  26.298  1.00  0.00     0.202 C 
BRANCH   3   4
ATOM      4  C   UNL A   1      33.377  28.415  26.015  1.00  0.00     0.261 C 
BRANCH   4   5
ATOM      5  O   UNL A   1      31.990  28.289  25.620  1.00  0.00    -0.462 OA
BRANCH   5   6
ATOM      6  C   UNL A   1      31.352  27.177  26.097  1.00  0.00     0.329 C 
ATOM      7  O   UNL A   1      31.140  26.961  27.285  1.00  0.00    -0.250 OA
BRANCH   6   8
ATOM      8  C   UNL A   1      30.788  26.291  24.975  1.00  0.00     0.198 C 
ATOM      9  N   UNL A   1      31.840  25.613  24.205  1.00  0.00    -0.325 N 
ATOM     10  C   UNL A   1      32.353  26.204  22.967  1.00  0.00     0.123 C 
ATOM     11  C   UNL A   1      31.223  26.699  22.077  1.00  0.00     0.053 C 
ATOM     12  C   UNL A   1      29.737  26.978  24.101  1.00  0.00     0.069 C 
ATOM     13  C   UNL A   1      30.298  27.637  22.844  1.00  0.00     0.118 C 
BRANCH   9  14
ATOM     14  C   UNL A   1      32.045  24.272  24.513  1.00  0.00     0.256 C 
ATOM     15  O   UNL A   1      31.098  23.493  24.611  1.00  0.00    -0.269 OA
BRANCH  14  16
ATOM     16  C   UNL A   1      33.407  23.811  24.881  1.00  0.00     0.064 A 
ATOM     17  C   UNL A   1      33.510  18.856  24.337  1.00  0.00     0.064 C 
ATOM     18  C   UNL A   1      34.030  20.235  24.518  1.00  0.00     0.016 A 
ATOM     19  N   UNL A   1      33.231  21.333  24.349  1.00  0.00    -0.358 N 
ATOM     20  C   UNL A   1      35.291  20.700  24.842  1.00  0.00    -0.023 A 
ATOM     21  C   UNL A   1      33.861  22.483  24.758  1.00  0.00     0.059 A 
ATOM     22  H   UNL A   1      32.319  21.303  23.979  1.00  0.00     0.166 HD
ATOM     23  C   UNL A   1      35.186  22.119  25.013  1.00  0.00     0.003 A 
ATOM     24  C   UNL A   1      36.524  19.886  25.022  1.00  0.00     0.047 C 
ATOM     25  C   UNL A   1      36.109  23.124  25.368  1.00  0.00     0.010 A 
ATOM     26  C   UNL A   1      34.356  24.785  25.242  1.00  0.00     0.016 A 
ATOM     27  C   UNL A   1      35.685  24.451  25.477  1.00  0.00     0.002 A 
ENDBRANCH  14  16
ENDBRANCH   9  14
BRANCH  13  28
ATOM     28  O   UNL A   1      30.960  28.855  23.149  1.00  0.00    -0.393 OA
ATOM     29  H   UNL A   1      31.565  29.084  22.425  1.00  0.00     0.210 HD
ENDBRANCH  13  28
ENDBRANCH   6   8
ENDBRANCH   5   6
ENDBRANCH   4   5
ENDBRANCH   3   4
ENDBRANCH   2   3
ENDBRANCH   1   2
BRANCH   1  30
ATOM     30  C   UNL A   1      35.575  31.172  29.010  1.00  0.00     0.261 C 
BRANCH  30  31
ATOM     31  O   UNL A   1      36.027  29.808  28.937  1.00  0.00    -0.460 OA
BRANCH  31  32
ATOM     32  C   UNL A   1      36.902  29.429  29.891  1.00  0.00     0.338 C 
ATOM     33  O   UNL A   1      36.665  29.284  31.083  1.00  0.00    -0.246 OA
BRANCH  32  34
ATOM     34  C   UNL A   1      38.178  28.999  29.272  1.00  0.00     0.060 A 
ATOM     35  C   UNL A   1      39.096  28.341  30.100  1.00  0.00     0.016 A 
ATOM     36  C   UNL A   1      38.502  29.263  27.938  1.00  0.00     0.016 A 
ATOM     37  C   UNL A   1      40.370  28.029  29.628  1.00  0.00     0.010 A 
ATOM     38  C   UNL A   1      39.784  28.949  27.465  1.00  0.00     0.010 A 
ATOM     39  C   UNL A   1      40.743  28.378  28.324  1.00  0.00    -0.014 A 
BRANCH  39  40
ATOM     40  C   UNL A   1      42.175  28.293  27.932  1.00  0.00     0.031 A 
ATOM     41  C   UNL A   1      43.074  29.478  28.184  1.00  0.00     0.074 A 
ATOM     42  C   UNL A   1      42.695  27.157  27.429  1.00  0.00     0.049 A 
ATOM     43  N   UNL A   1      44.357  29.609  27.951  1.00  0.00    -0.248 NA
ATOM     44  C   UNL A   1      42.448  30.669  28.780  1.00  0.00     0.031 C 
ATOM     45  C   UNL A   1      41.951  25.922  27.186  1.00  0.00     0.029 A 
ATOM     46  N   UNL A   1      43.978  26.859  27.041  1.00  0.00    -0.354 N 
ATOM     47  C   UNL A   1      44.688  30.894  28.368  1.00  0.00     0.074 A 
ATOM     48  C   UNL A   1      43.467  31.515  28.832  1.00  0.00     0.031 C 
ATOM     49  C   UNL A   1      42.794  24.995  26.697  1.00  0.00     0.029 A 
ATOM     50  C   UNL A   1      44.128  25.580  26.558  1.00  0.00     0.049 A 
ATOM     51  H   UNL A   1      44.721  27.501  27.103  1.00  0.00     0.167 HD
ATOM     52  C   UNL A   1      45.899  31.502  28.378  1.00  0.00     0.031 A 
ATOM     53  C   UNL A   1      45.210  24.956  26.049  1.00  0.00     0.031 A 
ATOM     54  C   UNL A   1      47.115  30.892  27.907  1.00  0.00     0.049 A 
ATOM     55  C   UNL A   1      46.528  25.684  25.984  1.00  0.00     0.074 A 
ATOM     56  C   UNL A   1      48.392  31.428  27.885  1.00  0.00     0.029 A 
ATOM     57  N   UNL A   1      47.209  29.619  27.367  1.00  0.00    -0.354 N 
ATOM     58  N   UNL A   1      46.827  26.891  26.402  1.00  0.00    -0.248 NA
ATOM     59  C   UNL A   1      47.659  24.959  25.385  1.00  0.00     0.031 C 
ATOM     60  C   UNL A   1      49.244  30.505  27.271  1.00  0.00     0.029 A 
ATOM     61  C   UNL A   1      48.515  29.364  26.980  1.00  0.00     0.049 A 
ATOM     62  H   UNL A   1      46.459  28.989  27.273  1.00  0.00     0.167 HD
ATOM     63  C   UNL A   1      48.185  27.056  26.146  1.00  0.00     0.074 A 
ATOM     64  C   UNL A   1      48.652  25.821  25.551  1.00  0.00     0.031 C 
ATOM     65  C   UNL A   1      48.974  28.133  26.387  1.00  0.00     0.031 A 
BRANCH  52  66
ATOM     66  C   UNL A   1      45.966  32.920  28.887  1.00  0.00    -0.014 A 
ATOM     67  C   UNL A   1      45.678  34.013  28.049  1.00  0.00     0.010 A 
ATOM     68  C   UNL A   1      46.276  33.159  30.239  1.00  0.00     0.010 A 
ATOM     69  C   UNL A   1      45.735  35.319  28.545  1.00  0.00     0.020 A 
ATOM     70  C   UNL A   1      46.302  34.462  30.746  1.00  0.00     0.020 A 
ATOM     71  C   UNL A   1      46.048  35.535  29.890  1.00  0.00     0.054 A 
BRANCH  71  72
ATOM     72  S   UNL A   1      46.089  37.239  30.511  1.00  0.00     0.124 S 
ATOM     73  O   UNL A   1      46.870  37.092  31.737  1.00  0.00    -0.237 OA
ATOM     74  O   UNL A   1      46.752  37.957  29.427  1.00  0.00    -0.237 OA
ATOM     75  O   UNL A   1      44.680  37.572  30.708  1.00  0.00    -0.744 OA
ENDBRANCH  71  72
ENDBRANCH  52  66
BRANCH  53  76
ATOM     76  C   UNL A   1      45.091  23.559  25.543  1.00  0.00    -0.014 A 
ATOM     77  C   UNL A   1      45.425  22.465  26.360  1.00  0.00     0.010 A 
ATOM     78  C   UNL A   1      44.647  23.318  24.228  1.00  0.00     0.010 A 
ATOM     79  C   UNL A   1      45.331  21.159  25.869  1.00  0.00     0.020 A 
ATOM     80  C   UNL A   1      44.521  22.013  23.746  1.00  0.00     0.020 A 
ATOM     81  C   UNL A   1      44.873  20.942  24.567  1.00  0.00     0.054 A 
BRANCH  81  82
ATOM     82  S   UNL A   1      44.703  19.235  23.974  1.00  0.00     0.124 S 
ATOM     83  O   UNL A   1      43.500  18.789  24.670  1.00  0.00    -0.237 OA
ATOM     84  O   UNL A   1      44.570  19.419  22.530  1.00  0.00    -0.237 OA
ATOM     85  O   UNL A   1      45.948  18.600  24.401  1.00  0.00    -0.744 OA
ENDBRANCH  81  82
ENDBRANCH  53  76
BRANCH  65  86
ATOM     86  C   UNL A   1      50.440  28.020  26.046  1.00  0.00    -0.014 A 
ATOM     87  C   UNL A   1      51.387  27.606  26.999  1.00  0.00     0.010 A 
ATOM     88  C   UNL A   1      50.866  28.278  24.729  1.00  0.00     0.010 A 
ATOM     89  C   UNL A   1      52.735  27.483  26.650  1.00  0.00     0.020 A 
ATOM     90  C   UNL A   1      52.207  28.124  24.367  1.00  0.00     0.020 A 
ATOM     91  C   UNL A   1      53.137  27.741  25.335  1.00  0.00     0.054 A 
BRANCH  91  92
ATOM     92  S   UNL A   1      54.885  27.531  24.899  1.00  0.00     0.124 S 
ATOM     93  O   UNL A   1      55.284  28.897  24.571  1.00  0.00    -0.237 OA
ATOM     94  O   UNL A   1      55.458  26.988  26.128  1.00  0.00    -0.237 OA
ATOM     95  O   UNL A   1      54.854  26.604  23.770  1.00  0.00    -0.744 OA
ENDBRANCH  91  92
ENDBRANCH  65  86
ENDBRANCH  39  40
ENDBRANCH  32  34
ENDBRANCH  31  32
ENDBRANCH  30  31
ENDBRANCH   1  30
TORSDOF 20
ENDMDL
