MODEL 1
REMARK VINA RESULT:     -11.3      0.000      0.000
REMARK SMILES O=C(OCCOCCOC(=O)c1[nH]nc2ncc(F)cc12)c1ccc(-c2c3nc(c(-c4ccc(S(=O)(=O)[O-])cc4)c4ccc([nH]4)c(-c4ccc(S(=O)(=O)[O-])cc4)c4nc(c(-c5ccc(S(=O)(=O)[O-])cc5)c5ccc2[nH]5)C=C4)C=C3)cc1
REMARK SMILES IDX 4 1 3 2 2 3 1 4 22 5 23 6 81 7 24 8 80 9 25 10 26 11 27 12
REMARK SMILES IDX 74 13 28 14 79 15 73 16 75 17 29 18 78 19 72 20 71 21 30 23
REMARK SMILES IDX 60 24 41 25 59 26 42 27 45 28 58 29 76 30 43 31 44 32 57 34
REMARK SMILES IDX 77 35 46 36 31 37 32 38 40 39 33 40 39 41 34 42 35 43 36 44
REMARK SMILES IDX 37 45 38 46 61 47 62 48 70 49 63 50 69 51 64 52 65 53 66 54
REMARK SMILES IDX 67 55 68 56 47 57 48 58 56 59 49 60 55 61 50 62 51 63 52 64
REMARK SMILES IDX 53 65 54 66 5 67 6 68 7 69 8 70 9 71 10 72 11 73 12 74 13 75
REMARK SMILES IDX 21 76 14 77 15 79 20 80 16 81 18 82 17 83 19 84
REMARK H PARENT 75 22 45 33 13 78
REMARK Flexibility Score: inf
ROOT
ATOM      1  C   UNL A   1      40.684  19.975  26.353  1.00  0.00     0.261 C 
ENDROOT
BRANCH   1   2
ATOM      2  O   UNL A   1      40.280  21.068  27.178  1.00  0.00    -0.460 OA
BRANCH   2   3
ATOM      3  C   UNL A   1      39.670  22.222  26.829  1.00  0.00     0.338 C 
ATOM      4  O   UNL A   1      38.688  22.136  26.090  1.00  0.00    -0.246 OA
BRANCH   3   5
ATOM      5  C   UNL A   1      40.123  23.595  27.225  1.00  0.00     0.060 A 
ATOM      6  C   UNL A   1      41.268  23.921  27.950  1.00  0.00     0.016 A 
ATOM      7  C   UNL A   1      39.256  24.646  26.859  1.00  0.00     0.016 A 
ATOM      8  C   UNL A   1      41.449  25.201  28.452  1.00  0.00     0.010 A 
ATOM      9  C   UNL A   1      39.456  25.945  27.316  1.00  0.00     0.010 A 
ATOM     10  C   UNL A   1      40.514  26.196  28.179  1.00  0.00    -0.014 A 
BRANCH  10  11
ATOM     11  C   UNL A   1      40.724  27.481  28.827  1.00  0.00     0.031 A 
ATOM     12  C   UNL A   1      41.845  28.303  28.295  1.00  0.00     0.074 A 
ATOM     13  C   UNL A   1      39.957  27.922  29.839  1.00  0.00     0.049 A 
ATOM     14  N   UNL A   1      42.951  28.628  28.880  1.00  0.00    -0.248 NA
ATOM     15  C   UNL A   1      41.757  28.721  26.890  1.00  0.00     0.031 C 
ATOM     16  C   UNL A   1      38.678  27.386  30.310  1.00  0.00     0.029 A 
ATOM     17  N   UNL A   1      40.133  29.033  30.603  1.00  0.00    -0.354 N 
ATOM     18  C   UNL A   1      43.630  29.450  27.984  1.00  0.00     0.074 A 
ATOM     19  C   UNL A   1      42.916  29.359  26.733  1.00  0.00     0.031 C 
ATOM     20  C   UNL A   1      38.086  28.302  31.107  1.00  0.00     0.029 A 
ATOM     21  C   UNL A   1      39.005  29.408  31.315  1.00  0.00     0.049 A 
ATOM     22  H   UNL A   1      40.984  29.526  30.647  1.00  0.00     0.167 HD
ATOM     23  C   UNL A   1      44.616  30.305  28.376  1.00  0.00     0.031 A 
ATOM     24  C   UNL A   1      38.816  30.587  31.955  1.00  0.00     0.031 A 
ATOM     25  C   UNL A   1      45.138  29.979  29.677  1.00  0.00     0.049 A 
ATOM     26  C   UNL A   1      40.154  31.169  32.223  1.00  0.00     0.074 A 
ATOM     27  C   UNL A   1      45.789  28.893  30.225  1.00  0.00     0.029 A 
ATOM     28  N   UNL A   1      44.715  30.740  30.740  1.00  0.00    -0.354 N 
ATOM     29  N   UNL A   1      41.021  30.641  33.042  1.00  0.00    -0.248 NA
ATOM     30  C   UNL A   1      40.703  32.126  31.274  1.00  0.00     0.031 C 
ATOM     31  C   UNL A   1      45.312  28.814  31.566  1.00  0.00     0.029 A 
ATOM     32  C   UNL A   1      44.426  29.875  31.764  1.00  0.00     0.049 A 
ATOM     33  H   UNL A   1      44.634  31.720  30.763  1.00  0.00     0.167 HD
ATOM     34  C   UNL A   1      42.258  30.877  32.462  1.00  0.00     0.074 A 
ATOM     35  C   UNL A   1      42.007  31.888  31.438  1.00  0.00     0.031 C 
ATOM     36  C   UNL A   1      43.317  30.042  32.682  1.00  0.00     0.031 A 
BRANCH  23  37
ATOM     37  C   UNL A   1      44.841  31.658  27.741  1.00  0.00    -0.014 A 
ATOM     38  C   UNL A   1      46.113  31.968  27.217  1.00  0.00     0.010 A 
ATOM     39  C   UNL A   1      43.941  32.732  27.904  1.00  0.00     0.010 A 
ATOM     40  C   UNL A   1      46.496  33.295  26.970  1.00  0.00     0.020 A 
ATOM     41  C   UNL A   1      44.295  34.050  27.617  1.00  0.00     0.020 A 
ATOM     42  C   UNL A   1      45.587  34.329  27.196  1.00  0.00     0.054 A 
BRANCH  42  43
ATOM     43  S   UNL A   1      46.136  36.046  27.044  1.00  0.00     0.124 S 
ATOM     44  O   UNL A   1      44.865  36.759  26.962  1.00  0.00    -0.237 OA
ATOM     45  O   UNL A   1      46.895  36.240  28.277  1.00  0.00    -0.237 OA
ATOM     46  O   UNL A   1      46.935  36.043  25.820  1.00  0.00    -0.744 OA
ENDBRANCH  42  43
ENDBRANCH  23  37
BRANCH  24  47
ATOM     47  C   UNL A   1      37.560  31.371  31.990  1.00  0.00    -0.014 A 
ATOM     48  C   UNL A   1      36.975  31.754  33.208  1.00  0.00     0.010 A 
ATOM     49  C   UNL A   1      37.073  31.975  30.809  1.00  0.00     0.010 A 
ATOM     50  C   UNL A   1      35.980  32.746  33.248  1.00  0.00     0.020 A 
ATOM     51  C   UNL A   1      36.077  32.953  30.839  1.00  0.00     0.020 A 
ATOM     52  C   UNL A   1      35.552  33.354  32.064  1.00  0.00     0.054 A 
BRANCH  52  53
ATOM     53  S   UNL A   1      34.394  34.750  32.140  1.00  0.00     0.124 S 
ATOM     54  O   UNL A   1      33.253  34.168  32.841  1.00  0.00    -0.237 OA
ATOM     55  O   UNL A   1      35.153  35.749  32.887  1.00  0.00    -0.237 OA
ATOM     56  O   UNL A   1      34.156  35.078  30.735  1.00  0.00    -0.744 OA
ENDBRANCH  52  53
ENDBRANCH  24  47
BRANCH  36  57
ATOM     57  C   UNL A   1      43.209  29.015  33.786  1.00  0.00    -0.014 A 
ATOM     58  C   UNL A   1      43.665  29.251  35.099  1.00  0.00     0.010 A 
ATOM     59  C   UNL A   1      42.467  27.848  33.535  1.00  0.00     0.010 A 
ATOM     60  C   UNL A   1      43.397  28.337  36.127  1.00  0.00     0.020 A 
ATOM     61  C   UNL A   1      42.181  26.941  34.560  1.00  0.00     0.020 A 
ATOM     62  C   UNL A   1      42.650  27.188  35.850  1.00  0.00     0.054 A 
BRANCH  62  63
ATOM     63  S   UNL A   1      42.239  26.051  37.205  1.00  0.00     0.124 S 
ATOM     64  O   UNL A   1      40.826  26.331  37.439  1.00  0.00    -0.237 OA
ATOM     65  O   UNL A   1      42.534  24.740  36.628  1.00  0.00    -0.237 OA
ATOM     66  O   UNL A   1      43.137  26.456  38.286  1.00  0.00    -0.744 OA
ENDBRANCH  62  63
ENDBRANCH  36  57
ENDBRANCH  10  11
ENDBRANCH   3   5
ENDBRANCH   2   3
ENDBRANCH   1   2
BRANCH   1  67
ATOM     67  C   UNL A   1      42.200  19.867  26.132  1.00  0.00     0.202 C 
BRANCH  67  68
ATOM     68  O   UNL A   1      42.728  18.741  25.448  1.00  0.00    -0.374 OA
BRANCH  68  69
ATOM     69  C   UNL A   1      44.132  18.648  25.208  1.00  0.00     0.202 C 
BRANCH  69  70
ATOM     70  C   UNL A   1      44.746  19.237  23.930  1.00  0.00     0.261 C 
BRANCH  70  71
ATOM     71  O   UNL A   1      44.534  20.654  23.779  1.00  0.00    -0.459 OA
BRANCH  71  72
ATOM     72  C   UNL A   1      45.384  21.463  24.475  1.00  0.00     0.357 C 
ATOM     73  O   UNL A   1      46.521  21.190  24.800  1.00  0.00    -0.244 OA
BRANCH  72  74
ATOM     74  C   UNL A   1      44.753  22.730  24.688  1.00  0.00     0.153 A 
ATOM     75  N   UNL A   1      43.396  22.916  24.697  1.00  0.00    -0.269 N 
ATOM     76  C   UNL A   1      45.272  23.982  24.928  1.00  0.00     0.056 A 
ATOM     77  N   UNL A   1      42.998  24.175  24.967  1.00  0.00    -0.154 NA
ATOM     78  H   UNL A   1      42.760  22.186  24.519  1.00  0.00     0.190 HD
ATOM     79  C   UNL A   1      44.141  24.853  25.061  1.00  0.00     0.181 A 
ATOM     80  C   UNL A   1      46.617  24.336  24.966  1.00  0.00     0.055 A 
ATOM     81  N   UNL A   1      44.290  26.192  25.246  1.00  0.00    -0.232 NA
ATOM     82  C   UNL A   1      46.738  25.720  25.101  1.00  0.00     0.142 A 
ATOM     83  C   UNL A   1      45.611  26.561  25.234  1.00  0.00     0.152 A 
ATOM     84  F   UNL A   1      47.962  26.266  25.086  1.00  0.00    -0.205 F 
ENDBRANCH  72  74
ENDBRANCH  71  72
ENDBRANCH  70  71
ENDBRANCH  69  70
ENDBRANCH  68  69
ENDBRANCH  67  68
ENDBRANCH   1  67
TORSDOF 17
ENDMDL
MODEL 2
REMARK VINA RESULT:     -10.8      3.132     11.879
REMARK SMILES O=C(OCCOCCOC(=O)c1[nH]nc2ncc(F)cc12)c1ccc(-c2c3nc(c(-c4ccc(S(=O)(=O)[O-])cc4)c4ccc([nH]4)c(-c4ccc(S(=O)(=O)[O-])cc4)c4nc(c(-c5ccc(S(=O)(=O)[O-])cc5)c5ccc2[nH]5)C=C4)C=C3)cc1
REMARK SMILES IDX 4 1 3 2 2 3 1 4 22 5 23 6 81 7 24 8 80 9 25 10 26 11 27 12
REMARK SMILES IDX 74 13 28 14 79 15 73 16 75 17 29 18 78 19 72 20 71 21 30 23
REMARK SMILES IDX 60 24 41 25 59 26 42 27 45 28 58 29 76 30 43 31 44 32 57 34
REMARK SMILES IDX 77 35 46 36 31 37 32 38 40 39 33 40 39 41 34 42 35 43 36 44
REMARK SMILES IDX 37 45 38 46 61 47 62 48 70 49 63 50 69 51 64 52 65 53 66 54
REMARK SMILES IDX 67 55 68 56 47 57 48 58 56 59 49 60 55 61 50 62 51 63 52 64
REMARK SMILES IDX 53 65 54 66 5 67 6 68 7 69 8 70 9 71 10 72 11 73 12 74 13 75
REMARK SMILES IDX 21 76 14 77 15 79 20 80 16 81 18 82 17 83 19 84
REMARK H PARENT 75 22 45 33 13 78
REMARK Flexibility Score: inf
ROOT
ATOM      1  C   UNL A   1      33.296  33.885  28.012  1.00  0.00     0.261 C 
ENDROOT
BRANCH   1   2
ATOM      2  O   UNL A   1      34.484  33.170  27.668  1.00  0.00    -0.460 OA
BRANCH   2   3
ATOM      3  C   UNL A   1      34.738  31.845  27.753  1.00  0.00     0.338 C 
ATOM      4  O   UNL A   1      33.853  31.079  27.368  1.00  0.00    -0.246 OA
BRANCH   3   5
ATOM      5  C   UNL A   1      35.983  31.237  28.324  1.00  0.00     0.060 A 
ATOM      6  C   UNL A   1      37.021  31.908  28.970  1.00  0.00     0.016 A 
ATOM      7  C   UNL A   1      36.121  29.846  28.130  1.00  0.00     0.016 A 
ATOM      8  C   UNL A   1      38.220  31.266  29.240  1.00  0.00     0.010 A 
ATOM      9  C   UNL A   1      37.302  29.183  28.445  1.00  0.00     0.010 A 
ATOM     10  C   UNL A   1      38.376  29.918  28.927  1.00  0.00    -0.014 A 
BRANCH  10  11
ATOM     11  C   UNL A   1      39.696  29.349  29.147  1.00  0.00     0.031 A 
ATOM     12  C   UNL A   1      40.067  29.097  30.566  1.00  0.00     0.074 A 
ATOM     13  C   UNL A   1      40.538  29.050  28.144  1.00  0.00     0.049 A 
ATOM     14  N   UNL A   1      40.981  29.679  31.272  1.00  0.00    -0.248 NA
ATOM     15  C   UNL A   1      39.235  28.147  31.315  1.00  0.00     0.031 C 
ATOM     16  C   UNL A   1      40.255  28.981  26.708  1.00  0.00     0.029 A 
ATOM     17  N   UNL A   1      41.833  28.640  28.228  1.00  0.00    -0.354 N 
ATOM     18  C   UNL A   1      40.968  29.043  32.512  1.00  0.00     0.074 A 
ATOM     19  C   UNL A   1      39.790  28.210  32.525  1.00  0.00     0.031 C 
ATOM     20  C   UNL A   1      41.266  28.330  26.092  1.00  0.00     0.029 A 
ATOM     21  C   UNL A   1      42.320  28.076  27.059  1.00  0.00     0.049 A 
ATOM     22  H   UNL A   1      42.375  28.735  29.043  1.00  0.00     0.167 HD
ATOM     23  C   UNL A   1      42.026  29.088  33.369  1.00  0.00     0.031 A 
ATOM     24  C   UNL A   1      43.470  27.374  26.927  1.00  0.00     0.031 A 
ATOM     25  C   UNL A   1      42.943  30.151  33.054  1.00  0.00     0.049 A 
ATOM     26  C   UNL A   1      44.356  27.751  28.055  1.00  0.00     0.074 A 
ATOM     27  C   UNL A   1      42.862  31.527  32.999  1.00  0.00     0.029 A 
ATOM     28  N   UNL A   1      44.103  29.816  32.397  1.00  0.00    -0.354 N 
ATOM     29  N   UNL A   1      44.871  28.940  28.202  1.00  0.00    -0.248 NA
ATOM     30  C   UNL A   1      44.353  26.926  29.253  1.00  0.00     0.031 C 
ATOM     31  C   UNL A   1      43.711  31.905  31.917  1.00  0.00     0.029 A 
ATOM     32  C   UNL A   1      44.283  30.740  31.401  1.00  0.00     0.049 A 
ATOM     33  H   UNL A   1      44.693  29.056  32.604  1.00  0.00     0.167 HD
ATOM     34  C   UNL A   1      44.881  29.164  29.571  1.00  0.00     0.074 A 
ATOM     35  C   UNL A   1      44.655  27.850  30.168  1.00  0.00     0.031 C 
ATOM     36  C   UNL A   1      44.804  30.428  30.086  1.00  0.00     0.031 A 
BRANCH  23  37
ATOM     37  C   UNL A   1      42.419  27.931  34.261  1.00  0.00    -0.014 A 
ATOM     38  C   UNL A   1      42.343  28.087  35.661  1.00  0.00     0.010 A 
ATOM     39  C   UNL A   1      43.134  26.814  33.783  1.00  0.00     0.010 A 
ATOM     40  C   UNL A   1      43.033  27.227  36.528  1.00  0.00     0.020 A 
ATOM     41  C   UNL A   1      43.785  25.925  34.639  1.00  0.00     0.020 A 
ATOM     42  C   UNL A   1      43.770  26.165  36.004  1.00  0.00     0.054 A 
BRANCH  42  43
ATOM     43  S   UNL A   1      44.798  25.165  37.108  1.00  0.00     0.124 S 
ATOM     44  O   UNL A   1      44.214  25.464  38.412  1.00  0.00    -0.237 OA
ATOM     45  O   UNL A   1      44.569  23.813  36.605  1.00  0.00    -0.237 OA
ATOM     46  O   UNL A   1      46.145  25.687  36.889  1.00  0.00    -0.744 OA
ENDBRANCH  42  43
ENDBRANCH  23  37
BRANCH  24  47
ATOM     47  C   UNL A   1      43.659  26.153  26.109  1.00  0.00    -0.014 A 
ATOM     48  C   UNL A   1      44.890  25.875  25.490  1.00  0.00     0.010 A 
ATOM     49  C   UNL A   1      42.700  25.117  26.157  1.00  0.00     0.010 A 
ATOM     50  C   UNL A   1      45.170  24.593  24.988  1.00  0.00     0.020 A 
ATOM     51  C   UNL A   1      42.966  23.843  25.650  1.00  0.00     0.020 A 
ATOM     52  C   UNL A   1      44.212  23.579  25.090  1.00  0.00     0.054 A 
BRANCH  52  53
ATOM     53  S   UNL A   1      44.644  21.887  24.596  1.00  0.00     0.124 S 
ATOM     54  O   UNL A   1      43.569  21.104  25.199  1.00  0.00    -0.237 OA
ATOM     55  O   UNL A   1      44.626  21.969  23.139  1.00  0.00    -0.237 OA
ATOM     56  O   UNL A   1      45.966  21.681  25.187  1.00  0.00    -0.744 OA
ENDBRANCH  52  53
ENDBRANCH  24  47
BRANCH  36  57
ATOM     57  C   UNL A   1      44.993  31.600  29.150  1.00  0.00    -0.014 A 
ATOM     58  C   UNL A   1      43.928  32.196  28.444  1.00  0.00     0.010 A 
ATOM     59  C   UNL A   1      46.250  32.227  29.121  1.00  0.00     0.010 A 
ATOM     60  C   UNL A   1      44.122  33.378  27.718  1.00  0.00     0.020 A 
ATOM     61  C   UNL A   1      46.446  33.417  28.413  1.00  0.00     0.020 A 
ATOM     62  C   UNL A   1      45.382  33.986  27.712  1.00  0.00     0.054 A 
BRANCH  62  63
ATOM     63  S   UNL A   1      45.603  35.561  26.836  1.00  0.00     0.124 S 
ATOM     64  O   UNL A   1      46.356  36.358  27.799  1.00  0.00    -0.237 OA
ATOM     65  O   UNL A   1      46.337  35.163  25.636  1.00  0.00    -0.237 OA
ATOM     66  O   UNL A   1      44.235  36.017  26.589  1.00  0.00    -0.744 OA
ENDBRANCH  62  63
ENDBRANCH  36  57
ENDBRANCH  10  11
ENDBRANCH   3   5
ENDBRANCH   2   3
ENDBRANCH   1   2
BRANCH   1  67
ATOM     67  C   UNL A   1      33.518  35.076  28.955  1.00  0.00     0.202 C 
BRANCH  67  68
ATOM     68  O   UNL A   1      32.544  35.378  29.940  1.00  0.00    -0.374 OA
BRANCH  68  69
ATOM     69  C   UNL A   1      32.916  36.105  31.112  1.00  0.00     0.202 C 
BRANCH  69  70
ATOM     70  C   UNL A   1      32.837  35.447  32.497  1.00  0.00     0.261 C 
BRANCH  70  71
ATOM     71  O   UNL A   1      34.107  34.988  33.000  1.00  0.00    -0.459 OA
BRANCH  71  72
ATOM     72  C   UNL A   1      34.509  33.756  32.573  1.00  0.00     0.357 C 
ATOM     73  O   UNL A   1      33.784  32.809  32.348  1.00  0.00    -0.244 OA
BRANCH  72  74
ATOM     74  C   UNL A   1      35.921  33.780  32.343  1.00  0.00     0.153 A 
ATOM     75  N   UNL A   1      36.541  34.647  31.483  1.00  0.00    -0.269 N 
ATOM     76  C   UNL A   1      36.947  33.028  32.870  1.00  0.00     0.056 A 
ATOM     77  N   UNL A   1      37.885  34.546  31.447  1.00  0.00    -0.154 NA
ATOM     78  H   UNL A   1      36.044  35.295  30.933  1.00  0.00     0.190 HD
ATOM     79  C   UNL A   1      38.145  33.519  32.255  1.00  0.00     0.181 A 
ATOM     80  C   UNL A   1      36.832  31.966  33.762  1.00  0.00     0.055 A 
ATOM     81  N   UNL A   1      39.357  32.956  32.504  1.00  0.00    -0.232 NA
ATOM     82  C   UNL A   1      38.081  31.374  33.955  1.00  0.00     0.142 A 
ATOM     83  C   UNL A   1      39.251  31.876  33.343  1.00  0.00     0.152 A 
ATOM     84  F   UNL A   1      38.166  30.284  34.731  1.00  0.00    -0.205 F 
ENDBRANCH  72  74
ENDBRANCH  71  72
ENDBRANCH  70  71
ENDBRANCH  69  70
ENDBRANCH  68  69
ENDBRANCH  67  68
ENDBRANCH   1  67
TORSDOF 17
ENDMDL
MODEL 3
REMARK VINA RESULT:     -10.7      4.114      6.034
REMARK SMILES O=C(OCCOCCOC(=O)c1[nH]nc2ncc(F)cc12)c1ccc(-c2c3nc(c(-c4ccc(S(=O)(=O)[O-])cc4)c4ccc([nH]4)c(-c4ccc(S(=O)(=O)[O-])cc4)c4nc(c(-c5ccc(S(=O)(=O)[O-])cc5)c5ccc2[nH]5)C=C4)C=C3)cc1
REMARK SMILES IDX 4 1 3 2 2 3 1 4 22 5 23 6 81 7 24 8 80 9 25 10 26 11 27 12
REMARK SMILES IDX 74 13 28 14 79 15 73 16 75 17 29 18 78 19 72 20 71 21 30 23
REMARK SMILES IDX 60 24 41 25 59 26 42 27 45 28 58 29 76 30 43 31 44 32 57 34
REMARK SMILES IDX 77 35 46 36 31 37 32 38 40 39 33 40 39 41 34 42 35 43 36 44
REMARK SMILES IDX 37 45 38 46 61 47 62 48 70 49 63 50 69 51 64 52 65 53 66 54
REMARK SMILES IDX 67 55 68 56 47 57 48 58 56 59 49 60 55 61 50 62 51 63 52 64
REMARK SMILES IDX 53 65 54 66 5 67 6 68 7 69 8 70 9 71 10 72 11 73 12 74 13 75
REMARK SMILES IDX 21 76 14 77 15 79 20 80 16 81 18 82 17 83 19 84
REMARK H PARENT 75 22 45 33 13 78
REMARK Flexibility Score: inf
ROOT
ATOM      1  C   UNL A   1      37.880  21.812  25.733  1.00  0.00     0.261 C 
ENDROOT
BRANCH   1   2
ATOM      2  O   UNL A   1      39.300  21.726  25.859  1.00  0.00    -0.460 OA
BRANCH   2   3
ATOM      3  C   UNL A   1      40.087  22.065  26.904  1.00  0.00     0.338 C 
ATOM      4  O   UNL A   1      40.469  21.151  27.637  1.00  0.00    -0.246 OA
BRANCH   3   5
ATOM      5  C   UNL A   1      40.487  23.463  27.269  1.00  0.00     0.060 A 
ATOM      6  C   UNL A   1      41.591  23.844  28.031  1.00  0.00     0.016 A 
ATOM      7  C   UNL A   1      39.611  24.477  26.830  1.00  0.00     0.016 A 
ATOM      8  C   UNL A   1      41.717  25.145  28.494  1.00  0.00     0.010 A 
ATOM      9  C   UNL A   1      39.758  25.795  27.247  1.00  0.00     0.010 A 
ATOM     10  C   UNL A   1      40.771  26.105  28.145  1.00  0.00    -0.014 A 
BRANCH  10  11
ATOM     11  C   UNL A   1      40.920  27.416  28.755  1.00  0.00     0.031 A 
ATOM     12  C   UNL A   1      42.055  28.241  28.256  1.00  0.00     0.074 A 
ATOM     13  C   UNL A   1      40.088  27.879  29.703  1.00  0.00     0.049 A 
ATOM     14  N   UNL A   1      43.120  28.609  28.891  1.00  0.00    -0.248 NA
ATOM     15  C   UNL A   1      42.041  28.605  26.834  1.00  0.00     0.031 C 
ATOM     16  C   UNL A   1      38.794  27.336  30.121  1.00  0.00     0.029 A 
ATOM     17  N   UNL A   1      40.200  29.021  30.434  1.00  0.00    -0.354 N 
ATOM     18  C   UNL A   1      43.834  29.411  28.004  1.00  0.00     0.074 A 
ATOM     19  C   UNL A   1      43.195  29.260  26.720  1.00  0.00     0.031 C 
ATOM     20  C   UNL A   1      38.140  28.268  30.848  1.00  0.00     0.029 A 
ATOM     21  C   UNL A   1      39.026  29.400  31.066  1.00  0.00     0.049 A 
ATOM     22  H   UNL A   1      41.037  29.533  30.508  1.00  0.00     0.167 HD
ATOM     23  C   UNL A   1      44.781  30.300  28.420  1.00  0.00     0.031 A 
ATOM     24  C   UNL A   1      38.779  30.597  31.648  1.00  0.00     0.031 A 
ATOM     25  C   UNL A   1      45.232  30.033  29.759  1.00  0.00     0.049 A 
ATOM     26  C   UNL A   1      40.089  31.216  31.970  1.00  0.00     0.074 A 
ATOM     27  C   UNL A   1      45.870  28.981  30.384  1.00  0.00     0.029 A 
ATOM     28  N   UNL A   1      44.734  30.823  30.767  1.00  0.00    -0.354 N 
ATOM     29  N   UNL A   1      40.916  30.735  32.856  1.00  0.00    -0.248 NA
ATOM     30  C   UNL A   1      40.674  32.147  31.018  1.00  0.00     0.031 C 
ATOM     31  C   UNL A   1      45.318  28.942  31.698  1.00  0.00     0.029 A 
ATOM     32  C   UNL A   1      44.403  29.991  31.805  1.00  0.00     0.049 A 
ATOM     33  H   UNL A   1      44.635  31.802  30.748  1.00  0.00     0.167 HD
ATOM     34  C   UNL A   1      42.180  30.975  32.340  1.00  0.00     0.074 A 
ATOM     35  C   UNL A   1      41.970  31.942  31.265  1.00  0.00     0.031 C 
ATOM     36  C   UNL A   1      43.240  30.169  32.651  1.00  0.00     0.031 A 
BRANCH  23  37
ATOM     37  C   UNL A   1      45.017  31.633  27.747  1.00  0.00    -0.014 A 
ATOM     38  C   UNL A   1      46.312  31.949  27.285  1.00  0.00     0.010 A 
ATOM     39  C   UNL A   1      44.090  32.694  27.818  1.00  0.00     0.010 A 
ATOM     40  C   UNL A   1      46.684  33.273  27.010  1.00  0.00     0.020 A 
ATOM     41  C   UNL A   1      44.436  34.007  27.501  1.00  0.00     0.020 A 
ATOM     42  C   UNL A   1      45.745  34.296  27.145  1.00  0.00     0.054 A 
BRANCH  42  43
ATOM     43  S   UNL A   1      46.271  36.018  26.959  1.00  0.00     0.124 S 
ATOM     44  O   UNL A   1      44.992  36.709  26.840  1.00  0.00    -0.237 OA
ATOM     45  O   UNL A   1      47.008  36.252  28.198  1.00  0.00    -0.237 OA
ATOM     46  O   UNL A   1      47.088  35.997  25.747  1.00  0.00    -0.744 OA
ENDBRANCH  42  43
ENDBRANCH  23  37
BRANCH  24  47
ATOM     47  C   UNL A   1      37.509  31.356  31.581  1.00  0.00    -0.014 A 
ATOM     48  C   UNL A   1      36.536  31.237  32.588  1.00  0.00     0.010 A 
ATOM     49  C   UNL A   1      37.367  32.410  30.653  1.00  0.00     0.010 A 
ATOM     50  C   UNL A   1      35.492  32.171  32.694  1.00  0.00     0.020 A 
ATOM     51  C   UNL A   1      36.325  33.337  30.744  1.00  0.00     0.020 A 
ATOM     52  C   UNL A   1      35.405  33.228  31.782  1.00  0.00     0.054 A 
BRANCH  52  53
ATOM     53  S   UNL A   1      34.158  34.523  32.027  1.00  0.00     0.124 S 
ATOM     54  O   UNL A   1      34.958  35.632  32.539  1.00  0.00    -0.237 OA
ATOM     55  O   UNL A   1      33.617  34.700  30.683  1.00  0.00    -0.237 OA
ATOM     56  O   UNL A   1      33.231  33.932  32.993  1.00  0.00    -0.744 OA
ENDBRANCH  52  53
ENDBRANCH  24  47
BRANCH  36  57
ATOM     57  C   UNL A   1      43.087  29.183  33.786  1.00  0.00    -0.014 A 
ATOM     58  C   UNL A   1      43.182  29.554  35.142  1.00  0.00     0.010 A 
ATOM     59  C   UNL A   1      42.659  27.880  33.477  1.00  0.00     0.010 A 
ATOM     60  C   UNL A   1      42.872  28.641  36.159  1.00  0.00     0.020 A 
ATOM     61  C   UNL A   1      42.331  26.970  34.486  1.00  0.00     0.020 A 
ATOM     62  C   UNL A   1      42.442  27.354  35.823  1.00  0.00     0.054 A 
BRANCH  62  63
ATOM     63  S   UNL A   1      41.964  26.205  37.146  1.00  0.00     0.124 S 
ATOM     64  O   UNL A   1      40.654  26.708  37.548  1.00  0.00    -0.237 OA
ATOM     65  O   UNL A   1      41.961  24.912  36.465  1.00  0.00    -0.237 OA
ATOM     66  O   UNL A   1      43.021  26.365  38.145  1.00  0.00    -0.744 OA
ENDBRANCH  62  63
ENDBRANCH  36  57
ENDBRANCH  10  11
ENDBRANCH   3   5
ENDBRANCH   2   3
ENDBRANCH   1   2
BRANCH   1  67
ATOM     67  C   UNL A   1      37.346  21.534  24.321  1.00  0.00     0.202 C 
BRANCH  67  68
ATOM     68  O   UNL A   1      36.513  22.492  23.687  1.00  0.00    -0.374 OA
BRANCH  68  69
ATOM     69  C   UNL A   1      35.102  22.467  23.905  1.00  0.00     0.202 C 
BRANCH  69  70
ATOM     70  C   UNL A   1      34.443  21.276  24.615  1.00  0.00     0.261 C 
BRANCH  70  71
ATOM     71  O   UNL A   1      33.522  21.652  25.656  1.00  0.00    -0.459 OA
BRANCH  71  72
ATOM     72  C   UNL A   1      32.210  21.353  25.430  1.00  0.00     0.357 C 
ATOM     73  O   UNL A   1      31.785  20.313  24.970  1.00  0.00    -0.244 OA
BRANCH  72  74
ATOM     74  C   UNL A   1      31.397  22.430  25.906  1.00  0.00     0.153 A 
ATOM     75  N   UNL A   1      30.577  22.343  27.001  1.00  0.00    -0.269 N 
ATOM     76  C   UNL A   1      31.232  23.721  25.457  1.00  0.00     0.056 A 
ATOM     77  N   UNL A   1      29.933  23.484  27.319  1.00  0.00    -0.154 NA
ATOM     78  H   UNL A   1      30.467  21.511  27.515  1.00  0.00     0.190 HD
ATOM     79  C   UNL A   1      30.286  24.326  26.348  1.00  0.00     0.181 A 
ATOM     80  C   UNL A   1      31.813  24.294  24.329  1.00  0.00     0.055 A 
ATOM     81  N   UNL A   1      29.841  25.597  26.161  1.00  0.00    -0.232 NA
ATOM     82  C   UNL A   1      31.296  25.576  24.132  1.00  0.00     0.142 A 
ATOM     83  C   UNL A   1      30.368  26.155  25.024  1.00  0.00     0.152 A 
ATOM     84  F   UNL A   1      31.682  26.268  23.050  1.00  0.00    -0.205 F 
ENDBRANCH  72  74
ENDBRANCH  71  72
ENDBRANCH  70  71
ENDBRANCH  69  70
ENDBRANCH  68  69
ENDBRANCH  67  68
ENDBRANCH   1  67
TORSDOF 17
ENDMDL
