MODEL 1
REMARK VINA RESULT:     -12.7      0.000      0.000
REMARK SMILES Cc1ccccc1[C@@H]1[NH2+][C@@H](C(=O)OCCOCCOC(=O)c2ccc(-c3c4nc(c(-c5ccc(S(=O)(=O)[O-])cc5)c5ccc([nH]5)c(-c5ccc(S(=O)(=O)[O-])cc5)c5nc(c(-c6ccc(S(=O)(=O)[O-])cc6)c6ccc3[nH]6)C=C5)C=C4)cc2)CC2=c3ccccc3=N[C@H]21
REMARK SMILES IDX 17 1 16 2 15 3 14 4 13 5 11 6 12 7 10 8 8 9 9 10 91 11 83 14
REMARK SMILES IDX 90 15 82 16 84 17 89 18 85 19 88 20 86 21 87 22 7 23 1 24
REMARK SMILES IDX 2 25 3 26 4 27 6 28 5 29 18 30 19 31 20 32 21 33 22 34 23 35
REMARK SMILES IDX 81 36 24 37 80 38 25 39 26 40 27 41 74 42 28 43 79 44 73 45
REMARK SMILES IDX 75 46 29 47 78 48 72 49 71 50 30 52 60 53 41 54 59 55 42 56
REMARK SMILES IDX 45 57 58 58 76 59 43 60 44 61 57 63 77 64 46 65 31 66 32 67
REMARK SMILES IDX 40 68 33 69 39 70 34 71 35 72 36 73 37 74 38 75 61 76 62 77
REMARK SMILES IDX 70 78 63 79 69 80 64 81 65 82 66 83 67 84 68 85 47 86 48 87
REMARK SMILES IDX 56 88 49 89 55 90 50 91 51 92 52 93 53 94 54 95
REMARK H PARENT 9 12 9 13 75 51 45 62
REMARK Flexibility Score: inf
ROOT
ATOM      1  C   UNL A   1      35.170  33.406  27.933  1.00  0.00     0.202 C 
ENDROOT
BRANCH   1   2
ATOM      2  O   UNL A   1      33.778  33.285  28.199  1.00  0.00    -0.374 OA
BRANCH   2   3
ATOM      3  C   UNL A   1      33.109  32.128  27.736  1.00  0.00     0.202 C 
BRANCH   3   4
ATOM      4  C   UNL A   1      33.853  30.793  27.671  1.00  0.00     0.261 C 
BRANCH   4   5
ATOM      5  O   UNL A   1      33.615  30.030  26.506  1.00  0.00    -0.459 OA
BRANCH   5   6
ATOM      6  C   UNL A   1      32.599  29.127  26.580  1.00  0.00     0.365 C 
ATOM      7  O   UNL A   1      31.954  28.837  27.561  1.00  0.00    -0.245 OA
BRANCH   6   8
ATOM      8  C   UNL A   1      32.371  28.623  25.160  1.00  0.00     0.298 C 
ATOM      9  C   UNL A   1      30.939  27.221  23.771  1.00  0.00     0.243 C 
ATOM     10  N   UNL A   1      31.218  27.703  25.140  1.00  0.00    -0.326 N 
ATOM     11  C   UNL A   1      32.193  26.817  22.913  1.00  0.00     0.196 C 
ATOM     12  H   UNL A   1      31.421  26.902  25.739  1.00  0.00     0.347 HD
ATOM     13  H   UNL A   1      30.398  28.207  25.477  1.00  0.00     0.347 HD
ATOM     14  C   UNL A   1      33.409  26.840  23.800  1.00  0.00    -0.024 C 
ATOM     15  N   UNL A   1      32.059  25.387  22.493  1.00  0.00    -0.270 NA
ATOM     16  C   UNL A   1      33.689  28.097  24.551  1.00  0.00     0.111 C 
ATOM     17  C   UNL A   1      33.882  25.618  24.004  1.00  0.00     0.002 A 
ATOM     18  C   UNL A   1      32.967  24.791  23.205  1.00  0.00     0.066 A 
ATOM     19  C   UNL A   1      34.845  25.049  24.886  1.00  0.00     0.010 A 
ATOM     20  C   UNL A   1      33.112  23.329  23.341  1.00  0.00     0.028 A 
ATOM     21  C   UNL A   1      34.895  23.711  24.994  1.00  0.00     0.001 A 
ATOM     22  C   UNL A   1      34.011  22.853  24.218  1.00  0.00     0.002 A 
BRANCH   9  23
ATOM     23  C   UNL A   1      29.849  28.048  23.085  1.00  0.00     0.015 A 
ATOM     24  C   UNL A   1      27.726  26.808  23.916  1.00  0.00     0.045 C 
ATOM     25  C   UNL A   1      28.453  27.942  23.247  1.00  0.00    -0.042 A 
ATOM     26  C   UNL A   1      27.636  28.984  22.759  1.00  0.00     0.004 A 
ATOM     27  C   UNL A   1      28.163  30.047  22.026  1.00  0.00     0.000 A 
ATOM     28  C   UNL A   1      30.338  29.064  22.228  1.00  0.00     0.010 A 
ATOM     29  C   UNL A   1      29.511  30.057  21.712  1.00  0.00     0.001 A 
ENDBRANCH   9  23
ENDBRANCH   6   8
ENDBRANCH   5   6
ENDBRANCH   4   5
ENDBRANCH   3   4
ENDBRANCH   2   3
ENDBRANCH   1   2
BRANCH   1  30
ATOM     30  C   UNL A   1      36.238  33.231  29.038  1.00  0.00     0.261 C 
BRANCH  30  31
ATOM     31  O   UNL A   1      37.252  32.245  28.782  1.00  0.00    -0.460 OA
BRANCH  31  32
ATOM     32  C   UNL A   1      37.679  31.504  29.858  1.00  0.00     0.338 C 
ATOM     33  O   UNL A   1      37.717  31.852  31.022  1.00  0.00    -0.246 OA
BRANCH  32  34
ATOM     34  C   UNL A   1      37.679  30.091  29.407  1.00  0.00     0.060 A 
ATOM     35  C   UNL A   1      37.819  29.040  30.300  1.00  0.00     0.016 A 
ATOM     36  C   UNL A   1      37.933  29.868  28.060  1.00  0.00     0.016 A 
ATOM     37  C   UNL A   1      38.531  27.908  29.921  1.00  0.00     0.010 A 
ATOM     38  C   UNL A   1      38.699  28.762  27.709  1.00  0.00     0.010 A 
ATOM     39  C   UNL A   1      39.221  27.945  28.719  1.00  0.00    -0.014 A 
BRANCH  39  40
ATOM     40  C   UNL A   1      40.665  27.551  28.692  1.00  0.00     0.031 A 
ATOM     41  C   UNL A   1      41.060  26.210  28.248  1.00  0.00     0.074 A 
ATOM     42  C   UNL A   1      41.677  28.437  28.887  1.00  0.00     0.049 A 
ATOM     43  N   UNL A   1      41.585  25.294  28.993  1.00  0.00    -0.248 NA
ATOM     44  C   UNL A   1      40.779  25.786  26.877  1.00  0.00     0.031 C 
ATOM     45  C   UNL A   1      43.116  28.239  28.720  1.00  0.00     0.029 A 
ATOM     46  N   UNL A   1      41.596  29.747  29.339  1.00  0.00    -0.354 N 
ATOM     47  C   UNL A   1      41.914  24.281  28.112  1.00  0.00     0.074 A 
ATOM     48  C   UNL A   1      41.066  24.490  26.963  1.00  0.00     0.031 C 
ATOM     49  C   UNL A   1      43.770  29.261  29.308  1.00  0.00     0.029 A 
ATOM     50  C   UNL A   1      42.787  30.119  29.954  1.00  0.00     0.049 A 
ATOM     51  H   UNL A   1      40.808  30.329  29.240  1.00  0.00     0.167 HD
ATOM     52  C   UNL A   1      43.137  23.668  28.128  1.00  0.00     0.031 A 
ATOM     53  C   UNL A   1      42.739  30.422  31.288  1.00  0.00     0.031 A 
ATOM     54  C   UNL A   1      44.079  24.401  28.984  1.00  0.00     0.049 A 
ATOM     55  C   UNL A   1      43.285  29.266  32.116  1.00  0.00     0.074 A 
ATOM     56  C   UNL A   1      45.195  25.172  28.692  1.00  0.00     0.029 A 
ATOM     57  N   UNL A   1      43.762  24.672  30.309  1.00  0.00    -0.354 N 
ATOM     58  N   UNL A   1      43.560  28.090  31.609  1.00  0.00    -0.248 NA
ATOM     59  C   UNL A   1      43.639  29.330  33.531  1.00  0.00     0.031 C 
ATOM     60  C   UNL A   1      45.508  25.952  29.843  1.00  0.00     0.029 A 
ATOM     61  C   UNL A   1      44.604  25.630  30.843  1.00  0.00     0.049 A 
ATOM     62  H   UNL A   1      43.029  24.239  30.804  1.00  0.00     0.167 HD
ATOM     63  C   UNL A   1      44.115  27.268  32.549  1.00  0.00     0.074 A 
ATOM     64  C   UNL A   1      44.150  28.099  33.740  1.00  0.00     0.031 C 
ATOM     65  C   UNL A   1      44.493  25.984  32.259  1.00  0.00     0.031 A 
BRANCH  52  66
ATOM     66  C   UNL A   1      43.578  22.621  27.106  1.00  0.00    -0.014 A 
ATOM     67  C   UNL A   1      44.849  22.703  26.504  1.00  0.00     0.010 A 
ATOM     68  C   UNL A   1      42.819  21.484  26.749  1.00  0.00     0.010 A 
ATOM     69  C   UNL A   1      45.301  21.745  25.573  1.00  0.00     0.020 A 
ATOM     70  C   UNL A   1      43.227  20.553  25.788  1.00  0.00     0.020 A 
ATOM     71  C   UNL A   1      44.477  20.680  25.209  1.00  0.00     0.054 A 
BRANCH  71  72
ATOM     72  S   UNL A   1      45.066  19.425  24.044  1.00  0.00     0.124 S 
ATOM     73  O   UNL A   1      46.516  19.577  24.123  1.00  0.00    -0.237 OA
ATOM     74  O   UNL A   1      44.525  18.192  24.608  1.00  0.00    -0.237 OA
ATOM     75  O   UNL A   1      44.475  19.829  22.768  1.00  0.00    -0.744 OA
ENDBRANCH  71  72
ENDBRANCH  52  66
BRANCH  53  76
ATOM     76  C   UNL A   1      41.645  31.422  31.575  1.00  0.00    -0.014 A 
ATOM     77  C   UNL A   1      40.728  31.029  32.585  1.00  0.00     0.010 A 
ATOM     78  C   UNL A   1      41.731  32.798  31.293  1.00  0.00     0.010 A 
ATOM     79  C   UNL A   1      40.093  31.962  33.416  1.00  0.00     0.020 A 
ATOM     80  C   UNL A   1      41.064  33.747  32.113  1.00  0.00     0.020 A 
ATOM     81  C   UNL A   1      40.296  33.322  33.204  1.00  0.00     0.054 A 
BRANCH  81  82
ATOM     82  S   UNL A   1      39.739  34.481  34.516  1.00  0.00     0.124 S 
ATOM     83  O   UNL A   1      38.498  35.004  33.960  1.00  0.00    -0.237 OA
ATOM     84  O   UNL A   1      39.595  33.595  35.672  1.00  0.00    -0.237 OA
ATOM     85  O   UNL A   1      40.832  35.440  34.620  1.00  0.00    -0.744 OA
ENDBRANCH  81  82
ENDBRANCH  53  76
BRANCH  65  86
ATOM     86  C   UNL A   1      44.836  24.897  33.261  1.00  0.00    -0.014 A 
ATOM     87  C   UNL A   1      43.909  23.999  33.801  1.00  0.00     0.010 A 
ATOM     88  C   UNL A   1      46.202  24.658  33.574  1.00  0.00     0.010 A 
ATOM     89  C   UNL A   1      44.312  22.945  34.632  1.00  0.00     0.020 A 
ATOM     90  C   UNL A   1      46.623  23.574  34.347  1.00  0.00     0.020 A 
ATOM     91  C   UNL A   1      45.667  22.733  34.891  1.00  0.00     0.054 A 
BRANCH  91  92
ATOM     92  S   UNL A   1      46.156  21.320  35.906  1.00  0.00     0.124 S 
ATOM     93  O   UNL A   1      45.749  21.756  37.239  1.00  0.00    -0.237 OA
ATOM     94  O   UNL A   1      45.367  20.231  35.335  1.00  0.00    -0.237 OA
ATOM     95  O   UNL A   1      47.597  21.218  35.693  1.00  0.00    -0.744 OA
ENDBRANCH  91  92
ENDBRANCH  65  86
ENDBRANCH  39  40
ENDBRANCH  32  34
ENDBRANCH  31  32
ENDBRANCH  30  31
ENDBRANCH   1  30
TORSDOF 18
ENDMDL
MODEL 2
REMARK VINA RESULT:     -12.2      4.084     10.012
REMARK SMILES Cc1ccccc1[C@@H]1[NH2+][C@@H](C(=O)OCCOCCOC(=O)c2ccc(-c3c4nc(c(-c5ccc(S(=O)(=O)[O-])cc5)c5ccc([nH]5)c(-c5ccc(S(=O)(=O)[O-])cc5)c5nc(c(-c6ccc(S(=O)(=O)[O-])cc6)c6ccc3[nH]6)C=C5)C=C4)cc2)CC2=c3ccccc3=N[C@H]21
REMARK SMILES IDX 17 1 16 2 15 3 14 4 13 5 11 6 12 7 10 8 8 9 9 10 91 11 83 14
REMARK SMILES IDX 90 15 82 16 84 17 89 18 85 19 88 20 86 21 87 22 7 23 1 24
REMARK SMILES IDX 2 25 3 26 4 27 6 28 5 29 18 30 19 31 20 32 21 33 22 34 23 35
REMARK SMILES IDX 81 36 24 37 80 38 25 39 26 40 27 41 74 42 28 43 79 44 73 45
REMARK SMILES IDX 75 46 29 47 78 48 72 49 71 50 30 52 60 53 41 54 59 55 42 56
REMARK SMILES IDX 45 57 58 58 76 59 43 60 44 61 57 63 77 64 46 65 31 66 32 67
REMARK SMILES IDX 40 68 33 69 39 70 34 71 35 72 36 73 37 74 38 75 61 76 62 77
REMARK SMILES IDX 70 78 63 79 69 80 64 81 65 82 66 83 67 84 68 85 47 86 48 87
REMARK SMILES IDX 56 88 49 89 55 90 50 91 51 92 52 93 53 94 54 95
REMARK H PARENT 9 12 9 13 75 51 45 62
REMARK Flexibility Score: inf
ROOT
ATOM      1  C   UNL A   1      36.987  30.722  28.071  1.00  0.00     0.202 C 
ENDROOT
BRANCH   1   2
ATOM      2  O   UNL A   1      35.640  30.370  28.364  1.00  0.00    -0.374 OA
BRANCH   2   3
ATOM      3  C   UNL A   1      34.609  31.036  27.662  1.00  0.00     0.202 C 
BRANCH   3   4
ATOM      4  C   UNL A   1      33.293  30.312  27.373  1.00  0.00     0.261 C 
BRANCH   4   5
ATOM      5  O   UNL A   1      33.368  28.901  27.390  1.00  0.00    -0.459 OA
BRANCH   5   6
ATOM      6  C   UNL A   1      32.212  28.238  27.113  1.00  0.00     0.365 C 
ATOM      7  O   UNL A   1      31.341  27.938  27.895  1.00  0.00    -0.245 OA
BRANCH   6   8
ATOM      8  C   UNL A   1      32.188  28.034  25.603  1.00  0.00     0.298 C 
ATOM      9  C   UNL A   1      31.014  26.915  23.782  1.00  0.00     0.243 C 
ATOM     10  N   UNL A   1      31.095  27.109  25.245  1.00  0.00    -0.326 N 
ATOM     11  C   UNL A   1      32.384  26.730  23.033  1.00  0.00     0.196 C 
ATOM     12  H   UNL A   1      31.264  26.207  25.691  1.00  0.00     0.347 HD
ATOM     13  H   UNL A   1      30.215  27.512  25.565  1.00  0.00     0.347 HD
ATOM     14  C   UNL A   1      33.478  26.599  24.059  1.00  0.00    -0.024 C 
ATOM     15  N   UNL A   1      32.377  25.415  22.318  1.00  0.00    -0.270 NA
ATOM     16  C   UNL A   1      33.597  27.679  25.079  1.00  0.00     0.111 C 
ATOM     17  C   UNL A   1      33.984  25.373  24.072  1.00  0.00     0.002 A 
ATOM     18  C   UNL A   1      33.219  24.707  23.008  1.00  0.00     0.066 A 
ATOM     19  C   UNL A   1      34.859  24.658  24.940  1.00  0.00     0.010 A 
ATOM     20  C   UNL A   1      33.422  23.253  22.865  1.00  0.00     0.028 A 
ATOM     21  C   UNL A   1      34.964  23.329  24.781  1.00  0.00     0.001 A 
ATOM     22  C   UNL A   1      34.229  22.628  23.738  1.00  0.00     0.002 A 
BRANCH   9  23
ATOM     23  C   UNL A   1      29.976  27.838  23.139  1.00  0.00     0.015 A 
ATOM     24  C   UNL A   1      27.782  26.668  23.883  1.00  0.00     0.045 C 
ATOM     25  C   UNL A   1      28.575  27.799  23.286  1.00  0.00    -0.042 A 
ATOM     26  C   UNL A   1      27.820  28.911  22.856  1.00  0.00     0.004 A 
ATOM     27  C   UNL A   1      28.409  29.984  22.191  1.00  0.00     0.000 A 
ATOM     28  C   UNL A   1      30.526  28.875  22.347  1.00  0.00     0.010 A 
ATOM     29  C   UNL A   1      29.759  29.940  21.886  1.00  0.00     0.001 A 
ENDBRANCH   9  23
ENDBRANCH   6   8
ENDBRANCH   5   6
ENDBRANCH   4   5
ENDBRANCH   3   4
ENDBRANCH   2   3
ENDBRANCH   1   2
BRANCH   1  30
ATOM     30  C   UNL A   1      37.979  29.721  27.433  1.00  0.00     0.261 C 
BRANCH  30  31
ATOM     31  O   UNL A   1      38.224  28.517  28.180  1.00  0.00    -0.460 OA
BRANCH  31  32
ATOM     32  C   UNL A   1      39.460  27.936  28.028  1.00  0.00     0.338 C 
ATOM     33  O   UNL A   1      40.215  28.051  27.081  1.00  0.00    -0.246 OA
BRANCH  32  34
ATOM     34  C   UNL A   1      39.878  27.499  29.382  1.00  0.00     0.060 A 
ATOM     35  C   UNL A   1      38.961  27.048  30.318  1.00  0.00     0.016 A 
ATOM     36  C   UNL A   1      41.128  27.920  29.813  1.00  0.00     0.016 A 
ATOM     37  C   UNL A   1      39.151  27.346  31.663  1.00  0.00     0.010 A 
ATOM     38  C   UNL A   1      41.280  28.270  31.150  1.00  0.00     0.010 A 
ATOM     39  C   UNL A   1      40.166  28.229  31.997  1.00  0.00    -0.014 A 
BRANCH  39  40
ATOM     40  C   UNL A   1      39.859  29.393  32.888  1.00  0.00     0.031 A 
ATOM     41  C   UNL A   1      38.943  30.448  32.440  1.00  0.00     0.074 A 
ATOM     42  C   UNL A   1      40.245  29.449  34.189  1.00  0.00     0.049 A 
ATOM     43  N   UNL A   1      39.270  31.672  32.186  1.00  0.00    -0.248 NA
ATOM     44  C   UNL A   1      37.546  30.124  32.156  1.00  0.00     0.031 C 
ATOM     45  C   UNL A   1      39.875  30.425  35.215  1.00  0.00     0.029 A 
ATOM     46  N   UNL A   1      41.126  28.614  34.860  1.00  0.00    -0.354 N 
ATOM     47  C   UNL A   1      38.065  32.307  31.950  1.00  0.00     0.074 A 
ATOM     48  C   UNL A   1      37.151  31.255  31.577  1.00  0.00     0.031 C 
ATOM     49  C   UNL A   1      40.711  30.293  36.265  1.00  0.00     0.029 A 
ATOM     50  C   UNL A   1      41.708  29.287  35.930  1.00  0.00     0.049 A 
ATOM     51  H   UNL A   1      41.313  27.679  34.615  1.00  0.00     0.167 HD
ATOM     52  C   UNL A   1      37.746  33.505  32.528  1.00  0.00     0.031 A 
ATOM     53  C   UNL A   1      43.062  29.482  35.889  1.00  0.00     0.031 A 
ATOM     54  C   UNL A   1      38.702  33.847  33.589  1.00  0.00     0.049 A 
ATOM     55  C   UNL A   1      43.382  30.918  35.495  1.00  0.00     0.074 A 
ATOM     56  C   UNL A   1      38.583  33.889  34.970  1.00  0.00     0.029 A 
ATOM     57  N   UNL A   1      40.064  33.894  33.320  1.00  0.00    -0.354 N 
ATOM     58  N   UNL A   1      42.476  31.759  35.063  1.00  0.00    -0.248 NA
ATOM     59  C   UNL A   1      44.689  31.558  35.611  1.00  0.00     0.031 C 
ATOM     60  C   UNL A   1      39.894  33.905  35.528  1.00  0.00     0.029 A 
ATOM     61  C   UNL A   1      40.807  33.907  34.486  1.00  0.00     0.049 A 
ATOM     62  H   UNL A   1      40.450  33.916  32.415  1.00  0.00     0.167 HD
ATOM     63  C   UNL A   1      43.014  32.999  34.863  1.00  0.00     0.074 A 
ATOM     64  C   UNL A   1      44.408  32.821  35.229  1.00  0.00     0.031 C 
ATOM     65  C   UNL A   1      42.262  34.054  34.416  1.00  0.00     0.031 A 
BRANCH  52  66
ATOM     66  C   UNL A   1      36.387  34.187  32.377  1.00  0.00    -0.014 A 
ATOM     67  C   UNL A   1      35.843  34.936  33.439  1.00  0.00     0.010 A 
ATOM     68  C   UNL A   1      35.625  34.196  31.188  1.00  0.00     0.010 A 
ATOM     69  C   UNL A   1      34.602  35.599  33.332  1.00  0.00     0.020 A 
ATOM     70  C   UNL A   1      34.367  34.800  31.079  1.00  0.00     0.020 A 
ATOM     71  C   UNL A   1      33.863  35.513  32.153  1.00  0.00     0.054 A 
BRANCH  71  72
ATOM     72  S   UNL A   1      32.288  36.393  31.995  1.00  0.00     0.124 S 
ATOM     73  O   UNL A   1      32.514  37.591  32.797  1.00  0.00    -0.237 OA
ATOM     74  O   UNL A   1      32.187  36.603  30.554  1.00  0.00    -0.237 OA
ATOM     75  O   UNL A   1      31.310  35.458  32.551  1.00  0.00    -0.744 OA
ENDBRANCH  71  72
ENDBRANCH  52  66
BRANCH  53  76
ATOM     76  C   UNL A   1      43.785  28.187  35.605  1.00  0.00    -0.014 A 
ATOM     77  C   UNL A   1      43.689  27.213  36.634  1.00  0.00     0.010 A 
ATOM     78  C   UNL A   1      44.112  27.724  34.317  1.00  0.00     0.010 A 
ATOM     79  C   UNL A   1      43.702  25.839  36.359  1.00  0.00     0.020 A 
ATOM     80  C   UNL A   1      44.158  26.331  34.040  1.00  0.00     0.020 A 
ATOM     81  C   UNL A   1      43.895  25.400  35.053  1.00  0.00     0.054 A 
BRANCH  81  82
ATOM     82  S   UNL A   1      43.554  23.632  34.689  1.00  0.00     0.124 S 
ATOM     83  O   UNL A   1      43.937  23.525  33.288  1.00  0.00    -0.237 OA
ATOM     84  O   UNL A   1      44.427  22.945  35.642  1.00  0.00    -0.237 OA
ATOM     85  O   UNL A   1      42.128  23.490  34.961  1.00  0.00    -0.744 OA
ENDBRANCH  81  82
ENDBRANCH  53  76
BRANCH  65  86
ATOM     86  C   UNL A   1      42.788  35.373  33.880  1.00  0.00    -0.014 A 
ATOM     87  C   UNL A   1      43.275  35.560  32.582  1.00  0.00     0.010 A 
ATOM     88  C   UNL A   1      42.650  36.542  34.677  1.00  0.00     0.010 A 
ATOM     89  C   UNL A   1      43.637  36.831  32.114  1.00  0.00     0.020 A 
ATOM     90  C   UNL A   1      42.945  37.821  34.202  1.00  0.00     0.020 A 
ATOM     91  C   UNL A   1      43.460  37.954  32.922  1.00  0.00     0.054 A 
BRANCH  91  92
ATOM     92  S   UNL A   1      43.867  39.585  32.261  1.00  0.00     0.124 S 
ATOM     93  O   UNL A   1      42.697  40.367  32.655  1.00  0.00    -0.237 OA
ATOM     94  O   UNL A   1      45.105  39.913  32.963  1.00  0.00    -0.237 OA
ATOM     95  O   UNL A   1      44.012  39.355  30.826  1.00  0.00    -0.744 OA
ENDBRANCH  91  92
ENDBRANCH  65  86
ENDBRANCH  39  40
ENDBRANCH  32  34
ENDBRANCH  31  32
ENDBRANCH  30  31
ENDBRANCH   1  30
TORSDOF 18
ENDMDL
MODEL 3
REMARK VINA RESULT:     -11.7      5.000     10.018
REMARK SMILES Cc1ccccc1[C@@H]1[NH2+][C@@H](C(=O)OCCOCCOC(=O)c2ccc(-c3c4nc(c(-c5ccc(S(=O)(=O)[O-])cc5)c5ccc([nH]5)c(-c5ccc(S(=O)(=O)[O-])cc5)c5nc(c(-c6ccc(S(=O)(=O)[O-])cc6)c6ccc3[nH]6)C=C5)C=C4)cc2)CC2=c3ccccc3=N[C@H]21
REMARK SMILES IDX 17 1 16 2 15 3 14 4 13 5 11 6 12 7 10 8 8 9 9 10 91 11 83 14
REMARK SMILES IDX 90 15 82 16 84 17 89 18 85 19 88 20 86 21 87 22 7 23 1 24
REMARK SMILES IDX 2 25 3 26 4 27 6 28 5 29 18 30 19 31 20 32 21 33 22 34 23 35
REMARK SMILES IDX 81 36 24 37 80 38 25 39 26 40 27 41 74 42 28 43 79 44 73 45
REMARK SMILES IDX 75 46 29 47 78 48 72 49 71 50 30 52 60 53 41 54 59 55 42 56
REMARK SMILES IDX 45 57 58 58 76 59 43 60 44 61 57 63 77 64 46 65 31 66 32 67
REMARK SMILES IDX 40 68 33 69 39 70 34 71 35 72 36 73 37 74 38 75 61 76 62 77
REMARK SMILES IDX 70 78 63 79 69 80 64 81 65 82 66 83 67 84 68 85 47 86 48 87
REMARK SMILES IDX 56 88 49 89 55 90 50 91 51 92 52 93 53 94 54 95
REMARK H PARENT 9 12 9 13 75 51 45 62
REMARK Flexibility Score: inf
ROOT
ATOM      1  C   UNL A   1      37.631  23.947  26.140  1.00  0.00     0.202 C 
ENDROOT
BRANCH   1   2
ATOM      2  O   UNL A   1      36.732  23.083  25.455  1.00  0.00    -0.374 OA
BRANCH   2   3
ATOM      3  C   UNL A   1      35.354  23.404  25.473  1.00  0.00     0.202 C 
BRANCH   3   4
ATOM      4  C   UNL A   1      34.738  24.178  24.306  1.00  0.00     0.261 C 
BRANCH   4   5
ATOM      5  O   UNL A   1      34.465  25.539  24.566  1.00  0.00    -0.459 OA
BRANCH   5   6
ATOM      6  C   UNL A   1      33.700  26.182  23.642  1.00  0.00     0.365 C 
ATOM      7  O   UNL A   1      33.760  26.065  22.441  1.00  0.00    -0.245 OA
BRANCH   6   8
ATOM      8  C   UNL A   1      32.687  27.009  24.426  1.00  0.00     0.298 C 
ATOM      9  C   UNL A   1      31.535  29.156  24.509  1.00  0.00     0.243 C 
ATOM     10  N   UNL A   1      32.540  28.336  23.799  1.00  0.00    -0.326 N 
ATOM     11  C   UNL A   1      31.589  29.106  26.080  1.00  0.00     0.196 C 
ATOM     12  H   UNL A   1      33.440  28.817  23.825  1.00  0.00     0.347 HD
ATOM     13  H   UNL A   1      32.228  28.206  22.838  1.00  0.00     0.347 HD
ATOM     14  C   UNL A   1      32.825  28.354  26.494  1.00  0.00    -0.024 C 
ATOM     15  N   UNL A   1      31.795  30.492  26.606  1.00  0.00    -0.270 NA
ATOM     16  C   UNL A   1      33.016  26.986  25.935  1.00  0.00     0.111 C 
ATOM     17  C   UNL A   1      33.709  29.157  27.070  1.00  0.00     0.002 A 
ATOM     18  C   UNL A   1      33.014  30.451  27.053  1.00  0.00     0.066 A 
ATOM     19  C   UNL A   1      35.076  29.033  27.454  1.00  0.00     0.010 A 
ATOM     20  C   UNL A   1      33.800  31.625  27.481  1.00  0.00     0.028 A 
ATOM     21  C   UNL A   1      35.743  30.148  27.790  1.00  0.00     0.001 A 
ATOM     22  C   UNL A   1      35.094  31.452  27.793  1.00  0.00     0.002 A 
BRANCH   9  23
ATOM     23  C   UNL A   1      30.159  29.075  23.845  1.00  0.00     0.015 A 
ATOM     24  C   UNL A   1      29.884  26.501  23.650  1.00  0.00     0.045 C 
ATOM     25  C   UNL A   1      29.391  27.921  23.586  1.00  0.00    -0.042 A 
ATOM     26  C   UNL A   1      28.031  28.079  23.243  1.00  0.00     0.004 A 
ATOM     27  C   UNL A   1      27.466  29.337  23.045  1.00  0.00     0.000 A 
ATOM     28  C   UNL A   1      29.596  30.330  23.510  1.00  0.00     0.010 A 
ATOM     29  C   UNL A   1      28.266  30.464  23.124  1.00  0.00     0.001 A 
ENDBRANCH   9  23
ENDBRANCH   6   8
ENDBRANCH   5   6
ENDBRANCH   4   5
ENDBRANCH   3   4
ENDBRANCH   2   3
ENDBRANCH   1   2
BRANCH   1  30
ATOM     30  C   UNL A   1      39.041  23.487  26.577  1.00  0.00     0.261 C 
BRANCH  30  31
ATOM     31  O   UNL A   1      39.974  24.535  26.892  1.00  0.00    -0.460 OA
BRANCH  31  32
ATOM     32  C   UNL A   1      39.534  25.517  27.747  1.00  0.00     0.338 C 
ATOM     33  O   UNL A   1      39.162  25.380  28.896  1.00  0.00    -0.246 OA
BRANCH  32  34
ATOM     34  C   UNL A   1      39.990  26.802  27.163  1.00  0.00     0.060 A 
ATOM     35  C   UNL A   1      40.747  26.849  26.003  1.00  0.00     0.016 A 
ATOM     36  C   UNL A   1      39.979  27.906  28.005  1.00  0.00     0.016 A 
ATOM     37  C   UNL A   1      41.738  27.815  25.870  1.00  0.00     0.010 A 
ATOM     38  C   UNL A   1      41.013  28.828  27.894  1.00  0.00     0.010 A 
ATOM     39  C   UNL A   1      42.044  28.591  26.977  1.00  0.00    -0.014 A 
BRANCH  39  40
ATOM     40  C   UNL A   1      43.473  28.722  27.406  1.00  0.00     0.031 A 
ATOM     41  C   UNL A   1      44.196  29.981  27.199  1.00  0.00     0.074 A 
ATOM     42  C   UNL A   1      44.108  27.785  28.157  1.00  0.00     0.049 A 
ATOM     43  N   UNL A   1      45.191  30.154  26.392  1.00  0.00    -0.248 NA
ATOM     44  C   UNL A   1      43.743  31.199  27.868  1.00  0.00     0.031 C 
ATOM     45  C   UNL A   1      45.426  27.853  28.789  1.00  0.00     0.029 A 
ATOM     46  N   UNL A   1      43.679  26.504  28.474  1.00  0.00    -0.354 N 
ATOM     47  C   UNL A   1      45.624  31.441  26.652  1.00  0.00     0.074 A 
ATOM     48  C   UNL A   1      44.491  32.107  27.248  1.00  0.00     0.031 C 
ATOM     49  C   UNL A   1      45.794  26.613  29.168  1.00  0.00     0.029 A 
ATOM     50  C   UNL A   1      44.771  25.677  28.723  1.00  0.00     0.049 A 
ATOM     51  H   UNL A   1      42.738  26.220  28.517  1.00  0.00     0.167 HD
ATOM     52  C   UNL A   1      46.945  31.744  26.840  1.00  0.00     0.031 A 
ATOM     53  C   UNL A   1      44.965  24.620  27.877  1.00  0.00     0.031 A 
ATOM     54  C   UNL A   1      47.745  30.522  26.993  1.00  0.00     0.049 A 
ATOM     55  C   UNL A   1      46.087  24.923  26.893  1.00  0.00     0.074 A 
ATOM     56  C   UNL A   1      48.389  29.964  28.087  1.00  0.00     0.029 A 
ATOM     57  N   UNL A   1      47.707  29.529  26.023  1.00  0.00    -0.354 N 
ATOM     58  N   UNL A   1      46.627  26.110  26.768  1.00  0.00    -0.248 NA
ATOM     59  C   UNL A   1      46.748  23.945  26.033  1.00  0.00     0.031 C 
ATOM     60  C   UNL A   1      48.686  28.604  27.780  1.00  0.00     0.029 A 
ATOM     61  C   UNL A   1      48.253  28.347  26.489  1.00  0.00     0.049 A 
ATOM     62  H   UNL A   1      47.337  29.651  25.119  1.00  0.00     0.167 HD
ATOM     63  C   UNL A   1      47.665  26.085  25.880  1.00  0.00     0.074 A 
ATOM     64  C   UNL A   1      47.706  24.697  25.452  1.00  0.00     0.031 C 
ATOM     65  C   UNL A   1      48.393  27.207  25.583  1.00  0.00     0.031 A 
BRANCH  52  66
ATOM     66  C   UNL A   1      47.453  33.130  27.232  1.00  0.00    -0.014 A 
ATOM     67  C   UNL A   1      47.817  33.405  28.566  1.00  0.00     0.010 A 
ATOM     68  C   UNL A   1      47.670  34.189  26.323  1.00  0.00     0.010 A 
ATOM     69  C   UNL A   1      48.310  34.665  28.964  1.00  0.00     0.020 A 
ATOM     70  C   UNL A   1      48.106  35.462  26.707  1.00  0.00     0.020 A 
ATOM     71  C   UNL A   1      48.438  35.693  28.031  1.00  0.00     0.054 A 
BRANCH  71  72
ATOM     72  S   UNL A   1      49.108  37.301  28.528  1.00  0.00     0.124 S 
ATOM     73  O   UNL A   1      50.026  36.941  29.604  1.00  0.00    -0.237 OA
ATOM     74  O   UNL A   1      49.730  37.777  27.296  1.00  0.00    -0.237 OA
ATOM     75  O   UNL A   1      47.928  38.053  28.953  1.00  0.00    -0.744 OA
ENDBRANCH  71  72
ENDBRANCH  52  66
BRANCH  53  76
ATOM     76  C   UNL A   1      43.698  23.812  27.723  1.00  0.00    -0.014 A 
ATOM     77  C   UNL A   1      43.329  23.532  26.381  1.00  0.00     0.010 A 
ATOM     78  C   UNL A   1      43.162  22.976  28.720  1.00  0.00     0.010 A 
ATOM     79  C   UNL A   1      42.644  22.361  26.029  1.00  0.00     0.020 A 
ATOM     80  C   UNL A   1      42.440  21.804  28.369  1.00  0.00     0.020 A 
ATOM     81  C   UNL A   1      42.237  21.476  27.022  1.00  0.00     0.054 A 
BRANCH  81  82
ATOM     82  S   UNL A   1      41.668  19.810  26.499  1.00  0.00     0.124 S 
ATOM     83  O   UNL A   1      40.231  20.004  26.355  1.00  0.00    -0.237 OA
ATOM     84  O   UNL A   1      42.410  19.607  25.253  1.00  0.00    -0.237 OA
ATOM     85  O   UNL A   1      42.077  18.941  27.597  1.00  0.00    -0.744 OA
ENDBRANCH  81  82
ENDBRANCH  53  76
BRANCH  65  86
ATOM     86  C   UNL A   1      49.354  27.376  24.420  1.00  0.00    -0.014 A 
ATOM     87  C   UNL A   1      50.746  27.434  24.546  1.00  0.00     0.010 A 
ATOM     88  C   UNL A   1      48.842  27.324  23.094  1.00  0.00     0.010 A 
ATOM     89  C   UNL A   1      51.580  27.473  23.420  1.00  0.00     0.020 A 
ATOM     90  C   UNL A   1      49.663  27.298  21.966  1.00  0.00     0.020 A 
ATOM     91  C   UNL A   1      51.035  27.395  22.138  1.00  0.00     0.054 A 
BRANCH  91  92
ATOM     92  S   UNL A   1      52.144  27.373  20.712  1.00  0.00     0.124 S 
ATOM     93  O   UNL A   1      52.736  26.042  20.816  1.00  0.00    -0.237 OA
ATOM     94  O   UNL A   1      51.224  27.565  19.592  1.00  0.00    -0.237 OA
ATOM     95  O   UNL A   1      53.056  28.486  20.960  1.00  0.00    -0.744 OA
ENDBRANCH  91  92
ENDBRANCH  65  86
ENDBRANCH  39  40
ENDBRANCH  32  34
ENDBRANCH  31  32
ENDBRANCH  30  31
ENDBRANCH   1  30
TORSDOF 18
ENDMDL
