MODEL 1
REMARK VINA RESULT:     -10.8      0.000      0.000
REMARK SMILES CCCc1cc(OC(F)(F)F)cc2c1O[C@@H](C(F)(F)F)C(C(=O)OCCOCCOC(=O)c1ccc(-c3c4nc(c(-c5ccc(S(=O)(=O)[O-])cc5)c5ccc([nH]5)c(-c5ccc(S(=O)(=O)[O-])cc5)c5nc(c(-c6ccc(S(=O)(=O)[O-])cc6)c6ccc3[nH]6)C=C5)C=C4)cc1)=C2
REMARK SMILES IDX 28 1 27 2 26 3 25 4 24 5 22 6 23 7 21 8 4 9 5 10 14 11 6 12
REMARK SMILES IDX 13 13 15 14 12 15 93 16 16 17 3 18 2 19 1 20 7 21 8 22 9 23
REMARK SMILES IDX 10 24 11 25 17 26 18 27 19 28 20 29 29 30 30 31 31 32 32 33
REMARK SMILES IDX 33 34 34 35 92 36 35 37 91 38 36 39 37 40 38 41 85 42 39 43
REMARK SMILES IDX 90 44 84 45 86 46 40 47 89 48 83 49 82 50 41 52 71 53 52 54
REMARK SMILES IDX 70 55 53 56 56 57 69 58 87 59 54 60 55 61 68 63 88 64 57 65
REMARK SMILES IDX 42 66 43 67 51 68 44 69 50 70 45 71 46 72 47 73 48 74 49 75
REMARK SMILES IDX 72 76 73 77 81 78 74 79 80 80 75 81 76 82 77 83 78 84 79 85
REMARK SMILES IDX 58 86 59 87 67 88 60 89 66 90 61 91 62 92 63 93 64 94 65 95
REMARK H PARENT 86 51 56 62
REMARK Flexibility Score: inf
ROOT
ATOM      1  C   UNL A   1      40.246  21.300  26.126  1.00  0.00     0.202 C 
ENDROOT
BRANCH   1   2
ATOM      2  O   UNL A   1      38.946  20.867  25.731  1.00  0.00    -0.374 OA
BRANCH   2   3
ATOM      3  C   UNL A   1      37.981  21.864  25.397  1.00  0.00     0.202 C 
BRANCH   3   4
ATOM      4  C   UNL A   1      36.800  21.423  24.529  1.00  0.00     0.261 C 
BRANCH   4   5
ATOM      5  O   UNL A   1      35.621  22.195  24.810  1.00  0.00    -0.460 OA
BRANCH   5   6
ATOM      6  C   UNL A   1      35.363  23.183  23.923  1.00  0.00     0.338 C 
ATOM      7  O   UNL A   1      35.834  23.300  22.805  1.00  0.00    -0.246 OA
BRANCH   6   8
ATOM      8  C   UNL A   1      34.305  24.073  24.428  1.00  0.00     0.087 C 
ATOM      9  C   UNL A   1      31.283  26.928  24.809  1.00  0.00    -0.002 A 
ATOM     10  C   UNL A   1      31.440  27.955  25.752  1.00  0.00     0.054 A 
ATOM     11  C   UNL A   1      32.309  25.976  24.702  1.00  0.00     0.131 A 
ATOM     12  C   UNL A   1      32.620  28.085  26.494  1.00  0.00     0.130 A 
ATOM     13  C   UNL A   1      33.500  26.087  25.440  1.00  0.00     0.021 A 
ATOM     14  O   UNL A   1      32.126  24.956  23.796  1.00  0.00    -0.475 OA
ATOM     15  C   UNL A   1      33.644  27.142  26.341  1.00  0.00     0.058 A 
ATOM     16  C   UNL A   1      34.605  25.170  25.142  1.00  0.00     0.027 C 
ATOM     17  C   UNL A   1      32.862  23.749  24.118  1.00  0.00     0.316 C 
BRANCH   9  18
ATOM     18  C   UNL A   1      30.055  26.797  23.929  1.00  0.00     0.039 C 
BRANCH  18  19
ATOM     19  C   UNL A   1      29.893  27.771  22.754  1.00  0.00     0.001 C 
ATOM     20  C   UNL A   1      29.033  28.984  23.085  1.00  0.00     0.004 C 
ENDBRANCH  18  19
ENDBRANCH   9  18
BRANCH  12  21
ATOM     21  O   UNL A   1      32.891  29.089  27.383  1.00  0.00    -0.406 OA
BRANCH  21  22
ATOM     22  C   UNL A   1      33.119  30.383  26.845  1.00  0.00     0.573 C 
ATOM     23  F   UNL A   1      34.211  30.963  27.389  1.00  0.00    -0.132 F 
ATOM     24  F   UNL A   1      33.266  30.325  25.503  1.00  0.00    -0.132 F 
ATOM     25  F   UNL A   1      32.051  31.165  27.114  1.00  0.00    -0.132 F 
ENDBRANCH  21  22
ENDBRANCH  12  21
BRANCH  17  26
ATOM     26  C   UNL A   1      32.537  22.681  23.063  1.00  0.00     0.430 C 
ATOM     27  F   UNL A   1      32.853  21.440  23.501  1.00  0.00    -0.167 F 
ATOM     28  F   UNL A   1      31.194  22.657  22.834  1.00  0.00    -0.167 F 
ATOM     29  F   UNL A   1      33.130  22.896  21.873  1.00  0.00    -0.167 F 
ENDBRANCH  17  26
ENDBRANCH   6   8
ENDBRANCH   5   6
ENDBRANCH   4   5
ENDBRANCH   3   4
ENDBRANCH   2   3
ENDBRANCH   1   2
BRANCH   1  30
ATOM     30  C   UNL A   1      40.339  22.329  27.261  1.00  0.00     0.261 C 
BRANCH  30  31
ATOM     31  O   UNL A   1      40.426  23.680  26.778  1.00  0.00    -0.460 OA
BRANCH  31  32
ATOM     32  C   UNL A   1      41.526  24.354  27.196  1.00  0.00     0.338 C 
ATOM     33  O   UNL A   1      42.681  24.155  26.861  1.00  0.00    -0.246 OA
BRANCH  32  34
ATOM     34  C   UNL A   1      41.129  25.527  27.997  1.00  0.00     0.060 A 
ATOM     35  C   UNL A   1      42.089  26.529  28.188  1.00  0.00     0.016 A 
ATOM     36  C   UNL A   1      39.883  25.608  28.621  1.00  0.00     0.016 A 
ATOM     37  C   UNL A   1      41.826  27.592  29.046  1.00  0.00     0.010 A 
ATOM     38  C   UNL A   1      39.625  26.674  29.492  1.00  0.00     0.010 A 
ATOM     39  C   UNL A   1      40.609  27.648  29.738  1.00  0.00    -0.014 A 
BRANCH  39  40
ATOM     40  C   UNL A   1      40.441  28.647  30.820  1.00  0.00     0.031 A 
ATOM     41  C   UNL A   1      41.321  28.558  32.040  1.00  0.00     0.074 A 
ATOM     42  C   UNL A   1      39.556  29.652  30.697  1.00  0.00     0.049 A 
ATOM     43  N   UNL A   1      41.365  29.342  33.086  1.00  0.00    -0.248 NA
ATOM     44  C   UNL A   1      42.278  27.440  32.084  1.00  0.00     0.031 C 
ATOM     45  C   UNL A   1      38.673  29.864  29.549  1.00  0.00     0.029 A 
ATOM     46  N   UNL A   1      39.256  30.686  31.548  1.00  0.00    -0.354 N 
ATOM     47  C   UNL A   1      42.346  28.811  33.915  1.00  0.00     0.074 A 
ATOM     48  C   UNL A   1      42.853  27.623  33.264  1.00  0.00     0.031 C 
ATOM     49  C   UNL A   1      37.928  30.961  29.770  1.00  0.00     0.029 A 
ATOM     50  C   UNL A   1      38.261  31.512  31.082  1.00  0.00     0.049 A 
ATOM     51  H   UNL A   1      39.709  30.822  32.410  1.00  0.00     0.167 HD
ATOM     52  C   UNL A   1      42.791  29.274  35.107  1.00  0.00     0.031 A 
ATOM     53  C   UNL A   1      37.677  32.584  31.655  1.00  0.00     0.031 A 
ATOM     54  C   UNL A   1      42.282  30.453  35.755  1.00  0.00     0.049 A 
ATOM     55  C   UNL A   1      38.150  33.047  33.008  1.00  0.00     0.074 A 
ATOM     56  C   UNL A   1      42.686  31.019  36.952  1.00  0.00     0.029 A 
ATOM     57  N   UNL A   1      41.251  31.242  35.269  1.00  0.00    -0.354 N 
ATOM     58  N   UNL A   1      39.108  32.556  33.759  1.00  0.00    -0.248 NA
ATOM     59  C   UNL A   1      37.471  34.216  33.584  1.00  0.00     0.031 C 
ATOM     60  C   UNL A   1      41.861  32.117  37.217  1.00  0.00     0.029 A 
ATOM     61  C   UNL A   1      40.984  32.271  36.156  1.00  0.00     0.049 A 
ATOM     62  H   UNL A   1      40.778  31.093  34.418  1.00  0.00     0.167 HD
ATOM     63  C   UNL A   1      39.161  33.371  34.886  1.00  0.00     0.074 A 
ATOM     64  C   UNL A   1      38.151  34.394  34.709  1.00  0.00     0.031 C 
ATOM     65  C   UNL A   1      39.972  33.280  35.969  1.00  0.00     0.031 A 
BRANCH  52  66
ATOM     66  C   UNL A   1      43.866  28.485  35.806  1.00  0.00    -0.014 A 
ATOM     67  C   UNL A   1      45.229  28.776  35.613  1.00  0.00     0.010 A 
ATOM     68  C   UNL A   1      43.505  27.464  36.704  1.00  0.00     0.010 A 
ATOM     69  C   UNL A   1      46.210  28.039  36.280  1.00  0.00     0.020 A 
ATOM     70  C   UNL A   1      44.482  26.741  37.393  1.00  0.00     0.020 A 
ATOM     71  C   UNL A   1      45.830  27.024  37.165  1.00  0.00     0.054 A 
BRANCH  71  72
ATOM     72  S   UNL A   1      47.124  26.101  38.040  1.00  0.00     0.124 S 
ATOM     73  O   UNL A   1      46.564  26.002  39.386  1.00  0.00    -0.237 OA
ATOM     74  O   UNL A   1      47.186  24.847  37.292  1.00  0.00    -0.237 OA
ATOM     75  O   UNL A   1      48.303  26.955  37.918  1.00  0.00    -0.744 OA
ENDBRANCH  71  72
ENDBRANCH  52  66
BRANCH  53  76
ATOM     76  C   UNL A   1      36.563  33.282  30.958  1.00  0.00    -0.014 A 
ATOM     77  C   UNL A   1      35.258  33.261  31.479  1.00  0.00     0.010 A 
ATOM     78  C   UNL A   1      36.809  33.975  29.758  1.00  0.00     0.010 A 
ATOM     79  C   UNL A   1      34.215  33.902  30.803  1.00  0.00     0.020 A 
ATOM     80  C   UNL A   1      35.776  34.640  29.095  1.00  0.00     0.020 A 
ATOM     81  C   UNL A   1      34.482  34.590  29.616  1.00  0.00     0.054 A 
BRANCH  81  82
ATOM     82  S   UNL A   1      33.124  35.458  28.780  1.00  0.00     0.124 S 
ATOM     83  O   UNL A   1      32.521  34.389  27.992  1.00  0.00    -0.237 OA
ATOM     84  O   UNL A   1      32.326  35.949  29.900  1.00  0.00    -0.237 OA
ATOM     85  O   UNL A   1      33.807  36.497  28.010  1.00  0.00    -0.744 OA
ENDBRANCH  81  82
ENDBRANCH  53  76
BRANCH  65  86
ATOM     86  C   UNL A   1      39.823  34.329  37.039  1.00  0.00    -0.014 A 
ATOM     87  C   UNL A   1      38.997  34.118  38.157  1.00  0.00     0.010 A 
ATOM     88  C   UNL A   1      40.563  35.523  36.949  1.00  0.00     0.010 A 
ATOM     89  C   UNL A   1      38.889  35.095  39.151  1.00  0.00     0.020 A 
ATOM     90  C   UNL A   1      40.479  36.491  37.953  1.00  0.00     0.020 A 
ATOM     91  C   UNL A   1      39.630  36.277  39.041  1.00  0.00     0.054 A 
BRANCH  91  92
ATOM     92  S   UNL A   1      39.503  37.513  40.363  1.00  0.00     0.124 S 
ATOM     93  O   UNL A   1      38.707  38.558  39.725  1.00  0.00    -0.237 OA
ATOM     94  O   UNL A   1      38.832  36.774  41.430  1.00  0.00    -0.237 OA
ATOM     95  O   UNL A   1      40.893  37.869  40.638  1.00  0.00    -0.744 OA
ENDBRANCH  91  92
ENDBRANCH  65  86
ENDBRANCH  39  40
ENDBRANCH  32  34
ENDBRANCH  31  32
ENDBRANCH  30  31
ENDBRANCH   1  30
TORSDOF 22
ENDMDL
MODEL 2
REMARK VINA RESULT:     -10.7      1.552      2.068
REMARK SMILES CCCc1cc(OC(F)(F)F)cc2c1O[C@@H](C(F)(F)F)C(C(=O)OCCOCCOC(=O)c1ccc(-c3c4nc(c(-c5ccc(S(=O)(=O)[O-])cc5)c5ccc([nH]5)c(-c5ccc(S(=O)(=O)[O-])cc5)c5nc(c(-c6ccc(S(=O)(=O)[O-])cc6)c6ccc3[nH]6)C=C5)C=C4)cc1)=C2
REMARK SMILES IDX 28 1 27 2 26 3 25 4 24 5 22 6 23 7 21 8 4 9 5 10 14 11 6 12
REMARK SMILES IDX 13 13 15 14 12 15 93 16 16 17 3 18 2 19 1 20 7 21 8 22 9 23
REMARK SMILES IDX 10 24 11 25 17 26 18 27 19 28 20 29 29 30 30 31 31 32 32 33
REMARK SMILES IDX 33 34 34 35 92 36 35 37 91 38 36 39 37 40 38 41 85 42 39 43
REMARK SMILES IDX 90 44 84 45 86 46 40 47 89 48 83 49 82 50 41 52 71 53 52 54
REMARK SMILES IDX 70 55 53 56 56 57 69 58 87 59 54 60 55 61 68 63 88 64 57 65
REMARK SMILES IDX 42 66 43 67 51 68 44 69 50 70 45 71 46 72 47 73 48 74 49 75
REMARK SMILES IDX 72 76 73 77 81 78 74 79 80 80 75 81 76 82 77 83 78 84 79 85
REMARK SMILES IDX 58 86 59 87 67 88 60 89 66 90 61 91 62 92 63 93 64 94 65 95
REMARK H PARENT 86 51 56 62
REMARK Flexibility Score: inf
ROOT
ATOM      1  C   UNL A   1      39.543  22.200  26.572  1.00  0.00     0.202 C 
ENDROOT
BRANCH   1   2
ATOM      2  O   UNL A   1      38.657  21.701  25.572  1.00  0.00    -0.374 OA
BRANCH   2   3
ATOM      3  C   UNL A   1      37.576  22.536  25.159  1.00  0.00     0.202 C 
BRANCH   3   4
ATOM      4  C   UNL A   1      36.395  21.851  24.465  1.00  0.00     0.261 C 
BRANCH   4   5
ATOM      5  O   UNL A   1      35.327  22.776  24.205  1.00  0.00    -0.460 OA
BRANCH   5   6
ATOM      6  C   UNL A   1      34.350  22.794  25.141  1.00  0.00     0.338 C 
ATOM      7  O   UNL A   1      34.143  21.950  25.995  1.00  0.00    -0.246 OA
BRANCH   6   8
ATOM      8  C   UNL A   1      33.609  24.065  25.094  1.00  0.00     0.087 C 
ATOM      9  C   UNL A   1      31.771  27.616  23.894  1.00  0.00    -0.002 A 
ATOM     10  C   UNL A   1      32.130  28.812  24.535  1.00  0.00     0.054 A 
ATOM     11  C   UNL A   1      32.398  26.433  24.318  1.00  0.00     0.131 A 
ATOM     12  C   UNL A   1      33.148  28.843  25.496  1.00  0.00     0.130 A 
ATOM     13  C   UNL A   1      33.419  26.444  25.283  1.00  0.00     0.021 A 
ATOM     14  O   UNL A   1      32.011  25.264  23.703  1.00  0.00    -0.475 OA
ATOM     15  C   UNL A   1      33.783  27.654  25.874  1.00  0.00     0.058 A 
ATOM     16  C   UNL A   1      34.161  25.205  25.541  1.00  0.00     0.027 C 
ATOM     17  C   UNL A   1      32.213  24.082  24.518  1.00  0.00     0.316 C 
BRANCH   9  18
ATOM     18  C   UNL A   1      30.731  27.551  22.793  1.00  0.00     0.039 C 
BRANCH  18  19
ATOM     19  C   UNL A   1      29.357  28.183  23.051  1.00  0.00     0.001 C 
ATOM     20  C   UNL A   1      29.082  29.410  22.190  1.00  0.00     0.004 C 
ENDBRANCH  18  19
ENDBRANCH   9  18
BRANCH  12  21
ATOM     21  O   UNL A   1      33.612  29.967  26.122  1.00  0.00    -0.406 OA
BRANCH  21  22
ATOM     22  C   UNL A   1      32.702  30.659  26.964  1.00  0.00     0.573 C 
ATOM     23  F   UNL A   1      32.007  29.809  27.751  1.00  0.00    -0.132 F 
ATOM     24  F   UNL A   1      33.352  31.555  27.739  1.00  0.00    -0.132 F 
ATOM     25  F   UNL A   1      31.821  31.335  26.196  1.00  0.00    -0.132 F 
ENDBRANCH  21  22
ENDBRANCH  12  21
BRANCH  17  26
ATOM     26  C   UNL A   1      31.702  22.859  23.741  1.00  0.00     0.430 C 
ATOM     27  F   UNL A   1      31.447  21.818  24.568  1.00  0.00    -0.167 F 
ATOM     28  F   UNL A   1      30.510  23.157  23.150  1.00  0.00    -0.167 F 
ATOM     29  F   UNL A   1      32.531  22.455  22.760  1.00  0.00    -0.167 F 
ENDBRANCH  17  26
ENDBRANCH   6   8
ENDBRANCH   5   6
ENDBRANCH   4   5
ENDBRANCH   3   4
ENDBRANCH   2   3
ENDBRANCH   1   2
BRANCH   1  30
ATOM     30  C   UNL A   1      40.269  23.521  26.285  1.00  0.00     0.261 C 
BRANCH  30  31
ATOM     31  O   UNL A   1      39.590  24.658  26.844  1.00  0.00    -0.460 OA
BRANCH  31  32
ATOM     32  C   UNL A   1      40.248  25.834  26.689  1.00  0.00     0.338 C 
ATOM     33  O   UNL A   1      40.866  26.207  25.706  1.00  0.00    -0.246 OA
BRANCH  32  34
ATOM     34  C   UNL A   1      39.967  26.727  27.828  1.00  0.00     0.060 A 
ATOM     35  C   UNL A   1      40.571  27.992  27.817  1.00  0.00     0.016 A 
ATOM     36  C   UNL A   1      39.206  26.313  28.923  1.00  0.00     0.016 A 
ATOM     37  C   UNL A   1      40.459  28.827  28.924  1.00  0.00     0.010 A 
ATOM     38  C   UNL A   1      39.103  27.152  30.039  1.00  0.00     0.010 A 
ATOM     39  C   UNL A   1      39.762  28.394  30.059  1.00  0.00    -0.014 A 
BRANCH  39  40
ATOM     40  C   UNL A   1      39.854  29.189  31.308  1.00  0.00     0.031 A 
ATOM     41  C   UNL A   1      40.988  28.921  32.263  1.00  0.00     0.074 A 
ATOM     42  C   UNL A   1      38.973  30.172  31.563  1.00  0.00     0.049 A 
ATOM     43  N   UNL A   1      41.277  29.517  33.391  1.00  0.00    -0.248 NA
ATOM     44  C   UNL A   1      41.921  27.843  31.894  1.00  0.00     0.031 C 
ATOM     45  C   UNL A   1      37.853  30.549  30.700  1.00  0.00     0.029 A 
ATOM     46  N   UNL A   1      38.884  31.036  32.626  1.00  0.00    -0.354 N 
ATOM     47  C   UNL A   1      42.417  28.883  33.872  1.00  0.00     0.074 A 
ATOM     48  C   UNL A   1      42.751  27.839  32.927  1.00  0.00     0.031 C 
ATOM     49  C   UNL A   1      37.188  31.569  31.270  1.00  0.00     0.029 A 
ATOM     50  C   UNL A   1      37.817  31.899  32.548  1.00  0.00     0.049 A 
ATOM     51  H   UNL A   1      39.524  31.038  33.373  1.00  0.00     0.167 HD
ATOM     52  C   UNL A   1      43.126  29.151  34.993  1.00  0.00     0.031 A 
ATOM     53  C   UNL A   1      37.388  32.838  33.414  1.00  0.00     0.031 A 
ATOM     54  C   UNL A   1      42.789  30.185  35.934  1.00  0.00     0.049 A 
ATOM     55  C   UNL A   1      38.162  33.079  34.684  1.00  0.00     0.074 A 
ATOM     56  C   UNL A   1      43.461  30.551  37.087  1.00  0.00     0.029 A 
ATOM     57  N   UNL A   1      41.681  31.013  35.837  1.00  0.00    -0.354 N 
ATOM     58  N   UNL A   1      39.261  32.498  35.102  1.00  0.00    -0.248 NA
ATOM     59  C   UNL A   1      37.642  34.110  35.593  1.00  0.00     0.031 C 
ATOM     60  C   UNL A   1      42.728  31.562  37.718  1.00  0.00     0.029 A 
ATOM     61  C   UNL A   1      41.632  31.867  36.926  1.00  0.00     0.049 A 
ATOM     62  H   UNL A   1      41.025  30.996  35.103  1.00  0.00     0.167 HD
ATOM     63  C   UNL A   1      39.577  33.110  36.311  1.00  0.00     0.074 A 
ATOM     64  C   UNL A   1      38.563  34.116  36.548  1.00  0.00     0.031 C 
ATOM     65  C   UNL A   1      40.613  32.861  37.150  1.00  0.00     0.031 A 
BRANCH  52  66
ATOM     66  C   UNL A   1      44.325  28.287  35.283  1.00  0.00    -0.014 A 
ATOM     67  C   UNL A   1      44.198  27.070  35.977  1.00  0.00     0.010 A 
ATOM     68  C   UNL A   1      45.593  28.680  34.816  1.00  0.00     0.010 A 
ATOM     69  C   UNL A   1      45.322  26.278  36.226  1.00  0.00     0.020 A 
ATOM     70  C   UNL A   1      46.715  27.879  35.041  1.00  0.00     0.020 A 
ATOM     71  C   UNL A   1      46.575  26.689  35.758  1.00  0.00     0.054 A 
BRANCH  71  72
ATOM     72  S   UNL A   1      48.013  25.628  36.071  1.00  0.00     0.124 S 
ATOM     73  O   UNL A   1      47.441  24.293  35.910  1.00  0.00    -0.237 OA
ATOM     74  O   UNL A   1      48.949  26.040  35.028  1.00  0.00    -0.237 OA
ATOM     75  O   UNL A   1      48.410  25.974  37.434  1.00  0.00    -0.744 OA
ENDBRANCH  71  72
ENDBRANCH  52  66
BRANCH  53  76
ATOM     76  C   UNL A   1      36.150  33.610  33.119  1.00  0.00    -0.014 A 
ATOM     77  C   UNL A   1      34.881  33.033  33.293  1.00  0.00     0.010 A 
ATOM     78  C   UNL A   1      36.242  34.937  32.657  1.00  0.00     0.010 A 
ATOM     79  C   UNL A   1      33.725  33.762  32.991  1.00  0.00     0.020 A 
ATOM     80  C   UNL A   1      35.091  35.676  32.382  1.00  0.00     0.020 A 
ATOM     81  C   UNL A   1      33.838  35.080  32.539  1.00  0.00     0.054 A 
BRANCH  81  82
ATOM     82  S   UNL A   1      32.326  36.025  32.200  1.00  0.00     0.124 S 
ATOM     83  O   UNL A   1      32.546  37.239  32.979  1.00  0.00    -0.237 OA
ATOM     84  O   UNL A   1      32.372  36.185  30.749  1.00  0.00    -0.237 OA
ATOM     85  O   UNL A   1      31.261  35.151  32.689  1.00  0.00    -0.744 OA
ENDBRANCH  81  82
ENDBRANCH  53  76
BRANCH  65  86
ATOM     86  C   UNL A   1      40.722  33.708  38.391  1.00  0.00    -0.014 A 
ATOM     87  C   UNL A   1      41.449  34.911  38.391  1.00  0.00     0.010 A 
ATOM     88  C   UNL A   1      40.040  33.320  39.559  1.00  0.00     0.010 A 
ATOM     89  C   UNL A   1      41.519  35.695  39.546  1.00  0.00     0.020 A 
ATOM     90  C   UNL A   1      40.085  34.113  40.708  1.00  0.00     0.020 A 
ATOM     91  C   UNL A   1      40.837  35.289  40.699  1.00  0.00     0.054 A 
BRANCH  91  92
ATOM     92  S   UNL A   1      40.911  36.343  42.173  1.00  0.00     0.124 S 
ATOM     93  O   UNL A   1      39.676  35.984  42.865  1.00  0.00    -0.237 OA
ATOM     94  O   UNL A   1      42.146  35.903  42.821  1.00  0.00    -0.237 OA
ATOM     95  O   UNL A   1      40.950  37.698  41.629  1.00  0.00    -0.744 OA
ENDBRANCH  91  92
ENDBRANCH  65  86
ENDBRANCH  39  40
ENDBRANCH  32  34
ENDBRANCH  31  32
ENDBRANCH  30  31
ENDBRANCH   1  30
TORSDOF 22
ENDMDL
MODEL 3
REMARK VINA RESULT:     -10.5      1.654      7.997
REMARK SMILES CCCc1cc(OC(F)(F)F)cc2c1O[C@@H](C(F)(F)F)C(C(=O)OCCOCCOC(=O)c1ccc(-c3c4nc(c(-c5ccc(S(=O)(=O)[O-])cc5)c5ccc([nH]5)c(-c5ccc(S(=O)(=O)[O-])cc5)c5nc(c(-c6ccc(S(=O)(=O)[O-])cc6)c6ccc3[nH]6)C=C5)C=C4)cc1)=C2
REMARK SMILES IDX 28 1 27 2 26 3 25 4 24 5 22 6 23 7 21 8 4 9 5 10 14 11 6 12
REMARK SMILES IDX 13 13 15 14 12 15 93 16 16 17 3 18 2 19 1 20 7 21 8 22 9 23
REMARK SMILES IDX 10 24 11 25 17 26 18 27 19 28 20 29 29 30 30 31 31 32 32 33
REMARK SMILES IDX 33 34 34 35 92 36 35 37 91 38 36 39 37 40 38 41 85 42 39 43
REMARK SMILES IDX 90 44 84 45 86 46 40 47 89 48 83 49 82 50 41 52 71 53 52 54
REMARK SMILES IDX 70 55 53 56 56 57 69 58 87 59 54 60 55 61 68 63 88 64 57 65
REMARK SMILES IDX 42 66 43 67 51 68 44 69 50 70 45 71 46 72 47 73 48 74 49 75
REMARK SMILES IDX 72 76 73 77 81 78 74 79 80 80 75 81 76 82 77 83 78 84 79 85
REMARK SMILES IDX 58 86 59 87 67 88 60 89 66 90 61 91 62 92 63 93 64 94 65 95
REMARK H PARENT 86 51 56 62
REMARK Flexibility Score: inf
ROOT
ATOM      1  C   UNL A   1      39.038  22.371  26.373  1.00  0.00     0.202 C 
ENDROOT
BRANCH   1   2
ATOM      2  O   UNL A   1      37.758  22.709  25.841  1.00  0.00    -0.374 OA
BRANCH   2   3
ATOM      3  C   UNL A   1      37.409  22.190  24.558  1.00  0.00     0.202 C 
BRANCH   3   4
ATOM      4  C   UNL A   1      35.931  21.867  24.319  1.00  0.00     0.261 C 
BRANCH   4   5
ATOM      5  O   UNL A   1      35.124  23.056  24.327  1.00  0.00    -0.460 OA
BRANCH   5   6
ATOM      6  C   UNL A   1      34.219  23.121  25.330  1.00  0.00     0.338 C 
ATOM      7  O   UNL A   1      34.085  22.326  26.244  1.00  0.00    -0.246 OA
BRANCH   6   8
ATOM      8  C   UNL A   1      33.464  24.383  25.268  1.00  0.00     0.087 C 
ATOM      9  C   UNL A   1      31.512  27.852  24.010  1.00  0.00    -0.002 A 
ATOM     10  C   UNL A   1      31.903  29.083  24.557  1.00  0.00     0.054 A 
ATOM     11  C   UNL A   1      32.178  26.698  24.452  1.00  0.00     0.131 A 
ATOM     12  C   UNL A   1      32.986  29.173  25.440  1.00  0.00     0.130 A 
ATOM     13  C   UNL A   1      33.265  26.768  25.340  1.00  0.00     0.021 A 
ATOM     14  O   UNL A   1      31.760  25.495  23.930  1.00  0.00    -0.475 OA
ATOM     15  C   UNL A   1      33.658  28.011  25.836  1.00  0.00     0.058 A 
ATOM     16  C   UNL A   1      34.035  25.550  25.611  1.00  0.00     0.027 C 
ATOM     17  C   UNL A   1      32.031  24.360  24.792  1.00  0.00     0.316 C 
BRANCH   9  18
ATOM     18  C   UNL A   1      30.397  27.721  22.990  1.00  0.00     0.039 C 
BRANCH  18  19
ATOM     19  C   UNL A   1      28.953  27.623  23.498  1.00  0.00     0.001 C 
ATOM     20  C   UNL A   1      28.054  28.744  22.993  1.00  0.00     0.004 C 
ENDBRANCH  18  19
ENDBRANCH   9  18
BRANCH  12  21
ATOM     21  O   UNL A   1      33.482  30.333  25.969  1.00  0.00    -0.406 OA
BRANCH  21  22
ATOM     22  C   UNL A   1      32.949  30.753  27.216  1.00  0.00     0.573 C 
ATOM     23  F   UNL A   1      32.379  31.975  27.129  1.00  0.00    -0.132 F 
ATOM     24  F   UNL A   1      32.036  29.866  27.671  1.00  0.00    -0.132 F 
ATOM     25  F   UNL A   1      33.950  30.821  28.121  1.00  0.00    -0.132 F 
ENDBRANCH  21  22
ENDBRANCH  12  21
BRANCH  17  26
ATOM     26  C   UNL A   1      31.478  23.093  24.121  1.00  0.00     0.430 C 
ATOM     27  F   UNL A   1      31.060  22.190  25.037  1.00  0.00    -0.167 F 
ATOM     28  F   UNL A   1      30.373  23.409  23.387  1.00  0.00    -0.167 F 
ATOM     29  F   UNL A   1      32.347  22.503  23.279  1.00  0.00    -0.167 F 
ENDBRANCH  17  26
ENDBRANCH   6   8
ENDBRANCH   5   6
ENDBRANCH   4   5
ENDBRANCH   3   4
ENDBRANCH   2   3
ENDBRANCH   1   2
BRANCH   1  30
ATOM     30  C   UNL A   1      39.873  23.501  26.990  1.00  0.00     0.261 C 
BRANCH  30  31
ATOM     31  O   UNL A   1      39.179  24.760  27.000  1.00  0.00    -0.460 OA
BRANCH  31  32
ATOM     32  C   UNL A   1      39.985  25.843  26.878  1.00  0.00     0.338 C 
ATOM     33  O   UNL A   1      40.647  26.162  25.905  1.00  0.00    -0.246 OA
BRANCH  32  34
ATOM     34  C   UNL A   1      39.823  26.732  28.044  1.00  0.00     0.060 A 
ATOM     35  C   UNL A   1      40.470  27.974  28.001  1.00  0.00     0.016 A 
ATOM     36  C   UNL A   1      39.130  26.331  29.187  1.00  0.00     0.016 A 
ATOM     37  C   UNL A   1      40.472  28.798  29.122  1.00  0.00     0.010 A 
ATOM     38  C   UNL A   1      39.141  27.158  30.317  1.00  0.00     0.010 A 
ATOM     39  C   UNL A   1      39.845  28.376  30.301  1.00  0.00    -0.014 A 
BRANCH  39  40
ATOM     40  C   UNL A   1      40.059  29.151  31.547  1.00  0.00     0.031 A 
ATOM     41  C   UNL A   1      39.074  30.229  31.916  1.00  0.00     0.074 A 
ATOM     42  C   UNL A   1      41.086  28.864  32.367  1.00  0.00     0.049 A 
ATOM     43  N   UNL A   1      39.051  31.003  32.969  1.00  0.00    -0.248 NA
ATOM     44  C   UNL A   1      37.967  30.462  30.973  1.00  0.00     0.031 C 
ATOM     45  C   UNL A   1      42.086  27.822  32.137  1.00  0.00     0.029 A 
ATOM     46  N   UNL A   1      41.454  29.426  33.564  1.00  0.00    -0.354 N 
ATOM     47  C   UNL A   1      37.936  31.819  32.816  1.00  0.00     0.074 A 
ATOM     48  C   UNL A   1      37.324  31.465  31.553  1.00  0.00     0.031 C 
ATOM     49  C   UNL A   1      42.957  27.820  33.160  1.00  0.00     0.029 A 
ATOM     50  C   UNL A   1      42.593  28.876  34.103  1.00  0.00     0.049 A 
ATOM     51  H   UNL A   1      40.952  30.153  33.995  1.00  0.00     0.167 HD
ATOM     52  C   UNL A   1      37.460  32.770  33.652  1.00  0.00     0.031 A 
ATOM     53  C   UNL A   1      43.272  29.197  35.223  1.00  0.00     0.031 A 
ATOM     54  C   UNL A   1      38.073  33.125  34.904  1.00  0.00     0.049 A 
ATOM     55  C   UNL A   1      42.754  30.299  36.110  1.00  0.00     0.074 A 
ATOM     56  C   UNL A   1      37.651  34.058  35.835  1.00  0.00     0.029 A 
ATOM     57  N   UNL A   1      39.244  32.570  35.397  1.00  0.00    -0.354 N 
ATOM     58  N   UNL A   1      41.675  31.032  35.968  1.00  0.00    -0.248 NA
ATOM     59  C   UNL A   1      43.539  30.608  37.312  1.00  0.00     0.031 C 
ATOM     60  C   UNL A   1      38.597  34.108  36.864  1.00  0.00     0.029 A 
ATOM     61  C   UNL A   1      39.577  33.163  36.604  1.00  0.00     0.049 A 
ATOM     62  H   UNL A   1      39.762  31.859  34.955  1.00  0.00     0.167 HD
ATOM     63  C   UNL A   1      41.641  31.873  37.076  1.00  0.00     0.074 A 
ATOM     64  C   UNL A   1      42.797  31.546  37.885  1.00  0.00     0.031 C 
ATOM     65  C   UNL A   1      40.734  32.830  37.395  1.00  0.00     0.031 A 
BRANCH  52  66
ATOM     66  C   UNL A   1      36.227  33.522  33.225  1.00  0.00    -0.014 A 
ATOM     67  C   UNL A   1      34.940  33.067  33.564  1.00  0.00     0.010 A 
ATOM     68  C   UNL A   1      36.361  34.726  32.511  1.00  0.00     0.010 A 
ATOM     69  C   UNL A   1      33.809  33.786  33.168  1.00  0.00     0.020 A 
ATOM     70  C   UNL A   1      35.234  35.462  32.135  1.00  0.00     0.020 A 
ATOM     71  C   UNL A   1      33.964  34.979  32.453  1.00  0.00     0.054 A 
BRANCH  71  72
ATOM     72  S   UNL A   1      32.480  35.907  31.975  1.00  0.00     0.124 S 
ATOM     73  O   UNL A   1      32.598  35.933  30.519  1.00  0.00    -0.237 OA
ATOM     74  O   UNL A   1      31.399  35.079  32.502  1.00  0.00    -0.237 OA
ATOM     75  O   UNL A   1      32.652  37.199  32.635  1.00  0.00    -0.744 OA
ENDBRANCH  71  72
ENDBRANCH  52  66
BRANCH  53  76
ATOM     76  C   UNL A   1      44.531  28.477  35.560  1.00  0.00    -0.014 A 
ATOM     77  C   UNL A   1      45.773  28.940  35.096  1.00  0.00     0.010 A 
ATOM     78  C   UNL A   1      44.485  27.314  36.351  1.00  0.00     0.010 A 
ATOM     79  C   UNL A   1      46.947  28.242  35.402  1.00  0.00     0.020 A 
ATOM     80  C   UNL A   1      45.657  26.630  36.681  1.00  0.00     0.020 A 
ATOM     81  C   UNL A   1      46.880  27.092  36.194  1.00  0.00     0.054 A 
BRANCH  81  82
ATOM     82  S   UNL A   1      48.419  26.229  36.620  1.00  0.00     0.124 S 
ATOM     83  O   UNL A   1      48.195  25.882  38.019  1.00  0.00    -0.237 OA
ATOM     84  O   UNL A   1      48.424  25.110  35.681  1.00  0.00    -0.237 OA
ATOM     85  O   UNL A   1      49.452  27.236  36.381  1.00  0.00    -0.744 OA
ENDBRANCH  81  82
ENDBRANCH  53  76
BRANCH  65  86
ATOM     86  C   UNL A   1      40.937  33.577  38.687  1.00  0.00    -0.014 A 
ATOM     87  C   UNL A   1      41.661  34.782  38.726  1.00  0.00     0.010 A 
ATOM     88  C   UNL A   1      40.349  33.092  39.870  1.00  0.00     0.010 A 
ATOM     89  C   UNL A   1      41.820  35.472  39.932  1.00  0.00     0.020 A 
ATOM     90  C   UNL A   1      40.483  33.793  41.071  1.00  0.00     0.020 A 
ATOM     91  C   UNL A   1      41.231  34.972  41.098  1.00  0.00     0.054 A 
BRANCH  91  92
ATOM     92  S   UNL A   1      41.418  35.905  42.641  1.00  0.00     0.124 S 
ATOM     93  O   UNL A   1      40.043  36.309  42.921  1.00  0.00    -0.237 OA
ATOM     94  O   UNL A   1      41.980  34.910  43.552  1.00  0.00    -0.237 OA
ATOM     95  O   UNL A   1      42.325  36.992  42.280  1.00  0.00    -0.744 OA
ENDBRANCH  91  92
ENDBRANCH  65  86
ENDBRANCH  39  40
ENDBRANCH  32  34
ENDBRANCH  31  32
ENDBRANCH  30  31
ENDBRANCH   1  30
TORSDOF 22
ENDMDL
