MODEL 1
REMARK VINA RESULT:      -9.5      0.000      0.000
REMARK SMILES CCC[C@H](Nc1cc(C)c(N)c(C(=O)OCCOCCOC(=O)c2ccc(-c3c4nc(c(-c5ccc(S(=O)(=O)[O-])cc5)c5ccc([nH]5)c(-c5ccc(S(=O)(=O)[O-])cc5)c5nc(c(-c6ccc(S(=O)(=O)[O-])cc6)c6ccc3[nH]6)C=C5)C=C4)cc2)c1)c1cccs1
REMARK SMILES IDX 17 1 16 2 15 3 13 4 14 5 12 6 6 7 7 8 84 9 8 10 9 11 10 12
REMARK SMILES IDX 5 13 4 15 3 16 2 17 1 18 85 19 86 20 89 21 87 22 88 23 11 24
REMARK SMILES IDX 18 27 19 28 20 29 21 30 22 31 23 32 24 33 25 34 83 35 26 36
REMARK SMILES IDX 82 37 27 38 28 39 29 40 76 41 30 42 81 43 75 44 77 45 31 46
REMARK SMILES IDX 80 47 74 48 73 49 32 51 62 52 43 53 61 54 44 55 47 56 60 57
REMARK SMILES IDX 78 58 45 59 46 60 59 62 79 63 48 64 33 65 34 66 42 67 35 68
REMARK SMILES IDX 41 69 36 70 37 71 38 72 39 73 40 74 63 75 64 76 72 77 65 78
REMARK SMILES IDX 71 79 66 80 67 81 68 82 69 83 70 84 49 85 50 86 58 87 51 88
REMARK SMILES IDX 57 89 52 90 53 91 54 92 55 93 56 94
REMARK H PARENT 5 14 11 25 11 26 77 50 47 61
REMARK Flexibility Score: inf
ROOT
ATOM      1  C   UNL A   1      34.810  30.939  27.415  1.00  0.00     0.202 C 
ENDROOT
BRANCH   1   2
ATOM      2  C   UNL A   1      33.281  30.989  27.475  1.00  0.00     0.261 C 
BRANCH   2   3
ATOM      3  O   UNL A   1      32.686  30.379  26.318  1.00  0.00    -0.460 OA
BRANCH   3   4
ATOM      4  C   UNL A   1      31.899  29.305  26.584  1.00  0.00     0.340 C 
ATOM      5  O   UNL A   1      31.453  28.993  27.680  1.00  0.00    -0.246 OA
BRANCH   4   6
ATOM      6  C   UNL A   1      31.485  28.628  25.327  1.00  0.00     0.085 A 
ATOM      7  C   UNL A   1      31.505  26.665  23.873  1.00  0.00     0.036 A 
ATOM      8  C   UNL A   1      30.686  27.370  22.985  1.00  0.00     0.031 A 
ATOM      9  C   UNL A   1      31.861  27.298  25.071  1.00  0.00     0.043 A 
ATOM     10  C   UNL A   1      30.305  28.706  23.216  1.00  0.00    -0.025 A 
ATOM     11  C   UNL A   1      29.482  29.417  22.176  1.00  0.00     0.047 C 
ATOM     12  C   UNL A   1      30.723  29.360  24.388  1.00  0.00     0.049 A 
BRANCH   7  13
ATOM     13  N   UNL A   1      32.003  25.401  23.599  1.00  0.00    -0.377 N 
ATOM     14  H   UNL A   1      32.426  25.259  22.721  1.00  0.00     0.161 HD
BRANCH  13  15
ATOM     15  C   UNL A   1      31.949  24.245  24.526  1.00  0.00     0.119 C 
BRANCH  15  16
ATOM     16  C   UNL A   1      31.320  23.055  23.739  1.00  0.00     0.030 C 
BRANCH  16  17
ATOM     17  C   UNL A   1      32.224  22.161  22.878  1.00  0.00    -0.001 C 
ATOM     18  C   UNL A   1      32.536  20.795  23.471  1.00  0.00     0.004 C 
ENDBRANCH  16  17
ENDBRANCH  15  16
BRANCH  15  19
ATOM     19  C   UNL A   1      33.337  23.913  25.100  1.00  0.00     0.027 A 
ATOM     20  C   UNL A   1      34.571  24.445  24.755  1.00  0.00     0.017 A 
ATOM     21  S   UNL A   1      33.528  22.826  26.424  1.00  0.00    -0.147 S 
ATOM     22  C   UNL A   1      35.658  23.857  25.466  1.00  0.00     0.012 A 
ATOM     23  C   UNL A   1      35.228  22.922  26.376  1.00  0.00     0.065 A 
ENDBRANCH  15  19
ENDBRANCH  13  15
ENDBRANCH   7  13
BRANCH  12  24
ATOM     24  N   UNL A   1      30.557  30.744  24.516  1.00  0.00    -0.398 N 
ATOM     25  H   UNL A   1      31.280  31.293  24.894  1.00  0.00     0.156 HD
ATOM     26  H   UNL A   1      29.715  31.167  24.228  1.00  0.00     0.156 HD
ENDBRANCH  12  24
ENDBRANCH   4   6
ENDBRANCH   3   4
ENDBRANCH   2   3
ENDBRANCH   1   2
BRANCH   1  27
ATOM     27  O   UNL A   1      35.495  32.177  27.608  1.00  0.00    -0.374 OA
BRANCH  27  28
ATOM     28  C   UNL A   1      35.975  32.447  28.928  1.00  0.00     0.202 C 
BRANCH  28  29
ATOM     29  C   UNL A   1      37.452  32.129  29.195  1.00  0.00     0.261 C 
BRANCH  29  30
ATOM     30  O   UNL A   1      37.614  31.070  30.158  1.00  0.00    -0.460 OA
BRANCH  30  31
ATOM     31  C   UNL A   1      37.570  29.816  29.650  1.00  0.00     0.338 C 
ATOM     32  O   UNL A   1      36.572  29.141  29.432  1.00  0.00    -0.246 OA
BRANCH  31  33
ATOM     33  C   UNL A   1      38.915  29.417  29.196  1.00  0.00     0.060 A 
ATOM     34  C   UNL A   1      39.880  29.150  30.176  1.00  0.00     0.016 A 
ATOM     35  C   UNL A   1      39.242  29.339  27.841  1.00  0.00     0.016 A 
ATOM     36  C   UNL A   1      41.186  28.829  29.805  1.00  0.00     0.010 A 
ATOM     37  C   UNL A   1      40.556  29.030  27.471  1.00  0.00     0.010 A 
ATOM     38  C   UNL A   1      41.539  28.795  28.449  1.00  0.00    -0.014 A 
BRANCH  38  39
ATOM     39  C   UNL A   1      42.956  28.601  28.057  1.00  0.00     0.031 A 
ATOM     40  C   UNL A   1      43.925  29.742  28.205  1.00  0.00     0.074 A 
ATOM     41  C   UNL A   1      43.377  27.414  27.581  1.00  0.00     0.049 A 
ATOM     42  N   UNL A   1      45.190  29.799  27.877  1.00  0.00    -0.248 NA
ATOM     43  C   UNL A   1      43.399  30.981  28.801  1.00  0.00     0.031 C 
ATOM     44  C   UNL A   1      42.544  26.221  27.432  1.00  0.00     0.029 A 
ATOM     45  N   UNL A   1      44.611  27.023  27.127  1.00  0.00    -0.354 N 
ATOM     46  C   UNL A   1      45.612  31.079  28.219  1.00  0.00     0.074 A 
ATOM     47  C   UNL A   1      44.461  31.773  28.757  1.00  0.00     0.031 C 
ATOM     48  C   UNL A   1      43.290  25.233  26.910  1.00  0.00     0.029 A 
ATOM     49  C   UNL A   1      44.639  25.733  26.654  1.00  0.00     0.049 A 
ATOM     50  H   UNL A   1      45.401  27.610  27.138  1.00  0.00     0.167 HD
ATOM     51  C   UNL A   1      46.845  31.625  28.097  1.00  0.00     0.031 A 
ATOM     52  C   UNL A   1      45.631  25.041  26.060  1.00  0.00     0.031 A 
ATOM     53  C   UNL A   1      47.983  30.938  27.545  1.00  0.00     0.049 A 
ATOM     54  C   UNL A   1      46.971  25.698  25.858  1.00  0.00     0.074 A 
ATOM     55  C   UNL A   1      49.279  31.402  27.395  1.00  0.00     0.029 A 
ATOM     56  N   UNL A   1      47.961  29.648  27.039  1.00  0.00    -0.354 N 
ATOM     57  N   UNL A   1      47.361  26.900  26.210  1.00  0.00    -0.248 NA
ATOM     58  C   UNL A   1      48.006  24.904  25.181  1.00  0.00     0.031 C 
ATOM     59  C   UNL A   1      50.025  30.413  26.745  1.00  0.00     0.029 A 
ATOM     60  C   UNL A   1      49.211  29.310  26.546  1.00  0.00     0.049 A 
ATOM     61  H   UNL A   1      47.173  29.057  27.031  1.00  0.00     0.167 HD
ATOM     62  C   UNL A   1      48.692  26.998  25.817  1.00  0.00     0.074 A 
ATOM     63  C   UNL A   1      49.044  25.728  25.216  1.00  0.00     0.031 C 
ATOM     64  C   UNL A   1      49.545  28.045  25.942  1.00  0.00     0.031 A 
BRANCH  51  65
ATOM     65  C   UNL A   1      47.021  33.054  28.539  1.00  0.00    -0.014 A 
ATOM     66  C   UNL A   1      47.423  33.368  29.850  1.00  0.00     0.010 A 
ATOM     67  C   UNL A   1      46.826  34.098  27.615  1.00  0.00     0.010 A 
ATOM     68  C   UNL A   1      47.593  34.700  30.238  1.00  0.00     0.020 A 
ATOM     69  C   UNL A   1      47.020  35.429  27.992  1.00  0.00     0.020 A 
ATOM     70  C   UNL A   1      47.387  35.723  29.306  1.00  0.00     0.054 A 
BRANCH  70  71
ATOM     71  S   UNL A   1      47.639  37.441  29.830  1.00  0.00     0.124 S 
ATOM     72  O   UNL A   1      46.546  38.128  29.146  1.00  0.00    -0.237 OA
ATOM     73  O   UNL A   1      47.516  37.355  31.283  1.00  0.00    -0.237 OA
ATOM     74  O   UNL A   1      48.978  37.761  29.339  1.00  0.00    -0.744 OA
ENDBRANCH  70  71
ENDBRANCH  51  65
BRANCH  52  75
ATOM     75  C   UNL A   1      45.386  23.653  25.580  1.00  0.00    -0.014 A 
ATOM     76  C   UNL A   1      45.561  22.554  26.439  1.00  0.00     0.010 A 
ATOM     77  C   UNL A   1      44.973  23.425  24.254  1.00  0.00     0.010 A 
ATOM     78  C   UNL A   1      45.342  21.253  25.976  1.00  0.00     0.020 A 
ATOM     79  C   UNL A   1      44.726  22.129  23.796  1.00  0.00     0.020 A 
ATOM     80  C   UNL A   1      44.923  21.049  24.658  1.00  0.00     0.054 A 
BRANCH  80  81
ATOM     81  S   UNL A   1      44.593  19.356  24.094  1.00  0.00     0.124 S 
ATOM     82  O   UNL A   1      45.718  18.622  24.664  1.00  0.00    -0.237 OA
ATOM     83  O   UNL A   1      43.287  19.077  24.686  1.00  0.00    -0.237 OA
ATOM     84  O   UNL A   1      44.596  19.477  22.637  1.00  0.00    -0.744 OA
ENDBRANCH  80  81
ENDBRANCH  52  75
BRANCH  64  85
ATOM     85  C   UNL A   1      50.953  27.856  25.440  1.00  0.00    -0.014 A 
ATOM     86  C   UNL A   1      51.942  27.268  26.249  1.00  0.00     0.010 A 
ATOM     87  C   UNL A   1      51.278  28.227  24.122  1.00  0.00     0.010 A 
ATOM     88  C   UNL A   1      53.238  27.083  25.759  1.00  0.00     0.020 A 
ATOM     89  C   UNL A   1      52.565  28.019  23.620  1.00  0.00     0.020 A 
ATOM     90  C   UNL A   1      53.542  27.461  24.447  1.00  0.00     0.054 A 
BRANCH  90  91
ATOM     91  S   UNL A   1      55.220  27.174  23.822  1.00  0.00     0.124 S 
ATOM     92  O   UNL A   1      55.620  25.980  24.562  1.00  0.00    -0.237 OA
ATOM     93  O   UNL A   1      55.002  26.983  22.390  1.00  0.00    -0.237 OA
ATOM     94  O   UNL A   1      55.938  28.396  24.178  1.00  0.00    -0.744 OA
ENDBRANCH  90  91
ENDBRANCH  64  85
ENDBRANCH  38  39
ENDBRANCH  31  33
ENDBRANCH  30  31
ENDBRANCH  29  30
ENDBRANCH  28  29
ENDBRANCH  27  28
ENDBRANCH   1  27
TORSDOF 23
ENDMDL
MODEL 2
REMARK VINA RESULT:      -8.6      1.046      8.179
REMARK SMILES CCC[C@H](Nc1cc(C)c(N)c(C(=O)OCCOCCOC(=O)c2ccc(-c3c4nc(c(-c5ccc(S(=O)(=O)[O-])cc5)c5ccc([nH]5)c(-c5ccc(S(=O)(=O)[O-])cc5)c5nc(c(-c6ccc(S(=O)(=O)[O-])cc6)c6ccc3[nH]6)C=C5)C=C4)cc2)c1)c1cccs1
REMARK SMILES IDX 17 1 16 2 15 3 13 4 14 5 12 6 6 7 7 8 84 9 8 10 9 11 10 12
REMARK SMILES IDX 5 13 4 15 3 16 2 17 1 18 85 19 86 20 89 21 87 22 88 23 11 24
REMARK SMILES IDX 18 27 19 28 20 29 21 30 22 31 23 32 24 33 25 34 83 35 26 36
REMARK SMILES IDX 82 37 27 38 28 39 29 40 76 41 30 42 81 43 75 44 77 45 31 46
REMARK SMILES IDX 80 47 74 48 73 49 32 51 62 52 43 53 61 54 44 55 47 56 60 57
REMARK SMILES IDX 78 58 45 59 46 60 59 62 79 63 48 64 33 65 34 66 42 67 35 68
REMARK SMILES IDX 41 69 36 70 37 71 38 72 39 73 40 74 63 75 64 76 72 77 65 78
REMARK SMILES IDX 71 79 66 80 67 81 68 82 69 83 70 84 49 85 50 86 58 87 51 88
REMARK SMILES IDX 57 89 52 90 53 91 54 92 55 93 56 94
REMARK H PARENT 5 14 11 25 11 26 77 50 47 61
REMARK Flexibility Score: inf
ROOT
ATOM      1  C   UNL A   1      33.755  31.389  27.772  1.00  0.00     0.202 C 
ENDROOT
BRANCH   1   2
ATOM      2  C   UNL A   1      32.429  30.652  27.561  1.00  0.00     0.261 C 
BRANCH   2   3
ATOM      3  O   UNL A   1      32.562  29.590  26.602  1.00  0.00    -0.460 OA
BRANCH   3   4
ATOM      4  C   UNL A   1      31.742  28.529  26.813  1.00  0.00     0.340 C 
ATOM      5  O   UNL A   1      31.366  28.114  27.901  1.00  0.00    -0.246 OA
BRANCH   4   6
ATOM      6  C   UNL A   1      31.197  28.018  25.528  1.00  0.00     0.085 A 
ATOM      7  C   UNL A   1      30.628  26.148  24.062  1.00  0.00     0.036 A 
ATOM      8  C   UNL A   1      30.157  27.078  23.132  1.00  0.00     0.031 A 
ATOM      9  C   UNL A   1      31.107  26.636  25.285  1.00  0.00     0.043 A 
ATOM     10  C   UNL A   1      30.245  28.467  23.349  1.00  0.00    -0.025 A 
ATOM     11  C   UNL A   1      29.782  29.403  22.266  1.00  0.00     0.047 C 
ATOM     12  C   UNL A   1      30.792  28.954  24.549  1.00  0.00     0.049 A 
BRANCH   7  13
ATOM     13  N   UNL A   1      30.676  24.785  23.811  1.00  0.00    -0.377 N 
ATOM     14  H   UNL A   1      29.932  24.234  24.147  1.00  0.00     0.161 HD
BRANCH  13  15
ATOM     15  C   UNL A   1      31.761  24.093  23.075  1.00  0.00     0.119 C 
BRANCH  15  16
ATOM     16  C   UNL A   1      33.022  25.005  23.151  1.00  0.00     0.030 C 
BRANCH  16  17
ATOM     17  C   UNL A   1      33.389  25.883  21.947  1.00  0.00    -0.001 C 
ATOM     18  C   UNL A   1      32.637  25.567  20.663  1.00  0.00     0.004 C 
ENDBRANCH  16  17
ENDBRANCH  15  16
BRANCH  15  19
ATOM     19  C   UNL A   1      32.012  22.680  23.631  1.00  0.00     0.027 A 
ATOM     20  C   UNL A   1      32.591  21.588  23.001  1.00  0.00     0.017 A 
ATOM     21  S   UNL A   1      31.667  22.283  25.273  1.00  0.00    -0.147 S 
ATOM     22  C   UNL A   1      32.612  20.415  23.812  1.00  0.00     0.012 A 
ATOM     23  C   UNL A   1      32.092  20.648  25.062  1.00  0.00     0.065 A 
ENDBRANCH  15  19
ENDBRANCH  13  15
ENDBRANCH   7  13
BRANCH  12  24
ATOM     24  N   UNL A   1      31.104  30.312  24.677  1.00  0.00    -0.398 N 
ATOM     25  H   UNL A   1      31.883  30.684  24.205  1.00  0.00     0.156 HD
ATOM     26  H   UNL A   1      30.545  30.894  25.241  1.00  0.00     0.156 HD
ENDBRANCH  12  24
ENDBRANCH   4   6
ENDBRANCH   3   4
ENDBRANCH   2   3
ENDBRANCH   1   2
BRANCH   1  27
ATOM     27  O   UNL A   1      34.821  31.050  26.885  1.00  0.00    -0.374 OA
BRANCH  27  28
ATOM     28  C   UNL A   1      35.765  30.083  27.355  1.00  0.00     0.202 C 
BRANCH  28  29
ATOM     29  C   UNL A   1      35.926  29.973  28.878  1.00  0.00     0.261 C 
BRANCH  29  30
ATOM     30  O   UNL A   1      36.708  28.825  29.259  1.00  0.00    -0.460 OA
BRANCH  30  31
ATOM     31  C   UNL A   1      37.655  29.059  30.197  1.00  0.00     0.338 C 
ATOM     32  O   UNL A   1      37.479  29.248  31.395  1.00  0.00    -0.246 OA
BRANCH  31  33
ATOM     33  C   UNL A   1      38.995  28.866  29.612  1.00  0.00     0.060 A 
ATOM     34  C   UNL A   1      40.022  28.439  30.464  1.00  0.00     0.016 A 
ATOM     35  C   UNL A   1      39.255  29.130  28.266  1.00  0.00     0.016 A 
ATOM     36  C   UNL A   1      41.322  28.300  29.978  1.00  0.00     0.010 A 
ATOM     37  C   UNL A   1      40.562  29.002  27.784  1.00  0.00     0.010 A 
ATOM     38  C   UNL A   1      41.606  28.608  28.640  1.00  0.00    -0.014 A 
BRANCH  38  39
ATOM     39  C   UNL A   1      43.009  28.604  28.161  1.00  0.00     0.031 A 
ATOM     40  C   UNL A   1      43.559  27.371  27.497  1.00  0.00     0.074 A 
ATOM     41  C   UNL A   1      43.784  29.694  28.310  1.00  0.00     0.049 A 
ATOM     42  N   UNL A   1      44.767  27.141  27.053  1.00  0.00    -0.248 NA
ATOM     43  C   UNL A   1      42.623  26.250  27.310  1.00  0.00     0.031 C 
ATOM     44  C   UNL A   1      43.354  30.962  28.897  1.00  0.00     0.029 A 
ATOM     45  N   UNL A   1      45.101  29.903  27.984  1.00  0.00    -0.354 N 
ATOM     46  C   UNL A   1      44.742  25.850  26.538  1.00  0.00     0.074 A 
ATOM     47  C   UNL A   1      43.405  25.338  26.750  1.00  0.00     0.031 C 
ATOM     48  C   UNL A   1      44.393  31.815  28.901  1.00  0.00     0.029 A 
ATOM     49  C   UNL A   1      45.568  31.142  28.351  1.00  0.00     0.049 A 
ATOM     50  H   UNL A   1      45.658  29.229  27.531  1.00  0.00     0.167 HD
ATOM     51  C   UNL A   1      45.741  25.155  25.944  1.00  0.00     0.031 A 
ATOM     52  C   UNL A   1      46.808  31.666  28.277  1.00  0.00     0.031 A 
ATOM     53  C   UNL A   1      47.076  25.660  25.753  1.00  0.00     0.049 A 
ATOM     54  C   UNL A   1      47.923  30.843  27.689  1.00  0.00     0.074 A 
ATOM     55  C   UNL A   1      48.152  25.037  25.146  1.00  0.00     0.029 A 
ATOM     56  N   UNL A   1      47.520  26.903  26.176  1.00  0.00    -0.354 N 
ATOM     57  N   UNL A   1      47.877  29.633  27.184  1.00  0.00    -0.248 NA
ATOM     58  C   UNL A   1      49.258  31.458  27.658  1.00  0.00     0.031 C 
ATOM     59  C   UNL A   1      49.264  25.881  25.255  1.00  0.00     0.029 A 
ATOM     60  C   UNL A   1      48.864  27.054  25.874  1.00  0.00     0.049 A 
ATOM     61  H   UNL A   1      46.963  27.580  26.625  1.00  0.00     0.167 HD
ATOM     62  C   UNL A   1      49.171  29.351  26.756  1.00  0.00     0.074 A 
ATOM     63  C   UNL A   1      49.971  30.522  27.046  1.00  0.00     0.031 C 
ATOM     64  C   UNL A   1      49.652  28.223  26.176  1.00  0.00     0.031 A 
BRANCH  51  65
ATOM     65  C   UNL A   1      45.439  23.752  25.488  1.00  0.00    -0.014 A 
ATOM     66  C   UNL A   1      45.085  23.479  24.154  1.00  0.00     0.010 A 
ATOM     67  C   UNL A   1      45.555  22.684  26.397  1.00  0.00     0.010 A 
ATOM     68  C   UNL A   1      44.820  22.168  23.747  1.00  0.00     0.020 A 
ATOM     69  C   UNL A   1      45.315  21.369  25.987  1.00  0.00     0.020 A 
ATOM     70  C   UNL A   1      44.934  21.122  24.668  1.00  0.00     0.054 A 
BRANCH  70  71
ATOM     71  S   UNL A   1      44.609  19.428  24.105  1.00  0.00     0.124 S 
ATOM     72  O   UNL A   1      43.368  19.110  24.809  1.00  0.00    -0.237 OA
ATOM     73  O   UNL A   1      44.487  19.589  22.658  1.00  0.00    -0.237 OA
ATOM     74  O   UNL A   1      45.784  18.683  24.550  1.00  0.00    -0.744 OA
ENDBRANCH  70  71
ENDBRANCH  51  65
BRANCH  52  75
ATOM     75  C   UNL A   1      47.069  33.034  28.803  1.00  0.00    -0.014 A 
ATOM     76  C   UNL A   1      46.951  34.160  27.971  1.00  0.00     0.010 A 
ATOM     77  C   UNL A   1      47.439  33.215  30.149  1.00  0.00     0.010 A 
ATOM     78  C   UNL A   1      47.212  35.440  28.470  1.00  0.00     0.020 A 
ATOM     79  C   UNL A   1      47.674  34.494  30.659  1.00  0.00     0.020 A 
ATOM     80  C   UNL A   1      47.569  35.599  29.813  1.00  0.00     0.054 A 
BRANCH  80  81
ATOM     81  S   UNL A   1      47.852  37.272  30.453  1.00  0.00     0.124 S 
ATOM     82  O   UNL A   1      47.546  37.110  31.871  1.00  0.00    -0.237 OA
ATOM     83  O   UNL A   1      49.258  37.500  30.130  1.00  0.00    -0.237 OA
ATOM     84  O   UNL A   1      46.906  38.090  29.697  1.00  0.00    -0.744 OA
ENDBRANCH  80  81
ENDBRANCH  52  75
BRANCH  64  85
ATOM     85  C   UNL A   1      51.108  28.207  25.793  1.00  0.00    -0.014 A 
ATOM     86  C   UNL A   1      52.091  27.737  26.683  1.00  0.00     0.010 A 
ATOM     87  C   UNL A   1      51.494  28.620  24.505  1.00  0.00     0.010 A 
ATOM     88  C   UNL A   1      53.436  27.711  26.302  1.00  0.00     0.020 A 
ATOM     89  C   UNL A   1      52.833  28.570  24.110  1.00  0.00     0.020 A 
ATOM     90  C   UNL A   1      53.798  28.129  25.018  1.00  0.00     0.054 A 
BRANCH  90  91
ATOM     91  S   UNL A   1      55.545  28.047  24.534  1.00  0.00     0.124 S 
ATOM     92  O   UNL A   1      55.479  27.289  23.288  1.00  0.00    -0.237 OA
ATOM     93  O   UNL A   1      55.906  29.457  24.394  1.00  0.00    -0.237 OA
ATOM     94  O   UNL A   1      56.183  27.356  25.652  1.00  0.00    -0.744 OA
ENDBRANCH  90  91
ENDBRANCH  64  85
ENDBRANCH  38  39
ENDBRANCH  31  33
ENDBRANCH  30  31
ENDBRANCH  29  30
ENDBRANCH  28  29
ENDBRANCH  27  28
ENDBRANCH   1  27
TORSDOF 23
ENDMDL
MODEL 3
REMARK VINA RESULT:      -8.6      5.714     12.275
REMARK SMILES CCC[C@H](Nc1cc(C)c(N)c(C(=O)OCCOCCOC(=O)c2ccc(-c3c4nc(c(-c5ccc(S(=O)(=O)[O-])cc5)c5ccc([nH]5)c(-c5ccc(S(=O)(=O)[O-])cc5)c5nc(c(-c6ccc(S(=O)(=O)[O-])cc6)c6ccc3[nH]6)C=C5)C=C4)cc2)c1)c1cccs1
REMARK SMILES IDX 17 1 16 2 15 3 13 4 14 5 12 6 6 7 7 8 84 9 8 10 9 11 10 12
REMARK SMILES IDX 5 13 4 15 3 16 2 17 1 18 85 19 86 20 89 21 87 22 88 23 11 24
REMARK SMILES IDX 18 27 19 28 20 29 21 30 22 31 23 32 24 33 25 34 83 35 26 36
REMARK SMILES IDX 82 37 27 38 28 39 29 40 76 41 30 42 81 43 75 44 77 45 31 46
REMARK SMILES IDX 80 47 74 48 73 49 32 51 62 52 43 53 61 54 44 55 47 56 60 57
REMARK SMILES IDX 78 58 45 59 46 60 59 62 79 63 48 64 33 65 34 66 42 67 35 68
REMARK SMILES IDX 41 69 36 70 37 71 38 72 39 73 40 74 63 75 64 76 72 77 65 78
REMARK SMILES IDX 71 79 66 80 67 81 68 82 69 83 70 84 49 85 50 86 58 87 51 88
REMARK SMILES IDX 57 89 52 90 53 91 54 92 55 93 56 94
REMARK H PARENT 5 14 11 25 11 26 77 50 47 61
REMARK Flexibility Score: inf
ROOT
ATOM      1  C   UNL A   1      45.140  26.612  26.690  1.00  0.00     0.202 C 
ENDROOT
BRANCH   1   2
ATOM      2  C   UNL A   1      44.633  27.829  25.910  1.00  0.00     0.261 C 
BRANCH   2   3
ATOM      3  O   UNL A   1      43.498  28.434  26.552  1.00  0.00    -0.460 OA
BRANCH   3   4
ATOM      4  C   UNL A   1      42.341  28.360  25.846  1.00  0.00     0.340 C 
ATOM      5  O   UNL A   1      42.236  28.406  24.628  1.00  0.00    -0.246 OA
BRANCH   4   6
ATOM      6  C   UNL A   1      41.198  28.034  26.739  1.00  0.00     0.085 A 
ATOM      7  C   UNL A   1      39.474  28.743  28.317  1.00  0.00     0.036 A 
ATOM      8  C   UNL A   1      39.050  27.412  28.384  1.00  0.00     0.031 A 
ATOM      9  C   UNL A   1      40.529  29.047  27.448  1.00  0.00     0.043 A 
ATOM     10  C   UNL A   1      39.711  26.379  27.690  1.00  0.00    -0.025 A 
ATOM     11  C   UNL A   1      39.237  24.963  27.873  1.00  0.00     0.047 C 
ATOM     12  C   UNL A   1      40.814  26.680  26.873  1.00  0.00     0.049 A 
BRANCH   7  13
ATOM     13  N   UNL A   1      38.926  29.750  29.097  1.00  0.00    -0.377 N 
ATOM     14  H   UNL A   1      39.441  30.584  29.189  1.00  0.00     0.161 HD
BRANCH  13  15
ATOM     15  C   UNL A   1      37.625  29.669  29.803  1.00  0.00     0.119 C 
BRANCH  15  16
ATOM     16  C   UNL A   1      37.761  30.502  31.113  1.00  0.00     0.030 C 
BRANCH  16  17
ATOM     17  C   UNL A   1      37.300  29.892  32.444  1.00  0.00    -0.001 C 
ATOM     18  C   UNL A   1      38.128  30.286  33.658  1.00  0.00     0.004 C 
ENDBRANCH  16  17
ENDBRANCH  15  16
BRANCH  15  19
ATOM     19  C   UNL A   1      36.465  30.144  28.911  1.00  0.00     0.027 A 
ATOM     20  C   UNL A   1      35.728  29.420  27.985  1.00  0.00     0.017 A 
ATOM     21  S   UNL A   1      35.821  31.737  29.043  1.00  0.00    -0.147 S 
ATOM     22  C   UNL A   1      34.756  30.206  27.299  1.00  0.00     0.012 A 
ATOM     23  C   UNL A   1      34.737  31.504  27.750  1.00  0.00     0.065 A 
ENDBRANCH  15  19
ENDBRANCH  13  15
ENDBRANCH   7  13
BRANCH  12  24
ATOM     24  N   UNL A   1      41.619  25.650  26.374  1.00  0.00    -0.398 N 
ATOM     25  H   UNL A   1      41.401  24.712  26.578  1.00  0.00     0.156 HD
ATOM     26  H   UNL A   1      42.405  25.863  25.820  1.00  0.00     0.156 HD
ENDBRANCH  12  24
ENDBRANCH   4   6
ENDBRANCH   3   4
ENDBRANCH   2   3
ENDBRANCH   1   2
BRANCH   1  27
ATOM     27  O   UNL A   1      44.586  25.348  26.328  1.00  0.00    -0.374 OA
BRANCH  27  28
ATOM     28  C   UNL A   1      44.805  24.266  27.238  1.00  0.00     0.202 C 
BRANCH  28  29
ATOM     29  C   UNL A   1      43.653  23.940  28.198  1.00  0.00     0.261 C 
BRANCH  29  30
ATOM     30  O   UNL A   1      43.248  25.087  28.968  1.00  0.00    -0.460 OA
BRANCH  30  31
ATOM     31  C   UNL A   1      43.803  25.181  30.199  1.00  0.00     0.338 C 
ATOM     32  O   UNL A   1      44.390  24.299  30.815  1.00  0.00    -0.246 OA
BRANCH  31  33
ATOM     33  C   UNL A   1      43.780  26.585  30.650  1.00  0.00     0.060 A 
ATOM     34  C   UNL A   1      42.972  27.483  29.940  1.00  0.00     0.016 A 
ATOM     35  C   UNL A   1      44.558  27.028  31.722  1.00  0.00     0.016 A 
ATOM     36  C   UNL A   1      42.960  28.836  30.282  1.00  0.00     0.010 A 
ATOM     37  C   UNL A   1      44.553  28.386  32.055  1.00  0.00     0.010 A 
ATOM     38  C   UNL A   1      43.773  29.300  31.325  1.00  0.00    -0.014 A 
BRANCH  38  39
ATOM     39  C   UNL A   1      43.874  30.755  31.593  1.00  0.00     0.031 A 
ATOM     40  C   UNL A   1      43.022  31.368  32.671  1.00  0.00     0.074 A 
ATOM     41  C   UNL A   1      44.724  31.523  30.886  1.00  0.00     0.049 A 
ATOM     42  N   UNL A   1      42.920  32.621  33.031  1.00  0.00    -0.248 NA
ATOM     43  C   UNL A   1      42.173  30.447  33.444  1.00  0.00     0.031 C 
ATOM     44  C   UNL A   1      45.632  31.039  29.846  1.00  0.00     0.029 A 
ATOM     45  N   UNL A   1      44.954  32.874  30.932  1.00  0.00    -0.354 N 
ATOM     46  C   UNL A   1      41.994  32.643  34.068  1.00  0.00     0.074 A 
ATOM     47  C   UNL A   1      41.545  31.281  34.261  1.00  0.00     0.031 C 
ATOM     48  C   UNL A   1      46.313  32.083  29.343  1.00  0.00     0.029 A 
ATOM     49  C   UNL A   1      45.864  33.310  29.999  1.00  0.00     0.049 A 
ATOM     50  H   UNL A   1      44.508  33.476  31.571  1.00  0.00     0.167 HD
ATOM     51  C   UNL A   1      41.558  33.701  34.792  1.00  0.00     0.031 A 
ATOM     52  C   UNL A   1      46.271  34.557  29.690  1.00  0.00     0.031 A 
ATOM     53  C   UNL A   1      41.993  35.058  34.585  1.00  0.00     0.049 A 
ATOM     54  C   UNL A   1      45.710  35.727  30.453  1.00  0.00     0.074 A 
ATOM     55  C   UNL A   1      41.622  36.196  35.279  1.00  0.00     0.029 A 
ATOM     56  N   UNL A   1      42.884  35.463  33.603  1.00  0.00    -0.354 N 
ATOM     57  N   UNL A   1      44.853  35.728  31.447  1.00  0.00    -0.248 NA
ATOM     58  C   UNL A   1      46.171  37.065  30.055  1.00  0.00     0.031 C 
ATOM     59  C   UNL A   1      42.243  37.297  34.679  1.00  0.00     0.029 A 
ATOM     60  C   UNL A   1      43.050  36.838  33.651  1.00  0.00     0.049 A 
ATOM     61  H   UNL A   1      43.334  34.863  32.965  1.00  0.00     0.167 HD
ATOM     62  C   UNL A   1      44.691  37.063  31.806  1.00  0.00     0.074 A 
ATOM     63  C   UNL A   1      45.550  37.837  30.935  1.00  0.00     0.031 C 
ATOM     64  C   UNL A   1      43.902  37.598  32.771  1.00  0.00     0.031 A 
BRANCH  51  65
ATOM     65  C   UNL A   1      40.528  33.439  35.859  1.00  0.00    -0.014 A 
ATOM     66  C   UNL A   1      39.152  33.508  35.577  1.00  0.00     0.010 A 
ATOM     67  C   UNL A   1      40.943  33.071  37.152  1.00  0.00     0.010 A 
ATOM     68  C   UNL A   1      38.211  33.249  36.577  1.00  0.00     0.020 A 
ATOM     69  C   UNL A   1      40.006  32.786  38.148  1.00  0.00     0.020 A 
ATOM     70  C   UNL A   1      38.645  32.892  37.858  1.00  0.00     0.054 A 
BRANCH  70  71
ATOM     71  S   UNL A   1      37.401  32.536  39.130  1.00  0.00     0.124 S 
ATOM     72  O   UNL A   1      37.647  33.603  40.098  1.00  0.00    -0.237 OA
ATOM     73  O   UNL A   1      36.146  32.637  38.389  1.00  0.00    -0.237 OA
ATOM     74  O   UNL A   1      37.746  31.192  39.587  1.00  0.00    -0.744 OA
ENDBRANCH  70  71
ENDBRANCH  51  65
BRANCH  52  75
ATOM     75  C   UNL A   1      47.243  34.768  28.581  1.00  0.00    -0.014 A 
ATOM     76  C   UNL A   1      46.800  34.926  27.257  1.00  0.00     0.010 A 
ATOM     77  C   UNL A   1      48.623  34.814  28.850  1.00  0.00     0.010 A 
ATOM     78  C   UNL A   1      47.720  35.110  26.220  1.00  0.00     0.020 A 
ATOM     79  C   UNL A   1      49.544  35.026  27.822  1.00  0.00     0.020 A 
ATOM     80  C   UNL A   1      49.086  35.162  26.510  1.00  0.00     0.054 A 
BRANCH  80  81
ATOM     81  S   UNL A   1      50.259  35.455  25.157  1.00  0.00     0.124 S 
ATOM     82  O   UNL A   1      51.379  36.078  25.856  1.00  0.00    -0.237 OA
ATOM     83  O   UNL A   1      50.499  34.106  24.651  1.00  0.00    -0.237 OA
ATOM     84  O   UNL A   1      49.520  36.331  24.250  1.00  0.00    -0.744 OA
ENDBRANCH  80  81
ENDBRANCH  52  75
BRANCH  64  85
ATOM     85  C   UNL A   1      43.945  39.092  32.953  1.00  0.00    -0.014 A 
ATOM     86  C   UNL A   1      43.051  39.936  32.270  1.00  0.00     0.010 A 
ATOM     87  C   UNL A   1      44.861  39.657  33.860  1.00  0.00     0.010 A 
ATOM     88  C   UNL A   1      43.094  41.320  32.467  1.00  0.00     0.020 A 
ATOM     89  C   UNL A   1      44.888  41.036  34.081  1.00  0.00     0.020 A 
ATOM     90  C   UNL A   1      44.013  41.861  33.371  1.00  0.00     0.054 A 
BRANCH  90  91
ATOM     91  S   UNL A   1      44.021  43.655  33.639  1.00  0.00     0.124 S 
ATOM     92  O   UNL A   1      42.865  43.836  34.512  1.00  0.00    -0.237 OA
ATOM     93  O   UNL A   1      45.323  43.881  34.263  1.00  0.00    -0.237 OA
ATOM     94  O   UNL A   1      43.879  44.208  32.293  1.00  0.00    -0.744 OA
ENDBRANCH  90  91
ENDBRANCH  64  85
ENDBRANCH  38  39
ENDBRANCH  31  33
ENDBRANCH  30  31
ENDBRANCH  29  30
ENDBRANCH  28  29
ENDBRANCH  27  28
ENDBRANCH   1  27
TORSDOF 23
ENDMDL
