MODEL 1
REMARK VINA RESULT:     -10.7      0.000      0.000
REMARK SMILES O=C(OCCOCCOC(=O)c1cc(NC(=O)c2ccc(Br)o2)ccc1O)c1ccc(-c2c3nc(c(-c4ccc(S(=O)(=O)[O-])cc4)c4ccc([nH]4)c(-c4ccc(S(=O)(=O)[O-])cc4)c4nc(c(-c5ccc(S(=O)(=O)[O-])cc5)c5ccc2[nH]5)C=C4)C=C3)cc1
REMARK SMILES IDX 5 1 4 2 3 3 2 4 1 5 28 6 29 7 87 8 30 9 86 10 31 11 32 12
REMARK SMILES IDX 33 13 80 14 34 15 85 16 79 17 81 18 35 19 84 20 78 21 77 22
REMARK SMILES IDX 36 24 66 25 47 26 65 27 48 28 51 29 64 30 82 31 49 32 50 33
REMARK SMILES IDX 63 35 83 36 52 37 37 38 38 39 46 40 39 41 45 42 40 43 41 44
REMARK SMILES IDX 42 45 43 46 44 47 67 48 68 49 76 50 69 51 75 52 70 53 71 54
REMARK SMILES IDX 72 55 73 56 74 57 53 58 54 59 62 60 55 61 61 62 56 63 57 64
REMARK SMILES IDX 58 65 59 66 60 67 6 68 7 69 8 70 9 71 10 72 11 73 12 74
REMARK SMILES IDX 13 75 26 76 14 77 25 78 24 79 27 80 15 82 16 83 17 85 18 86
REMARK SMILES IDX 19 87 23 88 20 89 21 90 22 91
REMARK H PARENT 81 23 51 34 27 81 15 84
REMARK Flexibility Score: inf
ROOT
ATOM      1  C   UNL A   1      33.709  28.290  25.610  1.00  0.00     0.202 C 
ENDROOT
BRANCH   1   2
ATOM      2  C   UNL A   1      33.434  28.532  27.093  1.00  0.00     0.261 C 
BRANCH   2   3
ATOM      3  O   UNL A   1      33.513  29.932  27.381  1.00  0.00    -0.460 OA
BRANCH   3   4
ATOM      4  C   UNL A   1      34.497  30.594  28.031  1.00  0.00     0.338 C 
ATOM      5  O   UNL A   1      34.212  31.680  28.539  1.00  0.00    -0.246 OA
BRANCH   4   6
ATOM      6  C   UNL A   1      35.899  30.094  28.206  1.00  0.00     0.060 A 
ATOM      7  C   UNL A   1      36.903  30.067  27.230  1.00  0.00     0.016 A 
ATOM      8  C   UNL A   1      36.256  29.720  29.513  1.00  0.00     0.016 A 
ATOM      9  C   UNL A   1      38.216  29.709  27.534  1.00  0.00     0.010 A 
ATOM     10  C   UNL A   1      37.568  29.365  29.830  1.00  0.00     0.010 A 
ATOM     11  C   UNL A   1      38.553  29.369  28.837  1.00  0.00    -0.014 A 
BRANCH  11  12
ATOM     12  C   UNL A   1      39.926  28.949  29.156  1.00  0.00     0.031 A 
ATOM     13  C   UNL A   1      40.856  29.957  29.747  1.00  0.00     0.074 A 
ATOM     14  C   UNL A   1      40.316  27.689  28.900  1.00  0.00     0.049 A 
ATOM     15  N   UNL A   1      42.144  29.884  29.932  1.00  0.00    -0.248 NA
ATOM     16  C   UNL A   1      40.245  31.225  30.182  1.00  0.00     0.031 C 
ATOM     17  C   UNL A   1      39.443  26.617  28.415  1.00  0.00     0.029 A 
ATOM     18  N   UNL A   1      41.549  27.101  28.996  1.00  0.00    -0.354 N 
ATOM     19  C   UNL A   1      42.510  31.112  30.466  1.00  0.00     0.074 A 
ATOM     20  C   UNL A   1      41.307  31.906  30.583  1.00  0.00     0.031 C 
ATOM     21  C   UNL A   1      40.177  25.507  28.233  1.00  0.00     0.029 A 
ATOM     22  C   UNL A   1      41.574  25.809  28.530  1.00  0.00     0.049 A 
ATOM     23  H   UNL A   1      42.340  27.561  29.361  1.00  0.00     0.167 HD
ATOM     24  C   UNL A   1      43.750  31.538  30.799  1.00  0.00     0.031 A 
ATOM     25  C   UNL A   1      42.619  24.985  28.320  1.00  0.00     0.031 A 
ATOM     26  C   UNL A   1      44.927  30.731  30.630  1.00  0.00     0.049 A 
ATOM     27  C   UNL A   1      43.999  25.497  28.635  1.00  0.00     0.074 A 
ATOM     28  C   UNL A   1      46.245  31.060  30.878  1.00  0.00     0.029 A 
ATOM     29  N   UNL A   1      44.915  29.425  30.155  1.00  0.00    -0.354 N 
ATOM     30  N   UNL A   1      44.350  26.676  29.098  1.00  0.00    -0.248 NA
ATOM     31  C   UNL A   1      45.122  24.583  28.396  1.00  0.00     0.031 C 
ATOM     32  C   UNL A   1      47.035  29.964  30.512  1.00  0.00     0.029 A 
ATOM     33  C   UNL A   1      46.205  28.934  30.090  1.00  0.00     0.049 A 
ATOM     34  H   UNL A   1      44.107  28.923  29.902  1.00  0.00     0.167 HD
ATOM     35  C   UNL A   1      45.732  26.639  29.228  1.00  0.00     0.074 A 
ATOM     36  C   UNL A   1      46.153  25.319  28.796  1.00  0.00     0.031 C 
ATOM     37  C   UNL A   1      46.577  27.605  29.665  1.00  0.00     0.031 A 
BRANCH  24  38
ATOM     38  C   UNL A   1      43.870  32.961  31.270  1.00  0.00    -0.014 A 
ATOM     39  C   UNL A   1      44.087  34.020  30.367  1.00  0.00     0.010 A 
ATOM     40  C   UNL A   1      43.846  33.233  32.649  1.00  0.00     0.010 A 
ATOM     41  C   UNL A   1      44.357  35.307  30.841  1.00  0.00     0.020 A 
ATOM     42  C   UNL A   1      44.086  34.525  33.125  1.00  0.00     0.020 A 
ATOM     43  C   UNL A   1      44.375  35.546  32.219  1.00  0.00     0.054 A 
BRANCH  43  44
ATOM     44  S   UNL A   1      44.796  37.208  32.814  1.00  0.00     0.124 S 
ATOM     45  O   UNL A   1      43.739  37.450  33.794  1.00  0.00    -0.237 OA
ATOM     46  O   UNL A   1      46.135  37.025  33.368  1.00  0.00    -0.237 OA
ATOM     47  O   UNL A   1      44.730  38.034  31.610  1.00  0.00    -0.744 OA
ENDBRANCH  43  44
ENDBRANCH  24  38
BRANCH  25  48
ATOM     48  C   UNL A   1      42.385  23.633  27.744  1.00  0.00    -0.014 A 
ATOM     49  C   UNL A   1      42.470  23.414  26.359  1.00  0.00     0.010 A 
ATOM     50  C   UNL A   1      42.146  22.534  28.592  1.00  0.00     0.010 A 
ATOM     51  C   UNL A   1      42.331  22.123  25.835  1.00  0.00     0.020 A 
ATOM     52  C   UNL A   1      42.032  21.240  28.075  1.00  0.00     0.020 A 
ATOM     53  C   UNL A   1      42.123  21.043  26.697  1.00  0.00     0.054 A 
BRANCH  53  54
ATOM     54  S   UNL A   1      42.042  19.367  26.003  1.00  0.00     0.124 S 
ATOM     55  O   UNL A   1      42.925  19.474  24.846  1.00  0.00    -0.237 OA
ATOM     56  O   UNL A   1      42.539  18.543  27.103  1.00  0.00    -0.237 OA
ATOM     57  O   UNL A   1      40.624  19.191  25.696  1.00  0.00    -0.744 OA
ENDBRANCH  53  54
ENDBRANCH  25  48
BRANCH  37  58
ATOM     58  C   UNL A   1      48.038  27.264  29.746  1.00  0.00    -0.014 A 
ATOM     59  C   UNL A   1      48.900  27.500  28.663  1.00  0.00     0.010 A 
ATOM     60  C   UNL A   1      48.569  26.825  30.973  1.00  0.00     0.010 A 
ATOM     61  C   UNL A   1      50.276  27.309  28.809  1.00  0.00     0.020 A 
ATOM     62  C   UNL A   1      49.945  26.654  31.127  1.00  0.00     0.020 A 
ATOM     63  C   UNL A   1      50.790  26.897  30.043  1.00  0.00     0.054 A 
BRANCH  63  64
ATOM     64  S   UNL A   1      52.589  26.765  30.241  1.00  0.00     0.124 S 
ATOM     65  O   UNL A   1      53.025  26.492  28.873  1.00  0.00    -0.237 OA
ATOM     66  O   UNL A   1      52.952  28.077  30.767  1.00  0.00    -0.237 OA
ATOM     67  O   UNL A   1      52.754  25.657  31.180  1.00  0.00    -0.744 OA
ENDBRANCH  63  64
ENDBRANCH  37  58
ENDBRANCH  11  12
ENDBRANCH   4   6
ENDBRANCH   3   4
ENDBRANCH   2   3
ENDBRANCH   1   2
BRANCH   1  68
ATOM     68  O   UNL A   1      32.921  29.131  24.772  1.00  0.00    -0.374 OA
BRANCH  68  69
ATOM     69  C   UNL A   1      33.344  29.209  23.409  1.00  0.00     0.202 C 
BRANCH  69  70
ATOM     70  C   UNL A   1      34.177  27.976  23.070  1.00  0.00     0.261 C 
BRANCH  70  71
ATOM     71  O   UNL A   1      33.433  27.180  22.134  1.00  0.00    -0.460 OA
BRANCH  71  72
ATOM     72  C   UNL A   1      33.086  25.938  22.555  1.00  0.00     0.342 C 
ATOM     73  O   UNL A   1      33.782  24.935  22.561  1.00  0.00    -0.246 OA
BRANCH  72  74
ATOM     74  C   UNL A   1      31.778  26.012  23.244  1.00  0.00     0.103 A 
ATOM     75  C   UNL A   1      31.630  25.283  24.447  1.00  0.00     0.045 A 
ATOM     76  C   UNL A   1      30.727  26.803  22.766  1.00  0.00     0.130 A 
ATOM     77  C   UNL A   1      30.443  25.367  25.173  1.00  0.00     0.042 A 
ATOM     78  C   UNL A   1      29.538  26.879  23.481  1.00  0.00     0.049 A 
ATOM     79  C   UNL A   1      29.400  26.159  24.670  1.00  0.00     0.030 A 
BRANCH  76  80
ATOM     80  O   UNL A   1      30.838  27.482  21.587  1.00  0.00    -0.507 OA
ATOM     81  H   UNL A   1      31.526  28.108  21.469  1.00  0.00     0.293 HD
ENDBRANCH  76  80
BRANCH  77  82
ATOM     82  N   UNL A   1      30.157  24.642  26.340  1.00  0.00    -0.319 N 
ATOM     83  C   UNL A   1      30.396  23.349  26.745  1.00  0.00     0.291 C 
ATOM     84  H   UNL A   1      29.682  25.177  27.017  1.00  0.00     0.170 HD
ATOM     85  O   UNL A   1      29.711  22.936  27.684  1.00  0.00    -0.265 OA
BRANCH  83  86
ATOM     86  C   UNL A   1      31.502  22.592  26.216  1.00  0.00     0.193 A 
ATOM     87  C   UNL A   1      32.849  22.597  26.538  1.00  0.00     0.057 A 
ATOM     88  O   UNL A   1      31.237  21.541  25.382  1.00  0.00    -0.444 OA
ATOM     89  C   UNL A   1      33.425  21.478  25.884  1.00  0.00     0.059 A 
ATOM     90  C   UNL A   1      32.407  20.879  25.179  1.00  0.00     0.170 A 
ATOM     91  Br  UNL A   1      32.591  19.344  24.136  1.00  0.00    -0.008 Br
ENDBRANCH  83  86
ENDBRANCH  77  82
ENDBRANCH  72  74
ENDBRANCH  71  72
ENDBRANCH  70  71
ENDBRANCH  69  70
ENDBRANCH  68  69
ENDBRANCH   1  68
TORSDOF 20
ENDMDL
MODEL 2
REMARK VINA RESULT:     -10.4      2.628      4.112
REMARK SMILES O=C(OCCOCCOC(=O)c1cc(NC(=O)c2ccc(Br)o2)ccc1O)c1ccc(-c2c3nc(c(-c4ccc(S(=O)(=O)[O-])cc4)c4ccc([nH]4)c(-c4ccc(S(=O)(=O)[O-])cc4)c4nc(c(-c5ccc(S(=O)(=O)[O-])cc5)c5ccc2[nH]5)C=C4)C=C3)cc1
REMARK SMILES IDX 5 1 4 2 3 3 2 4 1 5 28 6 29 7 87 8 30 9 86 10 31 11 32 12
REMARK SMILES IDX 33 13 80 14 34 15 85 16 79 17 81 18 35 19 84 20 78 21 77 22
REMARK SMILES IDX 36 24 66 25 47 26 65 27 48 28 51 29 64 30 82 31 49 32 50 33
REMARK SMILES IDX 63 35 83 36 52 37 37 38 38 39 46 40 39 41 45 42 40 43 41 44
REMARK SMILES IDX 42 45 43 46 44 47 67 48 68 49 76 50 69 51 75 52 70 53 71 54
REMARK SMILES IDX 72 55 73 56 74 57 53 58 54 59 62 60 55 61 61 62 56 63 57 64
REMARK SMILES IDX 58 65 59 66 60 67 6 68 7 69 8 70 9 71 10 72 11 73 12 74
REMARK SMILES IDX 13 75 26 76 14 77 25 78 24 79 27 80 15 82 16 83 17 85 18 86
REMARK SMILES IDX 19 87 23 88 20 89 21 90 22 91
REMARK H PARENT 81 23 51 34 27 81 15 84
REMARK Flexibility Score: inf
ROOT
ATOM      1  C   UNL A   1      33.337  29.536  27.149  1.00  0.00     0.202 C 
ENDROOT
BRANCH   1   2
ATOM      2  C   UNL A   1      34.808  29.363  27.521  1.00  0.00     0.261 C 
BRANCH   2   3
ATOM      3  O   UNL A   1      35.203  30.387  28.440  1.00  0.00    -0.460 OA
BRANCH   3   4
ATOM      4  C   UNL A   1      36.216  30.358  29.335  1.00  0.00     0.338 C 
ATOM      5  O   UNL A   1      35.986  30.781  30.468  1.00  0.00    -0.246 OA
BRANCH   4   6
ATOM      6  C   UNL A   1      37.589  29.820  29.061  1.00  0.00     0.060 A 
ATOM      7  C   UNL A   1      38.165  29.604  27.803  1.00  0.00     0.016 A 
ATOM      8  C   UNL A   1      38.403  29.622  30.189  1.00  0.00     0.016 A 
ATOM      9  C   UNL A   1      39.500  29.230  27.659  1.00  0.00     0.010 A 
ATOM     10  C   UNL A   1      39.743  29.253  30.056  1.00  0.00     0.010 A 
ATOM     11  C   UNL A   1      40.295  29.066  28.785  1.00  0.00    -0.014 A 
BRANCH  11  12
ATOM     12  C   UNL A   1      41.692  28.630  28.642  1.00  0.00     0.031 A 
ATOM     13  C   UNL A   1      42.771  29.654  28.776  1.00  0.00     0.074 A 
ATOM     14  C   UNL A   1      41.967  27.340  28.383  1.00  0.00     0.049 A 
ATOM     15  N   UNL A   1      44.042  29.555  28.506  1.00  0.00    -0.248 NA
ATOM     16  C   UNL A   1      42.351  30.974  29.278  1.00  0.00     0.031 C 
ATOM     17  C   UNL A   1      40.979  26.260  28.334  1.00  0.00     0.029 A 
ATOM     18  N   UNL A   1      43.155  26.723  28.097  1.00  0.00    -0.354 N 
ATOM     19  C   UNL A   1      44.573  30.812  28.763  1.00  0.00     0.074 A 
ATOM     20  C   UNL A   1      43.488  31.652  29.218  1.00  0.00     0.031 C 
ATOM     21  C   UNL A   1      41.603  25.115  28.011  1.00  0.00     0.029 A 
ATOM     22  C   UNL A   1      43.014  25.395  27.773  1.00  0.00     0.049 A 
ATOM     23  H   UNL A   1      44.024  27.186  28.120  1.00  0.00     0.167 HD
ATOM     24  C   UNL A   1      45.851  31.224  28.602  1.00  0.00     0.031 A 
ATOM     25  C   UNL A   1      43.920  24.523  27.288  1.00  0.00     0.031 A 
ATOM     26  C   UNL A   1      46.893  30.368  28.107  1.00  0.00     0.049 A 
ATOM     27  C   UNL A   1      45.323  25.014  27.053  1.00  0.00     0.074 A 
ATOM     28  C   UNL A   1      48.215  30.672  27.849  1.00  0.00     0.029 A 
ATOM     29  N   UNL A   1      46.716  29.026  27.790  1.00  0.00    -0.354 N 
ATOM     30  N   UNL A   1      45.814  26.217  27.254  1.00  0.00    -0.248 NA
ATOM     31  C   UNL A   1      46.290  24.047  26.523  1.00  0.00     0.031 C 
ATOM     32  C   UNL A   1      48.826  29.524  27.333  1.00  0.00     0.029 A 
ATOM     33  C   UNL A   1      47.900  28.489  27.324  1.00  0.00     0.049 A 
ATOM     34  H   UNL A   1      45.870  28.531  27.882  1.00  0.00     0.167 HD
ATOM     35  C   UNL A   1      47.154  26.146  26.896  1.00  0.00     0.074 A 
ATOM     36  C   UNL A   1      47.396  24.780  26.469  1.00  0.00     0.031 C 
ATOM     37  C   UNL A   1      48.100  27.117  26.920  1.00  0.00     0.031 A 
BRANCH  24  38
ATOM     38  C   UNL A   1      46.129  32.678  28.867  1.00  0.00    -0.014 A 
ATOM     39  C   UNL A   1      45.989  33.651  27.859  1.00  0.00     0.010 A 
ATOM     40  C   UNL A   1      46.618  33.065  30.128  1.00  0.00     0.010 A 
ATOM     41  C   UNL A   1      46.408  34.965  28.084  1.00  0.00     0.020 A 
ATOM     42  C   UNL A   1      47.011  34.384  30.366  1.00  0.00     0.020 A 
ATOM     43  C   UNL A   1      46.935  35.318  29.331  1.00  0.00     0.054 A 
BRANCH  43  44
ATOM     44  S   UNL A   1      47.538  37.012  29.579  1.00  0.00     0.124 S 
ATOM     45  O   UNL A   1      47.866  37.415  28.213  1.00  0.00    -0.237 OA
ATOM     46  O   UNL A   1      46.384  37.683  30.171  1.00  0.00    -0.237 OA
ATOM     47  O   UNL A   1      48.684  36.844  30.471  1.00  0.00    -0.744 OA
ENDBRANCH  43  44
ENDBRANCH  24  38
BRANCH  25  48
ATOM     48  C   UNL A   1      43.498  23.134  26.958  1.00  0.00    -0.014 A 
ATOM     49  C   UNL A   1      43.821  22.558  25.718  1.00  0.00     0.010 A 
ATOM     50  C   UNL A   1      42.830  22.350  27.918  1.00  0.00     0.010 A 
ATOM     51  C   UNL A   1      43.494  21.224  25.449  1.00  0.00     0.020 A 
ATOM     52  C   UNL A   1      42.523  21.009  27.663  1.00  0.00     0.020 A 
ATOM     53  C   UNL A   1      42.855  20.455  26.427  1.00  0.00     0.054 A 
BRANCH  53  54
ATOM     54  S   UNL A   1      42.528  18.701  26.091  1.00  0.00     0.124 S 
ATOM     55  O   UNL A   1      42.826  18.083  27.379  1.00  0.00    -0.237 OA
ATOM     56  O   UNL A   1      41.119  18.709  25.704  1.00  0.00    -0.237 OA
ATOM     57  O   UNL A   1      43.459  18.379  25.010  1.00  0.00    -0.744 OA
ENDBRANCH  53  54
ENDBRANCH  25  48
BRANCH  37  58
ATOM     58  C   UNL A   1      49.496  26.737  26.518  1.00  0.00    -0.014 A 
ATOM     59  C   UNL A   1      50.293  25.926  27.341  1.00  0.00     0.010 A 
ATOM     60  C   UNL A   1      49.957  27.091  25.236  1.00  0.00     0.010 A 
ATOM     61  C   UNL A   1      51.532  25.468  26.885  1.00  0.00     0.020 A 
ATOM     62  C   UNL A   1      51.183  26.618  24.770  1.00  0.00     0.020 A 
ATOM     63  C   UNL A   1      51.964  25.809  25.598  1.00  0.00     0.054 A 
BRANCH  63  64
ATOM     64  S   UNL A   1      53.522  25.110  24.986  1.00  0.00     0.124 S 
ATOM     65  O   UNL A   1      53.344  23.686  25.258  1.00  0.00    -0.237 OA
ATOM     66  O   UNL A   1      53.511  25.487  23.575  1.00  0.00    -0.237 OA
ATOM     67  O   UNL A   1      54.542  25.777  25.793  1.00  0.00    -0.744 OA
ENDBRANCH  63  64
ENDBRANCH  37  58
ENDBRANCH  11  12
ENDBRANCH   4   6
ENDBRANCH   3   4
ENDBRANCH   2   3
ENDBRANCH   1   2
BRANCH   1  68
ATOM     68  O   UNL A   1      32.887  28.528  26.249  1.00  0.00    -0.374 OA
BRANCH  68  69
ATOM     69  C   UNL A   1      31.745  27.783  26.682  1.00  0.00     0.202 C 
BRANCH  69  70
ATOM     70  C   UNL A   1      32.017  26.293  26.494  1.00  0.00     0.261 C 
BRANCH  70  71
ATOM     71  O   UNL A   1      30.878  25.712  25.840  1.00  0.00    -0.460 OA
BRANCH  71  72
ATOM     72  C   UNL A   1      30.681  24.388  26.055  1.00  0.00     0.342 C 
ATOM     73  O   UNL A   1      29.937  23.872  26.873  1.00  0.00    -0.246 OA
BRANCH  72  74
ATOM     74  C   UNL A   1      31.339  23.623  24.972  1.00  0.00     0.103 A 
ATOM     75  C   UNL A   1      31.790  24.344  23.842  1.00  0.00     0.045 A 
ATOM     76  C   UNL A   1      31.559  22.243  25.061  1.00  0.00     0.130 A 
ATOM     77  C   UNL A   1      32.475  23.686  22.821  1.00  0.00     0.042 A 
ATOM     78  C   UNL A   1      32.230  21.583  24.040  1.00  0.00     0.049 A 
ATOM     79  C   UNL A   1      32.676  22.301  22.928  1.00  0.00     0.030 A 
BRANCH  76  80
ATOM     80  O   UNL A   1      31.096  21.525  26.126  1.00  0.00    -0.507 OA
ATOM     81  H   UNL A   1      30.232  21.677  26.454  1.00  0.00     0.293 HD
ENDBRANCH  76  80
BRANCH  77  82
ATOM     82  N   UNL A   1      32.911  24.280  21.628  1.00  0.00    -0.319 N 
ATOM     83  C   UNL A   1      32.696  25.504  21.035  1.00  0.00     0.291 C 
ATOM     84  H   UNL A   1      33.500  23.694  21.099  1.00  0.00     0.170 HD
ATOM     85  O   UNL A   1      32.943  25.576  19.828  1.00  0.00    -0.265 OA
BRANCH  83  86
ATOM     86  C   UNL A   1      32.372  26.669  21.819  1.00  0.00     0.193 A 
ATOM     87  C   UNL A   1      33.182  27.607  22.436  1.00  0.00     0.057 A 
ATOM     88  O   UNL A   1      31.072  27.092  21.856  1.00  0.00    -0.444 OA
ATOM     89  C   UNL A   1      32.331  28.665  22.847  1.00  0.00     0.059 A 
ATOM     90  C   UNL A   1      31.056  28.296  22.487  1.00  0.00     0.170 A 
ATOM     91  Br  UNL A   1      29.527  29.323  22.775  1.00  0.00    -0.008 Br
ENDBRANCH  83  86
ENDBRANCH  77  82
ENDBRANCH  72  74
ENDBRANCH  71  72
ENDBRANCH  70  71
ENDBRANCH  69  70
ENDBRANCH  68  69
ENDBRANCH   1  68
TORSDOF 20
ENDMDL
MODEL 3
REMARK VINA RESULT:     -10.3      4.577      9.416
REMARK SMILES O=C(OCCOCCOC(=O)c1cc(NC(=O)c2ccc(Br)o2)ccc1O)c1ccc(-c2c3nc(c(-c4ccc(S(=O)(=O)[O-])cc4)c4ccc([nH]4)c(-c4ccc(S(=O)(=O)[O-])cc4)c4nc(c(-c5ccc(S(=O)(=O)[O-])cc5)c5ccc2[nH]5)C=C4)C=C3)cc1
REMARK SMILES IDX 5 1 4 2 3 3 2 4 1 5 28 6 29 7 87 8 30 9 86 10 31 11 32 12
REMARK SMILES IDX 33 13 80 14 34 15 85 16 79 17 81 18 35 19 84 20 78 21 77 22
REMARK SMILES IDX 36 24 66 25 47 26 65 27 48 28 51 29 64 30 82 31 49 32 50 33
REMARK SMILES IDX 63 35 83 36 52 37 37 38 38 39 46 40 39 41 45 42 40 43 41 44
REMARK SMILES IDX 42 45 43 46 44 47 67 48 68 49 76 50 69 51 75 52 70 53 71 54
REMARK SMILES IDX 72 55 73 56 74 57 53 58 54 59 62 60 55 61 61 62 56 63 57 64
REMARK SMILES IDX 58 65 59 66 60 67 6 68 7 69 8 70 9 71 10 72 11 73 12 74
REMARK SMILES IDX 13 75 26 76 14 77 25 78 24 79 27 80 15 82 16 83 17 85 18 86
REMARK SMILES IDX 19 87 23 88 20 89 21 90 22 91
REMARK H PARENT 81 23 51 34 27 81 15 84
REMARK Flexibility Score: inf
ROOT
ATOM      1  C   UNL A   1      31.672  31.566  26.781  1.00  0.00     0.202 C 
ENDROOT
BRANCH   1   2
ATOM      2  C   UNL A   1      32.952  32.296  27.182  1.00  0.00     0.261 C 
BRANCH   2   3
ATOM      3  O   UNL A   1      32.629  33.556  27.780  1.00  0.00    -0.460 OA
BRANCH   3   4
ATOM      4  C   UNL A   1      33.279  34.195  28.778  1.00  0.00     0.338 C 
ATOM      5  O   UNL A   1      32.738  35.190  29.264  1.00  0.00    -0.246 OA
BRANCH   4   6
ATOM      6  C   UNL A   1      34.594  33.767  29.360  1.00  0.00     0.060 A 
ATOM      7  C   UNL A   1      35.857  34.274  29.029  1.00  0.00     0.016 A 
ATOM      8  C   UNL A   1      34.522  32.844  30.417  1.00  0.00     0.016 A 
ATOM      9  C   UNL A   1      37.004  33.905  29.729  1.00  0.00     0.010 A 
ATOM     10  C   UNL A   1      35.664  32.471  31.127  1.00  0.00     0.010 A 
ATOM     11  C   UNL A   1      36.908  33.011  30.788  1.00  0.00    -0.014 A 
BRANCH  11  12
ATOM     12  C   UNL A   1      38.121  32.584  31.502  1.00  0.00     0.031 A 
ATOM     13  C   UNL A   1      38.951  31.499  30.900  1.00  0.00     0.074 A 
ATOM     14  C   UNL A   1      38.446  33.161  32.671  1.00  0.00     0.049 A 
ATOM     15  N   UNL A   1      39.940  30.830  31.423  1.00  0.00    -0.248 NA
ATOM     16  C   UNL A   1      38.611  31.113  29.520  1.00  0.00     0.031 C 
ATOM     17  C   UNL A   1      37.743  34.293  33.278  1.00  0.00     0.029 A 
ATOM     18  N   UNL A   1      39.440  32.863  33.564  1.00  0.00    -0.354 N 
ATOM     19  C   UNL A   1      40.317  29.910  30.453  1.00  0.00     0.074 A 
ATOM     20  C   UNL A   1      39.456  30.115  29.309  1.00  0.00     0.031 C 
ATOM     21  C   UNL A   1      38.316  34.578  34.459  1.00  0.00     0.029 A 
ATOM     22  C   UNL A   1      39.380  33.613  34.714  1.00  0.00     0.049 A 
ATOM     23  H   UNL A   1      40.128  32.177  33.400  1.00  0.00     0.167 HD
ATOM     24  C   UNL A   1      41.280  28.964  30.532  1.00  0.00     0.031 A 
ATOM     25  C   UNL A   1      40.077  33.493  35.862  1.00  0.00     0.031 A 
ATOM     26  C   UNL A   1      42.088  28.767  31.704  1.00  0.00     0.049 A 
ATOM     27  C   UNL A   1      41.100  32.394  35.958  1.00  0.00     0.074 A 
ATOM     28  C   UNL A   1      43.061  27.814  31.934  1.00  0.00     0.029 A 
ATOM     29  N   UNL A   1      42.002  29.546  32.851  1.00  0.00    -0.354 N 
ATOM     30  N   UNL A   1      41.425  31.496  35.056  1.00  0.00    -0.248 NA
ATOM     31  C   UNL A   1      41.844  32.283  37.218  1.00  0.00     0.031 C 
ATOM     32  C   UNL A   1      43.532  27.991  33.241  1.00  0.00     0.029 A 
ATOM     33  C   UNL A   1      42.895  29.090  33.802  1.00  0.00     0.049 A 
ATOM     34  H   UNL A   1      41.394  30.311  32.971  1.00  0.00     0.167 HD
ATOM     35  C   UNL A   1      42.428  30.724  35.630  1.00  0.00     0.074 A 
ATOM     36  C   UNL A   1      42.657  31.265  36.956  1.00  0.00     0.031 C 
ATOM     37  C   UNL A   1      43.100  29.668  35.109  1.00  0.00     0.031 A 
BRANCH  24  38
ATOM     38  C   UNL A   1      41.410  28.034  29.358  1.00  0.00    -0.014 A 
ATOM     39  C   UNL A   1      40.599  26.890  29.231  1.00  0.00     0.010 A 
ATOM     40  C   UNL A   1      42.419  28.265  28.406  1.00  0.00     0.010 A 
ATOM     41  C   UNL A   1      40.848  25.957  28.221  1.00  0.00     0.020 A 
ATOM     42  C   UNL A   1      42.652  27.349  27.377  1.00  0.00     0.020 A 
ATOM     43  C   UNL A   1      41.887  26.184  27.312  1.00  0.00     0.054 A 
BRANCH  43  44
ATOM     44  S   UNL A   1      42.238  24.927  26.052  1.00  0.00     0.124 S 
ATOM     45  O   UNL A   1      43.593  24.512  26.413  1.00  0.00    -0.237 OA
ATOM     46  O   UNL A   1      41.195  23.932  26.286  1.00  0.00    -0.237 OA
ATOM     47  O   UNL A   1      42.127  25.658  24.792  1.00  0.00    -0.744 OA
ENDBRANCH  43  44
ENDBRANCH  24  38
BRANCH  25  48
ATOM     48  C   UNL A   1      39.781  34.407  36.999  1.00  0.00    -0.014 A 
ATOM     49  C   UNL A   1      38.993  33.980  38.081  1.00  0.00     0.010 A 
ATOM     50  C   UNL A   1      40.351  35.694  37.040  1.00  0.00     0.010 A 
ATOM     51  C   UNL A   1      38.790  34.817  39.185  1.00  0.00     0.020 A 
ATOM     52  C   UNL A   1      40.171  36.524  38.151  1.00  0.00     0.020 A 
ATOM     53  C   UNL A   1      39.389  36.080  39.217  1.00  0.00     0.054 A 
BRANCH  53  54
ATOM     54  S   UNL A   1      39.190  37.109  40.700  1.00  0.00     0.124 S 
ATOM     55  O   UNL A   1      40.576  37.381  41.070  1.00  0.00    -0.237 OA
ATOM     56  O   UNL A   1      38.434  38.252  40.195  1.00  0.00    -0.237 OA
ATOM     57  O   UNL A   1      38.454  36.244  41.621  1.00  0.00    -0.744 OA
ENDBRANCH  53  54
ENDBRANCH  25  48
BRANCH  37  58
ATOM     58  C   UNL A   1      44.180  29.050  35.950  1.00  0.00    -0.014 A 
ATOM     59  C   UNL A   1      43.895  28.007  36.846  1.00  0.00     0.010 A 
ATOM     60  C   UNL A   1      45.516  29.436  35.735  1.00  0.00     0.010 A 
ATOM     61  C   UNL A   1      44.934  27.352  37.512  1.00  0.00     0.020 A 
ATOM     62  C   UNL A   1      46.557  28.770  36.383  1.00  0.00     0.020 A 
ATOM     63  C   UNL A   1      46.259  27.732  37.268  1.00  0.00     0.054 A 
BRANCH  63  64
ATOM     64  S   UNL A   1      47.596  26.793  38.057  1.00  0.00     0.124 S 
ATOM     65  O   UNL A   1      48.461  26.485  36.921  1.00  0.00    -0.237 OA
ATOM     66  O   UNL A   1      48.137  27.751  39.017  1.00  0.00    -0.237 OA
ATOM     67  O   UNL A   1      46.912  25.646  38.649  1.00  0.00    -0.744 OA
ENDBRANCH  63  64
ENDBRANCH  37  58
ENDBRANCH  11  12
ENDBRANCH   4   6
ENDBRANCH   3   4
ENDBRANCH   2   3
ENDBRANCH   1   2
BRANCH   1  68
ATOM     68  O   UNL A   1      31.781  30.156  26.947  1.00  0.00    -0.374 OA
BRANCH  68  69
ATOM     69  C   UNL A   1      32.825  29.529  26.198  1.00  0.00     0.202 C 
BRANCH  69  70
ATOM     70  C   UNL A   1      32.451  29.527  24.718  1.00  0.00     0.261 C 
BRANCH  70  71
ATOM     71  O   UNL A   1      31.037  29.294  24.618  1.00  0.00    -0.460 OA
BRANCH  71  72
ATOM     72  C   UNL A   1      30.611  28.715  23.468  1.00  0.00     0.342 C 
ATOM     73  O   UNL A   1      30.377  29.264  22.403  1.00  0.00    -0.246 OA
BRANCH  72  74
ATOM     74  C   UNL A   1      30.690  27.243  23.613  1.00  0.00     0.103 A 
ATOM     75  C   UNL A   1      30.296  26.687  24.853  1.00  0.00     0.045 A 
ATOM     76  C   UNL A   1      31.092  26.411  22.563  1.00  0.00     0.130 A 
ATOM     77  C   UNL A   1      30.287  25.304  25.026  1.00  0.00     0.042 A 
ATOM     78  C   UNL A   1      31.096  25.032  22.737  1.00  0.00     0.049 A 
ATOM     79  C   UNL A   1      30.704  24.489  23.962  1.00  0.00     0.030 A 
BRANCH  76  80
ATOM     80  O   UNL A   1      31.513  26.932  21.374  1.00  0.00    -0.507 OA
ATOM     81  H   UNL A   1      31.099  27.697  21.025  1.00  0.00     0.293 HD
ENDBRANCH  76  80
BRANCH  77  82
ATOM     82  N   UNL A   1      29.981  24.642  26.224  1.00  0.00    -0.319 N 
ATOM     83  C   UNL A   1      30.348  23.433  26.770  1.00  0.00     0.291 C 
ATOM     84  H   UNL A   1      29.369  25.156  26.801  1.00  0.00     0.170 HD
ATOM     85  O   UNL A   1      29.630  23.003  27.676  1.00  0.00    -0.265 OA
BRANCH  83  86
ATOM     86  C   UNL A   1      31.596  22.803  26.420  1.00  0.00     0.193 A 
ATOM     87  C   UNL A   1      32.890  23.038  26.853  1.00  0.00     0.057 A 
ATOM     88  O   UNL A   1      31.564  21.653  25.680  1.00  0.00    -0.444 OA
ATOM     89  C   UNL A   1      33.678  21.961  26.372  1.00  0.00     0.059 A 
ATOM     90  C   UNL A   1      32.829  21.156  25.649  1.00  0.00     0.170 A 
ATOM     91  Br  UNL A   1      33.328  19.577  24.792  1.00  0.00    -0.008 Br
ENDBRANCH  83  86
ENDBRANCH  77  82
ENDBRANCH  72  74
ENDBRANCH  71  72
ENDBRANCH  70  71
ENDBRANCH  69  70
ENDBRANCH  68  69
ENDBRANCH   1  68
TORSDOF 20
ENDMDL
