MODEL 1
REMARK VINA RESULT:     -10.7      0.000      0.000
REMARK SMILES C[C@H]1OCC[C@H]1c1nnnn1CCC(=O)OCCOCCOC(=O)c1ccc(-c2c3nc(c(-c4ccc(S(=O)(=O)[O-])cc4)c4ccc([nH]4)c(-c4ccc(S(=O)(=O)[O-])cc4)c4nc(c(-c5ccc(S(=O)(=O)[O-])cc5)c5ccc2[nH]5)C=C4)C=C3)cc1
REMARK SMILES IDX 19 1 18 2 17 3 16 4 14 5 15 6 13 7 12 8 11 9 7 10 8 11 9 12
REMARK SMILES IDX 10 13 6 14 1 15 2 16 3 17 4 18 5 19 20 20 21 21 22 22 23 23
REMARK SMILES IDX 24 24 25 25 26 26 84 27 27 28 83 29 28 30 29 31 30 32 77 33
REMARK SMILES IDX 31 34 82 35 76 36 78 37 32 38 81 39 75 40 74 41 33 43 63 44
REMARK SMILES IDX 44 45 62 46 45 47 48 48 61 49 79 50 46 51 47 52 60 54 80 55
REMARK SMILES IDX 49 56 34 57 35 58 43 59 36 60 42 61 37 62 38 63 39 64 40 65
REMARK SMILES IDX 41 66 64 67 65 68 73 69 66 70 72 71 67 72 68 73 69 74 70 75
REMARK SMILES IDX 71 76 50 77 51 78 59 79 52 80 58 81 53 82 54 83 55 84 56 85
REMARK SMILES IDX 57 86
REMARK H PARENT 78 42 48 53
REMARK Flexibility Score: inf
ROOT
ATOM      1  O   UNL A   1      35.861  21.115  24.619  1.00  0.00    -0.374 OA
ENDROOT
BRANCH   1   2
ATOM      2  C   UNL A   1      34.978  21.224  25.740  1.00  0.00     0.202 C 
BRANCH   2   3
ATOM      3  C   UNL A   1      33.662  20.466  25.572  1.00  0.00     0.261 C 
BRANCH   3   4
ATOM      4  O   UNL A   1      32.674  21.313  24.955  1.00  0.00    -0.463 OA
BRANCH   4   5
ATOM      5  C   UNL A   1      32.510  21.235  23.620  1.00  0.00     0.307 C 
ATOM      6  O   UNL A   1      32.145  20.241  23.008  1.00  0.00    -0.252 OA
BRANCH   5   7
ATOM      7  C   UNL A   1      32.862  22.532  22.930  1.00  0.00     0.146 C 
BRANCH   7   8
ATOM      8  C   UNL A   1      32.166  23.787  23.446  1.00  0.00     0.160 C 
BRANCH   8   9
ATOM      9  N   UNL A   1      32.507  25.034  22.801  1.00  0.00    -0.229 N 
ATOM     10  C   UNL A   1      32.137  26.321  23.119  1.00  0.00     0.157 A 
ATOM     11  N   UNL A   1      32.836  27.132  22.348  1.00  0.00    -0.113 NA
ATOM     12  N   UNL A   1      33.634  26.346  21.567  1.00  0.00    -0.024 NA
ATOM     13  N   UNL A   1      33.459  25.068  21.858  1.00  0.00    -0.045 NA
BRANCH  10  14
ATOM     14  C   UNL A   1      31.072  26.708  24.094  1.00  0.00     0.090 C 
ATOM     15  C   UNL A   1      32.932  26.691  25.969  1.00  0.00     0.039 C 
ATOM     16  C   UNL A   1      31.536  27.088  25.512  1.00  0.00     0.126 C 
ATOM     17  O   UNL A   1      31.430  28.518  25.644  1.00  0.00    -0.378 OA
ATOM     18  C   UNL A   1      31.107  29.067  24.367  1.00  0.00     0.161 C 
ATOM     19  C   UNL A   1      30.345  27.975  23.651  1.00  0.00     0.043 C 
ENDBRANCH  10  14
ENDBRANCH   8   9
ENDBRANCH   7   8
ENDBRANCH   5   7
ENDBRANCH   4   5
ENDBRANCH   3   4
ENDBRANCH   2   3
ENDBRANCH   1   2
BRANCH   1  20
ATOM     20  C   UNL A   1      36.976  21.998  24.585  1.00  0.00     0.202 C 
BRANCH  20  21
ATOM     21  C   UNL A   1      38.176  21.576  25.422  1.00  0.00     0.261 C 
BRANCH  21  22
ATOM     22  O   UNL A   1      38.699  22.684  26.145  1.00  0.00    -0.460 OA
BRANCH  22  23
ATOM     23  C   UNL A   1      39.919  22.501  26.698  1.00  0.00     0.338 C 
ATOM     24  O   UNL A   1      40.393  21.455  27.113  1.00  0.00    -0.246 OA
BRANCH  23  25
ATOM     25  C   UNL A   1      40.538  23.821  26.856  1.00  0.00     0.060 A 
ATOM     26  C   UNL A   1      41.575  23.923  27.781  1.00  0.00     0.016 A 
ATOM     27  C   UNL A   1      39.932  24.955  26.293  1.00  0.00     0.016 A 
ATOM     28  C   UNL A   1      41.846  25.162  28.314  1.00  0.00     0.010 A 
ATOM     29  C   UNL A   1      40.203  26.191  26.821  1.00  0.00     0.010 A 
ATOM     30  C   UNL A   1      41.085  26.260  27.892  1.00  0.00    -0.014 A 
BRANCH  30  31
ATOM     31  C   UNL A   1      41.293  27.527  28.552  1.00  0.00     0.031 A 
ATOM     32  C   UNL A   1      42.595  28.121  28.207  1.00  0.00     0.074 A 
ATOM     33  C   UNL A   1      40.354  28.110  29.320  1.00  0.00     0.049 A 
ATOM     34  N   UNL A   1      43.666  28.117  28.926  1.00  0.00    -0.248 NA
ATOM     35  C   UNL A   1      42.797  28.562  26.816  1.00  0.00     0.031 C 
ATOM     36  C   UNL A   1      38.945  27.726  29.460  1.00  0.00     0.029 A 
ATOM     37  N   UNL A   1      40.441  29.242  30.067  1.00  0.00    -0.354 N 
ATOM     38  C   UNL A   1      44.603  28.808  28.171  1.00  0.00     0.074 A 
ATOM     39  C   UNL A   1      44.104  28.824  26.820  1.00  0.00     0.031 C 
ATOM     40  C   UNL A   1      38.267  28.737  30.052  1.00  0.00     0.029 A 
ATOM     41  C   UNL A   1      39.214  29.756  30.470  1.00  0.00     0.049 A 
ATOM     42  H   UNL A   1      41.300  29.663  30.302  1.00  0.00     0.167 HD
ATOM     43  C   UNL A   1      45.513  29.617  28.779  1.00  0.00     0.031 A 
ATOM     44  C   UNL A   1      39.004  30.955  31.066  1.00  0.00     0.031 A 
ATOM     45  C   UNL A   1      45.552  29.381  30.200  1.00  0.00     0.049 A 
ATOM     46  C   UNL A   1      40.286  31.370  31.682  1.00  0.00     0.074 A 
ATOM     47  C   UNL A   1      46.018  28.392  31.036  1.00  0.00     0.029 A 
ATOM     48  N   UNL A   1      44.642  30.128  30.909  1.00  0.00    -0.354 N 
ATOM     49  N   UNL A   1      40.844  30.721  32.667  1.00  0.00    -0.248 NA
ATOM     50  C   UNL A   1      41.166  32.284  30.965  1.00  0.00     0.031 C 
ATOM     51  C   UNL A   1      45.198  28.447  32.202  1.00  0.00     0.029 A 
ATOM     52  C   UNL A   1      44.286  29.493  32.068  1.00  0.00     0.049 A 
ATOM     53  H   UNL A   1      44.293  31.002  30.621  1.00  0.00     0.167 HD
ATOM     54  C   UNL A   1      42.202  30.814  32.422  1.00  0.00     0.074 A 
ATOM     55  C   UNL A   1      42.345  31.915  31.477  1.00  0.00     0.031 C 
ATOM     56  C   UNL A   1      43.049  29.801  32.764  1.00  0.00     0.031 A 
BRANCH  43  57
ATOM     57  C   UNL A   1      45.948  30.945  28.200  1.00  0.00    -0.014 A 
ATOM     58  C   UNL A   1      45.018  32.001  28.164  1.00  0.00     0.010 A 
ATOM     59  C   UNL A   1      47.122  31.103  27.434  1.00  0.00     0.010 A 
ATOM     60  C   UNL A   1      45.234  33.134  27.365  1.00  0.00     0.020 A 
ATOM     61  C   UNL A   1      47.365  32.242  26.665  1.00  0.00     0.020 A 
ATOM     62  C   UNL A   1      46.406  33.239  26.615  1.00  0.00     0.054 A 
BRANCH  62  63
ATOM     63  S   UNL A   1      46.644  34.663  25.525  1.00  0.00     0.124 S 
ATOM     64  O   UNL A   1      46.446  35.781  26.442  1.00  0.00    -0.237 OA
ATOM     65  O   UNL A   1      48.011  34.462  25.053  1.00  0.00    -0.237 OA
ATOM     66  O   UNL A   1      45.609  34.493  24.508  1.00  0.00    -0.744 OA
ENDBRANCH  62  63
ENDBRANCH  43  57
BRANCH  44  67
ATOM     67  C   UNL A   1      37.861  31.884  30.896  1.00  0.00    -0.014 A 
ATOM     68  C   UNL A   1      37.999  33.086  30.177  1.00  0.00     0.010 A 
ATOM     69  C   UNL A   1      36.556  31.442  31.193  1.00  0.00     0.010 A 
ATOM     70  C   UNL A   1      36.870  33.788  29.719  1.00  0.00     0.020 A 
ATOM     71  C   UNL A   1      35.427  32.136  30.741  1.00  0.00     0.020 A 
ATOM     72  C   UNL A   1      35.589  33.296  29.985  1.00  0.00     0.054 A 
BRANCH  72  73
ATOM     73  S   UNL A   1      34.144  34.114  29.244  1.00  0.00     0.124 S 
ATOM     74  O   UNL A   1      33.407  34.570  30.419  1.00  0.00    -0.237 OA
ATOM     75  O   UNL A   1      34.754  35.165  28.434  1.00  0.00    -0.237 OA
ATOM     76  O   UNL A   1      33.495  33.048  28.482  1.00  0.00    -0.744 OA
ENDBRANCH  72  73
ENDBRANCH  44  67
BRANCH  56  77
ATOM     77  C   UNL A   1      42.609  28.854  33.849  1.00  0.00    -0.014 A 
ATOM     78  C   UNL A   1      41.762  27.749  33.652  1.00  0.00     0.010 A 
ATOM     79  C   UNL A   1      43.166  29.059  35.124  1.00  0.00     0.010 A 
ATOM     80  C   UNL A   1      41.465  26.882  34.717  1.00  0.00     0.020 A 
ATOM     81  C   UNL A   1      42.891  28.192  36.180  1.00  0.00     0.020 A 
ATOM     82  C   UNL A   1      42.033  27.111  35.975  1.00  0.00     0.054 A 
BRANCH  82  83
ATOM     83  S   UNL A   1      41.677  25.975  37.345  1.00  0.00     0.124 S 
ATOM     84  O   UNL A   1      40.326  26.366  37.739  1.00  0.00    -0.237 OA
ATOM     85  O   UNL A   1      41.795  24.661  36.716  1.00  0.00    -0.237 OA
ATOM     86  O   UNL A   1      42.718  26.276  38.327  1.00  0.00    -0.744 OA
ENDBRANCH  82  83
ENDBRANCH  56  77
ENDBRANCH  30  31
ENDBRANCH  23  25
ENDBRANCH  22  23
ENDBRANCH  21  22
ENDBRANCH  20  21
ENDBRANCH   1  20
TORSDOF 20
ENDMDL
MODEL 2
REMARK VINA RESULT:     -10.6      4.866     11.305
REMARK SMILES C[C@H]1OCC[C@H]1c1nnnn1CCC(=O)OCCOCCOC(=O)c1ccc(-c2c3nc(c(-c4ccc(S(=O)(=O)[O-])cc4)c4ccc([nH]4)c(-c4ccc(S(=O)(=O)[O-])cc4)c4nc(c(-c5ccc(S(=O)(=O)[O-])cc5)c5ccc2[nH]5)C=C4)C=C3)cc1
REMARK SMILES IDX 19 1 18 2 17 3 16 4 14 5 15 6 13 7 12 8 11 9 7 10 8 11 9 12
REMARK SMILES IDX 10 13 6 14 1 15 2 16 3 17 4 18 5 19 20 20 21 21 22 22 23 23
REMARK SMILES IDX 24 24 25 25 26 26 84 27 27 28 83 29 28 30 29 31 30 32 77 33
REMARK SMILES IDX 31 34 82 35 76 36 78 37 32 38 81 39 75 40 74 41 33 43 63 44
REMARK SMILES IDX 44 45 62 46 45 47 48 48 61 49 79 50 46 51 47 52 60 54 80 55
REMARK SMILES IDX 49 56 34 57 35 58 43 59 36 60 42 61 37 62 38 63 39 64 40 65
REMARK SMILES IDX 41 66 64 67 65 68 73 69 66 70 72 71 67 72 68 73 69 74 70 75
REMARK SMILES IDX 71 76 50 77 51 78 59 79 52 80 58 81 53 82 54 83 55 84 56 85
REMARK SMILES IDX 57 86
REMARK H PARENT 78 42 48 53
REMARK Flexibility Score: inf
ROOT
ATOM      1  O   UNL A   1      35.036  33.964  30.672  1.00  0.00    -0.374 OA
ENDROOT
BRANCH   1   2
ATOM      2  C   UNL A   1      34.440  32.995  31.539  1.00  0.00     0.202 C 
BRANCH   2   3
ATOM      3  C   UNL A   1      35.433  32.001  32.140  1.00  0.00     0.261 C 
BRANCH   3   4
ATOM      4  O   UNL A   1      35.675  32.315  33.525  1.00  0.00    -0.463 OA
BRANCH   4   5
ATOM      5  C   UNL A   1      36.951  32.378  33.951  1.00  0.00     0.307 C 
ATOM      6  O   UNL A   1      37.371  31.916  35.004  1.00  0.00    -0.252 OA
BRANCH   5   7
ATOM      7  C   UNL A   1      37.836  33.126  32.983  1.00  0.00     0.146 C 
BRANCH   7   8
ATOM      8  C   UNL A   1      39.242  32.571  32.779  1.00  0.00     0.160 C 
BRANCH   8   9
ATOM      9  N   UNL A   1      40.339  33.498  32.939  1.00  0.00    -0.229 N 
ATOM     10  C   UNL A   1      41.137  34.091  31.988  1.00  0.00     0.157 A 
ATOM     11  N   UNL A   1      41.882  34.989  32.604  1.00  0.00    -0.113 NA
ATOM     12  N   UNL A   1      41.535  34.950  33.925  1.00  0.00    -0.024 NA
ATOM     13  N   UNL A   1      40.576  34.064  34.130  1.00  0.00    -0.045 NA
BRANCH  10  14
ATOM     14  C   UNL A   1      41.204  33.712  30.544  1.00  0.00     0.090 C 
ATOM     15  C   UNL A   1      38.935  35.021  30.205  1.00  0.00     0.039 C 
ATOM     16  C   UNL A   1      40.171  34.366  29.606  1.00  0.00     0.126 C 
ATOM     17  O   UNL A   1      40.852  35.365  28.825  1.00  0.00    -0.378 OA
ATOM     18  C   UNL A   1      42.181  35.502  29.327  1.00  0.00     0.161 C 
ATOM     19  C   UNL A   1      42.523  34.151  29.912  1.00  0.00     0.043 C 
ENDBRANCH  10  14
ENDBRANCH   8   9
ENDBRANCH   7   8
ENDBRANCH   5   7
ENDBRANCH   4   5
ENDBRANCH   3   4
ENDBRANCH   2   3
ENDBRANCH   1   2
BRANCH   1  20
ATOM     20  C   UNL A   1      34.206  34.528  29.662  1.00  0.00     0.202 C 
BRANCH  20  21
ATOM     21  C   UNL A   1      34.089  33.718  28.378  1.00  0.00     0.261 C 
BRANCH  21  22
ATOM     22  O   UNL A   1      35.307  33.040  28.098  1.00  0.00    -0.460 OA
BRANCH  22  23
ATOM     23  C   UNL A   1      35.202  31.710  27.882  1.00  0.00     0.338 C 
ATOM     24  O   UNL A   1      34.320  31.128  27.269  1.00  0.00    -0.246 OA
BRANCH  23  25
ATOM     25  C   UNL A   1      36.267  31.050  28.644  1.00  0.00     0.060 A 
ATOM     26  C   UNL A   1      37.328  31.849  29.066  1.00  0.00     0.016 A 
ATOM     27  C   UNL A   1      36.325  29.649  28.704  1.00  0.00     0.016 A 
ATOM     28  C   UNL A   1      38.532  31.239  29.330  1.00  0.00     0.010 A 
ATOM     29  C   UNL A   1      37.523  29.038  28.971  1.00  0.00     0.010 A 
ATOM     30  C   UNL A   1      38.631  29.848  29.183  1.00  0.00    -0.014 A 
BRANCH  30  31
ATOM     31  C   UNL A   1      39.930  29.239  29.339  1.00  0.00     0.031 A 
ATOM     32  C   UNL A   1      40.271  29.022  30.754  1.00  0.00     0.074 A 
ATOM     33  C   UNL A   1      40.681  28.849  28.292  1.00  0.00     0.049 A 
ATOM     34  N   UNL A   1      41.054  29.742  31.483  1.00  0.00    -0.248 NA
ATOM     35  C   UNL A   1      39.474  28.037  31.505  1.00  0.00     0.031 C 
ATOM     36  C   UNL A   1      40.279  28.760  26.884  1.00  0.00     0.029 A 
ATOM     37  N   UNL A   1      41.945  28.350  28.284  1.00  0.00    -0.354 N 
ATOM     38  C   UNL A   1      41.055  29.121  32.724  1.00  0.00     0.074 A 
ATOM     39  C   UNL A   1      39.898  28.263  32.749  1.00  0.00     0.031 C 
ATOM     40  C   UNL A   1      41.194  28.027  26.207  1.00  0.00     0.029 A 
ATOM     41  C   UNL A   1      42.310  27.738  27.091  1.00  0.00     0.049 A 
ATOM     42  H   UNL A   1      42.551  28.417  29.057  1.00  0.00     0.167 HD
ATOM     43  C   UNL A   1      42.190  29.082  33.473  1.00  0.00     0.031 A 
ATOM     44  C   UNL A   1      43.433  27.011  26.873  1.00  0.00     0.031 A 
ATOM     45  C   UNL A   1      43.180  29.999  32.966  1.00  0.00     0.049 A 
ATOM     46  C   UNL A   1      44.423  27.415  27.901  1.00  0.00     0.074 A 
ATOM     47  C   UNL A   1      43.358  31.363  32.941  1.00  0.00     0.029 A 
ATOM     48  N   UNL A   1      43.985  29.458  31.992  1.00  0.00    -0.354 N 
ATOM     49  N   UNL A   1      44.935  28.613  27.961  1.00  0.00    -0.248 NA
ATOM     50  C   UNL A   1      44.570  26.615  29.110  1.00  0.00     0.031 C 
ATOM     51  C   UNL A   1      44.139  31.635  31.780  1.00  0.00     0.029 A 
ATOM     52  C   UNL A   1      44.456  30.430  31.152  1.00  0.00     0.049 A 
ATOM     53  H   UNL A   1      44.196  28.500  31.911  1.00  0.00     0.167 HD
ATOM     54  C   UNL A   1      45.075  28.865  29.314  1.00  0.00     0.074 A 
ATOM     55  C   UNL A   1      45.000  27.558  29.955  1.00  0.00     0.031 C 
ATOM     56  C   UNL A   1      44.929  30.126  29.813  1.00  0.00     0.031 A 
BRANCH  43  57
ATOM     57  C   UNL A   1      42.596  27.875  34.289  1.00  0.00    -0.014 A 
ATOM     58  C   UNL A   1      42.834  28.042  35.667  1.00  0.00     0.010 A 
ATOM     59  C   UNL A   1      43.032  26.665  33.709  1.00  0.00     0.010 A 
ATOM     60  C   UNL A   1      43.516  27.068  36.411  1.00  0.00     0.020 A 
ATOM     61  C   UNL A   1      43.677  25.672  34.447  1.00  0.00     0.020 A 
ATOM     62  C   UNL A   1      43.939  25.891  35.790  1.00  0.00     0.054 A 
BRANCH  62  63
ATOM     63  S   UNL A   1      44.886  24.673  36.733  1.00  0.00     0.124 S 
ATOM     64  O   UNL A   1      44.499  24.987  38.105  1.00  0.00    -0.237 OA
ATOM     65  O   UNL A   1      44.378  23.412  36.201  1.00  0.00    -0.237 OA
ATOM     66  O   UNL A   1      46.272  24.975  36.386  1.00  0.00    -0.744 OA
ENDBRANCH  62  63
ENDBRANCH  43  57
BRANCH  44  67
ATOM     67  C   UNL A   1      43.606  25.806  26.028  1.00  0.00    -0.014 A 
ATOM     68  C   UNL A   1      44.834  25.523  25.401  1.00  0.00     0.010 A 
ATOM     69  C   UNL A   1      42.643  24.778  26.079  1.00  0.00     0.010 A 
ATOM     70  C   UNL A   1      45.111  24.239  24.899  1.00  0.00     0.020 A 
ATOM     71  C   UNL A   1      42.911  23.497  25.580  1.00  0.00     0.020 A 
ATOM     72  C   UNL A   1      44.154  23.227  25.012  1.00  0.00     0.054 A 
BRANCH  72  73
ATOM     73  S   UNL A   1      44.584  21.530  24.516  1.00  0.00     0.124 S 
ATOM     74  O   UNL A   1      44.526  21.607  23.060  1.00  0.00    -0.237 OA
ATOM     75  O   UNL A   1      45.918  21.360  25.087  1.00  0.00    -0.237 OA
ATOM     76  O   UNL A   1      43.541  20.714  25.135  1.00  0.00    -0.744 OA
ENDBRANCH  72  73
ENDBRANCH  44  67
BRANCH  56  77
ATOM     77  C   UNL A   1      45.142  31.282  28.872  1.00  0.00    -0.014 A 
ATOM     78  C   UNL A   1      44.216  31.706  27.902  1.00  0.00     0.010 A 
ATOM     79  C   UNL A   1      46.319  32.029  29.053  1.00  0.00     0.010 A 
ATOM     80  C   UNL A   1      44.477  32.842  27.118  1.00  0.00     0.020 A 
ATOM     81  C   UNL A   1      46.577  33.167  28.291  1.00  0.00     0.020 A 
ATOM     82  C   UNL A   1      45.659  33.565  27.320  1.00  0.00     0.054 A 
BRANCH  82  83
ATOM     83  S   UNL A   1      45.985  35.051  26.330  1.00  0.00     0.124 S 
ATOM     84  O   UNL A   1      47.165  35.614  26.980  1.00  0.00    -0.237 OA
ATOM     85  O   UNL A   1      46.201  34.509  24.990  1.00  0.00    -0.237 OA
ATOM     86  O   UNL A   1      44.764  35.842  26.478  1.00  0.00    -0.744 OA
ENDBRANCH  82  83
ENDBRANCH  56  77
ENDBRANCH  30  31
ENDBRANCH  23  25
ENDBRANCH  22  23
ENDBRANCH  21  22
ENDBRANCH  20  21
ENDBRANCH   1  20
TORSDOF 20
ENDMDL
MODEL 3
REMARK VINA RESULT:     -10.5      2.675      9.240
REMARK SMILES C[C@H]1OCC[C@H]1c1nnnn1CCC(=O)OCCOCCOC(=O)c1ccc(-c2c3nc(c(-c4ccc(S(=O)(=O)[O-])cc4)c4ccc([nH]4)c(-c4ccc(S(=O)(=O)[O-])cc4)c4nc(c(-c5ccc(S(=O)(=O)[O-])cc5)c5ccc2[nH]5)C=C4)C=C3)cc1
REMARK SMILES IDX 19 1 18 2 17 3 16 4 14 5 15 6 13 7 12 8 11 9 7 10 8 11 9 12
REMARK SMILES IDX 10 13 6 14 1 15 2 16 3 17 4 18 5 19 20 20 21 21 22 22 23 23
REMARK SMILES IDX 24 24 25 25 26 26 84 27 27 28 83 29 28 30 29 31 30 32 77 33
REMARK SMILES IDX 31 34 82 35 76 36 78 37 32 38 81 39 75 40 74 41 33 43 63 44
REMARK SMILES IDX 44 45 62 46 45 47 48 48 61 49 79 50 46 51 47 52 60 54 80 55
REMARK SMILES IDX 49 56 34 57 35 58 43 59 36 60 42 61 37 62 38 63 39 64 40 65
REMARK SMILES IDX 41 66 64 67 65 68 73 69 66 70 72 71 67 72 68 73 69 74 70 75
REMARK SMILES IDX 71 76 50 77 51 78 59 79 52 80 58 81 53 82 54 83 55 84 56 85
REMARK SMILES IDX 57 86
REMARK H PARENT 78 42 48 53
REMARK Flexibility Score: inf
ROOT
ATOM      1  O   UNL A   1      32.182  28.730  26.452  1.00  0.00    -0.374 OA
ENDROOT
BRANCH   1   2
ATOM      2  C   UNL A   1      31.245  28.011  25.644  1.00  0.00     0.202 C 
BRANCH   2   3
ATOM      3  C   UNL A   1      31.153  26.522  25.973  1.00  0.00     0.261 C 
BRANCH   3   4
ATOM      4  O   UNL A   1      31.649  25.736  24.872  1.00  0.00    -0.463 OA
BRANCH   4   5
ATOM      5  C   UNL A   1      30.846  24.788  24.351  1.00  0.00     0.307 C 
ATOM      6  O   UNL A   1      30.107  24.937  23.387  1.00  0.00    -0.252 OA
BRANCH   5   7
ATOM      7  C   UNL A   1      30.929  23.490  25.119  1.00  0.00     0.146 C 
BRANCH   7   8
ATOM      8  C   UNL A   1      31.876  22.432  24.563  1.00  0.00     0.160 C 
BRANCH   8   9
ATOM      9  N   UNL A   1      32.972  22.901  23.745  1.00  0.00    -0.229 N 
ATOM     10  C   UNL A   1      34.303  23.053  24.057  1.00  0.00     0.157 A 
ATOM     11  N   UNL A   1      34.939  23.343  22.939  1.00  0.00    -0.113 NA
ATOM     12  N   UNL A   1      34.001  23.362  21.945  1.00  0.00    -0.024 NA
ATOM     13  N   UNL A   1      32.805  23.066  22.426  1.00  0.00    -0.045 NA
BRANCH  10  14
ATOM     14  C   UNL A   1      34.891  22.989  25.430  1.00  0.00     0.090 C 
ATOM     15  C   UNL A   1      35.436  20.447  24.964  1.00  0.00     0.039 C 
ATOM     16  C   UNL A   1      35.646  21.699  25.802  1.00  0.00     0.126 C 
ATOM     17  O   UNL A   1      37.055  21.993  25.791  1.00  0.00    -0.378 OA
ATOM     18  C   UNL A   1      37.239  23.310  25.272  1.00  0.00     0.161 C 
ATOM     19  C   UNL A   1      35.970  24.052  25.624  1.00  0.00     0.043 C 
ENDBRANCH  10  14
ENDBRANCH   8   9
ENDBRANCH   7   8
ENDBRANCH   5   7
ENDBRANCH   4   5
ENDBRANCH   3   4
ENDBRANCH   2   3
ENDBRANCH   1   2
BRANCH   1  20
ATOM     20  C   UNL A   1      32.552  30.031  26.010  1.00  0.00     0.202 C 
BRANCH  20  21
ATOM     21  C   UNL A   1      33.122  30.952  27.081  1.00  0.00     0.261 C 
BRANCH  21  22
ATOM     22  O   UNL A   1      34.506  30.693  27.282  1.00  0.00    -0.460 OA
BRANCH  22  23
ATOM     23  C   UNL A   1      35.215  31.696  27.845  1.00  0.00     0.338 C 
ATOM     24  O   UNL A   1      35.083  32.895  27.650  1.00  0.00    -0.246 OA
BRANCH  23  25
ATOM     25  C   UNL A   1      36.292  31.091  28.635  1.00  0.00     0.060 A 
ATOM     26  C   UNL A   1      37.383  31.904  28.939  1.00  0.00     0.016 A 
ATOM     27  C   UNL A   1      36.325  29.703  28.835  1.00  0.00     0.016 A 
ATOM     28  C   UNL A   1      38.583  31.295  29.225  1.00  0.00     0.010 A 
ATOM     29  C   UNL A   1      37.519  29.094  29.124  1.00  0.00     0.010 A 
ATOM     30  C   UNL A   1      38.649  29.895  29.216  1.00  0.00    -0.014 A 
BRANCH  30  31
ATOM     31  C   UNL A   1      39.941  29.274  29.391  1.00  0.00     0.031 A 
ATOM     32  C   UNL A   1      40.285  29.110  30.813  1.00  0.00     0.074 A 
ATOM     33  C   UNL A   1      40.681  28.832  28.358  1.00  0.00     0.049 A 
ATOM     34  N   UNL A   1      41.082  29.848  31.509  1.00  0.00    -0.248 NA
ATOM     35  C   UNL A   1      39.479  28.168  31.607  1.00  0.00     0.031 C 
ATOM     36  C   UNL A   1      40.271  28.691  26.957  1.00  0.00     0.029 A 
ATOM     37  N   UNL A   1      41.938  28.315  28.365  1.00  0.00    -0.354 N 
ATOM     38  C   UNL A   1      41.080  29.278  32.774  1.00  0.00     0.074 A 
ATOM     39  C   UNL A   1      39.911  28.438  32.839  1.00  0.00     0.031 C 
ATOM     40  C   UNL A   1      41.171  27.918  26.306  1.00  0.00     0.029 A 
ATOM     41  C   UNL A   1      42.288  27.649  27.197  1.00  0.00     0.049 A 
ATOM     42  H   UNL A   1      42.548  28.405  29.132  1.00  0.00     0.167 HD
ATOM     43  C   UNL A   1      42.218  29.254  33.519  1.00  0.00     0.031 A 
ATOM     44  C   UNL A   1      43.400  26.898  27.004  1.00  0.00     0.031 A 
ATOM     45  C   UNL A   1      43.219  30.135  32.970  1.00  0.00     0.049 A 
ATOM     46  C   UNL A   1      44.400  27.330  28.009  1.00  0.00     0.074 A 
ATOM     47  C   UNL A   1      43.416  31.494  32.889  1.00  0.00     0.029 A 
ATOM     48  N   UNL A   1      44.011  29.544  32.016  1.00  0.00    -0.354 N 
ATOM     49  N   UNL A   1      44.930  28.521  28.018  1.00  0.00    -0.248 NA
ATOM     50  C   UNL A   1      44.542  26.577  29.250  1.00  0.00     0.031 C 
ATOM     51  C   UNL A   1      44.195  31.707  31.714  1.00  0.00     0.029 A 
ATOM     52  C   UNL A   1      44.491  30.474  31.134  1.00  0.00     0.049 A 
ATOM     53  H   UNL A   1      44.208  28.581  31.973  1.00  0.00     0.167 HD
ATOM     54  C   UNL A   1      45.079  28.826  29.359  1.00  0.00     0.074 A 
ATOM     55  C   UNL A   1      44.990  27.548  30.054  1.00  0.00     0.031 C 
ATOM     56  C   UNL A   1      44.953  30.109  29.807  1.00  0.00     0.031 A 
BRANCH  43  57
ATOM     57  C   UNL A   1      42.611  28.075  34.381  1.00  0.00    -0.014 A 
ATOM     58  C   UNL A   1      43.215  28.325  35.629  1.00  0.00     0.010 A 
ATOM     59  C   UNL A   1      42.680  26.753  33.894  1.00  0.00     0.010 A 
ATOM     60  C   UNL A   1      43.891  27.313  36.326  1.00  0.00     0.020 A 
ATOM     61  C   UNL A   1      43.316  25.729  34.597  1.00  0.00     0.020 A 
ATOM     62  C   UNL A   1      43.942  26.022  35.797  1.00  0.00     0.054 A 
BRANCH  62  63
ATOM     63  S   UNL A   1      44.881  24.739  36.659  1.00  0.00     0.124 S 
ATOM     64  O   UNL A   1      46.257  25.170  36.434  1.00  0.00    -0.237 OA
ATOM     65  O   UNL A   1      44.390  24.867  38.028  1.00  0.00    -0.237 OA
ATOM     66  O   UNL A   1      44.489  23.510  35.974  1.00  0.00    -0.744 OA
ENDBRANCH  62  63
ENDBRANCH  43  57
BRANCH  44  67
ATOM     67  C   UNL A   1      43.551  25.657  26.207  1.00  0.00    -0.014 A 
ATOM     68  C   UNL A   1      44.690  25.435  25.411  1.00  0.00     0.010 A 
ATOM     69  C   UNL A   1      42.705  24.560  26.464  1.00  0.00     0.010 A 
ATOM     70  C   UNL A   1      45.004  24.148  24.941  1.00  0.00     0.020 A 
ATOM     71  C   UNL A   1      43.011  23.274  25.998  1.00  0.00     0.020 A 
ATOM     72  C   UNL A   1      44.173  23.070  25.256  1.00  0.00     0.054 A 
BRANCH  72  73
ATOM     73  S   UNL A   1      44.676  21.385  24.791  1.00  0.00     0.124 S 
ATOM     74  O   UNL A   1      44.690  21.456  23.333  1.00  0.00    -0.237 OA
ATOM     75  O   UNL A   1      45.983  21.255  25.430  1.00  0.00    -0.237 OA
ATOM     76  O   UNL A   1      43.626  20.541  25.359  1.00  0.00    -0.744 OA
ENDBRANCH  72  73
ENDBRANCH  44  67
BRANCH  56  77
ATOM     77  C   UNL A   1      45.178  31.223  28.819  1.00  0.00    -0.014 A 
ATOM     78  C   UNL A   1      46.439  31.737  28.466  1.00  0.00     0.010 A 
ATOM     79  C   UNL A   1      44.040  31.708  28.152  1.00  0.00     0.010 A 
ATOM     80  C   UNL A   1      46.550  32.731  27.479  1.00  0.00     0.020 A 
ATOM     81  C   UNL A   1      44.144  32.681  27.159  1.00  0.00     0.020 A 
ATOM     82  C   UNL A   1      45.399  33.196  26.833  1.00  0.00     0.054 A 
BRANCH  82  83
ATOM     83  S   UNL A   1      45.543  34.457  25.535  1.00  0.00     0.124 S 
ATOM     84  O   UNL A   1      44.924  35.625  26.157  1.00  0.00    -0.237 OA
ATOM     85  O   UNL A   1      46.986  34.545  25.326  1.00  0.00    -0.237 OA
ATOM     86  O   UNL A   1      44.797  33.888  24.413  1.00  0.00    -0.744 OA
ENDBRANCH  82  83
ENDBRANCH  56  77
ENDBRANCH  30  31
ENDBRANCH  23  25
ENDBRANCH  22  23
ENDBRANCH  21  22
ENDBRANCH  20  21
ENDBRANCH   1  20
TORSDOF 20
ENDMDL
