MODEL 1
REMARK VINA RESULT:     -11.0      0.000      0.000
REMARK SMILES O=C(CNC(=O)C(CC1=c2ccccc2=NC1)N1C(=O)N=C2C=CC=C[C@H]2C1=O)OCCOCCOC(=O)c1ccc(-c2c3nc(c(-c4ccc(S(=O)(=O)[O-])cc4)c4ccc([nH]4)c(-c4ccc(S(=O)(=O)[O-])cc4)c4nc(c(-c5ccc(S(=O)(=O)[O-])cc5)c5ccc2[nH]5)C=C4)C=C3)cc1
REMARK SMILES IDX 32 1 31 2 30 3 2 4 1 5 3 6 4 7 5 8 6 10 7 11 8 12 9 13 10 14
REMARK SMILES IDX 17 15 11 16 15 17 16 18 12 19 14 20 13 21 18 22 19 23 28 24
REMARK SMILES IDX 21 25 20 26 27 27 29 28 22 29 26 30 23 31 25 32 24 33 33 34
REMARK SMILES IDX 34 35 35 36 36 37 37 38 38 39 39 40 40 41 98 42 41 43 97 44
REMARK SMILES IDX 42 45 43 46 44 47 91 48 45 49 96 50 90 51 92 52 46 53 95 54
REMARK SMILES IDX 89 55 88 56 47 58 77 59 58 60 76 61 59 62 62 63 75 64 93 65
REMARK SMILES IDX 60 66 61 67 74 69 94 70 63 71 48 72 49 73 57 74 50 75 56 76
REMARK SMILES IDX 51 77 52 78 53 79 54 80 55 81 78 82 79 83 87 84 80 85 86 86
REMARK SMILES IDX 81 87 82 88 83 89 84 90 85 91 64 92 65 93 73 94 66 95 72 96
REMARK SMILES IDX 67 97 68 98 69 99 70 100 71 101
REMARK H PARENT 4 9 92 57 62 68
REMARK Flexibility Score: inf
ROOT
ATOM      1  C   UNL A   1      35.954  30.578  27.994  1.00  0.00     0.202 C 
ENDROOT
BRANCH   1   2
ATOM      2  C   UNL A   1      34.601  30.534  27.341  1.00  0.00     0.261 C 
BRANCH   2   3
ATOM      3  O   UNL A   1      33.716  29.540  27.840  1.00  0.00    -0.462 OA
BRANCH   3   4
ATOM      4  C   UNL A   1      32.685  28.999  27.164  1.00  0.00     0.325 C 
ATOM      5  O   UNL A   1      31.827  29.770  26.724  1.00  0.00    -0.250 OA
BRANCH   4   6
ATOM      6  C   UNL A   1      32.604  27.468  26.798  1.00  0.00     0.238 C 
BRANCH   6   7
ATOM      7  N   UNL A   1      31.436  26.532  26.722  1.00  0.00    -0.343 N 
ATOM      8  C   UNL A   1      31.112  25.362  26.077  1.00  0.00     0.244 C 
ATOM      9  H   UNL A   1      30.696  26.842  27.292  1.00  0.00     0.164 HD
ATOM     10  O   UNL A   1      30.338  24.678  26.784  1.00  0.00    -0.273 OA
BRANCH   8  11
ATOM     11  C   UNL A   1      31.421  24.762  24.568  1.00  0.00     0.188 C 
BRANCH  11  12
ATOM     12  C   UNL A   1      30.528  25.203  23.291  1.00  0.00     0.069 C 
BRANCH  12  13
ATOM     13  C   UNL A   1      30.367  26.680  23.050  1.00  0.00    -0.037 C 
ATOM     14  C   UNL A   1      29.151  27.809  23.037  1.00  0.00     0.001 A 
ATOM     15  C   UNL A   1      32.133  27.644  23.287  1.00  0.00     0.174 C 
ATOM     16  C   UNL A   1      27.727  27.941  23.226  1.00  0.00     0.010 A 
ATOM     17  C   UNL A   1      29.989  29.608  23.104  1.00  0.00     0.065 A 
ATOM     18  N   UNL A   1      31.559  29.563  23.300  1.00  0.00    -0.280 NA
ATOM     19  C   UNL A   1      27.155  29.147  23.412  1.00  0.00     0.001 A 
ATOM     20  C   UNL A   1      29.092  30.746  23.251  1.00  0.00     0.028 A 
ATOM     21  C   UNL A   1      27.794  30.461  23.422  1.00  0.00     0.002 A 
ENDBRANCH  12  13
ENDBRANCH  11  12
BRANCH  11  22
ATOM     22  N   UNL A   1      32.550  23.776  24.242  1.00  0.00    -0.249 N 
ATOM     23  C   UNL A   1      33.674  24.347  23.699  1.00  0.00     0.351 C 
ATOM     24  C   UNL A   1      32.761  22.466  24.654  1.00  0.00     0.244 C 
ATOM     25  N   UNL A   1      34.261  23.647  22.690  1.00  0.00    -0.197 NA
ATOM     26  O   UNL A   1      34.298  25.242  24.251  1.00  0.00    -0.246 OA
ATOM     27  C   UNL A   1      34.129  21.759  24.152  1.00  0.00     0.151 C 
ATOM     28  O   UNL A   1      31.964  21.848  25.363  1.00  0.00    -0.273 OA
ATOM     29  C   UNL A   1      34.941  22.749  23.317  1.00  0.00     0.062 C 
ATOM     30  C   UNL A   1      35.031  21.061  25.149  1.00  0.00    -0.007 C 
ATOM     31  C   UNL A   1      36.381  23.011  23.542  1.00  0.00     0.025 C 
ATOM     32  C   UNL A   1      36.338  21.344  25.301  1.00  0.00    -0.003 C 
ATOM     33  C   UNL A   1      36.984  22.396  24.560  1.00  0.00     0.002 C 
ENDBRANCH  11  22
ENDBRANCH   8  11
ENDBRANCH   6   7
ENDBRANCH   4   6
ENDBRANCH   3   4
ENDBRANCH   2   3
ENDBRANCH   1   2
BRANCH   1  34
ATOM     34  O   UNL A   1      36.485  31.875  28.349  1.00  0.00    -0.374 OA
BRANCH  34  35
ATOM     35  C   UNL A   1      35.852  33.280  28.011  1.00  0.00     0.202 C 
BRANCH  35  36
ATOM     36  C   UNL A   1      33.802  34.034  28.578  1.00  0.00     0.261 C 
BRANCH  36  37
ATOM     37  O   UNL A   1      33.226  34.156  30.067  1.00  0.00    -0.460 OA
BRANCH  37  38
ATOM     38  C   UNL A   1      33.887  34.949  30.976  1.00  0.00     0.338 C 
ATOM     39  O   UNL A   1      33.466  35.953  31.522  1.00  0.00    -0.246 OA
BRANCH  38  40
ATOM     40  C   UNL A   1      35.052  34.167  31.465  1.00  0.00     0.060 A 
ATOM     41  C   UNL A   1      36.336  34.695  31.330  1.00  0.00     0.016 A 
ATOM     42  C   UNL A   1      34.878  32.815  31.825  1.00  0.00     0.016 A 
ATOM     43  C   UNL A   1      37.443  33.868  31.509  1.00  0.00     0.010 A 
ATOM     44  C   UNL A   1      35.995  31.995  32.051  1.00  0.00     0.010 A 
ATOM     45  C   UNL A   1      37.288  32.522  31.907  1.00  0.00    -0.014 A 
BRANCH  45  46
ATOM     46  C   UNL A   1      38.476  31.835  32.476  1.00  0.00     0.031 A 
ATOM     47  C   UNL A   1      39.343  30.867  31.730  1.00  0.00     0.074 A 
ATOM     48  C   UNL A   1      38.783  32.192  33.740  1.00  0.00     0.049 A 
ATOM     49  N   UNL A   1      40.484  30.347  32.108  1.00  0.00    -0.248 NA
ATOM     50  C   UNL A   1      38.888  30.413  30.409  1.00  0.00     0.031 C 
ATOM     51  C   UNL A   1      37.984  33.120  34.548  1.00  0.00     0.029 A 
ATOM     52  N   UNL A   1      39.844  31.879  34.545  1.00  0.00    -0.354 N 
ATOM     53  C   UNL A   1      40.895  29.512  31.077  1.00  0.00     0.074 A 
ATOM     54  C   UNL A   1      39.857  29.567  30.065  1.00  0.00     0.031 C 
ATOM     55  C   UNL A   1      38.627  33.373  35.690  1.00  0.00     0.029 A 
ATOM     56  C   UNL A   1      39.833  32.558  35.741  1.00  0.00     0.049 A 
ATOM     57  H   UNL A   1      40.545  31.235  34.293  1.00  0.00     0.167 HD
ATOM     58  C   UNL A   1      42.036  28.782  30.992  1.00  0.00     0.031 A 
ATOM     59  C   UNL A   1      40.691  32.540  36.777  1.00  0.00     0.031 A 
ATOM     60  C   UNL A   1      43.044  28.737  32.033  1.00  0.00     0.049 A 
ATOM     61  C   UNL A   1      41.923  31.699  36.668  1.00  0.00     0.074 A 
ATOM     62  C   UNL A   1      44.253  28.060  32.024  1.00  0.00     0.029 A 
ATOM     63  N   UNL A   1      42.965  29.379  33.263  1.00  0.00    -0.354 N 
ATOM     64  N   UNL A   1      42.333  30.978  35.652  1.00  0.00    -0.248 NA
ATOM     65  C   UNL A   1      42.816  31.674  37.831  1.00  0.00     0.031 C 
ATOM     66  C   UNL A   1      44.853  28.213  33.275  1.00  0.00     0.029 A 
ATOM     67  C   UNL A   1      44.078  29.073  34.034  1.00  0.00     0.049 A 
ATOM     68  H   UNL A   1      42.226  29.966  33.546  1.00  0.00     0.167 HD
ATOM     69  C   UNL A   1      43.540  30.418  36.050  1.00  0.00     0.074 A 
ATOM     70  C   UNL A   1      43.808  30.914  37.385  1.00  0.00     0.031 C 
ATOM     71  C   UNL A   1      44.341  29.563  35.369  1.00  0.00     0.031 A 
BRANCH  58  72
ATOM     72  C   UNL A   1      42.300  27.965  29.743  1.00  0.00    -0.014 A 
ATOM     73  C   UNL A   1      42.797  28.593  28.582  1.00  0.00     0.010 A 
ATOM     74  C   UNL A   1      41.895  26.621  29.658  1.00  0.00     0.010 A 
ATOM     75  C   UNL A   1      42.841  27.913  27.360  1.00  0.00     0.020 A 
ATOM     76  C   UNL A   1      41.972  25.924  28.445  1.00  0.00     0.020 A 
ATOM     77  C   UNL A   1      42.420  26.583  27.298  1.00  0.00     0.054 A 
BRANCH  77  78
ATOM     78  S   UNL A   1      42.439  25.732  25.693  1.00  0.00     0.124 S 
ATOM     79  O   UNL A   1      42.361  24.329  26.085  1.00  0.00    -0.237 OA
ATOM     80  O   UNL A   1      41.251  26.273  25.036  1.00  0.00    -0.237 OA
ATOM     81  O   UNL A   1      43.710  26.147  25.102  1.00  0.00    -0.744 OA
ENDBRANCH  77  78
ENDBRANCH  58  72
BRANCH  59  82
ATOM     82  C   UNL A   1      40.395  33.390  37.963  1.00  0.00    -0.014 A 
ATOM     83  C   UNL A   1      39.455  32.961  38.923  1.00  0.00     0.010 A 
ATOM     84  C   UNL A   1      40.931  34.684  38.064  1.00  0.00     0.010 A 
ATOM     85  C   UNL A   1      38.990  33.839  39.903  1.00  0.00     0.020 A 
ATOM     86  C   UNL A   1      40.503  35.550  39.075  1.00  0.00     0.020 A 
ATOM     87  C   UNL A   1      39.507  35.135  39.962  1.00  0.00     0.054 A 
BRANCH  87  88
ATOM     88  S   UNL A   1      38.824  36.280  41.189  1.00  0.00     0.124 S 
ATOM     89  O   UNL A   1      38.437  37.415  40.354  1.00  0.00    -0.237 OA
ATOM     90  O   UNL A   1      37.719  35.512  41.758  1.00  0.00    -0.237 OA
ATOM     91  O   UNL A   1      39.944  36.524  42.093  1.00  0.00    -0.744 OA
ENDBRANCH  87  88
ENDBRANCH  59  82
BRANCH  71  92
ATOM     92  C   UNL A   1      45.597  29.076  36.053  1.00  0.00    -0.014 A 
ATOM     93  C   UNL A   1      45.549  27.942  36.885  1.00  0.00     0.010 A 
ATOM     94  C   UNL A   1      46.790  29.816  35.978  1.00  0.00     0.010 A 
ATOM     95  C   UNL A   1      46.649  27.591  37.672  1.00  0.00     0.020 A 
ATOM     96  C   UNL A   1      47.907  29.444  36.732  1.00  0.00     0.020 A 
ATOM     97  C   UNL A   1      47.817  28.353  37.599  1.00  0.00     0.054 A 
BRANCH  97  98
ATOM     98  S   UNL A   1      49.208  27.922  38.680  1.00  0.00     0.124 S 
ATOM     99  O   UNL A   1      49.194  26.463  38.631  1.00  0.00    -0.237 OA
ATOM    100  O   UNL A   1      50.339  28.563  38.014  1.00  0.00    -0.237 OA
ATOM    101  O   UNL A   1      48.839  28.506  39.967  1.00  0.00    -0.744 OA
ENDBRANCH  97  98
ENDBRANCH  71  92
ENDBRANCH  45  46
ENDBRANCH  38  40
ENDBRANCH  37  38
ENDBRANCH  36  37
ENDBRANCH  35  36
ENDBRANCH  34  35
ENDBRANCH   1  34
TORSDOF 22
ENDMDL
MODEL 2
REMARK VINA RESULT:     -10.9      6.532     11.098
REMARK SMILES O=C(CNC(=O)C(CC1=c2ccccc2=NC1)N1C(=O)N=C2C=CC=C[C@H]2C1=O)OCCOCCOC(=O)c1ccc(-c2c3nc(c(-c4ccc(S(=O)(=O)[O-])cc4)c4ccc([nH]4)c(-c4ccc(S(=O)(=O)[O-])cc4)c4nc(c(-c5ccc(S(=O)(=O)[O-])cc5)c5ccc2[nH]5)C=C4)C=C3)cc1
REMARK SMILES IDX 32 1 31 2 30 3 2 4 1 5 3 6 4 7 5 8 6 10 7 11 8 12 9 13 10 14
REMARK SMILES IDX 17 15 11 16 15 17 16 18 12 19 14 20 13 21 18 22 19 23 28 24
REMARK SMILES IDX 21 25 20 26 27 27 29 28 22 29 26 30 23 31 25 32 24 33 33 34
REMARK SMILES IDX 34 35 35 36 36 37 37 38 38 39 39 40 40 41 98 42 41 43 97 44
REMARK SMILES IDX 42 45 43 46 44 47 91 48 45 49 96 50 90 51 92 52 46 53 95 54
REMARK SMILES IDX 89 55 88 56 47 58 77 59 58 60 76 61 59 62 62 63 75 64 93 65
REMARK SMILES IDX 60 66 61 67 74 69 94 70 63 71 48 72 49 73 57 74 50 75 56 76
REMARK SMILES IDX 51 77 52 78 53 79 54 80 55 81 78 82 79 83 87 84 80 85 86 86
REMARK SMILES IDX 81 87 82 88 83 89 84 90 85 91 64 92 65 93 73 94 66 95 72 96
REMARK SMILES IDX 67 97 68 98 69 99 70 100 71 101
REMARK H PARENT 4 9 92 57 62 68
REMARK Flexibility Score: inf
ROOT
ATOM      1  C   UNL A   1      32.531  27.427  26.645  1.00  0.00     0.202 C 
ENDROOT
BRANCH   1   2
ATOM      2  C   UNL A   1      33.774  26.892  25.993  1.00  0.00     0.261 C 
BRANCH   2   3
ATOM      3  O   UNL A   1      33.588  26.307  24.712  1.00  0.00    -0.462 OA
BRANCH   3   4
ATOM      4  C   UNL A   1      32.423  25.838  24.226  1.00  0.00     0.325 C 
ATOM      5  O   UNL A   1      31.795  26.570  23.454  1.00  0.00    -0.250 OA
BRANCH   4   6
ATOM      6  C   UNL A   1      31.911  24.370  24.483  1.00  0.00     0.238 C 
BRANCH   6   7
ATOM      7  N   UNL A   1      31.760  23.585  25.750  1.00  0.00    -0.343 N 
ATOM      8  C   UNL A   1      32.550  22.811  26.567  1.00  0.00     0.244 C 
ATOM      9  H   UNL A   1      30.839  23.639  26.093  1.00  0.00     0.164 HD
ATOM     10  O   UNL A   1      32.169  22.905  27.755  1.00  0.00    -0.273 OA
BRANCH   8  11
ATOM     11  C   UNL A   1      33.768  21.728  26.289  1.00  0.00     0.188 C 
BRANCH  11  12
ATOM     12  C   UNL A   1      33.513  20.132  26.400  1.00  0.00     0.069 C 
BRANCH  12  13
ATOM     13  C   UNL A   1      32.986  19.442  25.171  1.00  0.00    -0.037 C 
ATOM     14  C   UNL A   1      32.381  19.853  23.681  1.00  0.00     0.001 A 
ATOM     15  C   UNL A   1      33.624  17.521  25.094  1.00  0.00     0.174 C 
ATOM     16  C   UNL A   1      32.064  21.000  22.866  1.00  0.00     0.010 A 
ATOM     17  C   UNL A   1      32.414  18.228  22.540  1.00  0.00     0.065 A 
ATOM     18  N   UNL A   1      33.121  16.991  23.229  1.00  0.00    -0.280 NA
ATOM     19  C   UNL A   1      31.844  20.877  21.541  1.00  0.00     0.001 A 
ATOM     20  C   UNL A   1      32.062  18.403  21.137  1.00  0.00     0.028 A 
ATOM     21  C   UNL A   1      31.840  19.661  20.732  1.00  0.00     0.002 A 
ENDBRANCH  12  13
ENDBRANCH  11  12
BRANCH  11  22
ATOM     22  N   UNL A   1      35.201  22.116  25.904  1.00  0.00    -0.249 N 
ATOM     23  C   UNL A   1      35.598  23.356  26.339  1.00  0.00     0.351 C 
ATOM     24  C   UNL A   1      36.263  21.343  25.449  1.00  0.00     0.244 C 
ATOM     25  N   UNL A   1      36.338  24.081  25.456  1.00  0.00    -0.197 NA
ATOM     26  O   UNL A   1      35.576  23.685  27.516  1.00  0.00    -0.246 OA
ATOM     27  C   UNL A   1      37.670  22.109  25.213  1.00  0.00     0.151 C 
ATOM     28  O   UNL A   1      36.166  20.135  25.225  1.00  0.00    -0.273 OA
ATOM     29  C   UNL A   1      37.520  23.583  25.589  1.00  0.00     0.062 C 
ATOM     30  C   UNL A   1      38.946  21.550  25.809  1.00  0.00    -0.007 C 
ATOM     31  C   UNL A   1      38.468  24.296  26.476  1.00  0.00     0.025 C 
ATOM     32  C   UNL A   1      39.770  22.254  26.606  1.00  0.00    -0.003 C 
ATOM     33  C   UNL A   1      39.469  23.601  27.018  1.00  0.00     0.002 C 
ENDBRANCH  11  22
ENDBRANCH   8  11
ENDBRANCH   6   7
ENDBRANCH   4   6
ENDBRANCH   3   4
ENDBRANCH   2   3
ENDBRANCH   1   2
BRANCH   1  34
ATOM     34  O   UNL A   1      32.279  28.847  26.547  1.00  0.00    -0.374 OA
BRANCH  34  35
ATOM     35  C   UNL A   1      33.359  29.996  26.493  1.00  0.00     0.202 C 
BRANCH  35  36
ATOM     36  C   UNL A   1      35.100  30.309  27.895  1.00  0.00     0.261 C 
BRANCH  36  37
ATOM     37  O   UNL A   1      36.310  29.288  28.131  1.00  0.00    -0.460 OA
BRANCH  37  38
ATOM     38  C   UNL A   1      37.039  29.374  29.294  1.00  0.00     0.338 C 
ATOM     39  O   UNL A   1      36.629  29.244  30.433  1.00  0.00    -0.246 OA
BRANCH  38  40
ATOM     40  C   UNL A   1      38.472  29.272  28.913  1.00  0.00     0.060 A 
ATOM     41  C   UNL A   1      38.833  29.386  27.570  1.00  0.00     0.016 A 
ATOM     42  C   UNL A   1      39.412  28.819  29.862  1.00  0.00     0.016 A 
ATOM     43  C   UNL A   1      40.111  29.007  27.167  1.00  0.00     0.010 A 
ATOM     44  C   UNL A   1      40.714  28.482  29.460  1.00  0.00     0.010 A 
ATOM     45  C   UNL A   1      41.076  28.588  28.109  1.00  0.00    -0.014 A 
BRANCH  45  46
ATOM     46  C   UNL A   1      42.500  28.605  27.684  1.00  0.00     0.031 A 
ATOM     47  C   UNL A   1      43.447  29.744  27.913  1.00  0.00     0.074 A 
ATOM     48  C   UNL A   1      42.933  27.463  27.111  1.00  0.00     0.049 A 
ATOM     49  N   UNL A   1      44.741  29.771  27.712  1.00  0.00    -0.248 NA
ATOM     50  C   UNL A   1      42.894  31.008  28.417  1.00  0.00     0.031 C 
ATOM     51  C   UNL A   1      42.073  26.305  26.838  1.00  0.00     0.029 A 
ATOM     52  N   UNL A   1      44.175  27.057  26.708  1.00  0.00    -0.354 N 
ATOM     53  C   UNL A   1      45.167  31.045  28.069  1.00  0.00     0.074 A 
ATOM     54  C   UNL A   1      43.980  31.776  28.469  1.00  0.00     0.031 C 
ATOM     55  C   UNL A   1      42.826  25.293  26.401  1.00  0.00     0.029 A 
ATOM     56  C   UNL A   1      44.202  25.752  26.273  1.00  0.00     0.049 A 
ATOM     57  H   UNL A   1      44.969  27.639  26.727  1.00  0.00     0.167 HD
ATOM     58  C   UNL A   1      46.431  31.539  28.067  1.00  0.00     0.031 A 
ATOM     59  C   UNL A   1      45.214  24.993  25.817  1.00  0.00     0.031 A 
ATOM     60  C   UNL A   1      47.591  30.782  27.642  1.00  0.00     0.049 A 
ATOM     61  C   UNL A   1      46.591  25.577  25.794  1.00  0.00     0.074 A 
ATOM     62  C   UNL A   1      48.918  31.181  27.643  1.00  0.00     0.029 A 
ATOM     63  N   UNL A   1      47.572  29.487  27.137  1.00  0.00    -0.354 N 
ATOM     64  N   UNL A   1      46.985  26.756  26.211  1.00  0.00    -0.248 NA
ATOM     65  C   UNL A   1      47.663  24.733  25.256  1.00  0.00     0.031 C 
ATOM     66  C   UNL A   1      49.682  30.172  27.052  1.00  0.00     0.029 A 
ATOM     67  C   UNL A   1      48.855  29.096  26.780  1.00  0.00     0.049 A 
ATOM     68  H   UNL A   1      46.766  28.929  27.047  1.00  0.00     0.167 HD
ATOM     69  C   UNL A   1      48.356  26.794  25.994  1.00  0.00     0.074 A 
ATOM     70  C   UNL A   1      48.725  25.506  25.442  1.00  0.00     0.031 C 
ATOM     71  C   UNL A   1      49.221  27.812  26.222  1.00  0.00     0.031 A 
BRANCH  58  72
ATOM     72  C   UNL A   1      46.669  32.958  28.540  1.00  0.00    -0.014 A 
ATOM     73  C   UNL A   1      46.665  34.021  27.614  1.00  0.00     0.010 A 
ATOM     74  C   UNL A   1      47.069  33.223  29.863  1.00  0.00     0.010 A 
ATOM     75  C   UNL A   1      47.096  35.300  27.985  1.00  0.00     0.020 A 
ATOM     76  C   UNL A   1      47.467  34.510  30.248  1.00  0.00     0.020 A 
ATOM     77  C   UNL A   1      47.502  35.534  29.300  1.00  0.00     0.054 A 
BRANCH  77  78
ATOM     78  S   UNL A   1      48.104  37.188  29.751  1.00  0.00     0.124 S 
ATOM     79  O   UNL A   1      49.162  37.410  28.772  1.00  0.00    -0.237 OA
ATOM     80  O   UNL A   1      46.908  38.012  29.588  1.00  0.00    -0.237 OA
ATOM     81  O   UNL A   1      48.553  37.023  31.132  1.00  0.00    -0.744 OA
ENDBRANCH  77  78
ENDBRANCH  58  72
BRANCH  59  82
ATOM     82  C   UNL A   1      44.923  23.594  25.397  1.00  0.00    -0.014 A 
ATOM     83  C   UNL A   1      44.947  22.552  26.347  1.00  0.00     0.010 A 
ATOM     84  C   UNL A   1      44.770  23.274  24.038  1.00  0.00     0.010 A 
ATOM     85  C   UNL A   1      44.915  21.218  25.939  1.00  0.00     0.020 A 
ATOM     86  C   UNL A   1      44.689  21.940  23.630  1.00  0.00     0.020 A 
ATOM     87  C   UNL A   1      44.802  20.921  24.579  1.00  0.00     0.054 A 
BRANCH  87  88
ATOM     88  S   UNL A   1      44.850  19.183  24.070  1.00  0.00     0.124 S 
ATOM     89  O   UNL A   1      43.870  18.580  24.969  1.00  0.00    -0.237 OA
ATOM     90  O   UNL A   1      44.457  19.254  22.665  1.00  0.00    -0.237 OA
ATOM     91  O   UNL A   1      46.237  18.793  24.308  1.00  0.00    -0.744 OA
ENDBRANCH  87  88
ENDBRANCH  59  82
BRANCH  71  92
ATOM     92  C   UNL A   1      50.672  27.599  25.863  1.00  0.00    -0.014 A 
ATOM     93  C   UNL A   1      51.580  27.149  26.841  1.00  0.00     0.010 A 
ATOM     94  C   UNL A   1      51.163  27.969  24.598  1.00  0.00     0.010 A 
ATOM     95  C   UNL A   1      52.952  27.130  26.582  1.00  0.00     0.020 A 
ATOM     96  C   UNL A   1      52.532  27.909  24.320  1.00  0.00     0.020 A 
ATOM     97  C   UNL A   1      53.420  27.522  25.325  1.00  0.00     0.054 A 
BRANCH  97  98
ATOM     98  S   UNL A   1      55.209  27.554  25.032  1.00  0.00     0.124 S 
ATOM     99  O   UNL A   1      55.398  26.398  24.160  1.00  0.00    -0.237 OA
ATOM    100  O   UNL A   1      55.405  28.858  24.402  1.00  0.00    -0.237 OA
ATOM    101  O   UNL A   1      55.781  27.425  26.371  1.00  0.00    -0.744 OA
ENDBRANCH  97  98
ENDBRANCH  71  92
ENDBRANCH  45  46
ENDBRANCH  38  40
ENDBRANCH  37  38
ENDBRANCH  36  37
ENDBRANCH  35  36
ENDBRANCH  34  35
ENDBRANCH   1  34
TORSDOF 22
ENDMDL
MODEL 3
REMARK VINA RESULT:     -10.7      6.311     11.456
REMARK SMILES O=C(CNC(=O)C(CC1=c2ccccc2=NC1)N1C(=O)N=C2C=CC=C[C@H]2C1=O)OCCOCCOC(=O)c1ccc(-c2c3nc(c(-c4ccc(S(=O)(=O)[O-])cc4)c4ccc([nH]4)c(-c4ccc(S(=O)(=O)[O-])cc4)c4nc(c(-c5ccc(S(=O)(=O)[O-])cc5)c5ccc2[nH]5)C=C4)C=C3)cc1
REMARK SMILES IDX 32 1 31 2 30 3 2 4 1 5 3 6 4 7 5 8 6 10 7 11 8 12 9 13 10 14
REMARK SMILES IDX 17 15 11 16 15 17 16 18 12 19 14 20 13 21 18 22 19 23 28 24
REMARK SMILES IDX 21 25 20 26 27 27 29 28 22 29 26 30 23 31 25 32 24 33 33 34
REMARK SMILES IDX 34 35 35 36 36 37 37 38 38 39 39 40 40 41 98 42 41 43 97 44
REMARK SMILES IDX 42 45 43 46 44 47 91 48 45 49 96 50 90 51 92 52 46 53 95 54
REMARK SMILES IDX 89 55 88 56 47 58 77 59 58 60 76 61 59 62 62 63 75 64 93 65
REMARK SMILES IDX 60 66 61 67 74 69 94 70 63 71 48 72 49 73 57 74 50 75 56 76
REMARK SMILES IDX 51 77 52 78 53 79 54 80 55 81 78 82 79 83 87 84 80 85 86 86
REMARK SMILES IDX 81 87 82 88 83 89 84 90 85 91 64 92 65 93 73 94 66 95 72 96
REMARK SMILES IDX 67 97 68 98 69 99 70 100 71 101
REMARK H PARENT 4 9 92 57 62 68
REMARK Flexibility Score: inf
ROOT
ATOM      1  C   UNL A   1      39.302  22.839  26.532  1.00  0.00     0.202 C 
ENDROOT
BRANCH   1   2
ATOM      2  C   UNL A   1      38.718  21.747  25.682  1.00  0.00     0.261 C 
BRANCH   2   3
ATOM      3  O   UNL A   1      37.299  21.692  25.650  1.00  0.00    -0.462 OA
BRANCH   3   4
ATOM      4  C   UNL A   1      36.479  22.737  25.434  1.00  0.00     0.325 C 
ATOM      5  O   UNL A   1      36.391  23.160  24.276  1.00  0.00    -0.250 OA
BRANCH   4   6
ATOM      6  C   UNL A   1      35.538  23.339  26.546  1.00  0.00     0.238 C 
BRANCH   6   7
ATOM      7  N   UNL A   1      34.099  23.753  26.502  1.00  0.00    -0.343 N 
ATOM      8  C   UNL A   1      32.911  23.253  26.024  1.00  0.00     0.244 C 
ATOM      9  H   UNL A   1      33.968  24.627  26.938  1.00  0.00     0.164 HD
ATOM     10  O   UNL A   1      31.960  23.624  26.749  1.00  0.00    -0.273 OA
BRANCH   8  11
ATOM     11  C   UNL A   1      32.489  22.404  24.670  1.00  0.00     0.188 C 
BRANCH  11  12
ATOM     12  C   UNL A   1      31.460  23.019  23.580  1.00  0.00     0.069 C 
BRANCH  12  13
ATOM     13  C   UNL A   1      31.733  24.420  23.104  1.00  0.00    -0.037 C 
ATOM     14  C   UNL A   1      31.516  25.976  23.639  1.00  0.00     0.001 A 
ATOM     15  C   UNL A   1      33.172  24.430  21.679  1.00  0.00     0.174 C 
ATOM     16  C   UNL A   1      30.983  26.727  24.751  1.00  0.00     0.010 A 
ATOM     17  C   UNL A   1      32.655  27.167  22.531  1.00  0.00     0.065 A 
ATOM     18  N   UNL A   1      33.592  26.382  21.526  1.00  0.00    -0.280 NA
ATOM     19  C   UNL A   1      31.278  28.032  24.919  1.00  0.00     0.001 A 
ATOM     20  C   UNL A   1      32.729  28.566  22.933  1.00  0.00     0.028 A 
ATOM     21  C   UNL A   1      32.094  28.893  24.066  1.00  0.00     0.002 A 
ENDBRANCH  12  13
ENDBRANCH  11  12
BRANCH  11  22
ATOM     22  N   UNL A   1      33.020  21.007  24.322  1.00  0.00    -0.249 N 
ATOM     23  C   UNL A   1      33.754  20.408  25.315  1.00  0.00     0.351 C 
ATOM     24  C   UNL A   1      32.662  20.123  23.312  1.00  0.00     0.244 C 
ATOM     25  N   UNL A   1      34.857  19.726  24.902  1.00  0.00    -0.197 NA
ATOM     26  O   UNL A   1      33.317  20.217  26.441  1.00  0.00    -0.246 OA
ATOM     27  C   UNL A   1      33.408  18.686  23.308  1.00  0.00     0.151 C 
ATOM     28  O   UNL A   1      31.825  20.393  22.448  1.00  0.00    -0.273 OA
ATOM     29  C   UNL A   1      34.370  18.604  24.494  1.00  0.00     0.062 C 
ATOM     30  C   UNL A   1      32.596  17.411  23.212  1.00  0.00    -0.007 C 
ATOM     31  C   UNL A   1      34.407  17.459  25.432  1.00  0.00     0.025 C 
ATOM     32  C   UNL A   1      32.680  16.401  24.098  1.00  0.00    -0.003 C 
ATOM     33  C   UNL A   1      33.518  16.477  25.266  1.00  0.00     0.002 C 
ENDBRANCH  11  22
ENDBRANCH   8  11
ENDBRANCH   6   7
ENDBRANCH   4   6
ENDBRANCH   3   4
ENDBRANCH   2   3
ENDBRANCH   1   2
BRANCH   1  34
ATOM     34  O   UNL A   1      40.634  22.640  27.060  1.00  0.00    -0.374 OA
BRANCH  34  35
ATOM     35  C   UNL A   1      41.267  21.276  27.534  1.00  0.00     0.202 C 
BRANCH  35  36
ATOM     36  C   UNL A   1      41.724  19.462  26.271  1.00  0.00     0.261 C 
BRANCH  36  37
ATOM     37  O   UNL A   1      42.537  19.460  24.891  1.00  0.00    -0.460 OA
BRANCH  37  38
ATOM     38  C   UNL A   1      43.899  19.654  24.918  1.00  0.00     0.338 C 
ATOM     39  O   UNL A   1      44.756  18.927  24.449  1.00  0.00    -0.246 OA
BRANCH  38  40
ATOM     40  C   UNL A   1      44.125  21.078  25.276  1.00  0.00     0.060 A 
ATOM     41  C   UNL A   1      43.818  22.074  24.348  1.00  0.00     0.016 A 
ATOM     42  C   UNL A   1      44.871  21.393  26.431  1.00  0.00     0.016 A 
ATOM     43  C   UNL A   1      44.290  23.370  24.547  1.00  0.00     0.010 A 
ATOM     44  C   UNL A   1      45.305  22.710  26.653  1.00  0.00     0.010 A 
ATOM     45  C   UNL A   1      45.004  23.711  25.717  1.00  0.00    -0.014 A 
BRANCH  45  46
ATOM     46  C   UNL A   1      45.106  25.153  26.060  1.00  0.00     0.031 A 
ATOM     47  C   UNL A   1      43.982  25.985  26.601  1.00  0.00     0.074 A 
ATOM     48  C   UNL A   1      46.338  25.683  25.912  1.00  0.00     0.049 A 
ATOM     49  N   UNL A   1      44.035  27.207  27.070  1.00  0.00    -0.248 NA
ATOM     50  C   UNL A   1      42.636  25.397  26.615  1.00  0.00     0.031 C 
ATOM     51  C   UNL A   1      47.489  24.946  25.380  1.00  0.00     0.029 A 
ATOM     52  N   UNL A   1      46.847  26.912  26.231  1.00  0.00    -0.354 N 
ATOM     53  C   UNL A   1      42.740  27.539  27.445  1.00  0.00     0.074 A 
ATOM     54  C   UNL A   1      41.911  26.396  27.114  1.00  0.00     0.031 C 
ATOM     55  C   UNL A   1      48.584  25.701  25.494  1.00  0.00     0.029 A 
ATOM     56  C   UNL A   1      48.203  27.006  26.018  1.00  0.00     0.049 A 
ATOM     57  H   UNL A   1      46.300  27.653  26.578  1.00  0.00     0.167 HD
ATOM     58  C   UNL A   1      42.301  28.689  28.018  1.00  0.00     0.031 A 
ATOM     59  C   UNL A   1      49.061  28.022  26.217  1.00  0.00     0.031 A 
ATOM     60  C   UNL A   1      43.157  29.819  28.317  1.00  0.00     0.049 A 
ATOM     61  C   UNL A   1      48.541  29.289  26.819  1.00  0.00     0.074 A 
ATOM     62  C   UNL A   1      42.814  31.011  28.935  1.00  0.00     0.029 A 
ATOM     63  N   UNL A   1      44.512  29.908  28.021  1.00  0.00    -0.354 N 
ATOM     64  N   UNL A   1      47.328  29.554  27.239  1.00  0.00    -0.248 NA
ATOM     65  C   UNL A   1      49.497  30.388  26.986  1.00  0.00     0.031 C 
ATOM     66  C   UNL A   1      43.929  31.850  28.922  1.00  0.00     0.029 A 
ATOM     67  C   UNL A   1      45.002  31.150  28.397  1.00  0.00     0.049 A 
ATOM     68  H   UNL A   1      45.046  29.193  27.604  1.00  0.00     0.167 HD
ATOM     69  C   UNL A   1      47.375  30.852  27.732  1.00  0.00     0.074 A 
ATOM     70  C   UNL A   1      48.746  31.301  27.589  1.00  0.00     0.031 C 
ATOM     71  C   UNL A   1      46.368  31.600  28.246  1.00  0.00     0.031 A 
BRANCH  58  72
ATOM     72  C   UNL A   1      40.836  28.818  28.384  1.00  0.00    -0.014 A 
ATOM     73  C   UNL A   1      39.920  29.350  27.453  1.00  0.00     0.010 A 
ATOM     74  C   UNL A   1      40.394  28.581  29.698  1.00  0.00     0.010 A 
ATOM     75  C   UNL A   1      38.616  29.683  27.835  1.00  0.00     0.020 A 
ATOM     76  C   UNL A   1      39.079  28.878  30.077  1.00  0.00     0.020 A 
ATOM     77  C   UNL A   1      38.206  29.452  29.150  1.00  0.00     0.054 A 
BRANCH  77  78
ATOM     78  S   UNL A   1      36.525  29.935  29.641  1.00  0.00     0.124 S 
ATOM     79  O   UNL A   1      35.713  29.363  28.573  1.00  0.00    -0.237 OA
ATOM     80  O   UNL A   1      36.386  29.300  30.950  1.00  0.00    -0.237 OA
ATOM     81  O   UNL A   1      36.584  31.395  29.670  1.00  0.00    -0.744 OA
ENDBRANCH  77  78
ENDBRANCH  58  72
BRANCH  59  82
ATOM     82  C   UNL A   1      50.496  27.823  25.869  1.00  0.00    -0.014 A 
ATOM     83  C   UNL A   1      50.926  27.970  24.535  1.00  0.00     0.010 A 
ATOM     84  C   UNL A   1      51.401  27.343  26.829  1.00  0.00     0.010 A 
ATOM     85  C   UNL A   1      52.202  27.557  24.151  1.00  0.00     0.020 A 
ATOM     86  C   UNL A   1      52.697  26.974  26.457  1.00  0.00     0.020 A 
ATOM     87  C   UNL A   1      53.075  27.046  25.114  1.00  0.00     0.054 A 
BRANCH  87  88
ATOM     88  S   UNL A   1      54.694  26.437  24.573  1.00  0.00     0.124 S 
ATOM     89  O   UNL A   1      54.701  26.818  23.163  1.00  0.00    -0.237 OA
ATOM     90  O   UNL A   1      55.613  27.179  25.432  1.00  0.00    -0.237 OA
ATOM     91  O   UNL A   1      54.624  25.001  24.831  1.00  0.00    -0.744 OA
ENDBRANCH  87  88
ENDBRANCH  59  82
BRANCH  71  92
ATOM     92  C   UNL A   1      46.689  33.009  28.685  1.00  0.00    -0.014 A 
ATOM     93  C   UNL A   1      46.927  33.284  30.045  1.00  0.00     0.010 A 
ATOM     94  C   UNL A   1      46.625  34.080  27.775  1.00  0.00     0.010 A 
ATOM     95  C   UNL A   1      47.035  34.602  30.495  1.00  0.00     0.020 A 
ATOM     96  C   UNL A   1      46.776  35.398  28.215  1.00  0.00     0.020 A 
ATOM     97  C   UNL A   1      46.946  35.652  29.577  1.00  0.00     0.054 A 
BRANCH  97  98
ATOM     98  S   UNL A   1      47.020  37.356  30.192  1.00  0.00     0.124 S 
ATOM     99  O   UNL A   1      46.765  38.130  28.980  1.00  0.00    -0.237 OA
ATOM    100  O   UNL A   1      45.955  37.381  31.191  1.00  0.00    -0.237 OA
ATOM    101  O   UNL A   1      48.373  37.470  30.731  1.00  0.00    -0.744 OA
ENDBRANCH  97  98
ENDBRANCH  71  92
ENDBRANCH  45  46
ENDBRANCH  38  40
ENDBRANCH  37  38
ENDBRANCH  36  37
ENDBRANCH  35  36
ENDBRANCH  34  35
ENDBRANCH   1  34
TORSDOF 22
ENDMDL
