MODEL 1
REMARK VINA RESULT:      -9.6      0.000      0.000
REMARK SMILES O=C(COc1ccc(C(=O)/C=C/c2ccc(Cl)c([N+](=O)[O-])c2)cc1)OCCOCCOC(=O)c1ccc(-c2c3nc(c(-c4ccc(S(=O)(=O)[O-])cc4)c4ccc([nH]4)c(-c4ccc(S(=O)(=O)[O-])cc4)c4nc(c(-c5ccc(S(=O)(=O)[O-])cc5)c5ccc2[nH]5)C=C4)C=C3)cc1
REMARK SMILES IDX 26 1 25 2 2 3 1 4 3 5 4 6 5 7 6 8 24 9 7 10 23 11 8 12 9 13
REMARK SMILES IDX 10 14 11 15 12 16 13 17 14 18 22 19 15 20 18 21 16 22 17 23
REMARK SMILES IDX 19 24 20 25 21 26 27 27 28 28 29 29 30 30 31 31 32 32 33 33
REMARK SMILES IDX 34 34 35 35 93 36 36 37 92 38 37 39 38 40 39 41 86 42 40 43
REMARK SMILES IDX 91 44 85 45 87 46 41 47 90 48 84 49 83 50 42 52 72 53 53 54
REMARK SMILES IDX 71 55 54 56 57 57 70 58 88 59 55 60 56 61 69 63 89 64 58 65
REMARK SMILES IDX 43 66 44 67 52 68 45 69 51 70 46 71 47 72 48 73 49 74 50 75
REMARK SMILES IDX 73 76 74 77 82 78 75 79 81 80 76 81 77 82 78 83 79 84 80 85
REMARK SMILES IDX 59 86 60 87 68 88 61 89 67 90 62 91 63 92 64 93 65 94 66 95
REMARK H PARENT 87 51 57 62
REMARK Flexibility Score: inf
ROOT
ATOM      1  C   UNL A   1      31.744  29.168  24.350  1.00  0.00     0.261 C 
ENDROOT
BRANCH   1   2
ATOM      2  O   UNL A   1      31.587  28.364  23.172  1.00  0.00    -0.461 OA
BRANCH   2   3
ATOM      3  C   UNL A   1      32.613  27.734  22.547  1.00  0.00     0.344 C 
ATOM      4  O   UNL A   1      33.771  28.093  22.760  1.00  0.00    -0.248 OA
BRANCH   3   5
ATOM      5  C   UNL A   1      32.302  26.622  21.542  1.00  0.00     0.351 C 
BRANCH   5   6
ATOM      6  O   UNL A   1      31.337  25.627  21.872  1.00  0.00    -0.482 OA
BRANCH   6   7
ATOM      7  C   UNL A   1      31.928  24.633  22.597  1.00  0.00     0.120 A 
ATOM      8  C   UNL A   1      31.143  23.938  23.507  1.00  0.00     0.047 A 
ATOM      9  C   UNL A   1      33.269  24.306  22.409  1.00  0.00     0.047 A 
ATOM     10  C   UNL A   1      31.653  22.784  24.093  1.00  0.00     0.016 A 
ATOM     11  C   UNL A   1      33.783  23.163  23.005  1.00  0.00     0.016 A 
ATOM     12  C   UNL A   1      32.948  22.347  23.775  1.00  0.00     0.022 A 
BRANCH  12  13
ATOM     13  C   UNL A   1      33.383  21.010  24.248  1.00  0.00     0.185 C 
ATOM     14  O   UNL A   1      32.555  20.120  24.418  1.00  0.00    -0.289 OA
BRANCH  13  15
ATOM     15  C   UNL A   1      34.828  20.718  24.488  1.00  0.00     0.053 C 
ATOM     16  C   UNL A   1      35.674  21.495  25.182  1.00  0.00     0.012 C 
BRANCH  16  17
ATOM     17  C   UNL A   1      37.072  21.128  25.405  1.00  0.00    -0.019 A 
ATOM     18  C   UNL A   1      37.548  19.895  24.956  1.00  0.00     0.010 A 
ATOM     19  C   UNL A   1      37.932  21.983  26.098  1.00  0.00     0.095 A 
ATOM     20  C   UNL A   1      38.874  19.526  25.195  1.00  0.00     0.028 A 
ATOM     21  C   UNL A   1      39.270  21.610  26.352  1.00  0.00     0.288 A 
ATOM     22  C   UNL A   1      39.747  20.373  25.895  1.00  0.00     0.118 A 
ATOM     23  Cl  UNL A   1      41.351  19.763  26.106  1.00  0.00    -0.077 Cl
BRANCH  21  24
ATOM     24  N   UNL A   1      40.092  22.563  27.115  1.00  0.00     0.064 N 
ATOM     25  O   UNL A   1      39.662  23.696  27.347  1.00  0.00    -0.258 OA
ATOM     26  O   UNL A   1      41.214  22.176  27.480  1.00  0.00    -0.258 OA
ENDBRANCH  21  24
ENDBRANCH  16  17
ENDBRANCH  13  15
ENDBRANCH  12  13
ENDBRANCH   6   7
ENDBRANCH   5   6
ENDBRANCH   3   5
ENDBRANCH   2   3
ENDBRANCH   1   2
BRANCH   1  27
ATOM     27  C   UNL A   1      32.449  28.463  25.505  1.00  0.00     0.202 C 
BRANCH  27  28
ATOM     28  O   UNL A   1      33.810  28.784  25.755  1.00  0.00    -0.374 OA
BRANCH  28  29
ATOM     29  C   UNL A   1      34.098  29.757  26.764  1.00  0.00     0.202 C 
BRANCH  29  30
ATOM     30  C   UNL A   1      35.080  29.392  27.880  1.00  0.00     0.261 C 
BRANCH  30  31
ATOM     31  O   UNL A   1      36.362  30.007  27.704  1.00  0.00    -0.460 OA
BRANCH  31  32
ATOM     32  C   UNL A   1      37.102  30.122  28.831  1.00  0.00     0.338 C 
ATOM     33  O   UNL A   1      36.722  30.495  29.932  1.00  0.00    -0.246 OA
BRANCH  32  34
ATOM     34  C   UNL A   1      38.414  29.497  28.596  1.00  0.00     0.060 A 
ATOM     35  C   UNL A   1      39.104  28.952  29.691  1.00  0.00     0.016 A 
ATOM     36  C   UNL A   1      38.970  29.488  27.318  1.00  0.00     0.016 A 
ATOM     37  C   UNL A   1      40.391  28.451  29.520  1.00  0.00     0.010 A 
ATOM     38  C   UNL A   1      40.260  28.996  27.151  1.00  0.00     0.010 A 
ATOM     39  C   UNL A   1      40.988  28.523  28.258  1.00  0.00    -0.014 A 
BRANCH  39  40
ATOM     40  C   UNL A   1      42.441  28.319  28.098  1.00  0.00     0.031 A 
ATOM     41  C   UNL A   1      43.342  29.495  28.336  1.00  0.00     0.074 A 
ATOM     42  C   UNL A   1      42.929  27.143  27.672  1.00  0.00     0.049 A 
ATOM     43  N   UNL A   1      44.611  29.636  28.064  1.00  0.00    -0.248 NA
ATOM     44  C   UNL A   1      42.715  30.683  28.940  1.00  0.00     0.031 C 
ATOM     45  C   UNL A   1      42.142  25.931  27.452  1.00  0.00     0.029 A 
ATOM     46  N   UNL A   1      44.204  26.796  27.311  1.00  0.00    -0.354 N 
ATOM     47  C   UNL A   1      44.926  30.941  28.426  1.00  0.00     0.074 A 
ATOM     48  C   UNL A   1      43.712  31.553  28.916  1.00  0.00     0.031 C 
ATOM     49  C   UNL A   1      42.948  24.979  26.954  1.00  0.00     0.029 A 
ATOM     50  C   UNL A   1      44.289  25.534  26.777  1.00  0.00     0.049 A 
ATOM     51  H   UNL A   1      44.980  27.390  27.423  1.00  0.00     0.167 HD
ATOM     52  C   UNL A   1      46.122  31.570  28.344  1.00  0.00     0.031 A 
ATOM     53  C   UNL A   1      45.320  24.918  26.167  1.00  0.00     0.031 A 
ATOM     54  C   UNL A   1      47.309  30.946  27.827  1.00  0.00     0.049 A 
ATOM     55  C   UNL A   1      46.629  25.647  26.033  1.00  0.00     0.074 A 
ATOM     56  C   UNL A   1      48.583  31.471  27.722  1.00  0.00     0.029 A 
ATOM     57  N   UNL A   1      47.362  29.656  27.313  1.00  0.00    -0.354 N 
ATOM     58  N   UNL A   1      46.931  26.871  26.400  1.00  0.00    -0.248 NA
ATOM     59  C   UNL A   1      47.740  24.912  25.415  1.00  0.00     0.031 C 
ATOM     60  C   UNL A   1      49.390  30.526  27.081  1.00  0.00     0.029 A 
ATOM     61  C   UNL A   1      48.639  29.379  26.862  1.00  0.00     0.049 A 
ATOM     62  H   UNL A   1      46.601  29.032  27.275  1.00  0.00     0.167 HD
ATOM     63  C   UNL A   1      48.275  27.042  26.090  1.00  0.00     0.074 A 
ATOM     64  C   UNL A   1      48.727  25.795  25.503  1.00  0.00     0.031 C 
ATOM     65  C   UNL A   1      49.066  28.127  26.284  1.00  0.00     0.031 A 
BRANCH  52  66
ATOM     66  C   UNL A   1      46.171  33.017  28.761  1.00  0.00    -0.014 A 
ATOM     67  C   UNL A   1      45.751  34.050  27.902  1.00  0.00     0.010 A 
ATOM     68  C   UNL A   1      46.665  33.352  30.035  1.00  0.00     0.010 A 
ATOM     69  C   UNL A   1      45.888  35.388  28.282  1.00  0.00     0.020 A 
ATOM     70  C   UNL A   1      46.770  34.688  30.434  1.00  0.00     0.020 A 
ATOM     71  C   UNL A   1      46.405  35.698  29.543  1.00  0.00     0.054 A 
BRANCH  71  72
ATOM     72  S   UNL A   1      46.593  37.443  30.002  1.00  0.00     0.124 S 
ATOM     73  O   UNL A   1      46.561  38.101  28.698  1.00  0.00    -0.237 OA
ATOM     74  O   UNL A   1      45.428  37.676  30.851  1.00  0.00    -0.237 OA
ATOM     75  O   UNL A   1      47.881  37.485  30.688  1.00  0.00    -0.744 OA
ENDBRANCH  71  72
ENDBRANCH  52  66
BRANCH  53  76
ATOM     76  C   UNL A   1      45.128  23.544  25.632  1.00  0.00    -0.014 A 
ATOM     77  C   UNL A   1      44.781  23.344  24.286  1.00  0.00     0.010 A 
ATOM     78  C   UNL A   1      45.375  22.425  26.450  1.00  0.00     0.010 A 
ATOM     79  C   UNL A   1      44.700  22.050  23.763  1.00  0.00     0.020 A 
ATOM     80  C   UNL A   1      45.322  21.132  25.923  1.00  0.00     0.020 A 
ATOM     81  C   UNL A   1      44.986  20.953  24.581  1.00  0.00     0.054 A 
BRANCH  81  82
ATOM     82  S   UNL A   1      44.992  19.294  23.847  1.00  0.00     0.124 S 
ATOM     83  O   UNL A   1      44.459  19.549  22.513  1.00  0.00    -0.237 OA
ATOM     84  O   UNL A   1      46.406  18.931  23.907  1.00  0.00    -0.237 OA
ATOM     85  O   UNL A   1      44.123  18.524  24.735  1.00  0.00    -0.744 OA
ENDBRANCH  81  82
ENDBRANCH  53  76
BRANCH  65  86
ATOM     86  C   UNL A   1      50.522  28.008  25.916  1.00  0.00    -0.014 A 
ATOM     87  C   UNL A   1      51.500  27.676  26.870  1.00  0.00     0.010 A 
ATOM     88  C   UNL A   1      50.896  28.135  24.565  1.00  0.00     0.010 A 
ATOM     89  C   UNL A   1      52.829  27.488  26.479  1.00  0.00     0.020 A 
ATOM     90  C   UNL A   1      52.217  27.917  24.167  1.00  0.00     0.020 A 
ATOM     91  C   UNL A   1      53.178  27.602  25.128  1.00  0.00     0.054 A 
BRANCH  91  92
ATOM     92  S   UNL A   1      54.892  27.277  24.637  1.00  0.00     0.124 S 
ATOM     93  O   UNL A   1      54.741  26.132  23.743  1.00  0.00    -0.237 OA
ATOM     94  O   UNL A   1      55.283  28.529  23.995  1.00  0.00    -0.237 OA
ATOM     95  O   UNL A   1      55.568  26.993  25.901  1.00  0.00    -0.744 OA
ENDBRANCH  91  92
ENDBRANCH  65  86
ENDBRANCH  39  40
ENDBRANCH  32  34
ENDBRANCH  31  32
ENDBRANCH  30  31
ENDBRANCH  29  30
ENDBRANCH  28  29
ENDBRANCH  27  28
ENDBRANCH   1  27
TORSDOF 23
ENDMDL
MODEL 2
REMARK VINA RESULT:      -9.5      3.036     10.169
REMARK SMILES O=C(COc1ccc(C(=O)/C=C/c2ccc(Cl)c([N+](=O)[O-])c2)cc1)OCCOCCOC(=O)c1ccc(-c2c3nc(c(-c4ccc(S(=O)(=O)[O-])cc4)c4ccc([nH]4)c(-c4ccc(S(=O)(=O)[O-])cc4)c4nc(c(-c5ccc(S(=O)(=O)[O-])cc5)c5ccc2[nH]5)C=C4)C=C3)cc1
REMARK SMILES IDX 26 1 25 2 2 3 1 4 3 5 4 6 5 7 6 8 24 9 7 10 23 11 8 12 9 13
REMARK SMILES IDX 10 14 11 15 12 16 13 17 14 18 22 19 15 20 18 21 16 22 17 23
REMARK SMILES IDX 19 24 20 25 21 26 27 27 28 28 29 29 30 30 31 31 32 32 33 33
REMARK SMILES IDX 34 34 35 35 93 36 36 37 92 38 37 39 38 40 39 41 86 42 40 43
REMARK SMILES IDX 91 44 85 45 87 46 41 47 90 48 84 49 83 50 42 52 72 53 53 54
REMARK SMILES IDX 71 55 54 56 57 57 70 58 88 59 55 60 56 61 69 63 89 64 58 65
REMARK SMILES IDX 43 66 44 67 52 68 45 69 51 70 46 71 47 72 48 73 49 74 50 75
REMARK SMILES IDX 73 76 74 77 82 78 75 79 81 80 76 81 77 82 78 83 79 84 80 85
REMARK SMILES IDX 59 86 60 87 68 88 61 89 67 90 62 91 63 92 64 93 65 94 66 95
REMARK H PARENT 87 51 57 62
REMARK Flexibility Score: inf
ROOT
ATOM      1  C   UNL A   1      38.910  31.692  34.526  1.00  0.00     0.261 C 
ENDROOT
BRANCH   1   2
ATOM      2  O   UNL A   1      37.608  32.294  34.465  1.00  0.00    -0.461 OA
BRANCH   2   3
ATOM      3  C   UNL A   1      37.322  33.397  33.730  1.00  0.00     0.344 C 
ATOM      4  O   UNL A   1      37.666  34.507  34.136  1.00  0.00    -0.248 OA
BRANCH   3   5
ATOM      5  C   UNL A   1      36.523  33.242  32.434  1.00  0.00     0.351 C 
BRANCH   5   6
ATOM      6  O   UNL A   1      37.014  33.828  31.232  1.00  0.00    -0.482 OA
BRANCH   6   7
ATOM      7  C   UNL A   1      36.066  33.741  30.254  1.00  0.00     0.120 A 
ATOM      8  C   UNL A   1      36.393  33.060  29.090  1.00  0.00     0.047 A 
ATOM      9  C   UNL A   1      34.798  34.292  30.431  1.00  0.00     0.047 A 
ATOM     10  C   UNL A   1      35.386  32.764  28.177  1.00  0.00     0.016 A 
ATOM     11  C   UNL A   1      33.796  34.008  29.514  1.00  0.00     0.016 A 
ATOM     12  C   UNL A   1      34.066  33.164  28.432  1.00  0.00     0.022 A 
BRANCH  12  13
ATOM     13  C   UNL A   1      32.986  32.655  27.552  1.00  0.00     0.185 C 
ATOM     14  O   UNL A   1      32.017  33.365  27.297  1.00  0.00    -0.289 OA
BRANCH  13  15
ATOM     15  C   UNL A   1      33.076  31.296  26.940  1.00  0.00     0.053 C 
ATOM     16  C   UNL A   1      32.086  30.672  26.283  1.00  0.00     0.012 C 
BRANCH  16  17
ATOM     17  C   UNL A   1      32.256  29.351  25.678  1.00  0.00    -0.019 A 
ATOM     18  C   UNL A   1      33.344  29.105  24.839  1.00  0.00     0.010 A 
ATOM     19  C   UNL A   1      31.321  28.338  25.901  1.00  0.00     0.095 A 
ATOM     20  C   UNL A   1      33.494  27.855  24.233  1.00  0.00     0.028 A 
ATOM     21  C   UNL A   1      31.462  27.076  25.282  1.00  0.00     0.288 A 
ATOM     22  C   UNL A   1      32.559  26.830  24.443  1.00  0.00     0.118 A 
ATOM     23  Cl  UNL A   1      32.892  25.349  23.618  1.00  0.00    -0.077 Cl
BRANCH  21  24
ATOM     24  N   UNL A   1      30.411  26.082  25.554  1.00  0.00     0.064 N 
ATOM     25  O   UNL A   1      30.344  25.548  26.664  1.00  0.00    -0.258 OA
ATOM     26  O   UNL A   1      29.636  25.810  24.622  1.00  0.00    -0.258 OA
ENDBRANCH  21  24
ENDBRANCH  16  17
ENDBRANCH  13  15
ENDBRANCH  12  13
ENDBRANCH   6   7
ENDBRANCH   5   6
ENDBRANCH   3   5
ENDBRANCH   2   3
ENDBRANCH   1   2
BRANCH   1  27
ATOM     27  C   UNL A   1      39.090  30.488  33.608  1.00  0.00     0.202 C 
BRANCH  27  28
ATOM     28  O   UNL A   1      38.104  29.466  33.642  1.00  0.00    -0.374 OA
BRANCH  28  29
ATOM     29  C   UNL A   1      37.607  28.966  32.396  1.00  0.00     0.202 C 
BRANCH  29  30
ATOM     30  C   UNL A   1      36.983  29.951  31.403  1.00  0.00     0.261 C 
BRANCH  30  31
ATOM     31  O   UNL A   1      37.840  30.216  30.285  1.00  0.00    -0.460 OA
BRANCH  31  32
ATOM     32  C   UNL A   1      37.644  29.415  29.211  1.00  0.00     0.338 C 
ATOM     33  O   UNL A   1      36.582  29.164  28.660  1.00  0.00    -0.246 OA
BRANCH  32  34
ATOM     34  C   UNL A   1      38.955  29.063  28.644  1.00  0.00     0.060 A 
ATOM     35  C   UNL A   1      39.933  28.526  29.496  1.00  0.00     0.016 A 
ATOM     36  C   UNL A   1      39.226  29.301  27.297  1.00  0.00     0.016 A 
ATOM     37  C   UNL A   1      41.215  28.283  29.014  1.00  0.00     0.010 A 
ATOM     38  C   UNL A   1      40.511  29.068  26.820  1.00  0.00     0.010 A 
ATOM     39  C   UNL A   1      41.517  28.605  27.688  1.00  0.00    -0.014 A 
BRANCH  39  40
ATOM     40  C   UNL A   1      42.918  28.681  27.230  1.00  0.00     0.031 A 
ATOM     41  C   UNL A   1      43.538  27.436  26.666  1.00  0.00     0.074 A 
ATOM     42  C   UNL A   1      43.636  29.804  27.392  1.00  0.00     0.049 A 
ATOM     43  N   UNL A   1      44.789  27.182  26.394  1.00  0.00    -0.248 NA
ATOM     44  C   UNL A   1      42.619  26.316  26.399  1.00  0.00     0.031 C 
ATOM     45  C   UNL A   1      43.116  31.075  27.892  1.00  0.00     0.029 A 
ATOM     46  N   UNL A   1      44.971  30.034  27.189  1.00  0.00    -0.354 N 
ATOM     47  C   UNL A   1      44.815  25.861  25.961  1.00  0.00     0.074 A 
ATOM     48  C   UNL A   1      43.459  25.364  26.028  1.00  0.00     0.031 C 
ATOM     49  C   UNL A   1      44.134  31.946  27.994  1.00  0.00     0.029 A 
ATOM     50  C   UNL A   1      45.376  31.275  27.614  1.00  0.00     0.049 A 
ATOM     51  H   UNL A   1      45.579  29.377  26.779  1.00  0.00     0.167 HD
ATOM     52  C   UNL A   1      45.880  25.130  25.555  1.00  0.00     0.031 A 
ATOM     53  C   UNL A   1      46.615  31.791  27.731  1.00  0.00     0.031 A 
ATOM     54  C   UNL A   1      47.223  25.642  25.523  1.00  0.00     0.049 A 
ATOM     55  C   UNL A   1      47.796  30.950  27.328  1.00  0.00     0.074 A 
ATOM     56  C   UNL A   1      48.376  25.007  25.105  1.00  0.00     0.029 A 
ATOM     57  N   UNL A   1      47.592  26.913  25.944  1.00  0.00    -0.354 N 
ATOM     58  N   UNL A   1      47.814  29.710  26.896  1.00  0.00    -0.248 NA
ATOM     59  C   UNL A   1      49.121  31.577  27.419  1.00  0.00     0.031 C 
ATOM     60  C   UNL A   1      49.453  25.870  25.336  1.00  0.00     0.029 A 
ATOM     61  C   UNL A   1      48.960  27.073  25.822  1.00  0.00     0.049 A 
ATOM     62  H   UNL A   1      46.971  27.600  26.279  1.00  0.00     0.167 HD
ATOM     63  C   UNL A   1      49.147  29.419  26.627  1.00  0.00     0.074 A 
ATOM     64  C   UNL A   1      49.905  30.613  26.949  1.00  0.00     0.031 C 
ATOM     65  C   UNL A   1      49.692  28.274  26.147  1.00  0.00     0.031 A 
BRANCH  52  66
ATOM     66  C   UNL A   1      45.630  23.691  25.185  1.00  0.00    -0.014 A 
ATOM     67  C   UNL A   1      45.242  23.319  23.884  1.00  0.00     0.010 A 
ATOM     68  C   UNL A   1      45.770  22.692  26.164  1.00  0.00     0.010 A 
ATOM     69  C   UNL A   1      44.933  21.987  23.590  1.00  0.00     0.020 A 
ATOM     70  C   UNL A   1      45.498  21.353  25.866  1.00  0.00     0.020 A 
ATOM     71  C   UNL A   1      45.056  21.014  24.586  1.00  0.00     0.054 A 
BRANCH  71  72
ATOM     72  S   UNL A   1      44.628  19.298  24.184  1.00  0.00     0.124 S 
ATOM     73  O   UNL A   1      45.760  18.567  24.748  1.00  0.00    -0.237 OA
ATOM     74  O   UNL A   1      43.355  19.116  24.877  1.00  0.00    -0.237 OA
ATOM     75  O   UNL A   1      44.549  19.292  22.727  1.00  0.00    -0.744 OA
ENDBRANCH  71  72
ENDBRANCH  52  66
BRANCH  53  76
ATOM     76  C   UNL A   1      46.778  33.167  28.269  1.00  0.00    -0.014 A 
ATOM     77  C   UNL A   1      46.728  34.279  27.413  1.00  0.00     0.010 A 
ATOM     78  C   UNL A   1      46.901  33.374  29.657  1.00  0.00     0.010 A 
ATOM     79  C   UNL A   1      46.781  35.575  27.936  1.00  0.00     0.020 A 
ATOM     80  C   UNL A   1      46.926  34.668  30.184  1.00  0.00     0.020 A 
ATOM     81  C   UNL A   1      46.864  35.761  29.319  1.00  0.00     0.054 A 
BRANCH  81  82
ATOM     82  S   UNL A   1      46.808  37.451  29.977  1.00  0.00     0.124 S 
ATOM     83  O   UNL A   1      45.395  37.787  29.837  1.00  0.00    -0.237 OA
ATOM     84  O   UNL A   1      47.285  37.269  31.345  1.00  0.00    -0.237 OA
ATOM     85  O   UNL A   1      47.719  38.188  29.103  1.00  0.00    -0.744 OA
ENDBRANCH  81  82
ENDBRANCH  53  76
BRANCH  65  86
ATOM     86  C   UNL A   1      51.175  28.262  25.879  1.00  0.00    -0.014 A 
ATOM     87  C   UNL A   1      51.742  29.006  24.830  1.00  0.00     0.010 A 
ATOM     88  C   UNL A   1      52.021  27.566  26.762  1.00  0.00     0.010 A 
ATOM     89  C   UNL A   1      53.129  29.042  24.662  1.00  0.00     0.020 A 
ATOM     90  C   UNL A   1      53.408  27.625  26.617  1.00  0.00     0.020 A 
ATOM     91  C   UNL A   1      53.954  28.357  25.563  1.00  0.00     0.054 A 
BRANCH  91  92
ATOM     92  S   UNL A   1      55.752  28.483  25.369  1.00  0.00     0.124 S 
ATOM     93  O   UNL A   1      55.893  28.626  23.922  1.00  0.00    -0.237 OA
ATOM     94  O   UNL A   1      56.075  29.673  26.152  1.00  0.00    -0.237 OA
ATOM     95  O   UNL A   1      56.251  27.226  25.922  1.00  0.00    -0.744 OA
ENDBRANCH  91  92
ENDBRANCH  65  86
ENDBRANCH  39  40
ENDBRANCH  32  34
ENDBRANCH  31  32
ENDBRANCH  30  31
ENDBRANCH  29  30
ENDBRANCH  28  29
ENDBRANCH  27  28
ENDBRANCH   1  27
TORSDOF 23
ENDMDL
MODEL 3
REMARK VINA RESULT:      -9.3      3.613     10.023
REMARK SMILES O=C(COc1ccc(C(=O)/C=C/c2ccc(Cl)c([N+](=O)[O-])c2)cc1)OCCOCCOC(=O)c1ccc(-c2c3nc(c(-c4ccc(S(=O)(=O)[O-])cc4)c4ccc([nH]4)c(-c4ccc(S(=O)(=O)[O-])cc4)c4nc(c(-c5ccc(S(=O)(=O)[O-])cc5)c5ccc2[nH]5)C=C4)C=C3)cc1
REMARK SMILES IDX 26 1 25 2 2 3 1 4 3 5 4 6 5 7 6 8 24 9 7 10 23 11 8 12 9 13
REMARK SMILES IDX 10 14 11 15 12 16 13 17 14 18 22 19 15 20 18 21 16 22 17 23
REMARK SMILES IDX 19 24 20 25 21 26 27 27 28 28 29 29 30 30 31 31 32 32 33 33
REMARK SMILES IDX 34 34 35 35 93 36 36 37 92 38 37 39 38 40 39 41 86 42 40 43
REMARK SMILES IDX 91 44 85 45 87 46 41 47 90 48 84 49 83 50 42 52 72 53 53 54
REMARK SMILES IDX 71 55 54 56 57 57 70 58 88 59 55 60 56 61 69 63 89 64 58 65
REMARK SMILES IDX 43 66 44 67 52 68 45 69 51 70 46 71 47 72 48 73 49 74 50 75
REMARK SMILES IDX 73 76 74 77 82 78 75 79 81 80 76 81 77 82 78 83 79 84 80 85
REMARK SMILES IDX 59 86 60 87 68 88 61 89 67 90 62 91 63 92 64 93 65 94 66 95
REMARK H PARENT 87 51 57 62
REMARK Flexibility Score: inf
ROOT
ATOM      1  C   UNL A   1      33.938  36.187  33.588  1.00  0.00     0.261 C 
ENDROOT
BRANCH   1   2
ATOM      2  O   UNL A   1      32.789  35.528  33.036  1.00  0.00    -0.461 OA
BRANCH   2   3
ATOM      3  C   UNL A   1      31.944  36.106  32.146  1.00  0.00     0.344 C 
ATOM      4  O   UNL A   1      30.795  36.383  32.486  1.00  0.00    -0.248 OA
BRANCH   3   5
ATOM      5  C   UNL A   1      32.424  36.348  30.713  1.00  0.00     0.351 C 
BRANCH   5   6
ATOM      6  O   UNL A   1      33.788  36.104  30.378  1.00  0.00    -0.482 OA
BRANCH   6   7
ATOM      7  C   UNL A   1      33.924  34.835  29.895  1.00  0.00     0.120 A 
ATOM      8  C   UNL A   1      33.368  34.548  28.656  1.00  0.00     0.047 A 
ATOM      9  C   UNL A   1      34.625  33.865  30.609  1.00  0.00     0.047 A 
ATOM     10  C   UNL A   1      33.680  33.339  28.042  1.00  0.00     0.016 A 
ATOM     11  C   UNL A   1      34.924  32.653  30.003  1.00  0.00     0.016 A 
ATOM     12  C   UNL A   1      34.531  32.425  28.681  1.00  0.00     0.022 A 
BRANCH  12  13
ATOM     13  C   UNL A   1      35.011  31.247  27.917  1.00  0.00     0.185 C 
ATOM     14  O   UNL A   1      36.198  31.153  27.618  1.00  0.00    -0.289 OA
BRANCH  13  15
ATOM     15  C   UNL A   1      34.073  30.150  27.534  1.00  0.00     0.053 C 
ATOM     16  C   UNL A   1      34.426  28.993  26.951  1.00  0.00     0.012 C 
BRANCH  16  17
ATOM     17  C   UNL A   1      33.454  27.947  26.634  1.00  0.00    -0.019 A 
ATOM     18  C   UNL A   1      32.135  28.067  27.072  1.00  0.00     0.010 A 
ATOM     19  C   UNL A   1      33.840  26.806  25.928  1.00  0.00     0.095 A 
ATOM     20  C   UNL A   1      31.210  27.055  26.800  1.00  0.00     0.028 A 
ATOM     21  C   UNL A   1      32.913  25.775  25.660  1.00  0.00     0.288 A 
ATOM     22  C   UNL A   1      31.586  25.901  26.096  1.00  0.00     0.118 A 
ATOM     23  Cl  UNL A   1      30.322  24.748  25.847  1.00  0.00    -0.077 Cl
BRANCH  21  24
ATOM     24  N   UNL A   1      33.419  24.598  24.935  1.00  0.00     0.064 N 
ATOM     25  O   UNL A   1      32.963  24.320  23.822  1.00  0.00    -0.258 OA
ATOM     26  O   UNL A   1      34.287  23.915  25.502  1.00  0.00    -0.258 OA
ENDBRANCH  21  24
ENDBRANCH  16  17
ENDBRANCH  13  15
ENDBRANCH  12  13
ENDBRANCH   6   7
ENDBRANCH   5   6
ENDBRANCH   3   5
ENDBRANCH   2   3
ENDBRANCH   1   2
BRANCH   1  27
ATOM     27  C   UNL A   1      34.821  35.294  34.454  1.00  0.00     0.202 C 
BRANCH  27  28
ATOM     28  O   UNL A   1      34.993  33.940  34.061  1.00  0.00    -0.374 OA
BRANCH  28  29
ATOM     29  C   UNL A   1      36.295  33.522  33.638  1.00  0.00     0.202 C 
BRANCH  29  30
ATOM     30  C   UNL A   1      36.694  32.055  33.823  1.00  0.00     0.261 C 
BRANCH  30  31
ATOM     31  O   UNL A   1      37.963  31.755  33.229  1.00  0.00    -0.460 OA
BRANCH  31  32
ATOM     32  C   UNL A   1      38.611  30.696  33.769  1.00  0.00     0.338 C 
ATOM     33  O   UNL A   1      38.356  30.131  34.822  1.00  0.00    -0.246 OA
BRANCH  32  34
ATOM     34  C   UNL A   1      39.549  30.162  32.768  1.00  0.00     0.060 A 
ATOM     35  C   UNL A   1      40.566  29.294  33.197  1.00  0.00     0.016 A 
ATOM     36  C   UNL A   1      39.449  30.547  31.433  1.00  0.00     0.016 A 
ATOM     37  C   UNL A   1      41.532  28.857  32.296  1.00  0.00     0.010 A 
ATOM     38  C   UNL A   1      40.421  30.119  30.535  1.00  0.00     0.010 A 
ATOM     39  C   UNL A   1      41.487  29.315  30.976  1.00  0.00    -0.014 A 
BRANCH  39  40
ATOM     40  C   UNL A   1      42.652  29.155  30.083  1.00  0.00     0.031 A 
ATOM     41  C   UNL A   1      42.794  27.856  29.345  1.00  0.00     0.074 A 
ATOM     42  C   UNL A   1      43.593  30.109  30.001  1.00  0.00     0.049 A 
ATOM     43  N   UNL A   1      43.814  27.390  28.676  1.00  0.00    -0.248 NA
ATOM     44  C   UNL A   1      41.634  26.950  29.395  1.00  0.00     0.031 C 
ATOM     45  C   UNL A   1      43.527  31.419  30.646  1.00  0.00     0.029 A 
ATOM     46  N   UNL A   1      44.809  30.097  29.370  1.00  0.00    -0.354 N 
ATOM     47  C   UNL A   1      43.434  26.120  28.258  1.00  0.00     0.074 A 
ATOM     48  C   UNL A   1      42.102  25.883  28.766  1.00  0.00     0.031 C 
ATOM     49  C   UNL A   1      44.676  32.074  30.408  1.00  0.00     0.029 A 
ATOM     50  C   UNL A   1      45.569  31.208  29.640  1.00  0.00     0.049 A 
ATOM     51  H   UNL A   1      45.108  29.366  28.783  1.00  0.00     0.167 HD
ATOM     52  C   UNL A   1      44.143  25.229  27.524  1.00  0.00     0.031 A 
ATOM     53  C   UNL A   1      46.857  31.471  29.344  1.00  0.00     0.031 A 
ATOM     54  C   UNL A   1      45.477  25.479  27.053  1.00  0.00     0.049 A 
ATOM     55  C   UNL A   1      47.651  30.452  28.574  1.00  0.00     0.074 A 
ATOM     56  C   UNL A   1      46.283  24.668  26.277  1.00  0.00     0.029 A 
ATOM     57  N   UNL A   1      46.209  26.628  27.330  1.00  0.00    -0.354 N 
ATOM     58  N   UNL A   1      47.281  29.262  28.158  1.00  0.00    -0.248 NA
ATOM     59  C   UNL A   1      49.032  30.810  28.224  1.00  0.00     0.031 C 
ATOM     60  C   UNL A   1      47.527  25.294  26.143  1.00  0.00     0.029 A 
ATOM     61  C   UNL A   1      47.468  26.534  26.765  1.00  0.00     0.049 A 
ATOM     62  H   UNL A   1      45.880  27.395  27.851  1.00  0.00     0.167 HD
ATOM     63  C   UNL A   1      48.369  28.744  27.467  1.00  0.00     0.074 A 
ATOM     64  C   UNL A   1      49.413  29.749  27.523  1.00  0.00     0.031 C 
ATOM     65  C   UNL A   1      48.490  27.551  26.832  1.00  0.00     0.031 A 
BRANCH  52  66
ATOM     66  C   UNL A   1      43.504  23.891  27.255  1.00  0.00    -0.014 A 
ATOM     67  C   UNL A   1      43.550  22.846  28.198  1.00  0.00     0.010 A 
ATOM     68  C   UNL A   1      42.858  23.669  26.026  1.00  0.00     0.010 A 
ATOM     69  C   UNL A   1      43.024  21.589  27.887  1.00  0.00     0.020 A 
ATOM     70  C   UNL A   1      42.298  22.424  25.725  1.00  0.00     0.020 A 
ATOM     71  C   UNL A   1      42.409  21.384  26.649  1.00  0.00     0.054 A 
BRANCH  71  72
ATOM     72  S   UNL A   1      41.755  19.736  26.264  1.00  0.00     0.124 S 
ATOM     73  O   UNL A   1      42.571  19.351  25.114  1.00  0.00    -0.237 OA
ATOM     74  O   UNL A   1      42.015  18.995  27.495  1.00  0.00    -0.237 OA
ATOM     75  O   UNL A   1      40.346  19.981  25.972  1.00  0.00    -0.744 OA
ENDBRANCH  71  72
ENDBRANCH  52  66
BRANCH  53  76
ATOM     76  C   UNL A   1      47.456  32.753  29.800  1.00  0.00    -0.014 A 
ATOM     77  C   UNL A   1      48.139  32.826  31.025  1.00  0.00     0.010 A 
ATOM     78  C   UNL A   1      47.419  33.887  28.967  1.00  0.00     0.010 A 
ATOM     79  C   UNL A   1      48.786  34.006  31.403  1.00  0.00     0.020 A 
ATOM     80  C   UNL A   1      48.088  35.059  29.329  1.00  0.00     0.020 A 
ATOM     81  C   UNL A   1      48.770  35.110  30.545  1.00  0.00     0.054 A 
BRANCH  81  82
ATOM     82  S   UNL A   1      49.720  36.586  31.004  1.00  0.00     0.124 S 
ATOM     83  O   UNL A   1      50.053  37.153  29.701  1.00  0.00    -0.237 OA
ATOM     84  O   UNL A   1      48.755  37.343  31.798  1.00  0.00    -0.237 OA
ATOM     85  O   UNL A   1      50.847  36.045  31.761  1.00  0.00    -0.744 OA
ENDBRANCH  81  82
ENDBRANCH  53  76
BRANCH  65  86
ATOM     86  C   UNL A   1      49.773  27.277  26.092  1.00  0.00    -0.014 A 
ATOM     87  C   UNL A   1      50.765  26.432  26.619  1.00  0.00     0.010 A 
ATOM     88  C   UNL A   1      49.937  27.802  24.796  1.00  0.00     0.010 A 
ATOM     89  C   UNL A   1      51.904  26.129  25.868  1.00  0.00     0.020 A 
ATOM     90  C   UNL A   1      51.059  27.477  24.031  1.00  0.00     0.020 A 
ATOM     91  C   UNL A   1      52.040  26.648  24.575  1.00  0.00     0.054 A 
BRANCH  91  92
ATOM     92  S   UNL A   1      53.490  26.178  23.593  1.00  0.00     0.124 S 
ATOM     93  O   UNL A   1      52.895  25.886  22.292  1.00  0.00    -0.237 OA
ATOM     94  O   UNL A   1      54.318  27.380  23.651  1.00  0.00    -0.237 OA
ATOM     95  O   UNL A   1      54.031  25.021  24.303  1.00  0.00    -0.744 OA
ENDBRANCH  91  92
ENDBRANCH  65  86
ENDBRANCH  39  40
ENDBRANCH  32  34
ENDBRANCH  31  32
ENDBRANCH  30  31
ENDBRANCH  29  30
ENDBRANCH  28  29
ENDBRANCH  27  28
ENDBRANCH   1  27
TORSDOF 23
ENDMDL
