MODEL 1
REMARK VINA RESULT:     -11.4      0.000      0.000
REMARK SMILES O=C(OCCOCCOC(=O)[C@@H]1CC=CC[C@H]1C(=O)N1CC[NH+](Cc2ccc3c(c2)OCO3)CC1)c1ccc(-c2c3nc(c(-c4ccc(S(=O)(=O)[O-])cc4)c4ccc([nH]4)c(-c4ccc(S(=O)(=O)[O-])cc4)c4nc(c(-c5ccc(S(=O)(=O)[O-])cc5)c5ccc2[nH]5)C=C4)C=C3)cc1
REMARK SMILES IDX 6 1 5 2 4 3 3 4 2 5 1 6 36 7 37 8 95 9 38 10 94 11 39 12
REMARK SMILES IDX 40 13 41 14 88 15 42 16 93 17 87 18 89 19 43 20 92 21 86 22
REMARK SMILES IDX 85 23 44 25 74 26 55 27 73 28 56 29 59 30 72 31 90 32 57 33
REMARK SMILES IDX 58 34 71 36 91 37 60 38 45 39 46 40 54 41 47 42 53 43 48 44
REMARK SMILES IDX 49 45 50 46 51 47 52 48 75 49 76 50 84 51 77 52 83 53 78 54
REMARK SMILES IDX 79 55 80 56 81 57 82 58 61 59 62 60 70 61 63 62 69 63 64 64
REMARK SMILES IDX 65 65 66 66 67 67 68 68 7 69 8 70 9 71 10 72 11 73 12 74
REMARK SMILES IDX 13 75 17 76 14 77 16 78 15 79 18 80 19 81 20 82 21 83 35 84
REMARK SMILES IDX 22 85 34 86 23 87 24 89 25 90 26 91 30 92 27 93 29 94 28 95
REMARK SMILES IDX 31 96 33 97 32 98
REMARK H PARENT 89 24 59 35 23 88
REMARK Flexibility Score: inf
ROOT
ATOM      1  O   UNL A   1      34.912  30.473  27.782  1.00  0.00    -0.374 OA
ENDROOT
BRANCH   1   2
ATOM      2  C   UNL A   1      34.846  31.805  28.285  1.00  0.00     0.202 C 
BRANCH   2   3
ATOM      3  C   UNL A   1      35.456  31.926  29.680  1.00  0.00     0.261 C 
BRANCH   3   4
ATOM      4  O   UNL A   1      35.607  30.627  30.271  1.00  0.00    -0.460 OA
BRANCH   4   5
ATOM      5  C   UNL A   1      36.678  30.226  31.004  1.00  0.00     0.338 C 
ATOM      6  O   UNL A   1      36.537  30.005  32.204  1.00  0.00    -0.246 OA
BRANCH   5   7
ATOM      7  C   UNL A   1      37.990  29.898  30.373  1.00  0.00     0.060 A 
ATOM      8  C   UNL A   1      38.324  30.173  29.044  1.00  0.00     0.016 A 
ATOM      9  C   UNL A   1      38.980  29.373  31.219  1.00  0.00     0.016 A 
ATOM     10  C   UNL A   1      39.587  29.871  28.547  1.00  0.00     0.010 A 
ATOM     11  C   UNL A   1      40.265  29.109  30.735  1.00  0.00     0.010 A 
ATOM     12  C   UNL A   1      40.568  29.346  29.390  1.00  0.00    -0.014 A 
BRANCH  12  13
ATOM     13  C   UNL A   1      41.892  29.029  28.813  1.00  0.00     0.031 A 
ATOM     14  C   UNL A   1      43.011  30.008  28.967  1.00  0.00     0.074 A 
ATOM     15  C   UNL A   1      42.091  27.821  28.254  1.00  0.00     0.049 A 
ATOM     16  N   UNL A   1      44.250  29.904  28.570  1.00  0.00    -0.248 NA
ATOM     17  C   UNL A   1      42.694  31.279  29.641  1.00  0.00     0.031 C 
ATOM     18  C   UNL A   1      41.054  26.807  28.079  1.00  0.00     0.029 A 
ATOM     19  N   UNL A   1      43.230  27.216  27.787  1.00  0.00    -0.354 N 
ATOM     20  C   UNL A   1      44.849  31.112  28.893  1.00  0.00     0.074 A 
ATOM     21  C   UNL A   1      43.844  31.930  29.537  1.00  0.00     0.031 C 
ATOM     22  C   UNL A   1      41.621  25.678  27.628  1.00  0.00     0.029 A 
ATOM     23  C   UNL A   1      43.048  25.892  27.457  1.00  0.00     0.049 A 
ATOM     24  H   UNL A   1      44.092  27.683  27.697  1.00  0.00     0.167 HD
ATOM     25  C   UNL A   1      46.120  31.504  28.643  1.00  0.00     0.031 A 
ATOM     26  C   UNL A   1      43.938  24.952  27.083  1.00  0.00     0.031 A 
ATOM     27  C   UNL A   1      47.089  30.669  27.988  1.00  0.00     0.049 A 
ATOM     28  C   UNL A   1      45.364  25.389  26.896  1.00  0.00     0.074 A 
ATOM     29  C   UNL A   1      48.371  30.982  27.577  1.00  0.00     0.029 A 
ATOM     30  N   UNL A   1      46.879  29.333  27.663  1.00  0.00    -0.354 N 
ATOM     31  N   UNL A   1      45.896  26.567  27.125  1.00  0.00    -0.248 NA
ATOM     32  C   UNL A   1      46.301  24.393  26.364  1.00  0.00     0.031 C 
ATOM     33  C   UNL A   1      48.927  29.844  26.979  1.00  0.00     0.029 A 
ATOM     34  C   UNL A   1      48.010  28.807  27.064  1.00  0.00     0.049 A 
ATOM     35  H   UNL A   1      46.048  28.836  27.835  1.00  0.00     0.167 HD
ATOM     36  C   UNL A   1      47.218  26.470  26.719  1.00  0.00     0.074 A 
ATOM     37  C   UNL A   1      47.425  25.094  26.306  1.00  0.00     0.031 C 
ATOM     38  C   UNL A   1      48.167  27.437  26.646  1.00  0.00     0.031 A 
BRANCH  25  39
ATOM     39  C   UNL A   1      46.479  32.919  29.004  1.00  0.00    -0.014 A 
ATOM     40  C   UNL A   1      47.022  33.241  30.260  1.00  0.00     0.010 A 
ATOM     41  C   UNL A   1      46.233  33.949  28.079  1.00  0.00     0.010 A 
ATOM     42  C   UNL A   1      47.275  34.574  30.599  1.00  0.00     0.020 A 
ATOM     43  C   UNL A   1      46.507  35.281  28.406  1.00  0.00     0.020 A 
ATOM     44  C   UNL A   1      47.008  35.586  29.673  1.00  0.00     0.054 A 
BRANCH  44  45
ATOM     45  S   UNL A   1      47.339  37.308  30.138  1.00  0.00     0.124 S 
ATOM     46  O   UNL A   1      48.680  37.514  29.596  1.00  0.00    -0.237 OA
ATOM     47  O   UNL A   1      46.269  38.035  29.460  1.00  0.00    -0.237 OA
ATOM     48  O   UNL A   1      47.251  37.297  31.596  1.00  0.00    -0.744 OA
ENDBRANCH  44  45
ENDBRANCH  25  39
BRANCH  26  49
ATOM     49  C   UNL A   1      43.515  23.539  26.840  1.00  0.00    -0.014 A 
ATOM     50  C   UNL A   1      43.424  23.027  25.532  1.00  0.00     0.010 A 
ATOM     51  C   UNL A   1      43.200  22.690  27.917  1.00  0.00     0.010 A 
ATOM     52  C   UNL A   1      43.004  21.710  25.306  1.00  0.00     0.020 A 
ATOM     53  C   UNL A   1      42.817  21.362  27.699  1.00  0.00     0.020 A 
ATOM     54  C   UNL A   1      42.701  20.885  26.393  1.00  0.00     0.054 A 
BRANCH  54  55
ATOM     55  S   UNL A   1      42.189  19.168  26.098  1.00  0.00     0.124 S 
ATOM     56  O   UNL A   1      42.995  18.809  24.935  1.00  0.00    -0.237 OA
ATOM     57  O   UNL A   1      42.550  18.500  27.346  1.00  0.00    -0.237 OA
ATOM     58  O   UNL A   1      40.753  19.282  25.855  1.00  0.00    -0.744 OA
ENDBRANCH  54  55
ENDBRANCH  26  49
BRANCH  38  59
ATOM     59  C   UNL A   1      49.491  27.030  26.067  1.00  0.00    -0.014 A 
ATOM     60  C   UNL A   1      49.719  27.107  24.681  1.00  0.00     0.010 A 
ATOM     61  C   UNL A   1      50.523  26.595  26.917  1.00  0.00     0.010 A 
ATOM     62  C   UNL A   1      50.947  26.713  24.147  1.00  0.00     0.020 A 
ATOM     63  C   UNL A   1      51.761  26.223  26.387  1.00  0.00     0.020 A 
ATOM     64  C   UNL A   1      51.957  26.267  25.004  1.00  0.00     0.054 A 
BRANCH  64  65
ATOM     65  S   UNL A   1      53.550  25.778  24.291  1.00  0.00     0.124 S 
ATOM     66  O   UNL A   1      53.650  24.381  24.702  1.00  0.00    -0.237 OA
ATOM     67  O   UNL A   1      53.346  26.002  22.862  1.00  0.00    -0.237 OA
ATOM     68  O   UNL A   1      54.505  26.685  24.927  1.00  0.00    -0.744 OA
ENDBRANCH  64  65
ENDBRANCH  38  59
ENDBRANCH  12  13
ENDBRANCH   5   7
ENDBRANCH   4   5
ENDBRANCH   3   4
ENDBRANCH   2   3
ENDBRANCH   1   2
BRANCH   1  69
ATOM     69  C   UNL A   1      33.834  30.088  26.932  1.00  0.00     0.202 C 
BRANCH  69  70
ATOM     70  C   UNL A   1      34.101  28.698  26.354  1.00  0.00     0.261 C 
BRANCH  70  71
ATOM     71  O   UNL A   1      33.274  27.722  27.016  1.00  0.00    -0.463 OA
BRANCH  71  72
ATOM     72  C   UNL A   1      31.932  27.907  26.845  1.00  0.00     0.310 C 
ATOM     73  O   UNL A   1      31.145  28.115  27.756  1.00  0.00    -0.252 OA
BRANCH  72  74
ATOM     74  C   UNL A   1      31.501  27.763  25.391  1.00  0.00     0.115 C 
ATOM     75  C   UNL A   1      30.998  29.090  24.784  1.00  0.00     0.043 C 
ATOM     76  C   UNL A   1      30.418  26.689  25.205  1.00  0.00     0.097 C 
ATOM     77  C   UNL A   1      30.383  28.924  23.422  1.00  0.00    -0.030 C 
ATOM     78  C   UNL A   1      30.116  26.459  23.712  1.00  0.00     0.041 C 
ATOM     79  C   UNL A   1      30.003  27.736  22.934  1.00  0.00    -0.030 C 
BRANCH  76  80
ATOM     80  C   UNL A   1      30.525  25.311  25.863  1.00  0.00     0.227 C 
ATOM     81  O   UNL A   1      29.678  24.999  26.707  1.00  0.00    -0.275 OA
ATOM     82  N   UNL A   1      31.372  24.374  25.287  1.00  0.00    -0.331 N 
ATOM     83  C   UNL A   1      30.959  22.977  25.385  1.00  0.00     0.181 C 
ATOM     84  C   UNL A   1      32.819  24.558  25.289  1.00  0.00     0.181 C 
ATOM     85  C   UNL A   1      31.731  22.046  24.427  1.00  0.00     0.284 C 
ATOM     86  C   UNL A   1      33.553  23.644  24.295  1.00  0.00     0.284 C 
ATOM     87  N   UNL A   1      33.189  22.224  24.334  1.00  0.00    -0.328 N 
ATOM     88  H   UNL A   1      33.458  21.832  23.431  1.00  0.00     0.348 HD
BRANCH  87  89
ATOM     89  C   UNL A   1      33.998  21.392  25.242  1.00  0.00     0.299 C 
BRANCH  89  90
ATOM     90  C   UNL A   1      35.482  21.668  25.264  1.00  0.00     0.010 A 
ATOM     91  C   UNL A   1      36.394  20.691  24.804  1.00  0.00     0.013 A 
ATOM     92  C   UNL A   1      35.970  22.857  25.834  1.00  0.00     0.060 A 
ATOM     93  C   UNL A   1      37.763  20.818  25.049  1.00  0.00     0.051 A 
ATOM     94  C   UNL A   1      37.324  22.964  26.048  1.00  0.00     0.166 A 
ATOM     95  C   UNL A   1      38.189  21.954  25.701  1.00  0.00     0.165 A 
ATOM     96  O   UNL A   1      37.952  23.996  26.674  1.00  0.00    -0.454 OA
ATOM     97  O   UNL A   1      39.456  22.208  26.112  1.00  0.00    -0.454 OA
ATOM     98  C   UNL A   1      39.322  23.555  26.590  1.00  0.00     0.468 C 
ENDBRANCH  89  90
ENDBRANCH  87  89
ENDBRANCH  76  80
ENDBRANCH  72  74
ENDBRANCH  71  72
ENDBRANCH  70  71
ENDBRANCH  69  70
ENDBRANCH   1  69
TORSDOF 20
ENDMDL
MODEL 2
REMARK VINA RESULT:     -10.9      2.412      8.980
REMARK SMILES O=C(OCCOCCOC(=O)[C@@H]1CC=CC[C@H]1C(=O)N1CC[NH+](Cc2ccc3c(c2)OCO3)CC1)c1ccc(-c2c3nc(c(-c4ccc(S(=O)(=O)[O-])cc4)c4ccc([nH]4)c(-c4ccc(S(=O)(=O)[O-])cc4)c4nc(c(-c5ccc(S(=O)(=O)[O-])cc5)c5ccc2[nH]5)C=C4)C=C3)cc1
REMARK SMILES IDX 6 1 5 2 4 3 3 4 2 5 1 6 36 7 37 8 95 9 38 10 94 11 39 12
REMARK SMILES IDX 40 13 41 14 88 15 42 16 93 17 87 18 89 19 43 20 92 21 86 22
REMARK SMILES IDX 85 23 44 25 74 26 55 27 73 28 56 29 59 30 72 31 90 32 57 33
REMARK SMILES IDX 58 34 71 36 91 37 60 38 45 39 46 40 54 41 47 42 53 43 48 44
REMARK SMILES IDX 49 45 50 46 51 47 52 48 75 49 76 50 84 51 77 52 83 53 78 54
REMARK SMILES IDX 79 55 80 56 81 57 82 58 61 59 62 60 70 61 63 62 69 63 64 64
REMARK SMILES IDX 65 65 66 66 67 67 68 68 7 69 8 70 9 71 10 72 11 73 12 74
REMARK SMILES IDX 13 75 17 76 14 77 16 78 15 79 18 80 19 81 20 82 21 83 35 84
REMARK SMILES IDX 22 85 34 86 23 87 24 89 25 90 26 91 30 92 27 93 29 94 28 95
REMARK SMILES IDX 31 96 33 97 32 98
REMARK H PARENT 89 24 59 35 23 88
REMARK Flexibility Score: inf
ROOT
ATOM      1  O   UNL A   1      37.595  20.551  24.572  1.00  0.00    -0.374 OA
ENDROOT
BRANCH   1   2
ATOM      2  C   UNL A   1      38.557  20.705  25.613  1.00  0.00     0.202 C 
BRANCH   2   3
ATOM      3  C   UNL A   1      39.468  19.486  25.740  1.00  0.00     0.261 C 
BRANCH   3   4
ATOM      4  O   UNL A   1      40.834  19.900  25.894  1.00  0.00    -0.460 OA
BRANCH   4   5
ATOM      5  C   UNL A   1      41.394  20.310  27.061  1.00  0.00     0.338 C 
ATOM      6  O   UNL A   1      41.537  19.503  27.977  1.00  0.00    -0.246 OA
BRANCH   5   7
ATOM      7  C   UNL A   1      41.981  21.672  27.220  1.00  0.00     0.060 A 
ATOM      8  C   UNL A   1      42.781  22.074  28.294  1.00  0.00     0.016 A 
ATOM      9  C   UNL A   1      41.792  22.566  26.155  1.00  0.00     0.016 A 
ATOM     10  C   UNL A   1      43.323  23.352  28.344  1.00  0.00     0.010 A 
ATOM     11  C   UNL A   1      42.372  23.839  26.179  1.00  0.00     0.010 A 
ATOM     12  C   UNL A   1      43.131  24.240  27.284  1.00  0.00    -0.014 A 
BRANCH  12  13
ATOM     13  C   UNL A   1      43.716  25.594  27.388  1.00  0.00     0.031 A 
ATOM     14  C   UNL A   1      42.956  26.668  28.096  1.00  0.00     0.074 A 
ATOM     15  C   UNL A   1      44.967  25.803  26.936  1.00  0.00     0.049 A 
ATOM     16  N   UNL A   1      43.310  27.903  28.328  1.00  0.00    -0.248 NA
ATOM     17  C   UNL A   1      41.617  26.316  28.596  1.00  0.00     0.031 C 
ATOM     18  C   UNL A   1      45.778  24.803  26.247  1.00  0.00     0.029 A 
ATOM     19  N   UNL A   1      45.797  26.891  27.038  1.00  0.00    -0.354 N 
ATOM     20  C   UNL A   1      42.219  28.494  28.950  1.00  0.00     0.074 A 
ATOM     21  C   UNL A   1      41.196  27.477  29.077  1.00  0.00     0.031 C 
ATOM     22  C   UNL A   1      47.014  25.292  26.068  1.00  0.00     0.029 A 
ATOM     23  C   UNL A   1      47.079  26.642  26.602  1.00  0.00     0.049 A 
ATOM     24  H   UNL A   1      45.504  27.763  27.387  1.00  0.00     0.167 HD
ATOM     25  C   UNL A   1      42.083  29.779  29.348  1.00  0.00     0.031 A 
ATOM     26  C   UNL A   1      48.186  27.409  26.652  1.00  0.00     0.031 A 
ATOM     27  C   UNL A   1      43.117  30.767  29.193  1.00  0.00     0.049 A 
ATOM     28  C   UNL A   1      48.031  28.806  27.182  1.00  0.00     0.074 A 
ATOM     29  C   UNL A   1      43.068  32.124  29.452  1.00  0.00     0.029 A 
ATOM     30  N   UNL A   1      44.404  30.489  28.749  1.00  0.00    -0.354 N 
ATOM     31  N   UNL A   1      46.962  29.377  27.688  1.00  0.00    -0.248 NA
ATOM     32  C   UNL A   1      49.209  29.678  27.113  1.00  0.00     0.031 C 
ATOM     33  C   UNL A   1      44.319  32.672  29.139  1.00  0.00     0.029 A 
ATOM     34  C   UNL A   1      45.161  31.646  28.734  1.00  0.00     0.049 A 
ATOM     35  H   UNL A   1      44.729  29.598  28.485  1.00  0.00     0.167 HD
ATOM     36  C   UNL A   1      47.324  30.690  27.951  1.00  0.00     0.074 A 
ATOM     37  C   UNL A   1      48.734  30.805  27.625  1.00  0.00     0.031 C 
ATOM     38  C   UNL A   1      46.556  31.722  28.379  1.00  0.00     0.031 A 
BRANCH  25  39
ATOM     39  C   UNL A   1      40.743  30.183  29.898  1.00  0.00    -0.014 A 
ATOM     40  C   UNL A   1      40.510  30.256  31.283  1.00  0.00     0.010 A 
ATOM     41  C   UNL A   1      39.689  30.461  29.010  1.00  0.00     0.010 A 
ATOM     42  C   UNL A   1      39.234  30.559  31.769  1.00  0.00     0.020 A 
ATOM     43  C   UNL A   1      38.418  30.787  29.492  1.00  0.00     0.020 A 
ATOM     44  C   UNL A   1      38.195  30.815  30.870  1.00  0.00     0.054 A 
BRANCH  44  45
ATOM     45  S   UNL A   1      36.547  31.200  31.525  1.00  0.00     0.124 S 
ATOM     46  O   UNL A   1      36.785  32.467  32.212  1.00  0.00    -0.237 OA
ATOM     47  O   UNL A   1      35.733  31.285  30.315  1.00  0.00    -0.237 OA
ATOM     48  O   UNL A   1      36.245  30.066  32.395  1.00  0.00    -0.744 OA
ENDBRANCH  44  45
ENDBRANCH  25  39
BRANCH  26  49
ATOM     49  C   UNL A   1      49.505  26.894  26.176  1.00  0.00    -0.014 A 
ATOM     50  C   UNL A   1      50.247  25.982  26.951  1.00  0.00     0.010 A 
ATOM     51  C   UNL A   1      50.034  27.310  24.939  1.00  0.00     0.010 A 
ATOM     52  C   UNL A   1      51.495  25.520  26.513  1.00  0.00     0.020 A 
ATOM     53  C   UNL A   1      51.261  26.822  24.481  1.00  0.00     0.020 A 
ATOM     54  C   UNL A   1      51.996  25.944  25.279  1.00  0.00     0.054 A 
BRANCH  54  55
ATOM     55  S   UNL A   1      53.598  25.317  24.700  1.00  0.00     0.124 S 
ATOM     56  O   UNL A   1      53.581  23.944  25.194  1.00  0.00    -0.237 OA
ATOM     57  O   UNL A   1      53.504  25.468  23.250  1.00  0.00    -0.237 OA
ATOM     58  O   UNL A   1      54.561  26.205  25.348  1.00  0.00    -0.744 OA
ENDBRANCH  54  55
ENDBRANCH  26  49
BRANCH  38  59
ATOM     59  C   UNL A   1      47.231  33.060  28.478  1.00  0.00    -0.014 A 
ATOM     60  C   UNL A   1      47.260  33.930  27.373  1.00  0.00     0.010 A 
ATOM     61  C   UNL A   1      47.815  33.462  29.692  1.00  0.00     0.010 A 
ATOM     62  C   UNL A   1      47.902  35.165  27.466  1.00  0.00     0.020 A 
ATOM     63  C   UNL A   1      48.437  34.708  29.795  1.00  0.00     0.020 A 
ATOM     64  C   UNL A   1      48.492  35.542  28.675  1.00  0.00     0.054 A 
BRANCH  64  65
ATOM     65  S   UNL A   1      49.304  37.160  28.780  1.00  0.00     0.124 S 
ATOM     66  O   UNL A   1      50.157  36.995  29.953  1.00  0.00    -0.237 OA
ATOM     67  O   UNL A   1      50.002  37.253  27.500  1.00  0.00    -0.237 OA
ATOM     68  O   UNL A   1      48.191  38.094  28.944  1.00  0.00    -0.744 OA
ENDBRANCH  64  65
ENDBRANCH  38  59
ENDBRANCH  12  13
ENDBRANCH   5   7
ENDBRANCH   4   5
ENDBRANCH   3   4
ENDBRANCH   2   3
ENDBRANCH   1   2
BRANCH   1  69
ATOM     69  C   UNL A   1      36.265  20.271  25.007  1.00  0.00     0.202 C 
BRANCH  69  70
ATOM     70  C   UNL A   1      35.750  21.422  25.871  1.00  0.00     0.261 C 
BRANCH  70  71
ATOM     71  O   UNL A   1      34.461  21.087  26.419  1.00  0.00    -0.463 OA
BRANCH  71  72
ATOM     72  C   UNL A   1      33.487  22.016  26.187  1.00  0.00     0.310 C 
ATOM     73  O   UNL A   1      33.207  22.924  26.955  1.00  0.00    -0.252 OA
BRANCH  72  74
ATOM     74  C   UNL A   1      32.735  21.764  24.887  1.00  0.00     0.115 C 
ATOM     75  C   UNL A   1      32.691  20.271  24.502  1.00  0.00     0.043 C 
ATOM     76  C   UNL A   1      33.319  22.563  23.711  1.00  0.00     0.097 C 
ATOM     77  C   UNL A   1      32.133  20.028  23.128  1.00  0.00    -0.030 C 
ATOM     78  C   UNL A   1      32.447  22.410  22.450  1.00  0.00     0.041 C 
ATOM     79  C   UNL A   1      32.007  20.996  22.211  1.00  0.00    -0.030 C 
BRANCH  76  80
ATOM     80  C   UNL A   1      33.673  24.047  23.839  1.00  0.00     0.227 C 
ATOM     81  O   UNL A   1      34.866  24.358  23.920  1.00  0.00    -0.275 OA
ATOM     82  N   UNL A   1      32.685  24.983  23.565  1.00  0.00    -0.331 N 
ATOM     83  C   UNL A   1      33.126  26.240  22.968  1.00  0.00     0.181 C 
ATOM     84  C   UNL A   1      31.515  25.122  24.426  1.00  0.00     0.181 C 
ATOM     85  C   UNL A   1      31.970  27.064  22.361  1.00  0.00     0.284 C 
ATOM     86  C   UNL A   1      30.369  25.913  23.776  1.00  0.00     0.284 C 
ATOM     87  N   UNL A   1      30.737  27.189  23.153  1.00  0.00    -0.328 N 
ATOM     88  H   UNL A   1      29.999  27.405  22.482  1.00  0.00     0.348 HD
BRANCH  87  89
ATOM     89  C   UNL A   1      30.655  28.366  24.035  1.00  0.00     0.299 C 
BRANCH  89  90
ATOM     90  C   UNL A   1      30.078  29.623  23.429  1.00  0.00     0.010 A 
ATOM     91  C   UNL A   1      29.880  30.772  24.226  1.00  0.00     0.013 A 
ATOM     92  C   UNL A   1      29.643  29.624  22.091  1.00  0.00     0.060 A 
ATOM     93  C   UNL A   1      29.120  31.847  23.759  1.00  0.00     0.051 A 
ATOM     94  C   UNL A   1      28.912  30.703  21.650  1.00  0.00     0.166 A 
ATOM     95  C   UNL A   1      28.627  31.763  22.475  1.00  0.00     0.165 A 
ATOM     96  O   UNL A   1      28.334  30.825  20.425  1.00  0.00    -0.454 OA
ATOM     97  O   UNL A   1      27.793  32.656  21.884  1.00  0.00    -0.454 OA
ATOM     98  C   UNL A   1      27.735  32.130  20.549  1.00  0.00     0.468 C 
ENDBRANCH  89  90
ENDBRANCH  87  89
ENDBRANCH  76  80
ENDBRANCH  72  74
ENDBRANCH  71  72
ENDBRANCH  70  71
ENDBRANCH  69  70
ENDBRANCH   1  69
TORSDOF 20
ENDMDL
MODEL 3
REMARK VINA RESULT:     -10.8      1.724      8.156
REMARK SMILES O=C(OCCOCCOC(=O)[C@@H]1CC=CC[C@H]1C(=O)N1CC[NH+](Cc2ccc3c(c2)OCO3)CC1)c1ccc(-c2c3nc(c(-c4ccc(S(=O)(=O)[O-])cc4)c4ccc([nH]4)c(-c4ccc(S(=O)(=O)[O-])cc4)c4nc(c(-c5ccc(S(=O)(=O)[O-])cc5)c5ccc2[nH]5)C=C4)C=C3)cc1
REMARK SMILES IDX 6 1 5 2 4 3 3 4 2 5 1 6 36 7 37 8 95 9 38 10 94 11 39 12
REMARK SMILES IDX 40 13 41 14 88 15 42 16 93 17 87 18 89 19 43 20 92 21 86 22
REMARK SMILES IDX 85 23 44 25 74 26 55 27 73 28 56 29 59 30 72 31 90 32 57 33
REMARK SMILES IDX 58 34 71 36 91 37 60 38 45 39 46 40 54 41 47 42 53 43 48 44
REMARK SMILES IDX 49 45 50 46 51 47 52 48 75 49 76 50 84 51 77 52 83 53 78 54
REMARK SMILES IDX 79 55 80 56 81 57 82 58 61 59 62 60 70 61 63 62 69 63 64 64
REMARK SMILES IDX 65 65 66 66 67 67 68 68 7 69 8 70 9 71 10 72 11 73 12 74
REMARK SMILES IDX 13 75 17 76 14 77 16 78 15 79 18 80 19 81 20 82 21 83 35 84
REMARK SMILES IDX 22 85 34 86 23 87 24 89 25 90 26 91 30 92 27 93 29 94 28 95
REMARK SMILES IDX 31 96 33 97 32 98
REMARK H PARENT 89 24 59 35 23 88
REMARK Flexibility Score: inf
ROOT
ATOM      1  O   UNL A   1      35.235  29.919  27.285  1.00  0.00    -0.374 OA
ENDROOT
BRANCH   1   2
ATOM      2  C   UNL A   1      35.225  31.279  27.712  1.00  0.00     0.202 C 
BRANCH   2   3
ATOM      3  C   UNL A   1      34.883  31.415  29.195  1.00  0.00     0.261 C 
BRANCH   3   4
ATOM      4  O   UNL A   1      36.084  31.474  29.979  1.00  0.00    -0.460 OA
BRANCH   4   5
ATOM      5  C   UNL A   1      36.719  30.397  30.509  1.00  0.00     0.338 C 
ATOM      6  O   UNL A   1      36.078  29.591  31.179  1.00  0.00    -0.246 OA
BRANCH   5   7
ATOM      7  C   UNL A   1      38.139  30.076  30.184  1.00  0.00     0.060 A 
ATOM      8  C   UNL A   1      39.054  29.517  31.080  1.00  0.00     0.016 A 
ATOM      9  C   UNL A   1      38.534  30.260  28.850  1.00  0.00     0.016 A 
ATOM     10  C   UNL A   1      40.350  29.210  30.682  1.00  0.00     0.010 A 
ATOM     11  C   UNL A   1      39.823  29.913  28.432  1.00  0.00     0.010 A 
ATOM     12  C   UNL A   1      40.741  29.397  29.354  1.00  0.00    -0.014 A 
BRANCH  12  13
ATOM     13  C   UNL A   1      42.133  29.069  28.980  1.00  0.00     0.031 A 
ATOM     14  C   UNL A   1      42.437  27.726  28.397  1.00  0.00     0.074 A 
ATOM     15  C   UNL A   1      43.079  30.021  29.074  1.00  0.00     0.049 A 
ATOM     16  N   UNL A   1      43.579  27.259  27.971  1.00  0.00    -0.248 NA
ATOM     17  C   UNL A   1      41.316  26.778  28.292  1.00  0.00     0.031 C 
ATOM     18  C   UNL A   1      42.858  31.358  29.620  1.00  0.00     0.029 A 
ATOM     19  N   UNL A   1      44.388  30.041  28.665  1.00  0.00    -0.354 N 
ATOM     20  C   UNL A   1      43.331  25.946  27.600  1.00  0.00     0.074 A 
ATOM     21  C   UNL A   1      41.925  25.694  27.832  1.00  0.00     0.031 C 
ATOM     22  C   UNL A   1      43.964  32.094  29.429  1.00  0.00     0.029 A 
ATOM     23  C   UNL A   1      44.976  31.281  28.777  1.00  0.00     0.049 A 
ATOM     24  H   UNL A   1      44.861  29.247  28.325  1.00  0.00     0.167 HD
ATOM     25  C   UNL A   1      44.212  25.031  27.135  1.00  0.00     0.031 A 
ATOM     26  C   UNL A   1      46.186  31.716  28.375  1.00  0.00     0.031 A 
ATOM     27  C   UNL A   1      45.607  25.313  26.929  1.00  0.00     0.049 A 
ATOM     28  C   UNL A   1      47.120  30.702  27.778  1.00  0.00     0.074 A 
ATOM     29  C   UNL A   1      46.625  24.450  26.569  1.00  0.00     0.029 A 
ATOM     30  N   UNL A   1      46.177  26.576  27.051  1.00  0.00    -0.354 N 
ATOM     31  N   UNL A   1      46.893  29.435  27.515  1.00  0.00    -0.248 NA
ATOM     32  C   UNL A   1      48.480  31.153  27.463  1.00  0.00     0.031 C 
ATOM     33  C   UNL A   1      47.815  25.185  26.500  1.00  0.00     0.029 A 
ATOM     34  C   UNL A   1      47.529  26.516  26.766  1.00  0.00     0.049 A 
ATOM     35  H   UNL A   1      45.688  27.392  27.302  1.00  0.00     0.167 HD
ATOM     36  C   UNL A   1      48.096  28.925  27.049  1.00  0.00     0.074 A 
ATOM     37  C   UNL A   1      49.024  30.040  26.990  1.00  0.00     0.031 C 
ATOM     38  C   UNL A   1      48.423  27.646  26.741  1.00  0.00     0.031 A 
BRANCH  25  39
ATOM     39  C   UNL A   1      43.694  23.637  26.914  1.00  0.00    -0.014 A 
ATOM     40  C   UNL A   1      43.536  23.110  25.619  1.00  0.00     0.010 A 
ATOM     41  C   UNL A   1      43.324  22.855  28.022  1.00  0.00     0.010 A 
ATOM     42  C   UNL A   1      42.980  21.839  25.438  1.00  0.00     0.020 A 
ATOM     43  C   UNL A   1      42.789  21.576  27.845  1.00  0.00     0.020 A 
ATOM     44  C   UNL A   1      42.602  21.085  26.552  1.00  0.00     0.054 A 
BRANCH  44  45
ATOM     45  S   UNL A   1      41.877  19.442  26.291  1.00  0.00     0.124 S 
ATOM     46  O   UNL A   1      42.245  18.751  27.524  1.00  0.00    -0.237 OA
ATOM     47  O   UNL A   1      40.455  19.739  26.139  1.00  0.00    -0.237 OA
ATOM     48  O   UNL A   1      42.540  18.957  25.083  1.00  0.00    -0.744 OA
ENDBRANCH  44  45
ENDBRANCH  25  39
BRANCH  26  49
ATOM     49  C   UNL A   1      46.588  33.146  28.540  1.00  0.00    -0.014 A 
ATOM     50  C   UNL A   1      47.257  33.579  29.701  1.00  0.00     0.010 A 
ATOM     51  C   UNL A   1      46.305  34.092  27.536  1.00  0.00     0.010 A 
ATOM     52  C   UNL A   1      47.611  34.925  29.864  1.00  0.00     0.020 A 
ATOM     53  C   UNL A   1      46.691  35.429  27.678  1.00  0.00     0.020 A 
ATOM     54  C   UNL A   1      47.323  35.843  28.851  1.00  0.00     0.054 A 
BRANCH  54  55
ATOM     55  S   UNL A   1      47.814  37.580  29.051  1.00  0.00     0.124 S 
ATOM     56  O   UNL A   1      47.717  38.081  27.684  1.00  0.00    -0.237 OA
ATOM     57  O   UNL A   1      46.815  38.095  29.985  1.00  0.00    -0.237 OA
ATOM     58  O   UNL A   1      49.169  37.487  29.591  1.00  0.00    -0.744 OA
ENDBRANCH  54  55
ENDBRANCH  26  49
BRANCH  38  59
ATOM     59  C   UNL A   1      49.852  27.398  26.351  1.00  0.00    -0.014 A 
ATOM     60  C   UNL A   1      50.229  27.377  24.996  1.00  0.00     0.010 A 
ATOM     61  C   UNL A   1      50.827  27.213  27.346  1.00  0.00     0.010 A 
ATOM     62  C   UNL A   1      51.556  27.130  24.639  1.00  0.00     0.020 A 
ATOM     63  C   UNL A   1      52.160  26.990  26.992  1.00  0.00     0.020 A 
ATOM     64  C   UNL A   1      52.511  26.933  25.641  1.00  0.00     0.054 A 
BRANCH  64  65
ATOM     65  S   UNL A   1      54.231  26.633  25.155  1.00  0.00     0.124 S 
ATOM     66  O   UNL A   1      54.500  27.767  24.276  1.00  0.00    -0.237 OA
ATOM     67  O   UNL A   1      54.935  26.648  26.435  1.00  0.00    -0.237 OA
ATOM     68  O   UNL A   1      54.181  25.330  24.494  1.00  0.00    -0.744 OA
ENDBRANCH  64  65
ENDBRANCH  38  59
ENDBRANCH  12  13
ENDBRANCH   5   7
ENDBRANCH   4   5
ENDBRANCH   3   4
ENDBRANCH   2   3
ENDBRANCH   1   2
BRANCH   1  69
ATOM     69  C   UNL A   1      34.125  29.524  26.482  1.00  0.00     0.202 C 
BRANCH  69  70
ATOM     70  C   UNL A   1      34.105  28.002  26.340  1.00  0.00     0.261 C 
BRANCH  70  71
ATOM     71  O   UNL A   1      33.090  27.441  27.196  1.00  0.00    -0.463 OA
BRANCH  71  72
ATOM     72  C   UNL A   1      31.814  27.806  26.876  1.00  0.00     0.310 C 
ATOM     73  O   UNL A   1      31.001  28.238  27.679  1.00  0.00    -0.252 OA
BRANCH  72  74
ATOM     74  C   UNL A   1      31.483  27.557  25.410  1.00  0.00     0.115 C 
ATOM     75  C   UNL A   1      31.063  28.842  24.667  1.00  0.00     0.043 C 
ATOM     76  C   UNL A   1      30.385  26.497  25.231  1.00  0.00     0.097 C 
ATOM     77  C   UNL A   1      30.541  28.583  23.282  1.00  0.00    -0.030 C 
ATOM     78  C   UNL A   1      30.182  26.155  23.742  1.00  0.00     0.041 C 
ATOM     79  C   UNL A   1      30.162  27.369  22.861  1.00  0.00    -0.030 C 
BRANCH  76  80
ATOM     80  C   UNL A   1      30.405  25.174  26.000  1.00  0.00     0.227 C 
ATOM     81  O   UNL A   1      29.511  24.965  26.826  1.00  0.00    -0.275 OA
ATOM     82  N   UNL A   1      31.235  24.161  25.540  1.00  0.00    -0.331 N 
ATOM     83  C   UNL A   1      30.759  22.793  25.729  1.00  0.00     0.181 C 
ATOM     84  C   UNL A   1      32.687  24.288  25.594  1.00  0.00     0.181 C 
ATOM     85  C   UNL A   1      31.531  21.758  24.884  1.00  0.00     0.284 C 
ATOM     86  C   UNL A   1      33.423  23.269  24.710  1.00  0.00     0.284 C 
ATOM     87  N   UNL A   1      32.998  21.871  24.844  1.00  0.00    -0.328 N 
ATOM     88  H   UNL A   1      33.288  21.397  23.988  1.00  0.00     0.348 HD
BRANCH  87  89
ATOM     89  C   UNL A   1      33.731  21.085  25.851  1.00  0.00     0.299 C 
BRANCH  89  90
ATOM     90  C   UNL A   1      33.892  19.611  25.568  1.00  0.00     0.010 A 
ATOM     91  C   UNL A   1      34.934  19.157  24.728  1.00  0.00     0.013 A 
ATOM     92  C   UNL A   1      32.947  18.692  26.058  1.00  0.00     0.060 A 
ATOM     93  C   UNL A   1      34.949  17.845  24.250  1.00  0.00     0.051 A 
ATOM     94  C   UNL A   1      32.995  17.401  25.585  1.00  0.00     0.166 A 
ATOM     95  C   UNL A   1      33.945  17.003  24.677  1.00  0.00     0.165 A 
ATOM     96  O   UNL A   1      32.105  16.414  25.876  1.00  0.00    -0.454 OA
ATOM     97  O   UNL A   1      33.737  15.733  24.249  1.00  0.00    -0.454 OA
ATOM     98  C   UNL A   1      32.668  15.325  25.117  1.00  0.00     0.468 C 
ENDBRANCH  89  90
ENDBRANCH  87  89
ENDBRANCH  76  80
ENDBRANCH  72  74
ENDBRANCH  71  72
ENDBRANCH  70  71
ENDBRANCH  69  70
ENDBRANCH   1  69
TORSDOF 20
ENDMDL
