MODEL 1
REMARK VINA RESULT:      -9.7      0.000      0.000
REMARK SMILES C[C@H](c1ccncc1)N1C[C@H](C(=O)OCCOCCOC(=O)c2ccc(-c3c4nc(c(-c5ccc(S(=O)(=O)[O-])cc5)c5ccc([nH]5)c(-c5ccc(S(=O)(=O)[O-])cc5)c5nc(c(-c6ccc(S(=O)(=O)[O-])cc6)c6ccc3[nH]6)C=C5)C=C4)cc2)CC1=O
REMARK SMILES IDX 18 1 17 2 16 3 15 4 14 5 12 6 13 7 11 8 9 9 10 10 84 11
REMARK SMILES IDX 83 12 85 13 2 14 1 15 3 16 4 17 8 18 5 19 7 20 6 21 19 22
REMARK SMILES IDX 20 23 21 24 22 25 23 26 24 27 82 28 25 29 81 30 26 31 27 32
REMARK SMILES IDX 28 33 75 34 29 35 80 36 74 37 76 38 30 39 79 40 73 41 72 42
REMARK SMILES IDX 31 44 61 45 42 46 60 47 43 48 46 49 59 50 77 51 44 52 45 53
REMARK SMILES IDX 58 55 78 56 47 57 32 58 33 59 41 60 34 61 40 62 35 63 36 64
REMARK SMILES IDX 37 65 38 66 39 67 62 68 63 69 71 70 64 71 70 72 65 73 66 74
REMARK SMILES IDX 67 75 68 76 69 77 48 78 49 79 57 80 50 81 56 82 51 83 52 84
REMARK SMILES IDX 53 85 54 86 55 87
REMARK H PARENT 76 43 46 54
REMARK Flexibility Score: inf
ROOT
ATOM      1  C   UNL A   1      39.741  22.386  26.585  1.00  0.00     0.202 C 
ENDROOT
BRANCH   1   2
ATOM      2  O   UNL A   1      40.181  21.191  27.229  1.00  0.00    -0.374 OA
BRANCH   2   3
ATOM      3  C   UNL A   1      40.995  20.305  26.460  1.00  0.00     0.202 C 
BRANCH   3   4
ATOM      4  C   UNL A   1      42.499  20.599  26.432  1.00  0.00     0.261 C 
BRANCH   4   5
ATOM      5  O   UNL A   1      42.984  20.847  25.098  1.00  0.00    -0.463 OA
BRANCH   5   6
ATOM      6  C   UNL A   1      44.335  20.820  24.950  1.00  0.00     0.311 C 
ATOM      7  O   UNL A   1      45.058  19.931  25.386  1.00  0.00    -0.252 OA
BRANCH   6   8
ATOM      8  C   UNL A   1      44.884  22.041  24.226  1.00  0.00     0.128 C 
ATOM      9  N   UNL A   1      44.595  23.739  25.795  1.00  0.00    -0.335 N 
ATOM     10  C   UNL A   1      44.010  23.240  24.564  1.00  0.00     0.136 C 
ATOM     11  C   UNL A   1      45.968  23.508  25.771  1.00  0.00     0.224 C 
ATOM     12  C   UNL A   1      46.267  22.523  24.659  1.00  0.00     0.117 C 
ATOM     13  O   UNL A   1      46.817  24.000  26.494  1.00  0.00    -0.275 OA
BRANCH   9  14
ATOM     14  C   UNL A   1      43.929  24.712  26.681  1.00  0.00     0.112 C 
ATOM     15  C   UNL A   1      44.355  26.169  26.435  1.00  0.00     0.036 C 
BRANCH  14  16
ATOM     16  C   UNL A   1      44.146  24.435  28.163  1.00  0.00    -0.023 A 
ATOM     17  C   UNL A   1      44.545  25.445  29.050  1.00  0.00     0.026 A 
ATOM     18  C   UNL A   1      43.870  23.170  28.692  1.00  0.00     0.026 A 
ATOM     19  C   UNL A   1      44.679  25.142  30.396  1.00  0.00     0.111 A 
ATOM     20  C   UNL A   1      44.016  22.970  30.057  1.00  0.00     0.111 A 
ATOM     21  N   UNL A   1      44.419  23.926  30.921  1.00  0.00    -0.265 NA
ENDBRANCH  14  16
ENDBRANCH   9  14
ENDBRANCH   6   8
ENDBRANCH   5   6
ENDBRANCH   4   5
ENDBRANCH   3   4
ENDBRANCH   2   3
ENDBRANCH   1   2
BRANCH   1  22
ATOM     22  C   UNL A   1      40.429  23.701  26.974  1.00  0.00     0.261 C 
BRANCH  22  23
ATOM     23  O   UNL A   1      39.638  24.856  26.642  1.00  0.00    -0.460 OA
BRANCH  23  24
ATOM     24  C   UNL A   1      40.341  26.010  26.552  1.00  0.00     0.338 C 
ATOM     25  O   UNL A   1      41.018  26.389  25.604  1.00  0.00    -0.246 OA
BRANCH  24  26
ATOM     26  C   UNL A   1      40.040  26.884  27.700  1.00  0.00     0.060 A 
ATOM     27  C   UNL A   1      40.630  28.155  27.706  1.00  0.00     0.016 A 
ATOM     28  C   UNL A   1      39.264  26.457  28.780  1.00  0.00     0.016 A 
ATOM     29  C   UNL A   1      40.498  28.981  28.819  1.00  0.00     0.010 A 
ATOM     30  C   UNL A   1      39.139  27.286  29.901  1.00  0.00     0.010 A 
ATOM     31  C   UNL A   1      39.789  28.533  29.941  1.00  0.00    -0.014 A 
BRANCH  31  32
ATOM     32  C   UNL A   1      39.868  29.309  31.202  1.00  0.00     0.031 A 
ATOM     33  C   UNL A   1      41.007  29.041  32.151  1.00  0.00     0.074 A 
ATOM     34  C   UNL A   1      38.973  30.275  31.476  1.00  0.00     0.049 A 
ATOM     35  N   UNL A   1      41.278  29.607  33.298  1.00  0.00    -0.248 NA
ATOM     36  C   UNL A   1      41.968  27.999  31.750  1.00  0.00     0.031 C 
ATOM     37  C   UNL A   1      37.855  30.661  30.616  1.00  0.00     0.029 A 
ATOM     38  N   UNL A   1      38.869  31.111  32.559  1.00  0.00    -0.354 N 
ATOM     39  C   UNL A   1      42.435  28.988  33.759  1.00  0.00     0.074 A 
ATOM     40  C   UNL A   1      42.797  27.986  32.782  1.00  0.00     0.031 C 
ATOM     41  C   UNL A   1      37.174  31.658  31.208  1.00  0.00     0.029 A 
ATOM     42  C   UNL A   1      37.790  31.960  32.498  1.00  0.00     0.049 A 
ATOM     43  H   UNL A   1      39.507  31.103  33.309  1.00  0.00     0.167 HD
ATOM     44  C   UNL A   1      43.137  29.236  34.891  1.00  0.00     0.031 A 
ATOM     45  C   UNL A   1      37.342  32.867  33.389  1.00  0.00     0.031 A 
ATOM     46  C   UNL A   1      42.768  30.226  35.868  1.00  0.00     0.049 A 
ATOM     47  C   UNL A   1      38.099  33.078  34.674  1.00  0.00     0.074 A 
ATOM     48  C   UNL A   1      43.421  30.561  37.043  1.00  0.00     0.029 A 
ATOM     49  N   UNL A   1      41.646  31.036  35.789  1.00  0.00    -0.354 N 
ATOM     50  N   UNL A   1      39.202  32.499  35.085  1.00  0.00    -0.248 NA
ATOM     51  C   UNL A   1      37.554  34.070  35.611  1.00  0.00     0.031 C 
ATOM     52  C   UNL A   1      42.662  31.536  37.700  1.00  0.00     0.029 A 
ATOM     53  C   UNL A   1      41.570  31.850  36.906  1.00  0.00     0.049 A 
ATOM     54  H   UNL A   1      40.997  31.031  35.048  1.00  0.00     0.167 HD
ATOM     55  C   UNL A   1      39.496  33.076  36.316  1.00  0.00     0.074 A 
ATOM     56  C   UNL A   1      38.463  34.056  36.577  1.00  0.00     0.031 C 
ATOM     57  C   UNL A   1      40.532  32.820  37.154  1.00  0.00     0.031 A 
BRANCH  44  58
ATOM     58  C   UNL A   1      44.357  28.395  35.149  1.00  0.00    -0.014 A 
ATOM     59  C   UNL A   1      44.246  27.068  35.603  1.00  0.00     0.010 A 
ATOM     60  C   UNL A   1      45.635  28.930  34.905  1.00  0.00     0.010 A 
ATOM     61  C   UNL A   1      45.392  26.305  35.845  1.00  0.00     0.020 A 
ATOM     62  C   UNL A   1      46.782  28.162  35.121  1.00  0.00     0.020 A 
ATOM     63  C   UNL A   1      46.653  26.859  35.606  1.00  0.00     0.054 A 
BRANCH  63  64
ATOM     64  S   UNL A   1      48.124  25.842  35.911  1.00  0.00     0.124 S 
ATOM     65  O   UNL A   1      49.182  26.847  35.948  1.00  0.00    -0.237 OA
ATOM     66  O   UNL A   1      47.817  25.207  37.190  1.00  0.00    -0.237 OA
ATOM     67  O   UNL A   1      48.164  24.937  34.765  1.00  0.00    -0.744 OA
ENDBRANCH  63  64
ENDBRANCH  44  58
BRANCH  45  68
ATOM     68  C   UNL A   1      36.098  33.634  33.103  1.00  0.00    -0.014 A 
ATOM     69  C   UNL A   1      34.833  33.055  33.302  1.00  0.00     0.010 A 
ATOM     70  C   UNL A   1      36.180  34.958  32.633  1.00  0.00     0.010 A 
ATOM     71  C   UNL A   1      33.671  33.782  33.023  1.00  0.00     0.020 A 
ATOM     72  C   UNL A   1      35.022  35.697  32.379  1.00  0.00     0.020 A 
ATOM     73  C   UNL A   1      33.773  35.100  32.566  1.00  0.00     0.054 A 
BRANCH  73  74
ATOM     74  S   UNL A   1      32.254  36.047  32.268  1.00  0.00     0.124 S 
ATOM     75  O   UNL A   1      32.388  37.144  33.221  1.00  0.00    -0.237 OA
ATOM     76  O   UNL A   1      32.381  36.411  30.859  1.00  0.00    -0.237 OA
ATOM     77  O   UNL A   1      31.192  35.088  32.561  1.00  0.00    -0.744 OA
ENDBRANCH  73  74
ENDBRANCH  45  68
BRANCH  57  78
ATOM     78  C   UNL A   1      40.620  33.630  38.419  1.00  0.00    -0.014 A 
ATOM     79  C   UNL A   1      41.248  34.887  38.440  1.00  0.00     0.010 A 
ATOM     80  C   UNL A   1      40.012  33.148  39.594  1.00  0.00     0.010 A 
ATOM     81  C   UNL A   1      41.295  35.634  39.620  1.00  0.00     0.020 A 
ATOM     82  C   UNL A   1      40.034  33.904  40.769  1.00  0.00     0.020 A 
ATOM     83  C   UNL A   1      40.688  35.137  40.777  1.00  0.00     0.054 A 
BRANCH  83  84
ATOM     84  S   UNL A   1      40.725  36.145  42.286  1.00  0.00     0.124 S 
ATOM     85  O   UNL A   1      39.665  37.116  42.028  1.00  0.00    -0.237 OA
ATOM     86  O   UNL A   1      40.439  35.167  43.333  1.00  0.00    -0.237 OA
ATOM     87  O   UNL A   1      42.080  36.690  42.304  1.00  0.00    -0.744 OA
ENDBRANCH  83  84
ENDBRANCH  57  78
ENDBRANCH  31  32
ENDBRANCH  24  26
ENDBRANCH  23  24
ENDBRANCH  22  23
ENDBRANCH   1  22
TORSDOF 19
ENDMDL
MODEL 2
REMARK VINA RESULT:      -9.4      5.218     11.571
REMARK SMILES C[C@H](c1ccncc1)N1C[C@H](C(=O)OCCOCCOC(=O)c2ccc(-c3c4nc(c(-c5ccc(S(=O)(=O)[O-])cc5)c5ccc([nH]5)c(-c5ccc(S(=O)(=O)[O-])cc5)c5nc(c(-c6ccc(S(=O)(=O)[O-])cc6)c6ccc3[nH]6)C=C5)C=C4)cc2)CC1=O
REMARK SMILES IDX 18 1 17 2 16 3 15 4 14 5 12 6 13 7 11 8 9 9 10 10 84 11
REMARK SMILES IDX 83 12 85 13 2 14 1 15 3 16 4 17 8 18 5 19 7 20 6 21 19 22
REMARK SMILES IDX 20 23 21 24 22 25 23 26 24 27 82 28 25 29 81 30 26 31 27 32
REMARK SMILES IDX 28 33 75 34 29 35 80 36 74 37 76 38 30 39 79 40 73 41 72 42
REMARK SMILES IDX 31 44 61 45 42 46 60 47 43 48 46 49 59 50 77 51 44 52 45 53
REMARK SMILES IDX 58 55 78 56 47 57 32 58 33 59 41 60 34 61 40 62 35 63 36 64
REMARK SMILES IDX 37 65 38 66 39 67 62 68 63 69 71 70 64 71 70 72 65 73 66 74
REMARK SMILES IDX 67 75 68 76 69 77 48 78 49 79 57 80 50 81 56 82 51 83 52 84
REMARK SMILES IDX 53 85 54 86 55 87
REMARK H PARENT 76 43 46 54
REMARK Flexibility Score: inf
ROOT
ATOM      1  C   UNL A   1      33.577  28.315  26.059  1.00  0.00     0.202 C 
ENDROOT
BRANCH   1   2
ATOM      2  O   UNL A   1      32.677  27.214  25.940  1.00  0.00    -0.374 OA
BRANCH   2   3
ATOM      3  C   UNL A   1      31.287  27.526  25.829  1.00  0.00     0.202 C 
BRANCH   3   4
ATOM      4  C   UNL A   1      30.400  26.486  25.135  1.00  0.00     0.261 C 
BRANCH   4   5
ATOM      5  O   UNL A   1      31.042  25.199  25.033  1.00  0.00    -0.463 OA
BRANCH   5   6
ATOM      6  C   UNL A   1      30.641  24.270  25.939  1.00  0.00     0.311 C 
ATOM      7  O   UNL A   1      29.808  24.476  26.816  1.00  0.00    -0.252 OA
BRANCH   6   8
ATOM      8  C   UNL A   1      31.370  22.941  25.799  1.00  0.00     0.128 C 
ATOM      9  N   UNL A   1      33.609  23.587  25.767  1.00  0.00    -0.335 N 
ATOM     10  C   UNL A   1      32.560  23.136  24.871  1.00  0.00     0.136 C 
ATOM     11  C   UNL A   1      33.429  22.989  27.012  1.00  0.00     0.224 C 
ATOM     12  C   UNL A   1      32.037  22.395  27.060  1.00  0.00     0.117 C 
ATOM     13  O   UNL A   1      34.233  22.924  27.926  1.00  0.00    -0.275 OA
BRANCH   9  14
ATOM     14  C   UNL A   1      34.872  24.193  25.307  1.00  0.00     0.112 C 
ATOM     15  C   UNL A   1      34.811  24.739  23.870  1.00  0.00     0.036 C 
BRANCH  14  16
ATOM     16  C   UNL A   1      36.061  23.241  25.365  1.00  0.00    -0.023 A 
ATOM     17  C   UNL A   1      36.029  21.985  24.743  1.00  0.00     0.026 A 
ATOM     18  C   UNL A   1      37.254  23.639  25.976  1.00  0.00     0.026 A 
ATOM     19  C   UNL A   1      37.158  21.184  24.790  1.00  0.00     0.111 A 
ATOM     20  C   UNL A   1      38.337  22.773  25.953  1.00  0.00     0.111 A 
ATOM     21  N   UNL A   1      38.316  21.552  25.378  1.00  0.00    -0.265 NA
ENDBRANCH  14  16
ENDBRANCH   9  14
ENDBRANCH   6   8
ENDBRANCH   5   6
ENDBRANCH   4   5
ENDBRANCH   3   4
ENDBRANCH   2   3
ENDBRANCH   1   2
BRANCH   1  22
ATOM     22  C   UNL A   1      33.249  29.395  27.097  1.00  0.00     0.261 C 
BRANCH  22  23
ATOM     23  O   UNL A   1      34.049  30.580  26.932  1.00  0.00    -0.460 OA
BRANCH  23  24
ATOM     24  C   UNL A   1      34.695  30.981  28.053  1.00  0.00     0.338 C 
ATOM     25  O   UNL A   1      34.256  31.708  28.936  1.00  0.00    -0.246 OA
BRANCH  24  26
ATOM     26  C   UNL A   1      35.974  30.263  28.192  1.00  0.00     0.060 A 
ATOM     27  C   UNL A   1      36.283  29.748  29.458  1.00  0.00     0.016 A 
ATOM     28  C   UNL A   1      36.887  30.155  27.141  1.00  0.00     0.016 A 
ATOM     29  C   UNL A   1      37.531  29.178  29.695  1.00  0.00     0.010 A 
ATOM     30  C   UNL A   1      38.145  29.589  27.383  1.00  0.00     0.010 A 
ATOM     31  C   UNL A   1      38.485  29.135  28.671  1.00  0.00    -0.014 A 
BRANCH  31  32
ATOM     32  C   UNL A   1      39.881  28.760  29.000  1.00  0.00     0.031 A 
ATOM     33  C   UNL A   1      40.746  29.751  29.734  1.00  0.00     0.074 A 
ATOM     34  C   UNL A   1      40.358  27.539  28.701  1.00  0.00     0.049 A 
ATOM     35  N   UNL A   1      41.986  29.632  30.132  1.00  0.00    -0.248 NA
ATOM     36  C   UNL A   1      40.129  31.047  30.064  1.00  0.00     0.031 C 
ATOM     37  C   UNL A   1      39.605  26.477  28.035  1.00  0.00     0.029 A 
ATOM     38  N   UNL A   1      41.594  26.986  28.924  1.00  0.00    -0.354 N 
ATOM     39  C   UNL A   1      42.301  30.835  30.754  1.00  0.00     0.074 A 
ATOM     40  C   UNL A   1      41.132  31.681  30.655  1.00  0.00     0.031 C 
ATOM     41  C   UNL A   1      40.397  25.399  27.900  1.00  0.00     0.029 A 
ATOM     42  C   UNL A   1      41.719  25.705  28.443  1.00  0.00     0.049 A 
ATOM     43  H   UNL A   1      42.322  27.463  29.384  1.00  0.00     0.167 HD
ATOM     44  C   UNL A   1      43.456  31.202  31.359  1.00  0.00     0.031 A 
ATOM     45  C   UNL A   1      42.784  24.879  28.428  1.00  0.00     0.031 A 
ATOM     46  C   UNL A   1      44.622  30.364  31.445  1.00  0.00     0.049 A 
ATOM     47  C   UNL A   1      44.081  25.333  29.045  1.00  0.00     0.074 A 
ATOM     48  C   UNL A   1      45.838  30.640  32.048  1.00  0.00     0.029 A 
ATOM     49  N   UNL A   1      44.722  29.089  30.910  1.00  0.00    -0.354 N 
ATOM     50  N   UNL A   1      44.355  26.466  29.647  1.00  0.00    -0.248 NA
ATOM     51  C   UNL A   1      45.210  24.394  28.987  1.00  0.00     0.031 C 
ATOM     52  C   UNL A   1      46.690  29.552  31.829  1.00  0.00     0.029 A 
ATOM     53  C   UNL A   1      45.987  28.575  31.142  1.00  0.00     0.049 A 
ATOM     54  H   UNL A   1      44.000  28.619  30.433  1.00  0.00     0.167 HD
ATOM     55  C   UNL A   1      45.679  26.364  30.061  1.00  0.00     0.074 A 
ATOM     56  C   UNL A   1      46.147  25.056  29.653  1.00  0.00     0.031 C 
ATOM     57  C   UNL A   1      46.439  27.272  30.725  1.00  0.00     0.031 A 
BRANCH  44  58
ATOM     58  C   UNL A   1      43.524  32.587  31.943  1.00  0.00    -0.014 A 
ATOM     59  C   UNL A   1      43.171  32.833  33.282  1.00  0.00     0.010 A 
ATOM     60  C   UNL A   1      43.979  33.655  31.148  1.00  0.00     0.010 A 
ATOM     61  C   UNL A   1      43.235  34.128  33.804  1.00  0.00     0.020 A 
ATOM     62  C   UNL A   1      44.069  34.946  31.673  1.00  0.00     0.020 A 
ATOM     63  C   UNL A   1      43.679  35.177  32.994  1.00  0.00     0.054 A 
BRANCH  63  64
ATOM     64  S   UNL A   1      43.769  36.846  33.701  1.00  0.00     0.124 S 
ATOM     65  O   UNL A   1      43.938  37.669  32.507  1.00  0.00    -0.237 OA
ATOM     66  O   UNL A   1      42.482  36.978  34.378  1.00  0.00    -0.237 OA
ATOM     67  O   UNL A   1      44.931  36.786  34.585  1.00  0.00    -0.744 OA
ENDBRANCH  63  64
ENDBRANCH  44  58
BRANCH  45  68
ATOM     68  C   UNL A   1      42.673  23.539  27.789  1.00  0.00    -0.014 A 
ATOM     69  C   UNL A   1      43.042  23.347  26.447  1.00  0.00     0.010 A 
ATOM     70  C   UNL A   1      42.199  22.442  28.533  1.00  0.00     0.010 A 
ATOM     71  C   UNL A   1      42.927  22.085  25.854  1.00  0.00     0.020 A 
ATOM     72  C   UNL A   1      42.108  21.174  27.952  1.00  0.00     0.020 A 
ATOM     73  C   UNL A   1      42.463  21.006  26.613  1.00  0.00     0.054 A 
BRANCH  73  74
ATOM     74  S   UNL A   1      42.378  19.365  25.843  1.00  0.00     0.124 S 
ATOM     75  O   UNL A   1      40.976  19.288  25.446  1.00  0.00    -0.237 OA
ATOM     76  O   UNL A   1      43.342  19.477  24.752  1.00  0.00    -0.237 OA
ATOM     77  O   UNL A   1      42.774  18.462  26.922  1.00  0.00    -0.744 OA
ENDBRANCH  73  74
ENDBRANCH  45  68
BRANCH  57  78
ATOM     78  C   UNL A   1      47.846  26.874  31.078  1.00  0.00    -0.014 A 
ATOM     79  C   UNL A   1      48.940  27.288  30.298  1.00  0.00     0.010 A 
ATOM     80  C   UNL A   1      48.082  26.119  32.243  1.00  0.00     0.010 A 
ATOM     81  C   UNL A   1      50.241  26.928  30.659  1.00  0.00     0.020 A 
ATOM     82  C   UNL A   1      49.384  25.781  32.622  1.00  0.00     0.020 A 
ATOM     83  C   UNL A   1      50.455  26.176  31.819  1.00  0.00     0.054 A 
BRANCH  83  84
ATOM     84  S   UNL A   1      52.157  25.758  32.290  1.00  0.00     0.124 S 
ATOM     85  O   UNL A   1      51.970  24.504  33.015  1.00  0.00    -0.237 OA
ATOM     86  O   UNL A   1      52.829  25.643  30.998  1.00  0.00    -0.237 OA
ATOM     87  O   UNL A   1      52.578  26.894  33.106  1.00  0.00    -0.744 OA
ENDBRANCH  83  84
ENDBRANCH  57  78
ENDBRANCH  31  32
ENDBRANCH  24  26
ENDBRANCH  23  24
ENDBRANCH  22  23
ENDBRANCH   1  22
TORSDOF 19
ENDMDL
MODEL 3
REMARK VINA RESULT:      -9.4      3.555      5.779
REMARK SMILES C[C@H](c1ccncc1)N1C[C@H](C(=O)OCCOCCOC(=O)c2ccc(-c3c4nc(c(-c5ccc(S(=O)(=O)[O-])cc5)c5ccc([nH]5)c(-c5ccc(S(=O)(=O)[O-])cc5)c5nc(c(-c6ccc(S(=O)(=O)[O-])cc6)c6ccc3[nH]6)C=C5)C=C4)cc2)CC1=O
REMARK SMILES IDX 18 1 17 2 16 3 15 4 14 5 12 6 13 7 11 8 9 9 10 10 84 11
REMARK SMILES IDX 83 12 85 13 2 14 1 15 3 16 4 17 8 18 5 19 7 20 6 21 19 22
REMARK SMILES IDX 20 23 21 24 22 25 23 26 24 27 82 28 25 29 81 30 26 31 27 32
REMARK SMILES IDX 28 33 75 34 29 35 80 36 74 37 76 38 30 39 79 40 73 41 72 42
REMARK SMILES IDX 31 44 61 45 42 46 60 47 43 48 46 49 59 50 77 51 44 52 45 53
REMARK SMILES IDX 58 55 78 56 47 57 32 58 33 59 41 60 34 61 40 62 35 63 36 64
REMARK SMILES IDX 37 65 38 66 39 67 62 68 63 69 71 70 64 71 70 72 65 73 66 74
REMARK SMILES IDX 67 75 68 76 69 77 48 78 49 79 57 80 50 81 56 82 51 83 52 84
REMARK SMILES IDX 53 85 54 86 55 87
REMARK H PARENT 76 43 46 54
REMARK Flexibility Score: inf
ROOT
ATOM      1  C   UNL A   1      39.879  22.228  26.345  1.00  0.00     0.202 C 
ENDROOT
BRANCH   1   2
ATOM      2  O   UNL A   1      38.987  21.283  25.757  1.00  0.00    -0.374 OA
BRANCH   2   3
ATOM      3  C   UNL A   1      37.705  21.768  25.354  1.00  0.00     0.202 C 
BRANCH   3   4
ATOM      4  C   UNL A   1      36.639  20.716  25.030  1.00  0.00     0.261 C 
BRANCH   4   5
ATOM      5  O   UNL A   1      35.338  21.081  25.532  1.00  0.00    -0.463 OA
BRANCH   5   6
ATOM      6  C   UNL A   1      34.865  22.285  25.115  1.00  0.00     0.311 C 
ATOM      7  O   UNL A   1      34.587  22.551  23.950  1.00  0.00    -0.252 OA
BRANCH   6   8
ATOM      8  C   UNL A   1      34.758  23.309  26.236  1.00  0.00     0.128 C 
ATOM      9  N   UNL A   1      32.653  24.242  25.876  1.00  0.00    -0.335 N 
ATOM     10  C   UNL A   1      34.060  24.549  25.695  1.00  0.00     0.136 C 
ATOM     11  C   UNL A   1      32.503  23.456  27.016  1.00  0.00     0.224 C 
ATOM     12  C   UNL A   1      33.867  22.933  27.417  1.00  0.00     0.117 C 
ATOM     13  O   UNL A   1      31.473  23.217  27.621  1.00  0.00    -0.275 OA
BRANCH   9  14
ATOM     14  C   UNL A   1      31.563  25.002  25.237  1.00  0.00     0.112 C 
ATOM     15  C   UNL A   1      31.423  24.738  23.728  1.00  0.00     0.036 C 
BRANCH  14  16
ATOM     16  C   UNL A   1      31.690  26.511  25.409  1.00  0.00    -0.023 A 
ATOM     17  C   UNL A   1      31.551  27.123  26.662  1.00  0.00     0.026 A 
ATOM     18  C   UNL A   1      32.034  27.318  24.320  1.00  0.00     0.026 A 
ATOM     19  C   UNL A   1      31.726  28.494  26.763  1.00  0.00     0.111 A 
ATOM     20  C   UNL A   1      32.207  28.679  24.526  1.00  0.00     0.111 A 
ATOM     21  N   UNL A   1      32.056  29.287  25.721  1.00  0.00    -0.265 NA
ENDBRANCH  14  16
ENDBRANCH   9  14
ENDBRANCH   6   8
ENDBRANCH   5   6
ENDBRANCH   4   5
ENDBRANCH   3   4
ENDBRANCH   2   3
ENDBRANCH   1   2
BRANCH   1  22
ATOM     22  C   UNL A   1      39.285  23.546  26.858  1.00  0.00     0.261 C 
BRANCH  22  23
ATOM     23  O   UNL A   1      40.244  24.339  27.580  1.00  0.00    -0.460 OA
BRANCH  23  24
ATOM     24  C   UNL A   1      40.391  25.602  27.113  1.00  0.00     0.338 C 
ATOM     25  O   UNL A   1      40.568  25.941  25.949  1.00  0.00    -0.246 OA
BRANCH  24  26
ATOM     26  C   UNL A   1      40.117  26.579  28.182  1.00  0.00     0.060 A 
ATOM     27  C   UNL A   1      40.900  27.740  28.201  1.00  0.00     0.016 A 
ATOM     28  C   UNL A   1      39.175  26.342  29.185  1.00  0.00     0.016 A 
ATOM     29  C   UNL A   1      40.788  28.641  29.257  1.00  0.00     0.010 A 
ATOM     30  C   UNL A   1      39.069  27.245  30.250  1.00  0.00     0.010 A 
ATOM     31  C   UNL A   1      39.903  28.376  30.310  1.00  0.00    -0.014 A 
BRANCH  31  32
ATOM     32  C   UNL A   1      39.975  29.203  31.538  1.00  0.00     0.031 A 
ATOM     33  C   UNL A   1      41.103  28.968  32.509  1.00  0.00     0.074 A 
ATOM     34  C   UNL A   1      39.085  30.185  31.762  1.00  0.00     0.049 A 
ATOM     35  N   UNL A   1      41.366  29.579  33.635  1.00  0.00    -0.248 NA
ATOM     36  C   UNL A   1      42.060  27.904  32.162  1.00  0.00     0.031 C 
ATOM     37  C   UNL A   1      37.978  30.542  30.876  1.00  0.00     0.029 A 
ATOM     38  N   UNL A   1      38.975  31.067  32.808  1.00  0.00    -0.354 N 
ATOM     39  C   UNL A   1      42.514  28.972  34.134  1.00  0.00     0.074 A 
ATOM     40  C   UNL A   1      42.879  27.927  33.203  1.00  0.00     0.031 C 
ATOM     41  C   UNL A   1      37.298  31.568  31.418  1.00  0.00     0.029 A 
ATOM     42  C   UNL A   1      37.903  31.920  32.701  1.00  0.00     0.049 A 
ATOM     43  H   UNL A   1      39.605  31.086  33.565  1.00  0.00     0.167 HD
ATOM     44  C   UNL A   1      43.205  29.263  35.261  1.00  0.00     0.031 A 
ATOM     45  C   UNL A   1      37.452  32.866  33.549  1.00  0.00     0.031 A 
ATOM     46  C   UNL A   1      42.834  30.294  36.193  1.00  0.00     0.049 A 
ATOM     47  C   UNL A   1      38.197  33.125  34.832  1.00  0.00     0.074 A 
ATOM     48  C   UNL A   1      43.476  30.674  37.359  1.00  0.00     0.029 A 
ATOM     49  N   UNL A   1      41.718  31.108  36.068  1.00  0.00    -0.354 N 
ATOM     50  N   UNL A   1      39.292  32.557  35.278  1.00  0.00    -0.248 NA
ATOM     51  C   UNL A   1      37.650  34.159  35.721  1.00  0.00     0.031 C 
ATOM     52  C   UNL A   1      42.718  31.680  37.967  1.00  0.00     0.029 A 
ATOM     53  C   UNL A   1      41.636  31.969  37.150  1.00  0.00     0.049 A 
ATOM     54  H   UNL A   1      41.077  31.077  35.322  1.00  0.00     0.167 HD
ATOM     55  C   UNL A   1      39.578  33.182  36.488  1.00  0.00     0.074 A 
ATOM     56  C   UNL A   1      38.549  34.180  36.696  1.00  0.00     0.031 C 
ATOM     57  C   UNL A   1      40.603  32.954  37.346  1.00  0.00     0.031 A 
BRANCH  44  58
ATOM     58  C   UNL A   1      44.417  28.425  35.567  1.00  0.00    -0.014 A 
ATOM     59  C   UNL A   1      45.695  28.796  35.113  1.00  0.00     0.010 A 
ATOM     60  C   UNL A   1      44.280  27.263  36.348  1.00  0.00     0.010 A 
ATOM     61  C   UNL A   1      46.808  28.001  35.402  1.00  0.00     0.020 A 
ATOM     62  C   UNL A   1      45.393  26.478  36.661  1.00  0.00     0.020 A 
ATOM     63  C   UNL A   1      46.648  26.844  36.170  1.00  0.00     0.054 A 
BRANCH  63  64
ATOM     64  S   UNL A   1      48.110  25.838  36.546  1.00  0.00     0.124 S 
ATOM     65  O   UNL A   1      48.000  25.676  37.993  1.00  0.00    -0.237 OA
ATOM     66  O   UNL A   1      47.880  24.629  35.759  1.00  0.00    -0.237 OA
ATOM     67  O   UNL A   1      49.227  26.666  36.096  1.00  0.00    -0.744 OA
ENDBRANCH  63  64
ENDBRANCH  44  58
BRANCH  45  68
ATOM     68  C   UNL A   1      36.216  33.628  33.218  1.00  0.00    -0.014 A 
ATOM     69  C   UNL A   1      36.291  34.917  32.665  1.00  0.00     0.010 A 
ATOM     70  C   UNL A   1      34.952  33.056  33.454  1.00  0.00     0.010 A 
ATOM     71  C   UNL A   1      35.124  35.628  32.365  1.00  0.00     0.020 A 
ATOM     72  C   UNL A   1      33.784  33.751  33.130  1.00  0.00     0.020 A 
ATOM     73  C   UNL A   1      33.878  35.038  32.597  1.00  0.00     0.054 A 
BRANCH  73  74
ATOM     74  S   UNL A   1      32.376  35.951  32.145  1.00  0.00     0.124 S 
ATOM     75  O   UNL A   1      31.325  35.092  32.681  1.00  0.00    -0.237 OA
ATOM     76  O   UNL A   1      32.564  37.227  32.831  1.00  0.00    -0.237 OA
ATOM     77  O   UNL A   1      32.446  36.022  30.687  1.00  0.00    -0.744 OA
ENDBRANCH  73  74
ENDBRANCH  45  68
BRANCH  57  78
ATOM     78  C   UNL A   1      40.683  33.816  38.577  1.00  0.00    -0.014 A 
ATOM     79  C   UNL A   1      40.119  33.402  39.796  1.00  0.00     0.010 A 
ATOM     80  C   UNL A   1      41.385  35.035  38.526  1.00  0.00     0.010 A 
ATOM     81  C   UNL A   1      40.227  34.206  40.934  1.00  0.00     0.020 A 
ATOM     82  C   UNL A   1      41.518  35.829  39.668  1.00  0.00     0.020 A 
ATOM     83  C   UNL A   1      40.926  35.415  40.862  1.00  0.00     0.054 A 
BRANCH  83  84
ATOM     84  S   UNL A   1      41.090  36.422  42.363  1.00  0.00     0.124 S 
ATOM     85  O   UNL A   1      42.022  37.460  41.931  1.00  0.00    -0.237 OA
ATOM     86  O   UNL A   1      39.720  36.868  42.602  1.00  0.00    -0.237 OA
ATOM     87  O   UNL A   1      41.616  35.484  43.352  1.00  0.00    -0.744 OA
ENDBRANCH  83  84
ENDBRANCH  57  78
ENDBRANCH  31  32
ENDBRANCH  24  26
ENDBRANCH  23  24
ENDBRANCH  22  23
ENDBRANCH   1  22
TORSDOF 19
ENDMDL
