MODEL 1
REMARK VINA RESULT:     -10.7      0.000      0.000
REMARK SMILES O=C(Nc1c(F)cc(F)cc1F)N[C@H]1C=C[C@H](C(=O)OCCOCCOC(=O)c2ccc(-c3c4nc(c(-c5ccc(S(=O)(=O)[O-])cc5)c5ccc([nH]5)c(-c5ccc(S(=O)(=O)[O-])cc5)c5nc(c(-c6ccc(S(=O)(=O)[O-])cc6)c6ccc3[nH]6)C=C5)C=C4)cc2)C1
REMARK SMILES IDX 24 1 23 2 22 3 21 4 20 5 18 6 19 7 17 8 14 9 15 10 89 11
REMARK SMILES IDX 16 12 13 13 1 14 2 15 3 16 4 19 5 20 11 21 6 22 7 23 10 24
REMARK SMILES IDX 12 25 8 26 9 27 25 28 26 29 27 30 28 31 29 32 30 33 88 34
REMARK SMILES IDX 31 35 87 36 32 37 33 38 34 39 81 40 35 41 86 42 80 43 82 44
REMARK SMILES IDX 36 45 85 46 79 47 78 48 37 50 67 51 48 52 66 53 49 54 52 55
REMARK SMILES IDX 65 56 83 57 50 58 51 59 64 61 84 62 53 63 38 64 39 65 47 66
REMARK SMILES IDX 40 67 46 68 41 69 42 70 43 71 44 72 45 73 68 74 69 75 77 76
REMARK SMILES IDX 70 77 76 78 71 79 72 80 73 81 74 82 75 83 54 84 55 85 63 86
REMARK SMILES IDX 56 87 62 88 57 89 58 90 59 91 60 92 61 93
REMARK H PARENT 3 17 13 18 82 49 52 60
REMARK Flexibility Score: inf
ROOT
ATOM      1  C   UNL A   1      42.202  23.363  27.449  1.00  0.00     0.202 C 
ENDROOT
BRANCH   1   2
ATOM      2  O   UNL A   1      41.984  21.988  27.135  1.00  0.00    -0.374 OA
BRANCH   2   3
ATOM      3  C   UNL A   1      40.647  21.503  27.268  1.00  0.00     0.202 C 
BRANCH   3   4
ATOM      4  C   UNL A   1      39.797  21.486  25.994  1.00  0.00     0.261 C 
BRANCH   4   5
ATOM      5  O   UNL A   1      38.504  22.092  26.191  1.00  0.00    -0.463 OA
BRANCH   5   6
ATOM      6  C   UNL A   1      37.600  21.860  25.202  1.00  0.00     0.312 C 
ATOM      7  O   UNL A   1      37.567  20.835  24.525  1.00  0.00    -0.252 OA
BRANCH   6   8
ATOM      8  C   UNL A   1      36.660  23.046  24.961  1.00  0.00     0.124 C 
ATOM      9  C   UNL A   1      34.415  22.986  26.020  1.00  0.00     0.107 C 
ATOM     10  C   UNL A   1      34.397  22.467  24.617  1.00  0.00    -0.006 C 
ATOM     11  C   UNL A   1      35.833  23.580  26.145  1.00  0.00     0.048 C 
ATOM     12  C   UNL A   1      35.588  22.570  24.021  1.00  0.00    -0.014 C 
BRANCH   9  13
ATOM     13  N   UNL A   1      33.307  23.909  26.099  1.00  0.00    -0.332 N 
ATOM     14  O   UNL A   1      31.964  22.771  27.549  1.00  0.00    -0.248 OA
ATOM     15  C   UNL A   1      32.170  23.739  26.825  1.00  0.00     0.319 C 
ATOM     16  N   UNL A   1      31.323  24.814  26.863  1.00  0.00    -0.303 N 
ATOM     17  H   UNL A   1      30.753  24.856  27.664  1.00  0.00     0.172 HD
ATOM     18  H   UNL A   1      33.382  24.740  25.577  1.00  0.00     0.165 HD
BRANCH  16  19
ATOM     19  C   UNL A   1      31.130  25.872  25.949  1.00  0.00     0.115 A 
ATOM     20  C   UNL A   1      31.485  27.203  26.199  1.00  0.00     0.152 A 
ATOM     21  C   UNL A   1      30.609  25.566  24.687  1.00  0.00     0.152 A 
ATOM     22  F   UNL A   1      32.050  27.554  27.363  1.00  0.00    -0.204 F 
ATOM     23  C   UNL A   1      31.306  28.197  25.241  1.00  0.00     0.081 A 
ATOM     24  C   UNL A   1      30.394  26.551  23.726  1.00  0.00     0.081 A 
ATOM     25  F   UNL A   1      30.262  24.302  24.399  1.00  0.00    -0.204 F 
ATOM     26  C   UNL A   1      30.751  27.861  24.015  1.00  0.00     0.129 A 
ATOM     27  F   UNL A   1      30.562  28.815  23.094  1.00  0.00    -0.207 F 
ENDBRANCH  16  19
ENDBRANCH   9  13
ENDBRANCH   6   8
ENDBRANCH   5   6
ENDBRANCH   4   5
ENDBRANCH   3   4
ENDBRANCH   2   3
ENDBRANCH   1   2
BRANCH   1  28
ATOM     28  C   UNL A   1      42.227  24.346  26.271  1.00  0.00     0.261 C 
BRANCH  28  29
ATOM     29  O   UNL A   1      41.776  25.658  26.647  1.00  0.00    -0.460 OA
BRANCH  29  30
ATOM     30  C   UNL A   1      40.434  25.777  26.778  1.00  0.00     0.338 C 
ATOM     31  O   UNL A   1      39.579  25.132  26.182  1.00  0.00    -0.246 OA
BRANCH  30  32
ATOM     32  C   UNL A   1      40.097  26.678  27.895  1.00  0.00     0.060 A 
ATOM     33  C   UNL A   1      40.695  27.946  27.895  1.00  0.00     0.016 A 
ATOM     34  C   UNL A   1      39.284  26.281  28.960  1.00  0.00     0.016 A 
ATOM     35  C   UNL A   1      40.541  28.793  28.989  1.00  0.00     0.010 A 
ATOM     36  C   UNL A   1      39.136  27.132  30.063  1.00  0.00     0.010 A 
ATOM     37  C   UNL A   1      39.800  28.372  30.102  1.00  0.00    -0.014 A 
BRANCH  37  38
ATOM     38  C   UNL A   1      39.867  29.167  31.353  1.00  0.00     0.031 A 
ATOM     39  C   UNL A   1      41.000  28.919  32.314  1.00  0.00     0.074 A 
ATOM     40  C   UNL A   1      38.975  30.143  31.602  1.00  0.00     0.049 A 
ATOM     41  N   UNL A   1      41.276  29.522  33.443  1.00  0.00    -0.248 NA
ATOM     42  C   UNL A   1      41.950  27.853  31.954  1.00  0.00     0.031 C 
ATOM     43  C   UNL A   1      37.859  30.511  30.731  1.00  0.00     0.029 A 
ATOM     44  N   UNL A   1      38.874  31.008  32.662  1.00  0.00    -0.354 N 
ATOM     45  C   UNL A   1      42.425  28.908  33.928  1.00  0.00     0.074 A 
ATOM     46  C   UNL A   1      42.777  27.865  32.989  1.00  0.00     0.031 C 
ATOM     47  C   UNL A   1      37.184  31.529  31.294  1.00  0.00     0.029 A 
ATOM     48  C   UNL A   1      37.805  31.867  32.573  1.00  0.00     0.049 A 
ATOM     49  H   UNL A   1      39.508  31.014  33.415  1.00  0.00     0.167 HD
ATOM     50  C   UNL A   1      43.129  29.189  35.051  1.00  0.00     0.031 A 
ATOM     51  C   UNL A   1      37.369  32.811  33.431  1.00  0.00     0.031 A 
ATOM     52  C   UNL A   1      42.773  30.216  35.992  1.00  0.00     0.049 A 
ATOM     53  C   UNL A   1      38.133  33.065  34.704  1.00  0.00     0.074 A 
ATOM     54  C   UNL A   1      43.432  30.586  37.153  1.00  0.00     0.029 A 
ATOM     55  N   UNL A   1      41.661  31.036  35.886  1.00  0.00    -0.354 N 
ATOM     56  N   UNL A   1      39.232  32.492  35.136  1.00  0.00    -0.248 NA
ATOM     57  C   UNL A   1      37.604  34.103  35.600  1.00  0.00     0.031 C 
ATOM     58  C   UNL A   1      42.688  31.594  37.776  1.00  0.00     0.029 A 
ATOM     59  C   UNL A   1      41.599  31.893  36.973  1.00  0.00     0.049 A 
ATOM     60  H   UNL A   1      41.011  31.013  35.148  1.00  0.00     0.167 HD
ATOM     61  C   UNL A   1      39.538  33.118  36.340  1.00  0.00     0.074 A 
ATOM     62  C   UNL A   1      38.518  34.122  36.561  1.00  0.00     0.031 C 
ATOM     63  C   UNL A   1      40.575  32.884  37.183  1.00  0.00     0.031 A 
BRANCH  50  64
ATOM     64  C   UNL A   1      44.341  28.343  35.339  1.00  0.00    -0.014 A 
ATOM     65  C   UNL A   1      45.628  28.758  34.951  1.00  0.00     0.010 A 
ATOM     66  C   UNL A   1      44.194  27.130  36.035  1.00  0.00     0.010 A 
ATOM     67  C   UNL A   1      46.741  27.957  35.222  1.00  0.00     0.020 A 
ATOM     68  C   UNL A   1      45.307  26.338  36.330  1.00  0.00     0.020 A 
ATOM     69  C   UNL A   1      46.572  26.748  35.906  1.00  0.00     0.054 A 
BRANCH  69  70
ATOM     70  S   UNL A   1      48.034  25.735  36.261  1.00  0.00     0.124 S 
ATOM     71  O   UNL A   1      48.910  26.693  36.931  1.00  0.00    -0.237 OA
ATOM     72  O   UNL A   1      47.494  24.677  37.111  1.00  0.00    -0.237 OA
ATOM     73  O   UNL A   1      48.482  25.300  34.941  1.00  0.00    -0.744 OA
ENDBRANCH  69  70
ENDBRANCH  50  64
BRANCH  51  74
ATOM     74  C   UNL A   1      36.134  33.581  33.119  1.00  0.00    -0.014 A 
ATOM     75  C   UNL A   1      34.863  33.057  33.412  1.00  0.00     0.010 A 
ATOM     76  C   UNL A   1      36.228  34.853  32.524  1.00  0.00     0.010 A 
ATOM     77  C   UNL A   1      33.709  33.784  33.104  1.00  0.00     0.020 A 
ATOM     78  C   UNL A   1      35.079  35.594  32.239  1.00  0.00     0.020 A 
ATOM     79  C   UNL A   1      33.825  35.049  32.521  1.00  0.00     0.054 A 
BRANCH  79  80
ATOM     80  S   UNL A   1      32.317  36.001  32.182  1.00  0.00     0.124 S 
ATOM     81  O   UNL A   1      32.415  36.223  30.743  1.00  0.00    -0.237 OA
ATOM     82  O   UNL A   1      31.262  35.086  32.612  1.00  0.00    -0.237 OA
ATOM     83  O   UNL A   1      32.473  37.194  33.013  1.00  0.00    -0.744 OA
ENDBRANCH  79  80
ENDBRANCH  51  74
BRANCH  63  84
ATOM     84  C   UNL A   1      40.679  33.752  38.410  1.00  0.00    -0.014 A 
ATOM     85  C   UNL A   1      41.377  34.972  38.385  1.00  0.00     0.010 A 
ATOM     86  C   UNL A   1      40.025  33.362  39.594  1.00  0.00     0.010 A 
ATOM     87  C   UNL A   1      41.449  35.768  39.532  1.00  0.00     0.020 A 
ATOM     88  C   UNL A   1      40.072  34.167  40.734  1.00  0.00     0.020 A 
ATOM     89  C   UNL A   1      40.799  35.358  40.701  1.00  0.00     0.054 A 
BRANCH  89  90
ATOM     90  S   UNL A   1      40.879  36.424  42.167  1.00  0.00     0.124 S 
ATOM     91  O   UNL A   1      41.037  35.448  43.243  1.00  0.00    -0.237 OA
ATOM     92  O   UNL A   1      42.049  37.256  41.898  1.00  0.00    -0.237 OA
ATOM     93  O   UNL A   1      39.601  37.132  42.151  1.00  0.00    -0.744 OA
ENDBRANCH  89  90
ENDBRANCH  63  84
ENDBRANCH  37  38
ENDBRANCH  30  32
ENDBRANCH  29  30
ENDBRANCH  28  29
ENDBRANCH   1  28
TORSDOF 19
ENDMDL
MODEL 2
REMARK VINA RESULT:     -10.4      1.676      2.332
REMARK SMILES O=C(Nc1c(F)cc(F)cc1F)N[C@H]1C=C[C@H](C(=O)OCCOCCOC(=O)c2ccc(-c3c4nc(c(-c5ccc(S(=O)(=O)[O-])cc5)c5ccc([nH]5)c(-c5ccc(S(=O)(=O)[O-])cc5)c5nc(c(-c6ccc(S(=O)(=O)[O-])cc6)c6ccc3[nH]6)C=C5)C=C4)cc2)C1
REMARK SMILES IDX 24 1 23 2 22 3 21 4 20 5 18 6 19 7 17 8 14 9 15 10 89 11
REMARK SMILES IDX 16 12 13 13 1 14 2 15 3 16 4 19 5 20 11 21 6 22 7 23 10 24
REMARK SMILES IDX 12 25 8 26 9 27 25 28 26 29 27 30 28 31 29 32 30 33 88 34
REMARK SMILES IDX 31 35 87 36 32 37 33 38 34 39 81 40 35 41 86 42 80 43 82 44
REMARK SMILES IDX 36 45 85 46 79 47 78 48 37 50 67 51 48 52 66 53 49 54 52 55
REMARK SMILES IDX 65 56 83 57 50 58 51 59 64 61 84 62 53 63 38 64 39 65 47 66
REMARK SMILES IDX 40 67 46 68 41 69 42 70 43 71 44 72 45 73 68 74 69 75 77 76
REMARK SMILES IDX 70 77 76 78 71 79 72 80 73 81 74 82 75 83 54 84 55 85 63 86
REMARK SMILES IDX 56 87 62 88 57 89 58 90 59 91 60 92 61 93
REMARK H PARENT 3 17 13 18 82 49 52 60
REMARK Flexibility Score: inf
ROOT
ATOM      1  C   UNL A   1      43.245  21.962  25.555  1.00  0.00     0.202 C 
ENDROOT
BRANCH   1   2
ATOM      2  O   UNL A   1      42.158  21.059  25.756  1.00  0.00    -0.374 OA
BRANCH   2   3
ATOM      3  C   UNL A   1      41.038  21.556  26.490  1.00  0.00     0.202 C 
BRANCH   3   4
ATOM      4  C   UNL A   1      39.665  21.001  26.098  1.00  0.00     0.261 C 
BRANCH   4   5
ATOM      5  O   UNL A   1      38.829  21.997  25.475  1.00  0.00    -0.463 OA
BRANCH   5   6
ATOM      6  C   UNL A   1      37.543  21.616  25.253  1.00  0.00     0.312 C 
ATOM      7  O   UNL A   1      37.197  20.458  25.031  1.00  0.00    -0.252 OA
BRANCH   6   8
ATOM      8  C   UNL A   1      36.565  22.794  25.235  1.00  0.00     0.124 C 
ATOM      9  C   UNL A   1      34.135  22.290  25.134  1.00  0.00     0.107 C 
ATOM     10  C   UNL A   1      34.723  22.536  23.781  1.00  0.00    -0.006 C 
ATOM     11  C   UNL A   1      35.282  22.698  26.082  1.00  0.00     0.048 C 
ATOM     12  C   UNL A   1      36.012  22.883  23.841  1.00  0.00    -0.014 C 
BRANCH   9  13
ATOM     13  N   UNL A   1      32.932  23.088  25.178  1.00  0.00    -0.332 N 
ATOM     14  O   UNL A   1      31.382  21.431  25.402  1.00  0.00    -0.248 OA
ATOM     15  C   UNL A   1      31.661  22.619  25.286  1.00  0.00     0.319 C 
ATOM     16  N   UNL A   1      30.690  23.569  25.457  1.00  0.00    -0.303 N 
ATOM     17  H   UNL A   1      29.886  23.250  25.926  1.00  0.00     0.172 HD
ATOM     18  H   UNL A   1      33.044  24.064  25.124  1.00  0.00     0.165 HD
BRANCH  16  19
ATOM     19  C   UNL A   1      30.646  24.927  25.074  1.00  0.00     0.115 A 
ATOM     20  C   UNL A   1      31.037  25.989  25.898  1.00  0.00     0.152 A 
ATOM     21  C   UNL A   1      30.249  25.231  23.767  1.00  0.00     0.152 A 
ATOM     22  F   UNL A   1      31.490  25.763  27.140  1.00  0.00    -0.204 F 
ATOM     23  C   UNL A   1      31.010  27.307  25.449  1.00  0.00     0.081 A 
ATOM     24  C   UNL A   1      30.187  26.545  23.310  1.00  0.00     0.081 A 
ATOM     25  F   UNL A   1      29.875  24.244  22.939  1.00  0.00    -0.204 F 
ATOM     26  C   UNL A   1      30.573  27.572  24.160  1.00  0.00     0.129 A 
ATOM     27  F   UNL A   1      30.530  28.839  23.726  1.00  0.00    -0.207 F 
ENDBRANCH  16  19
ENDBRANCH   9  13
ENDBRANCH   6   8
ENDBRANCH   5   6
ENDBRANCH   4   5
ENDBRANCH   3   4
ENDBRANCH   2   3
ENDBRANCH   1   2
BRANCH   1  28
ATOM     28  C   UNL A   1      42.889  23.380  25.091  1.00  0.00     0.261 C 
BRANCH  28  29
ATOM     29  O   UNL A   1      43.157  24.367  26.102  1.00  0.00    -0.460 OA
BRANCH  29  30
ATOM     30  C   UNL A   1      42.371  25.468  26.037  1.00  0.00     0.338 C 
ATOM     31  O   UNL A   1      41.625  25.784  25.117  1.00  0.00    -0.246 OA
BRANCH  30  32
ATOM     32  C   UNL A   1      42.371  26.185  27.325  1.00  0.00     0.060 A 
ATOM     33  C   UNL A   1      41.424  25.786  28.277  1.00  0.00     0.016 A 
ATOM     34  C   UNL A   1      43.215  27.269  27.579  1.00  0.00     0.016 A 
ATOM     35  C   UNL A   1      41.267  26.511  29.455  1.00  0.00     0.010 A 
ATOM     36  C   UNL A   1      43.051  28.002  28.762  1.00  0.00     0.010 A 
ATOM     37  C   UNL A   1      42.047  27.653  29.684  1.00  0.00    -0.014 A 
BRANCH  37  38
ATOM     38  C   UNL A   1      41.687  28.556  30.805  1.00  0.00     0.031 A 
ATOM     39  C   UNL A   1      42.515  28.523  32.063  1.00  0.00     0.074 A 
ATOM     40  C   UNL A   1      40.681  29.442  30.684  1.00  0.00     0.049 A 
ATOM     41  N   UNL A   1      42.405  29.251  33.145  1.00  0.00    -0.248 NA
ATOM     42  C   UNL A   1      43.614  27.545  32.104  1.00  0.00     0.031 C 
ATOM     43  C   UNL A   1      39.833  29.603  29.503  1.00  0.00     0.029 A 
ATOM     44  N   UNL A   1      40.209  30.379  31.568  1.00  0.00    -0.354 N 
ATOM     45  C   UNL A   1      43.415  28.816  33.996  1.00  0.00     0.074 A 
ATOM     46  C   UNL A   1      44.108  27.742  33.317  1.00  0.00     0.031 C 
ATOM     47  C   UNL A   1      38.942  30.582  29.737  1.00  0.00     0.029 A 
ATOM     48  C   UNL A   1      39.140  31.099  31.089  1.00  0.00     0.049 A 
ATOM     49  H   UNL A   1      40.598  30.523  32.460  1.00  0.00     0.167 HD
ATOM     50  C   UNL A   1      43.744  29.272  35.229  1.00  0.00     0.031 A 
ATOM     51  C   UNL A   1      38.400  32.058  31.679  1.00  0.00     0.031 A 
ATOM     52  C   UNL A   1      43.048  30.331  35.910  1.00  0.00     0.049 A 
ATOM     53  C   UNL A   1      38.744  32.508  33.074  1.00  0.00     0.074 A 
ATOM     54  C   UNL A   1      43.314  30.873  37.156  1.00  0.00     0.029 A 
ATOM     55  N   UNL A   1      41.946  31.006  35.408  1.00  0.00    -0.354 N 
ATOM     56  N   UNL A   1      39.719  32.104  33.855  1.00  0.00    -0.248 NA
ATOM     57  C   UNL A   1      37.895  33.553  33.664  1.00  0.00     0.031 C 
ATOM     58  C   UNL A   1      42.340  31.840  37.429  1.00  0.00     0.029 A 
ATOM     59  C   UNL A   1      41.504  31.942  36.329  1.00  0.00     0.049 A 
ATOM     60  H   UNL A   1      41.539  30.845  34.527  1.00  0.00     0.167 HD
ATOM     61  C   UNL A   1      39.614  32.864  35.016  1.00  0.00     0.074 A 
ATOM     62  C   UNL A   1      38.492  33.760  34.830  1.00  0.00     0.031 C 
ATOM     63  C   UNL A   1      40.383  32.824  36.133  1.00  0.00     0.031 A 
BRANCH  50  64
ATOM     64  C   UNL A   1      44.890  28.599  35.935  1.00  0.00    -0.014 A 
ATOM     65  C   UNL A   1      44.680  27.485  36.767  1.00  0.00     0.010 A 
ATOM     66  C   UNL A   1      46.200  29.069  35.738  1.00  0.00     0.010 A 
ATOM     67  C   UNL A   1      45.756  26.876  37.419  1.00  0.00     0.020 A 
ATOM     68  C   UNL A   1      47.283  28.448  36.368  1.00  0.00     0.020 A 
ATOM     69  C   UNL A   1      47.052  27.365  37.218  1.00  0.00     0.054 A 
BRANCH  69  70
ATOM     70  S   UNL A   1      48.434  26.547  38.061  1.00  0.00     0.124 S 
ATOM     71  O   UNL A   1      49.328  26.240  36.947  1.00  0.00    -0.237 OA
ATOM     72  O   UNL A   1      48.908  27.580  38.980  1.00  0.00    -0.237 OA
ATOM     73  O   UNL A   1      47.814  25.389  38.698  1.00  0.00    -0.744 OA
ENDBRANCH  69  70
ENDBRANCH  50  64
BRANCH  51  74
ATOM     74  C   UNL A   1      37.244  32.653  30.952  1.00  0.00    -0.014 A 
ATOM     75  C   UNL A   1      37.439  33.651  29.981  1.00  0.00     0.010 A 
ATOM     76  C   UNL A   1      35.936  32.217  31.231  1.00  0.00     0.010 A 
ATOM     77  C   UNL A   1      36.346  34.211  29.312  1.00  0.00     0.020 A 
ATOM     78  C   UNL A   1      34.844  32.755  30.547  1.00  0.00     0.020 A 
ATOM     79  C   UNL A   1      35.055  33.757  29.599  1.00  0.00     0.054 A 
BRANCH  79  80
ATOM     80  S   UNL A   1      33.655  34.456  28.679  1.00  0.00     0.124 S 
ATOM     81  O   UNL A   1      32.716  34.775  29.750  1.00  0.00    -0.237 OA
ATOM     82  O   UNL A   1      34.260  35.602  28.004  1.00  0.00    -0.237 OA
ATOM     83  O   UNL A   1      33.250  33.365  27.794  1.00  0.00    -0.744 OA
ENDBRANCH  79  80
ENDBRANCH  51  74
BRANCH  63  84
ATOM     84  C   UNL A   1      40.059  33.802  37.232  1.00  0.00    -0.014 A 
ATOM     85  C   UNL A   1      40.598  35.100  37.238  1.00  0.00     0.010 A 
ATOM     86  C   UNL A   1      39.159  33.430  38.249  1.00  0.00     0.010 A 
ATOM     87  C   UNL A   1      40.273  35.996  38.261  1.00  0.00     0.020 A 
ATOM     88  C   UNL A   1      38.811  34.331  39.258  1.00  0.00     0.020 A 
ATOM     89  C   UNL A   1      39.383  35.603  39.267  1.00  0.00     0.054 A 
BRANCH  89  90
ATOM     90  S   UNL A   1      38.950  36.794  40.566  1.00  0.00     0.124 S 
ATOM     91  O   UNL A   1      38.401  37.904  39.790  1.00  0.00    -0.237 OA
ATOM     92  O   UNL A   1      37.984  36.054  41.374  1.00  0.00    -0.237 OA
ATOM     93  O   UNL A   1      40.226  37.066  41.225  1.00  0.00    -0.744 OA
ENDBRANCH  89  90
ENDBRANCH  63  84
ENDBRANCH  37  38
ENDBRANCH  30  32
ENDBRANCH  29  30
ENDBRANCH  28  29
ENDBRANCH   1  28
TORSDOF 19
ENDMDL
MODEL 3
REMARK VINA RESULT:     -10.3      2.279      3.300
REMARK SMILES O=C(Nc1c(F)cc(F)cc1F)N[C@H]1C=C[C@H](C(=O)OCCOCCOC(=O)c2ccc(-c3c4nc(c(-c5ccc(S(=O)(=O)[O-])cc5)c5ccc([nH]5)c(-c5ccc(S(=O)(=O)[O-])cc5)c5nc(c(-c6ccc(S(=O)(=O)[O-])cc6)c6ccc3[nH]6)C=C5)C=C4)cc2)C1
REMARK SMILES IDX 24 1 23 2 22 3 21 4 20 5 18 6 19 7 17 8 14 9 15 10 89 11
REMARK SMILES IDX 16 12 13 13 1 14 2 15 3 16 4 19 5 20 11 21 6 22 7 23 10 24
REMARK SMILES IDX 12 25 8 26 9 27 25 28 26 29 27 30 28 31 29 32 30 33 88 34
REMARK SMILES IDX 31 35 87 36 32 37 33 38 34 39 81 40 35 41 86 42 80 43 82 44
REMARK SMILES IDX 36 45 85 46 79 47 78 48 37 50 67 51 48 52 66 53 49 54 52 55
REMARK SMILES IDX 65 56 83 57 50 58 51 59 64 61 84 62 53 63 38 64 39 65 47 66
REMARK SMILES IDX 40 67 46 68 41 69 42 70 43 71 44 72 45 73 68 74 69 75 77 76
REMARK SMILES IDX 70 77 76 78 71 79 72 80 73 81 74 82 75 83 54 84 55 85 63 86
REMARK SMILES IDX 56 87 62 88 57 89 58 90 59 91 60 92 61 93
REMARK H PARENT 3 17 13 18 82 49 52 60
REMARK Flexibility Score: inf
ROOT
ATOM      1  C   UNL A   1      41.240  19.847  26.596  1.00  0.00     0.202 C 
ENDROOT
BRANCH   1   2
ATOM      2  O   UNL A   1      40.414  19.439  25.507  1.00  0.00    -0.374 OA
BRANCH   2   3
ATOM      3  C   UNL A   1      39.012  19.673  25.640  1.00  0.00     0.202 C 
BRANCH   3   4
ATOM      4  C   UNL A   1      38.555  21.134  25.580  1.00  0.00     0.261 C 
BRANCH   4   5
ATOM      5  O   UNL A   1      37.604  21.368  24.522  1.00  0.00    -0.463 OA
BRANCH   5   6
ATOM      6  C   UNL A   1      36.312  21.505  24.925  1.00  0.00     0.312 C 
ATOM      7  O   UNL A   1      35.615  20.577  25.326  1.00  0.00    -0.252 OA
BRANCH   6   8
ATOM      8  C   UNL A   1      35.783  22.933  24.760  1.00  0.00     0.124 C 
ATOM      9  C   UNL A   1      33.444  23.395  25.454  1.00  0.00     0.107 C 
ATOM     10  C   UNL A   1      33.555  23.085  23.994  1.00  0.00    -0.006 C 
ATOM     11  C   UNL A   1      34.919  23.531  25.885  1.00  0.00     0.048 C 
ATOM     12  C   UNL A   1      34.821  22.912  23.605  1.00  0.00    -0.014 C 
BRANCH   9  13
ATOM     13  N   UNL A   1      32.626  24.583  25.529  1.00  0.00    -0.332 N 
ATOM     14  O   UNL A   1      31.280  24.009  27.278  1.00  0.00    -0.248 OA
ATOM     15  C   UNL A   1      31.608  24.802  26.402  1.00  0.00     0.319 C 
ATOM     16  N   UNL A   1      31.071  26.062  26.385  1.00  0.00    -0.303 N 
ATOM     17  H   UNL A   1      30.658  26.341  27.234  1.00  0.00     0.172 HD
ATOM     18  H   UNL A   1      32.826  25.302  24.888  1.00  0.00     0.165 HD
BRANCH  16  19
ATOM     19  C   UNL A   1      31.010  27.028  25.358  1.00  0.00     0.115 A 
ATOM     20  C   UNL A   1      31.917  28.084  25.216  1.00  0.00     0.152 A 
ATOM     21  C   UNL A   1      30.019  26.887  24.380  1.00  0.00     0.152 A 
ATOM     22  F   UNL A   1      32.931  28.238  26.080  1.00  0.00    -0.204 F 
ATOM     23  C   UNL A   1      31.829  28.982  24.156  1.00  0.00     0.081 A 
ATOM     24  C   UNL A   1      29.895  27.793  23.329  1.00  0.00     0.081 A 
ATOM     25  F   UNL A   1      29.132  25.884  24.471  1.00  0.00    -0.204 F 
ATOM     26  C   UNL A   1      30.808  28.833  23.228  1.00  0.00     0.129 A 
ATOM     27  F   UNL A   1      30.708  29.703  22.214  1.00  0.00    -0.207 F 
ENDBRANCH  16  19
ENDBRANCH   9  13
ENDBRANCH   6   8
ENDBRANCH   5   6
ENDBRANCH   4   5
ENDBRANCH   3   4
ENDBRANCH   2   3
ENDBRANCH   1   2
BRANCH   1  28
ATOM     28  C   UNL A   1      42.347  20.861  26.282  1.00  0.00     0.261 C 
BRANCH  28  29
ATOM     29  O   UNL A   1      41.896  21.907  25.404  1.00  0.00    -0.460 OA
BRANCH  29  30
ATOM     30  C   UNL A   1      42.736  22.963  25.306  1.00  0.00     0.338 C 
ATOM     31  O   UNL A   1      43.636  23.112  24.487  1.00  0.00    -0.246 OA
BRANCH  30  32
ATOM     32  C   UNL A   1      42.320  24.046  26.216  1.00  0.00     0.060 A 
ATOM     33  C   UNL A   1      43.070  25.230  26.184  1.00  0.00     0.016 A 
ATOM     34  C   UNL A   1      41.278  23.895  27.134  1.00  0.00     0.016 A 
ATOM     35  C   UNL A   1      42.828  26.236  27.115  1.00  0.00     0.010 A 
ATOM     36  C   UNL A   1      41.041  24.906  28.074  1.00  0.00     0.010 A 
ATOM     37  C   UNL A   1      41.844  26.061  28.097  1.00  0.00    -0.014 A 
BRANCH  37  38
ATOM     38  C   UNL A   1      41.783  27.016  29.231  1.00  0.00     0.031 A 
ATOM     39  C   UNL A   1      42.821  26.924  30.319  1.00  0.00     0.074 A 
ATOM     40  C   UNL A   1      40.859  27.994  29.263  1.00  0.00     0.049 A 
ATOM     41  N   UNL A   1      42.980  27.678  31.377  1.00  0.00    -0.248 NA
ATOM     42  C   UNL A   1      43.813  25.844  30.195  1.00  0.00     0.031 C 
ATOM     43  C   UNL A   1      39.828  28.217  28.250  1.00  0.00     0.029 A 
ATOM     44  N   UNL A   1      40.647  28.990  30.183  1.00  0.00    -0.354 N 
ATOM     45  C   UNL A   1      44.084  27.162  32.045  1.00  0.00     0.074 A 
ATOM     46  C   UNL A   1      44.537  26.013  31.291  1.00  0.00     0.031 C 
ATOM     47  C   UNL A   1      39.090  29.283  28.606  1.00  0.00     0.029 A 
ATOM     48  C   UNL A   1      39.581  29.803  29.881  1.00  0.00     0.049 A 
ATOM     49  H   UNL A   1      41.206  29.110  30.985  1.00  0.00     0.167 HD
ATOM     50  C   UNL A   1      44.675  27.605  33.181  1.00  0.00     0.031 A 
ATOM     51  C   UNL A   1      39.055  30.841  30.560  1.00  0.00     0.031 A 
ATOM     52  C   UNL A   1      44.219  28.740  33.939  1.00  0.00     0.049 A 
ATOM     53  C   UNL A   1      39.690  31.280  31.853  1.00  0.00     0.074 A 
ATOM     54  C   UNL A   1      44.759  29.275  35.096  1.00  0.00     0.029 A 
ATOM     55  N   UNL A   1      43.112  29.511  33.620  1.00  0.00    -0.354 N 
ATOM     56  N   UNL A   1      40.749  30.795  32.459  1.00  0.00    -0.248 NA
ATOM     57  C   UNL A   1      39.066  32.414  32.549  1.00  0.00     0.031 C 
ATOM     58  C   UNL A   1      43.947  30.338  35.506  1.00  0.00     0.029 A 
ATOM     59  C   UNL A   1      42.936  30.502  34.573  1.00  0.00     0.049 A 
ATOM     60  H   UNL A   1      42.536  29.375  32.834  1.00  0.00     0.167 HD
ATOM     61  C   UNL A   1      40.932  31.582  33.592  1.00  0.00     0.074 A 
ATOM     62  C   UNL A   1      39.884  32.582  33.580  1.00  0.00     0.031 C 
ATOM     63  C   UNL A   1      41.886  31.487  34.552  1.00  0.00     0.031 A 
BRANCH  50  64
ATOM     64  C   UNL A   1      45.863  26.835  33.691  1.00  0.00    -0.014 A 
ATOM     65  C   UNL A   1      47.177  27.257  33.419  1.00  0.00     0.010 A 
ATOM     66  C   UNL A   1      45.662  25.689  34.481  1.00  0.00     0.010 A 
ATOM     67  C   UNL A   1      48.268  26.526  33.896  1.00  0.00     0.020 A 
ATOM     68  C   UNL A   1      46.751  24.968  34.982  1.00  0.00     0.020 A 
ATOM     69  C   UNL A   1      48.047  25.382  34.672  1.00  0.00     0.054 A 
BRANCH  69  70
ATOM     70  S   UNL A   1      49.480  24.460  35.294  1.00  0.00     0.124 S 
ATOM     71  O   UNL A   1      50.545  24.924  34.408  1.00  0.00    -0.237 OA
ATOM     72  O   UNL A   1      49.577  24.911  36.680  1.00  0.00    -0.237 OA
ATOM     73  O   UNL A   1      49.094  23.062  35.123  1.00  0.00    -0.744 OA
ENDBRANCH  69  70
ENDBRANCH  50  64
BRANCH  51  74
ATOM     74  C   UNL A   1      37.846  31.533  30.034  1.00  0.00    -0.014 A 
ATOM     75  C   UNL A   1      37.962  32.566  29.086  1.00  0.00     0.010 A 
ATOM     76  C   UNL A   1      36.567  31.157  30.483  1.00  0.00     0.010 A 
ATOM     77  C   UNL A   1      36.821  33.217  28.607  1.00  0.00     0.020 A 
ATOM     78  C   UNL A   1      35.423  31.788  29.987  1.00  0.00     0.020 A 
ATOM     79  C   UNL A   1      35.559  32.821  29.060  1.00  0.00     0.054 A 
BRANCH  79  80
ATOM     80  S   UNL A   1      34.087  33.641  28.383  1.00  0.00     0.124 S 
ATOM     81  O   UNL A   1      33.420  32.544  27.690  1.00  0.00    -0.237 OA
ATOM     82  O   UNL A   1      33.418  34.132  29.585  1.00  0.00    -0.237 OA
ATOM     83  O   UNL A   1      34.644  34.682  27.520  1.00  0.00    -0.744 OA
ENDBRANCH  79  80
ENDBRANCH  51  74
BRANCH  63  84
ATOM     84  C   UNL A   1      41.862  32.512  35.655  1.00  0.00    -0.014 A 
ATOM     85  C   UNL A   1      41.094  32.318  36.816  1.00  0.00     0.010 A 
ATOM     86  C   UNL A   1      42.661  33.666  35.549  1.00  0.00     0.010 A 
ATOM     87  C   UNL A   1      41.096  33.276  37.835  1.00  0.00     0.020 A 
ATOM     88  C   UNL A   1      42.687  34.613  36.575  1.00  0.00     0.020 A 
ATOM     89  C   UNL A   1      41.891  34.420  37.705  1.00  0.00     0.054 A 
BRANCH  89  90
ATOM     90  S   UNL A   1      41.904  35.634  39.054  1.00  0.00     0.124 S 
ATOM     91  O   UNL A   1      42.014  36.895  38.325  1.00  0.00    -0.237 OA
ATOM     92  O   UNL A   1      40.622  35.398  39.712  1.00  0.00    -0.237 OA
ATOM     93  O   UNL A   1      43.079  35.264  39.840  1.00  0.00    -0.744 OA
ENDBRANCH  89  90
ENDBRANCH  63  84
ENDBRANCH  37  38
ENDBRANCH  30  32
ENDBRANCH  29  30
ENDBRANCH  28  29
ENDBRANCH   1  28
TORSDOF 19
ENDMDL
