MODEL 1
REMARK VINA RESULT:     -10.8      0.000      0.000
REMARK SMILES CS(=O)(=O)c1ccc(/C=C(/C(=O)OCCOCCOC(=O)c2ccc(-c3c4nc(c(-c5ccc(S(=O)(=O)[O-])cc5)c5ccc([nH]5)c(-c5ccc(S(=O)(=O)[O-])cc5)c5nc(c(-c6ccc(S(=O)(=O)[O-])cc6)c6ccc3[nH]6)C=C5)C=C4)cc2)c2ccc(O)cc2)cc1
REMARK SMILES IDX 17 1 16 2 15 3 14 4 13 5 11 6 12 7 10 8 9 9 8 10 5 11 6 12
REMARK SMILES IDX 90 13 7 14 89 15 2 16 1 17 3 18 4 19 82 20 83 21 88 22 84 23
REMARK SMILES IDX 87 24 85 25 86 26 18 28 19 29 20 30 21 31 22 32 23 33 81 34
REMARK SMILES IDX 24 35 80 36 25 37 26 38 27 39 74 40 28 41 79 42 73 43 75 44
REMARK SMILES IDX 29 45 78 46 72 47 71 48 30 50 60 51 41 52 59 53 42 54 45 55
REMARK SMILES IDX 58 56 76 57 43 58 44 59 57 61 77 62 46 63 31 64 32 65 40 66
REMARK SMILES IDX 33 67 39 68 34 69 35 70 36 71 37 72 38 73 61 74 62 75 70 76
REMARK SMILES IDX 63 77 69 78 64 79 65 80 66 81 67 82 68 83 47 84 48 85 56 86
REMARK SMILES IDX 49 87 55 88 50 89 51 90 52 91 53 92 54 93
REMARK H PARENT 86 27 75 49 45 60
REMARK Flexibility Score: inf
ROOT
ATOM      1  C   UNL A   1      31.723  27.837  26.945  1.00  0.00     0.202 C 
ENDROOT
BRANCH   1   2
ATOM      2  O   UNL A   1      30.918  27.251  25.927  1.00  0.00    -0.374 OA
BRANCH   2   3
ATOM      3  C   UNL A   1      30.924  27.868  24.640  1.00  0.00     0.202 C 
BRANCH   3   4
ATOM      4  C   UNL A   1      31.529  27.078  23.473  1.00  0.00     0.261 C 
BRANCH   4   5
ATOM      5  O   UNL A   1      32.795  26.489  23.821  1.00  0.00    -0.460 OA
BRANCH   5   6
ATOM      6  C   UNL A   1      33.285  25.615  22.904  1.00  0.00     0.338 C 
ATOM      7  O   UNL A   1      33.663  25.903  21.776  1.00  0.00    -0.246 OA
BRANCH   6   8
ATOM      8  C   UNL A   1      33.449  24.236  23.469  1.00  0.00     0.067 C 
ATOM      9  C   UNL A   1      32.415  23.360  23.476  1.00  0.00     0.024 C 
BRANCH   9  10
ATOM     10  C   UNL A   1      32.453  21.902  23.765  1.00  0.00    -0.025 A 
ATOM     11  C   UNL A   1      32.930  19.142  24.063  1.00  0.00     0.067 A 
ATOM     12  C   UNL A   1      33.028  19.985  25.167  1.00  0.00     0.021 A 
ATOM     13  C   UNL A   1      32.482  19.642  22.839  1.00  0.00     0.021 A 
ATOM     14  C   UNL A   1      32.757  21.348  25.018  1.00  0.00     0.009 A 
ATOM     15  C   UNL A   1      32.243  21.015  22.697  1.00  0.00     0.009 A 
BRANCH  11  16
ATOM     16  S   UNL A   1      33.433  17.444  24.200  1.00  0.00     0.175 S 
ATOM     17  C   UNL A   1      32.528  16.805  25.588  1.00  0.00     0.163 C 
ATOM     18  O   UNL A   1      34.834  17.431  24.575  1.00  0.00    -0.224 OA
ATOM     19  O   UNL A   1      32.967  16.767  23.006  1.00  0.00    -0.224 OA
ENDBRANCH  11  16
ENDBRANCH   9  10
BRANCH   8  20
ATOM     20  C   UNL A   1      34.809  23.888  23.927  1.00  0.00    -0.011 A 
ATOM     21  C   UNL A   1      35.225  24.278  25.211  1.00  0.00     0.013 A 
ATOM     22  C   UNL A   1      35.669  23.125  23.130  1.00  0.00     0.013 A 
ATOM     23  C   UNL A   1      36.465  23.877  25.706  1.00  0.00     0.047 A 
ATOM     24  C   UNL A   1      36.908  22.717  23.629  1.00  0.00     0.047 A 
ATOM     25  C   UNL A   1      37.287  23.086  24.917  1.00  0.00     0.115 A 
BRANCH  25  26
ATOM     26  O   UNL A   1      38.469  22.675  25.456  1.00  0.00    -0.508 OA
ATOM     27  H   UNL A   1      39.255  22.714  24.947  1.00  0.00     0.293 HD
ENDBRANCH  25  26
ENDBRANCH   8  20
ENDBRANCH   6   8
ENDBRANCH   5   6
ENDBRANCH   4   5
ENDBRANCH   3   4
ENDBRANCH   2   3
ENDBRANCH   1   2
BRANCH   1  28
ATOM     28  C   UNL A   1      32.831  28.813  26.533  1.00  0.00     0.261 C 
BRANCH  28  29
ATOM     29  O   UNL A   1      33.974  28.774  27.397  1.00  0.00    -0.460 OA
BRANCH  29  30
ATOM     30  C   UNL A   1      34.426  29.993  27.776  1.00  0.00     0.338 C 
ATOM     31  O   UNL A   1      33.774  31.025  27.879  1.00  0.00    -0.246 OA
BRANCH  30  32
ATOM     32  C   UNL A   1      35.819  29.882  28.239  1.00  0.00     0.060 A 
ATOM     33  C   UNL A   1      36.835  30.103  27.300  1.00  0.00     0.016 A 
ATOM     34  C   UNL A   1      36.125  29.521  29.552  1.00  0.00     0.016 A 
ATOM     35  C   UNL A   1      38.167  29.925  27.662  1.00  0.00     0.010 A 
ATOM     36  C   UNL A   1      37.462  29.333  29.910  1.00  0.00     0.010 A 
ATOM     37  C   UNL A   1      38.485  29.503  28.959  1.00  0.00    -0.014 A 
BRANCH  37  38
ATOM     38  C   UNL A   1      39.876  29.112  29.288  1.00  0.00     0.031 A 
ATOM     39  C   UNL A   1      40.775  30.116  29.954  1.00  0.00     0.074 A 
ATOM     40  C   UNL A   1      40.325  27.878  29.002  1.00  0.00     0.049 A 
ATOM     41  N   UNL A   1      42.037  30.009  30.277  1.00  0.00    -0.248 NA
ATOM     42  C   UNL A   1      40.173  31.415  30.299  1.00  0.00     0.031 C 
ATOM     43  C   UNL A   1      39.531  26.808  28.397  1.00  0.00     0.029 A 
ATOM     44  N   UNL A   1      41.565  27.319  29.177  1.00  0.00    -0.354 N 
ATOM     45  C   UNL A   1      42.384  31.227  30.850  1.00  0.00     0.074 A 
ATOM     46  C   UNL A   1      41.208  32.068  30.806  1.00  0.00     0.031 C 
ATOM     47  C   UNL A   1      40.309  25.723  28.242  1.00  0.00     0.029 A 
ATOM     48  C   UNL A   1      41.662  26.034  28.699  1.00  0.00     0.049 A 
ATOM     49  H   UNL A   1      42.315  27.794  29.604  1.00  0.00     0.167 HD
ATOM     50  C   UNL A   1      43.576  31.609  31.369  1.00  0.00     0.031 A 
ATOM     51  C   UNL A   1      42.726  25.212  28.618  1.00  0.00     0.031 A 
ATOM     52  C   UNL A   1      44.746  30.770  31.397  1.00  0.00     0.049 A 
ATOM     53  C   UNL A   1      44.060  25.685  29.134  1.00  0.00     0.074 A 
ATOM     54  C   UNL A   1      45.997  31.056  31.915  1.00  0.00     0.029 A 
ATOM     55  N   UNL A   1      44.812  29.486  30.876  1.00  0.00    -0.354 N 
ATOM     56  N   UNL A   1      44.368  26.831  29.695  1.00  0.00    -0.248 NA
ATOM     57  C   UNL A   1      45.187  24.750  29.015  1.00  0.00     0.031 C 
ATOM     58  C   UNL A   1      46.835  29.968  31.653  1.00  0.00     0.029 A 
ATOM     59  C   UNL A   1      46.089  28.977  31.034  1.00  0.00     0.049 A 
ATOM     60  H   UNL A   1      44.061  29.008  30.456  1.00  0.00     0.167 HD
ATOM     61  C   UNL A   1      45.718  26.743  30.023  1.00  0.00     0.074 A 
ATOM     62  C   UNL A   1      46.161  25.426  29.609  1.00  0.00     0.031 C 
ATOM     63  C   UNL A   1      46.516  27.664  30.617  1.00  0.00     0.031 A 
BRANCH  50  64
ATOM     64  C   UNL A   1      43.684  33.009  31.914  1.00  0.00    -0.014 A 
ATOM     65  C   UNL A   1      44.018  34.094  31.083  1.00  0.00     0.010 A 
ATOM     66  C   UNL A   1      43.410  33.249  33.273  1.00  0.00     0.010 A 
ATOM     67  C   UNL A   1      44.110  35.385  31.609  1.00  0.00     0.020 A 
ATOM     68  C   UNL A   1      43.474  34.543  33.797  1.00  0.00     0.020 A 
ATOM     69  C   UNL A   1      43.840  35.602  32.963  1.00  0.00     0.054 A 
BRANCH  69  70
ATOM     70  S   UNL A   1      43.945  37.292  33.613  1.00  0.00     0.124 S 
ATOM     71  O   UNL A   1      42.564  37.547  34.014  1.00  0.00    -0.237 OA
ATOM     72  O   UNL A   1      44.900  37.153  34.710  1.00  0.00    -0.237 OA
ATOM     73  O   UNL A   1      44.419  38.074  32.474  1.00  0.00    -0.744 OA
ENDBRANCH  69  70
ENDBRANCH  50  64
BRANCH  51  74
ATOM     74  C   UNL A   1      42.578  23.864  28.004  1.00  0.00    -0.014 A 
ATOM     75  C   UNL A   1      42.282  22.743  28.798  1.00  0.00     0.010 A 
ATOM     76  C   UNL A   1      42.726  23.697  26.616  1.00  0.00     0.010 A 
ATOM     77  C   UNL A   1      42.153  21.477  28.217  1.00  0.00     0.020 A 
ATOM     78  C   UNL A   1      42.567  22.440  26.026  1.00  0.00     0.020 A 
ATOM     79  C   UNL A   1      42.292  21.335  26.833  1.00  0.00     0.054 A 
BRANCH  79  80
ATOM     80  S   UNL A   1      42.064  19.694  26.095  1.00  0.00     0.124 S 
ATOM     81  O   UNL A   1      42.917  19.771  24.914  1.00  0.00    -0.237 OA
ATOM     82  O   UNL A   1      42.529  18.805  27.157  1.00  0.00    -0.237 OA
ATOM     83  O   UNL A   1      40.628  19.636  25.829  1.00  0.00    -0.744 OA
ENDBRANCH  79  80
ENDBRANCH  51  74
BRANCH  63  84
ATOM     84  C   UNL A   1      47.943  27.272  30.898  1.00  0.00    -0.014 A 
ATOM     85  C   UNL A   1      48.293  26.550  32.053  1.00  0.00     0.010 A 
ATOM     86  C   UNL A   1      48.942  27.583  29.957  1.00  0.00     0.010 A 
ATOM     87  C   UNL A   1      49.622  26.176  32.277  1.00  0.00     0.020 A 
ATOM     88  C   UNL A   1      50.265  27.184  30.162  1.00  0.00     0.020 A 
ATOM     89  C   UNL A   1      50.599  26.495  31.329  1.00  0.00     0.054 A 
BRANCH  89  90
ATOM     90  S   UNL A   1      52.307  25.959  31.622  1.00  0.00     0.124 S 
ATOM     91  O   UNL A   1      52.120  24.580  32.066  1.00  0.00    -0.237 OA
ATOM     92  O   UNL A   1      52.924  26.119  30.308  1.00  0.00    -0.237 OA
ATOM     93  O   UNL A   1      52.789  26.884  32.647  1.00  0.00    -0.744 OA
ENDBRANCH  89  90
ENDBRANCH  63  84
ENDBRANCH  37  38
ENDBRANCH  30  32
ENDBRANCH  29  30
ENDBRANCH  28  29
ENDBRANCH   1  28
TORSDOF 21
ENDMDL
MODEL 2
REMARK VINA RESULT:     -10.7      5.023     10.809
REMARK SMILES CS(=O)(=O)c1ccc(/C=C(/C(=O)OCCOCCOC(=O)c2ccc(-c3c4nc(c(-c5ccc(S(=O)(=O)[O-])cc5)c5ccc([nH]5)c(-c5ccc(S(=O)(=O)[O-])cc5)c5nc(c(-c6ccc(S(=O)(=O)[O-])cc6)c6ccc3[nH]6)C=C5)C=C4)cc2)c2ccc(O)cc2)cc1
REMARK SMILES IDX 17 1 16 2 15 3 14 4 13 5 11 6 12 7 10 8 9 9 8 10 5 11 6 12
REMARK SMILES IDX 90 13 7 14 89 15 2 16 1 17 3 18 4 19 82 20 83 21 88 22 84 23
REMARK SMILES IDX 87 24 85 25 86 26 18 28 19 29 20 30 21 31 22 32 23 33 81 34
REMARK SMILES IDX 24 35 80 36 25 37 26 38 27 39 74 40 28 41 79 42 73 43 75 44
REMARK SMILES IDX 29 45 78 46 72 47 71 48 30 50 60 51 41 52 59 53 42 54 45 55
REMARK SMILES IDX 58 56 76 57 43 58 44 59 57 61 77 62 46 63 31 64 32 65 40 66
REMARK SMILES IDX 33 67 39 68 34 69 35 70 36 71 37 72 38 73 61 74 62 75 70 76
REMARK SMILES IDX 63 77 69 78 64 79 65 80 66 81 67 82 68 83 47 84 48 85 56 86
REMARK SMILES IDX 49 87 55 88 50 89 51 90 52 91 53 92 54 93
REMARK H PARENT 86 27 75 49 45 60
REMARK Flexibility Score: inf
ROOT
ATOM      1  C   UNL A   1      37.506  23.946  26.243  1.00  0.00     0.202 C 
ENDROOT
BRANCH   1   2
ATOM      2  O   UNL A   1      36.662  22.816  26.043  1.00  0.00    -0.374 OA
BRANCH   2   3
ATOM      3  C   UNL A   1      35.821  22.812  24.889  1.00  0.00     0.202 C 
BRANCH   3   4
ATOM      4  C   UNL A   1      34.844  23.981  24.715  1.00  0.00     0.261 C 
BRANCH   4   5
ATOM      5  O   UNL A   1      33.486  23.529  24.566  1.00  0.00    -0.460 OA
BRANCH   5   6
ATOM      6  C   UNL A   1      32.602  24.088  25.432  1.00  0.00     0.338 C 
ATOM      7  O   UNL A   1      32.336  23.666  26.550  1.00  0.00    -0.246 OA
BRANCH   6   8
ATOM      8  C   UNL A   1      32.061  25.391  24.926  1.00  0.00     0.067 C 
ATOM      9  C   UNL A   1      31.260  25.434  23.834  1.00  0.00     0.024 C 
BRANCH   9  10
ATOM     10  C   UNL A   1      30.449  26.578  23.339  1.00  0.00    -0.025 A 
ATOM     11  C   UNL A   1      28.924  28.895  22.850  1.00  0.00     0.067 A 
ATOM     12  C   UNL A   1      30.214  28.795  22.338  1.00  0.00     0.021 A 
ATOM     13  C   UNL A   1      28.344  27.806  23.504  1.00  0.00     0.021 A 
ATOM     14  C   UNL A   1      30.952  27.627  22.555  1.00  0.00     0.009 A 
ATOM     15  C   UNL A   1      29.106  26.655  23.741  1.00  0.00     0.009 A 
BRANCH  11  16
ATOM     16  S   UNL A   1      28.040  30.430  22.727  1.00  0.00     0.175 S 
ATOM     17  C   UNL A   1      29.161  31.660  23.346  1.00  0.00     0.163 C 
ATOM     18  O   UNL A   1      26.929  30.373  23.659  1.00  0.00    -0.224 OA
ATOM     19  O   UNL A   1      27.825  30.684  21.316  1.00  0.00    -0.224 OA
ENDBRANCH  11  16
ENDBRANCH   9  10
BRANCH   8  20
ATOM     20  C   UNL A   1      32.392  26.581  25.736  1.00  0.00    -0.011 A 
ATOM     21  C   UNL A   1      33.570  27.296  25.462  1.00  0.00     0.013 A 
ATOM     22  C   UNL A   1      31.524  27.044  26.730  1.00  0.00     0.013 A 
ATOM     23  C   UNL A   1      33.856  28.477  26.143  1.00  0.00     0.047 A 
ATOM     24  C   UNL A   1      31.807  28.233  27.407  1.00  0.00     0.047 A 
ATOM     25  C   UNL A   1      32.963  28.944  27.097  1.00  0.00     0.115 A 
BRANCH  25  26
ATOM     26  O   UNL A   1      33.254  30.128  27.706  1.00  0.00    -0.508 OA
ATOM     27  H   UNL A   1      32.608  30.804  27.749  1.00  0.00     0.293 HD
ENDBRANCH  25  26
ENDBRANCH   8  20
ENDBRANCH   6   8
ENDBRANCH   5   6
ENDBRANCH   4   5
ENDBRANCH   3   4
ENDBRANCH   2   3
ENDBRANCH   1   2
BRANCH   1  28
ATOM     28  C   UNL A   1      39.008  23.715  26.440  1.00  0.00     0.261 C 
BRANCH  28  29
ATOM     29  O   UNL A   1      39.568  24.492  27.506  1.00  0.00    -0.460 OA
BRANCH  29  30
ATOM     30  C   UNL A   1      40.053  25.696  27.118  1.00  0.00     0.338 C 
ATOM     31  O   UNL A   1      40.436  26.015  26.000  1.00  0.00    -0.246 OA
BRANCH  30  32
ATOM     32  C   UNL A   1      39.891  26.669  28.212  1.00  0.00     0.060 A 
ATOM     33  C   UNL A   1      40.618  27.865  28.131  1.00  0.00     0.016 A 
ATOM     34  C   UNL A   1      39.084  26.397  29.317  1.00  0.00     0.016 A 
ATOM     35  C   UNL A   1      40.569  28.780  29.179  1.00  0.00     0.010 A 
ATOM     36  C   UNL A   1      39.045  27.312  30.371  1.00  0.00     0.010 A 
ATOM     37  C   UNL A   1      39.812  28.491  30.320  1.00  0.00    -0.014 A 
BRANCH  37  38
ATOM     38  C   UNL A   1      39.922  29.357  31.517  1.00  0.00     0.031 A 
ATOM     39  C   UNL A   1      41.054  29.129  32.479  1.00  0.00     0.074 A 
ATOM     40  C   UNL A   1      39.028  30.337  31.736  1.00  0.00     0.049 A 
ATOM     41  N   UNL A   1      41.309  29.726  33.614  1.00  0.00    -0.248 NA
ATOM     42  C   UNL A   1      42.027  28.085  32.115  1.00  0.00     0.031 C 
ATOM     43  C   UNL A   1      37.915  30.680  30.851  1.00  0.00     0.029 A 
ATOM     44  N   UNL A   1      38.913  31.220  32.779  1.00  0.00    -0.354 N 
ATOM     45  C   UNL A   1      42.461  29.123  34.106  1.00  0.00     0.074 A 
ATOM     46  C   UNL A   1      42.840  28.096  33.161  1.00  0.00     0.031 C 
ATOM     47  C   UNL A   1      37.222  31.696  31.395  1.00  0.00     0.029 A 
ATOM     48  C   UNL A   1      37.819  32.047  32.682  1.00  0.00     0.049 A 
ATOM     49  H   UNL A   1      39.553  31.258  33.527  1.00  0.00     0.167 HD
ATOM     50  C   UNL A   1      43.142  29.405  35.242  1.00  0.00     0.031 A 
ATOM     51  C   UNL A   1      37.340  32.964  33.545  1.00  0.00     0.031 A 
ATOM     52  C   UNL A   1      42.749  30.420  36.184  1.00  0.00     0.049 A 
ATOM     53  C   UNL A   1      38.074  33.208  34.838  1.00  0.00     0.074 A 
ATOM     54  C   UNL A   1      43.380  30.796  37.357  1.00  0.00     0.029 A 
ATOM     55  N   UNL A   1      41.619  31.216  36.066  1.00  0.00    -0.354 N 
ATOM     56  N   UNL A   1      39.175  32.648  35.281  1.00  0.00    -0.248 NA
ATOM     57  C   UNL A   1      37.504  34.215  35.743  1.00  0.00     0.031 C 
ATOM     58  C   UNL A   1      42.598  31.775  37.978  1.00  0.00     0.029 A 
ATOM     59  C   UNL A   1      41.518  32.060  37.158  1.00  0.00     0.049 A 
ATOM     60  H   UNL A   1      40.983  31.185  35.315  1.00  0.00     0.167 HD
ATOM     61  C   UNL A   1      39.447  33.257  36.502  1.00  0.00     0.074 A 
ATOM     62  C   UNL A   1      38.401  34.237  36.721  1.00  0.00     0.031 C 
ATOM     63  C   UNL A   1      40.471  33.030  37.361  1.00  0.00     0.031 A 
BRANCH  50  64
ATOM     64  C   UNL A   1      44.361  28.575  35.549  1.00  0.00    -0.014 A 
ATOM     65  C   UNL A   1      44.261  27.357  36.247  1.00  0.00     0.010 A 
ATOM     66  C   UNL A   1      45.624  29.003  35.099  1.00  0.00     0.010 A 
ATOM     67  C   UNL A   1      45.405  26.602  36.519  1.00  0.00     0.020 A 
ATOM     68  C   UNL A   1      46.767  28.236  35.344  1.00  0.00     0.020 A 
ATOM     69  C   UNL A   1      46.651  27.047  36.068  1.00  0.00     0.054 A 
BRANCH  69  70
ATOM     70  S   UNL A   1      48.116  26.035  36.415  1.00  0.00     0.124 S 
ATOM     71  O   UNL A   1      47.515  24.778  36.855  1.00  0.00    -0.237 OA
ATOM     72  O   UNL A   1      48.786  25.988  35.118  1.00  0.00    -0.237 OA
ATOM     73  O   UNL A   1      48.820  26.785  37.451  1.00  0.00    -0.744 OA
ENDBRANCH  69  70
ENDBRANCH  50  64
BRANCH  51  74
ATOM     74  C   UNL A   1      36.091  33.705  33.223  1.00  0.00    -0.014 A 
ATOM     75  C   UNL A   1      34.831  33.142  33.491  1.00  0.00     0.010 A 
ATOM     76  C   UNL A   1      36.155  34.989  32.651  1.00  0.00     0.010 A 
ATOM     77  C   UNL A   1      33.661  33.840  33.178  1.00  0.00     0.020 A 
ATOM     78  C   UNL A   1      34.989  35.703  32.364  1.00  0.00     0.020 A 
ATOM     79  C   UNL A   1      33.748  35.119  32.620  1.00  0.00     0.054 A 
BRANCH  79  80
ATOM     80  S   UNL A   1      32.217  36.029  32.275  1.00  0.00     0.124 S 
ATOM     81  O   UNL A   1      31.197  35.021  32.549  1.00  0.00    -0.237 OA
ATOM     82  O   UNL A   1      32.288  37.135  33.227  1.00  0.00    -0.237 OA
ATOM     83  O   UNL A   1      32.357  36.414  30.873  1.00  0.00    -0.744 OA
ENDBRANCH  79  80
ENDBRANCH  51  74
BRANCH  63  84
ATOM     84  C   UNL A   1      40.541  33.883  38.602  1.00  0.00    -0.014 A 
ATOM     85  C   UNL A   1      39.921  33.488  39.801  1.00  0.00     0.010 A 
ATOM     86  C   UNL A   1      41.291  35.074  38.579  1.00  0.00     0.010 A 
ATOM     87  C   UNL A   1      40.023  34.287  40.944  1.00  0.00     0.020 A 
ATOM     88  C   UNL A   1      41.422  35.857  39.728  1.00  0.00     0.020 A 
ATOM     89  C   UNL A   1      40.774  35.466  40.900  1.00  0.00     0.054 A 
BRANCH  89  90
ATOM     90  S   UNL A   1      40.927  36.459  42.410  1.00  0.00     0.124 S 
ATOM     91  O   UNL A   1      41.732  37.588  41.951  1.00  0.00    -0.237 OA
ATOM     92  O   UNL A   1      39.537  36.768  42.733  1.00  0.00    -0.237 OA
ATOM     93  O   UNL A   1      41.594  35.561  43.351  1.00  0.00    -0.744 OA
ENDBRANCH  89  90
ENDBRANCH  63  84
ENDBRANCH  37  38
ENDBRANCH  30  32
ENDBRANCH  29  30
ENDBRANCH  28  29
ENDBRANCH   1  28
TORSDOF 21
ENDMDL
MODEL 3
REMARK VINA RESULT:     -10.5      3.400      8.136
REMARK SMILES CS(=O)(=O)c1ccc(/C=C(/C(=O)OCCOCCOC(=O)c2ccc(-c3c4nc(c(-c5ccc(S(=O)(=O)[O-])cc5)c5ccc([nH]5)c(-c5ccc(S(=O)(=O)[O-])cc5)c5nc(c(-c6ccc(S(=O)(=O)[O-])cc6)c6ccc3[nH]6)C=C5)C=C4)cc2)c2ccc(O)cc2)cc1
REMARK SMILES IDX 17 1 16 2 15 3 14 4 13 5 11 6 12 7 10 8 9 9 8 10 5 11 6 12
REMARK SMILES IDX 90 13 7 14 89 15 2 16 1 17 3 18 4 19 82 20 83 21 88 22 84 23
REMARK SMILES IDX 87 24 85 25 86 26 18 28 19 29 20 30 21 31 22 32 23 33 81 34
REMARK SMILES IDX 24 35 80 36 25 37 26 38 27 39 74 40 28 41 79 42 73 43 75 44
REMARK SMILES IDX 29 45 78 46 72 47 71 48 30 50 60 51 41 52 59 53 42 54 45 55
REMARK SMILES IDX 58 56 76 57 43 58 44 59 57 61 77 62 46 63 31 64 32 65 40 66
REMARK SMILES IDX 33 67 39 68 34 69 35 70 36 71 37 72 38 73 61 74 62 75 70 76
REMARK SMILES IDX 63 77 69 78 64 79 65 80 66 81 67 82 68 83 47 84 48 85 56 86
REMARK SMILES IDX 49 87 55 88 50 89 51 90 52 91 53 92 54 93
REMARK H PARENT 86 27 75 49 45 60
REMARK Flexibility Score: inf
ROOT
ATOM      1  C   UNL A   1      36.270  20.815  25.143  1.00  0.00     0.202 C 
ENDROOT
BRANCH   1   2
ATOM      2  O   UNL A   1      35.093  21.348  24.545  1.00  0.00    -0.374 OA
BRANCH   2   3
ATOM      3  C   UNL A   1      34.751  22.701  24.846  1.00  0.00     0.202 C 
BRANCH   3   4
ATOM      4  C   UNL A   1      33.762  22.948  25.992  1.00  0.00     0.261 C 
BRANCH   4   5
ATOM      5  O   UNL A   1      32.406  23.044  25.521  1.00  0.00    -0.460 OA
BRANCH   5   6
ATOM      6  C   UNL A   1      31.606  23.860  26.256  1.00  0.00     0.338 C 
ATOM      7  O   UNL A   1      31.206  23.632  27.390  1.00  0.00    -0.246 OA
BRANCH   6   8
ATOM      8  C   UNL A   1      31.356  25.171  25.574  1.00  0.00     0.067 C 
ATOM      9  C   UNL A   1      30.570  25.243  24.473  1.00  0.00     0.024 C 
BRANCH   9  10
ATOM     10  C   UNL A   1      30.023  26.461  23.818  1.00  0.00    -0.025 A 
ATOM     11  C   UNL A   1      28.907  28.921  23.020  1.00  0.00     0.067 A 
ATOM     12  C   UNL A   1      30.263  28.681  22.822  1.00  0.00     0.021 A 
ATOM     13  C   UNL A   1      28.079  27.907  23.503  1.00  0.00     0.021 A 
ATOM     14  C   UNL A   1      30.803  27.444  23.190  1.00  0.00     0.009 A 
ATOM     15  C   UNL A   1      28.639  26.684  23.896  1.00  0.00     0.009 A 
BRANCH  11  16
ATOM     16  S   UNL A   1      28.243  30.540  22.715  1.00  0.00     0.175 S 
ATOM     17  C   UNL A   1      28.032  30.629  20.954  1.00  0.00     0.163 C 
ATOM     18  O   UNL A   1      29.269  31.507  23.059  1.00  0.00    -0.224 OA
ATOM     19  O   UNL A   1      26.932  30.584  23.330  1.00  0.00    -0.224 OA
ENDBRANCH  11  16
ENDBRANCH   9  10
BRANCH   8  20
ATOM     20  C   UNL A   1      31.949  26.356  26.227  1.00  0.00    -0.011 A 
ATOM     21  C   UNL A   1      33.292  26.684  25.973  1.00  0.00     0.013 A 
ATOM     22  C   UNL A   1      31.182  27.192  27.045  1.00  0.00     0.013 A 
ATOM     23  C   UNL A   1      33.846  27.851  26.495  1.00  0.00     0.047 A 
ATOM     24  C   UNL A   1      31.736  28.365  27.562  1.00  0.00     0.047 A 
ATOM     25  C   UNL A   1      33.059  28.689  27.270  1.00  0.00     0.115 A 
BRANCH  25  26
ATOM     26  O   UNL A   1      33.624  29.844  27.721  1.00  0.00    -0.508 OA
ATOM     27  H   UNL A   1      33.135  30.643  27.705  1.00  0.00     0.293 HD
ENDBRANCH  25  26
ENDBRANCH   8  20
ENDBRANCH   6   8
ENDBRANCH   5   6
ENDBRANCH   4   5
ENDBRANCH   3   4
ENDBRANCH   2   3
ENDBRANCH   1   2
BRANCH   1  28
ATOM     28  C   UNL A   1      37.605  21.530  24.901  1.00  0.00     0.261 C 
BRANCH  28  29
ATOM     29  O   UNL A   1      38.058  22.287  26.030  1.00  0.00    -0.460 OA
BRANCH  29  30
ATOM     30  C   UNL A   1      39.371  22.122  26.319  1.00  0.00     0.338 C 
ATOM     31  O   UNL A   1      40.083  21.176  26.008  1.00  0.00    -0.246 OA
BRANCH  30  32
ATOM     32  C   UNL A   1      39.902  23.354  26.924  1.00  0.00     0.060 A 
ATOM     33  C   UNL A   1      39.558  24.573  26.325  1.00  0.00     0.016 A 
ATOM     34  C   UNL A   1      40.758  23.316  28.026  1.00  0.00     0.016 A 
ATOM     35  C   UNL A   1      40.103  25.761  26.804  1.00  0.00     0.010 A 
ATOM     36  C   UNL A   1      41.311  24.508  28.498  1.00  0.00     0.010 A 
ATOM     37  C   UNL A   1      41.011  25.731  27.869  1.00  0.00    -0.014 A 
BRANCH  37  38
ATOM     38  C   UNL A   1      41.750  26.959  28.244  1.00  0.00     0.031 A 
ATOM     39  C   UNL A   1      40.981  28.135  28.780  1.00  0.00     0.074 A 
ATOM     40  C   UNL A   1      43.086  27.019  28.116  1.00  0.00     0.049 A 
ATOM     41  N   UNL A   1      41.413  29.323  29.114  1.00  0.00    -0.248 NA
ATOM     42  C   UNL A   1      39.531  27.949  28.959  1.00  0.00     0.031 C 
ATOM     43  C   UNL A   1      43.941  25.927  27.650  1.00  0.00     0.029 A 
ATOM     44  N   UNL A   1      43.959  28.049  28.360  1.00  0.00    -0.354 N 
ATOM     45  C   UNL A   1      40.290  30.029  29.529  1.00  0.00     0.074 A 
ATOM     46  C   UNL A   1      39.154  29.147  29.380  1.00  0.00     0.031 C 
ATOM     47  C   UNL A   1      45.217  26.350  27.632  1.00  0.00     0.029 A 
ATOM     48  C   UNL A   1      45.263  27.751  28.047  1.00  0.00     0.049 A 
ATOM     49  H   UNL A   1      43.677  28.920  28.724  1.00  0.00     0.167 HD
ATOM     50  C   UNL A   1      40.215  31.298  29.997  1.00  0.00     0.031 A 
ATOM     51  C   UNL A   1      46.365  28.527  28.070  1.00  0.00     0.031 A 
ATOM     52  C   UNL A   1      41.350  32.174  30.129  1.00  0.00     0.049 A 
ATOM     53  C   UNL A   1      46.244  29.958  28.523  1.00  0.00     0.074 A 
ATOM     54  C   UNL A   1      41.383  33.472  30.608  1.00  0.00     0.029 A 
ATOM     55  N   UNL A   1      42.650  31.846  29.774  1.00  0.00    -0.354 N 
ATOM     56  N   UNL A   1      45.180  30.607  28.935  1.00  0.00    -0.248 NA
ATOM     57  C   UNL A   1      47.476  30.760  28.522  1.00  0.00     0.031 C 
ATOM     58  C   UNL A   1      42.692  33.949  30.484  1.00  0.00     0.029 A 
ATOM     59  C   UNL A   1      43.489  32.925  29.995  1.00  0.00     0.049 A 
ATOM     60  H   UNL A   1      42.935  30.973  29.417  1.00  0.00     0.167 HD
ATOM     61  C   UNL A   1      45.620  31.883  29.272  1.00  0.00     0.074 A 
ATOM     62  C   UNL A   1      47.049  31.910  29.027  1.00  0.00     0.031 C 
ATOM     63  C   UNL A   1      44.908  32.936  29.746  1.00  0.00     0.031 A 
BRANCH  50  64
ATOM     64  C   UNL A   1      38.853  31.829  30.362  1.00  0.00    -0.014 A 
ATOM     65  C   UNL A   1      38.365  31.747  31.679  1.00  0.00     0.010 A 
ATOM     66  C   UNL A   1      38.065  32.454  29.378  1.00  0.00     0.010 A 
ATOM     67  C   UNL A   1      37.100  32.248  31.996  1.00  0.00     0.020 A 
ATOM     68  C   UNL A   1      36.811  32.982  29.698  1.00  0.00     0.020 A 
ATOM     69  C   UNL A   1      36.329  32.861  31.003  1.00  0.00     0.054 A 
BRANCH  69  70
ATOM     70  S   UNL A   1      34.700  33.523  31.449  1.00  0.00     0.124 S 
ATOM     71  O   UNL A   1      35.056  34.771  32.119  1.00  0.00    -0.237 OA
ATOM     72  O   UNL A   1      34.051  33.673  30.149  1.00  0.00    -0.237 OA
ATOM     73  O   UNL A   1      34.130  32.493  32.312  1.00  0.00    -0.744 OA
ENDBRANCH  69  70
ENDBRANCH  50  64
BRANCH  51  74
ATOM     74  C   UNL A   1      47.674  27.971  27.631  1.00  0.00    -0.014 A 
ATOM     75  C   UNL A   1      48.577  27.437  28.565  1.00  0.00     0.010 A 
ATOM     76  C   UNL A   1      48.020  27.966  26.267  1.00  0.00     0.010 A 
ATOM     77  C   UNL A   1      49.809  26.924  28.147  1.00  0.00     0.020 A 
ATOM     78  C   UNL A   1      49.237  27.427  25.841  1.00  0.00     0.020 A 
ATOM     79  C   UNL A   1      50.129  26.918  26.786  1.00  0.00     0.054 A 
BRANCH  79  80
ATOM     80  S   UNL A   1      51.708  26.196  26.262  1.00  0.00     0.124 S 
ATOM     81  O   UNL A   1      51.735  26.525  24.840  1.00  0.00    -0.237 OA
ATOM     82  O   UNL A   1      52.672  26.910  27.097  1.00  0.00    -0.237 OA
ATOM     83  O   UNL A   1      51.556  24.777  26.575  1.00  0.00    -0.744 OA
ENDBRANCH  79  80
ENDBRANCH  51  74
BRANCH  63  84
ATOM     84  C   UNL A   1      45.665  34.197  30.074  1.00  0.00    -0.014 A 
ATOM     85  C   UNL A   1      45.819  35.228  29.131  1.00  0.00     0.010 A 
ATOM     86  C   UNL A   1      46.181  34.374  31.372  1.00  0.00     0.010 A 
ATOM     87  C   UNL A   1      46.504  36.399  29.470  1.00  0.00     0.020 A 
ATOM     88  C   UNL A   1      46.838  35.556  31.723  1.00  0.00     0.020 A 
ATOM     89  C   UNL A   1      47.008  36.556  30.765  1.00  0.00     0.054 A 
BRANCH  89  90
ATOM     90  S   UNL A   1      47.853  38.103  31.190  1.00  0.00     0.124 S 
ATOM     91  O   UNL A   1      47.092  39.085  30.424  1.00  0.00    -0.237 OA
ATOM     92  O   UNL A   1      47.687  38.170  32.640  1.00  0.00    -0.237 OA
ATOM     93  O   UNL A   1      49.225  37.885  30.736  1.00  0.00    -0.744 OA
ENDBRANCH  89  90
ENDBRANCH  63  84
ENDBRANCH  37  38
ENDBRANCH  30  32
ENDBRANCH  29  30
ENDBRANCH  28  29
ENDBRANCH   1  28
TORSDOF 21
ENDMDL
