MODEL 1
REMARK VINA RESULT:     -10.1      0.000      0.000
REMARK SMILES O=C(OCCOCCOC(=O)[C@@H]1CC[C@H](CNc2c(F)c(F)c(F)c(F)c2F)O1)c1ccc(-c2c3nc(c(-c4ccc(S(=O)(=O)[O-])cc4)c4ccc([nH]4)c(-c4ccc(S(=O)(=O)[O-])cc4)c4nc(c(-c5ccc(S(=O)(=O)[O-])cc5)c5ccc2[nH]5)C=C4)C=C3)cc1
REMARK SMILES IDX 6 1 5 2 4 3 3 4 2 5 1 6 30 7 31 8 89 9 32 10 88 11 33 12
REMARK SMILES IDX 34 13 35 14 82 15 36 16 87 17 81 18 83 19 37 20 86 21 80 22
REMARK SMILES IDX 79 23 38 25 68 26 49 27 67 28 50 29 53 30 66 31 84 32 51 33
REMARK SMILES IDX 52 34 65 36 85 37 54 38 39 39 40 40 48 41 41 42 47 43 42 44
REMARK SMILES IDX 43 45 44 46 45 47 46 48 69 49 70 50 78 51 71 52 77 53 72 54
REMARK SMILES IDX 73 55 74 56 75 57 76 58 55 59 56 60 64 61 57 62 63 63 58 64
REMARK SMILES IDX 59 65 60 66 61 67 62 68 7 69 8 70 9 71 10 72 11 73 12 74
REMARK SMILES IDX 13 75 29 76 14 77 15 78 16 79 17 80 18 82 19 83 27 84 20 85
REMARK SMILES IDX 21 86 25 87 28 88 22 89 23 90 26 91 24 92
REMARK H PARENT 83 24 53 35 17 81
REMARK Flexibility Score: inf
ROOT
ATOM      1  O   UNL A   1      32.433  28.998  24.298  1.00  0.00    -0.374 OA
ENDROOT
BRANCH   1   2
ATOM      2  C   UNL A   1      33.727  28.845  24.875  1.00  0.00     0.202 C 
BRANCH   2   3
ATOM      3  C   UNL A   1      33.738  28.253  26.288  1.00  0.00     0.261 C 
BRANCH   3   4
ATOM      4  O   UNL A   1      33.521  29.292  27.260  1.00  0.00    -0.460 OA
BRANCH   4   5
ATOM      5  C   UNL A   1      34.413  30.221  27.681  1.00  0.00     0.338 C 
ATOM      6  O   UNL A   1      34.039  31.381  27.841  1.00  0.00    -0.246 OA
BRANCH   5   7
ATOM      7  C   UNL A   1      35.831  29.884  27.984  1.00  0.00     0.060 A 
ATOM      8  C   UNL A   1      36.873  30.053  27.076  1.00  0.00     0.016 A 
ATOM      9  C   UNL A   1      36.146  29.450  29.280  1.00  0.00     0.016 A 
ATOM     10  C   UNL A   1      38.173  29.712  27.387  1.00  0.00     0.010 A 
ATOM     11  C   UNL A   1      37.472  29.175  29.632  1.00  0.00     0.010 A 
ATOM     12  C   UNL A   1      38.486  29.297  28.675  1.00  0.00    -0.014 A 
BRANCH  12  13
ATOM     13  C   UNL A   1      39.895  28.970  28.947  1.00  0.00     0.031 A 
ATOM     14  C   UNL A   1      40.732  29.960  29.693  1.00  0.00     0.074 A 
ATOM     15  C   UNL A   1      40.337  27.730  28.657  1.00  0.00     0.049 A 
ATOM     16  N   UNL A   1      41.993  29.890  30.010  1.00  0.00    -0.248 NA
ATOM     17  C   UNL A   1      40.057  31.187  30.154  1.00  0.00     0.031 C 
ATOM     18  C   UNL A   1      39.527  26.665  28.053  1.00  0.00     0.029 A 
ATOM     19  N   UNL A   1      41.551  27.138  28.873  1.00  0.00    -0.354 N 
ATOM     20  C   UNL A   1      42.277  31.077  30.670  1.00  0.00     0.074 A 
ATOM     21  C   UNL A   1      41.055  31.846  30.722  1.00  0.00     0.031 C 
ATOM     22  C   UNL A   1      40.256  25.540  27.988  1.00  0.00     0.029 A 
ATOM     23  C   UNL A   1      41.603  25.828  28.459  1.00  0.00     0.049 A 
ATOM     24  H   UNL A   1      42.313  27.605  29.285  1.00  0.00     0.167 HD
ATOM     25  C   UNL A   1      43.466  31.486  31.167  1.00  0.00     0.031 A 
ATOM     26  C   UNL A   1      42.643  24.974  28.428  1.00  0.00     0.031 A 
ATOM     27  C   UNL A   1      44.660  30.689  31.089  1.00  0.00     0.049 A 
ATOM     28  C   UNL A   1      43.971  25.486  28.910  1.00  0.00     0.074 A 
ATOM     29  C   UNL A   1      45.945  31.013  31.478  1.00  0.00     0.029 A 
ATOM     30  N   UNL A   1      44.703  29.393  30.589  1.00  0.00    -0.354 N 
ATOM     31  N   UNL A   1      44.256  26.651  29.447  1.00  0.00    -0.248 NA
ATOM     32  C   UNL A   1      45.122  24.588  28.762  1.00  0.00     0.031 C 
ATOM     33  C   UNL A   1      46.774  29.928  31.174  1.00  0.00     0.029 A 
ATOM     34  C   UNL A   1      45.995  28.908  30.644  1.00  0.00     0.049 A 
ATOM     35  H   UNL A   1      43.927  28.894  30.245  1.00  0.00     0.167 HD
ATOM     36  C   UNL A   1      45.619  26.626  29.706  1.00  0.00     0.074 A 
ATOM     37  C   UNL A   1      46.094  25.318  29.292  1.00  0.00     0.031 C 
ATOM     38  C   UNL A   1      46.414  27.594  30.225  1.00  0.00     0.031 A 
BRANCH  25  39
ATOM     39  C   UNL A   1      43.536  32.873  31.740  1.00  0.00    -0.014 A 
ATOM     40  C   UNL A   1      43.877  33.984  30.949  1.00  0.00     0.010 A 
ATOM     41  C   UNL A   1      43.264  33.063  33.108  1.00  0.00     0.010 A 
ATOM     42  C   UNL A   1      43.975  35.256  31.523  1.00  0.00     0.020 A 
ATOM     43  C   UNL A   1      43.341  34.335  33.681  1.00  0.00     0.020 A 
ATOM     44  C   UNL A   1      43.711  35.422  32.887  1.00  0.00     0.054 A 
BRANCH  44  45
ATOM     45  S   UNL A   1      43.834  37.083  33.607  1.00  0.00     0.124 S 
ATOM     46  O   UNL A   1      42.793  37.046  34.630  1.00  0.00    -0.237 OA
ATOM     47  O   UNL A   1      45.206  37.115  34.107  1.00  0.00    -0.237 OA
ATOM     48  O   UNL A   1      43.565  37.971  32.477  1.00  0.00    -0.744 OA
ENDBRANCH  44  45
ENDBRANCH  25  39
BRANCH  26  49
ATOM     49  C   UNL A   1      42.489  23.611  27.846  1.00  0.00    -0.014 A 
ATOM     50  C   UNL A   1      42.002  22.540  28.613  1.00  0.00     0.010 A 
ATOM     51  C   UNL A   1      42.842  23.376  26.502  1.00  0.00     0.010 A 
ATOM     52  C   UNL A   1      41.895  21.258  28.058  1.00  0.00     0.020 A 
ATOM     53  C   UNL A   1      42.707  22.106  25.934  1.00  0.00     0.020 A 
ATOM     54  C   UNL A   1      42.252  21.050  26.723  1.00  0.00     0.054 A 
BRANCH  54  55
ATOM     55  S   UNL A   1      42.090  19.388  26.011  1.00  0.00     0.124 S 
ATOM     56  O   UNL A   1      42.602  18.547  27.089  1.00  0.00    -0.237 OA
ATOM     57  O   UNL A   1      40.655  19.288  25.757  1.00  0.00    -0.237 OA
ATOM     58  O   UNL A   1      42.924  19.447  24.813  1.00  0.00    -0.744 OA
ENDBRANCH  54  55
ENDBRANCH  26  49
BRANCH  38  59
ATOM     59  C   UNL A   1      47.865  27.254  30.395  1.00  0.00    -0.014 A 
ATOM     60  C   UNL A   1      48.786  27.482  29.360  1.00  0.00     0.010 A 
ATOM     61  C   UNL A   1      48.315  26.758  31.631  1.00  0.00     0.010 A 
ATOM     62  C   UNL A   1      50.138  27.196  29.551  1.00  0.00     0.020 A 
ATOM     63  C   UNL A   1      49.669  26.494  31.834  1.00  0.00     0.020 A 
ATOM     64  C   UNL A   1      50.571  26.704  30.787  1.00  0.00     0.054 A 
BRANCH  64  65
ATOM     65  S   UNL A   1      52.338  26.393  31.032  1.00  0.00     0.124 S 
ATOM     66  O   UNL A   1      52.730  27.524  31.870  1.00  0.00    -0.237 OA
ATOM     67  O   UNL A   1      52.350  25.090  31.690  1.00  0.00    -0.237 OA
ATOM     68  O   UNL A   1      52.883  26.404  29.677  1.00  0.00    -0.744 OA
ENDBRANCH  64  65
ENDBRANCH  38  59
ENDBRANCH  12  13
ENDBRANCH   5   7
ENDBRANCH   4   5
ENDBRANCH   3   4
ENDBRANCH   2   3
ENDBRANCH   1   2
BRANCH   1  69
ATOM     69  C   UNL A   1      32.333  28.708  22.903  1.00  0.00     0.202 C 
BRANCH  69  70
ATOM     70  C   UNL A   1      33.558  27.907  22.463  1.00  0.00     0.261 C 
BRANCH  70  71
ATOM     71  O   UNL A   1      33.106  26.677  21.869  1.00  0.00    -0.461 OA
BRANCH  71  72
ATOM     72  C   UNL A   1      33.367  25.550  22.591  1.00  0.00     0.335 C 
ATOM     73  O   UNL A   1      34.469  25.027  22.708  1.00  0.00    -0.249 OA
BRANCH  72  74
ATOM     74  C   UNL A   1      32.109  25.041  23.306  1.00  0.00     0.228 C 
ATOM     75  C   UNL A   1      32.023  25.354  24.789  1.00  0.00     0.047 C 
ATOM     76  O   UNL A   1      31.973  23.609  23.241  1.00  0.00    -0.361 OA
ATOM     77  C   UNL A   1      30.963  24.384  25.248  1.00  0.00     0.037 C 
ATOM     78  C   UNL A   1      31.209  23.159  24.374  1.00  0.00     0.138 C 
BRANCH  78  79
ATOM     79  C   UNL A   1      31.926  22.007  25.114  1.00  0.00     0.145 C 
BRANCH  79  80
ATOM     80  N   UNL A   1      32.977  22.543  25.967  1.00  0.00    -0.378 N 
ATOM     81  H   UNL A   1      32.702  23.063  26.757  1.00  0.00     0.160 HD
BRANCH  80  82
ATOM     82  C   UNL A   1      34.336  22.375  25.748  1.00  0.00     0.113 A 
ATOM     83  C   UNL A   1      35.281  23.411  25.687  1.00  0.00     0.188 A 
ATOM     84  C   UNL A   1      34.807  21.070  25.514  1.00  0.00     0.188 A 
ATOM     85  F   UNL A   1      34.910  24.678  25.926  1.00  0.00    -0.201 F 
ATOM     86  C   UNL A   1      36.624  23.148  25.406  1.00  0.00     0.199 A 
ATOM     87  C   UNL A   1      36.139  20.808  25.217  1.00  0.00     0.199 A 
ATOM     88  F   UNL A   1      33.933  20.050  25.557  1.00  0.00    -0.201 F 
ATOM     89  F   UNL A   1      37.510  24.154  25.373  1.00  0.00    -0.200 F 
ATOM     90  C   UNL A   1      37.049  21.849  25.162  1.00  0.00     0.200 A 
ATOM     91  F   UNL A   1      36.534  19.550  24.976  1.00  0.00    -0.200 F 
ATOM     92  F   UNL A   1      38.334  21.599  24.880  1.00  0.00    -0.200 F 
ENDBRANCH  80  82
ENDBRANCH  79  80
ENDBRANCH  78  79
ENDBRANCH  72  74
ENDBRANCH  71  72
ENDBRANCH  70  71
ENDBRANCH  69  70
ENDBRANCH   1  69
TORSDOF 20
ENDMDL
MODEL 2
REMARK VINA RESULT:      -9.7      1.326      2.173
REMARK SMILES O=C(OCCOCCOC(=O)[C@@H]1CC[C@H](CNc2c(F)c(F)c(F)c(F)c2F)O1)c1ccc(-c2c3nc(c(-c4ccc(S(=O)(=O)[O-])cc4)c4ccc([nH]4)c(-c4ccc(S(=O)(=O)[O-])cc4)c4nc(c(-c5ccc(S(=O)(=O)[O-])cc5)c5ccc2[nH]5)C=C4)C=C3)cc1
REMARK SMILES IDX 6 1 5 2 4 3 3 4 2 5 1 6 30 7 31 8 89 9 32 10 88 11 33 12
REMARK SMILES IDX 34 13 35 14 82 15 36 16 87 17 81 18 83 19 37 20 86 21 80 22
REMARK SMILES IDX 79 23 38 25 68 26 49 27 67 28 50 29 53 30 66 31 84 32 51 33
REMARK SMILES IDX 52 34 65 36 85 37 54 38 39 39 40 40 48 41 41 42 47 43 42 44
REMARK SMILES IDX 43 45 44 46 45 47 46 48 69 49 70 50 78 51 71 52 77 53 72 54
REMARK SMILES IDX 73 55 74 56 75 57 76 58 55 59 56 60 64 61 57 62 63 63 58 64
REMARK SMILES IDX 59 65 60 66 61 67 62 68 7 69 8 70 9 71 10 72 11 73 12 74
REMARK SMILES IDX 13 75 29 76 14 77 15 78 16 79 17 80 18 82 19 83 27 84 20 85
REMARK SMILES IDX 21 86 25 87 28 88 22 89 23 90 26 91 24 92
REMARK H PARENT 83 24 53 35 17 81
REMARK Flexibility Score: inf
ROOT
ATOM      1  O   UNL A   1      32.710  28.994  24.501  1.00  0.00    -0.374 OA
ENDROOT
BRANCH   1   2
ATOM      2  C   UNL A   1      33.972  28.677  25.085  1.00  0.00     0.202 C 
BRANCH   2   3
ATOM      3  C   UNL A   1      33.922  28.314  26.572  1.00  0.00     0.261 C 
BRANCH   3   4
ATOM      4  O   UNL A   1      33.606  29.479  27.354  1.00  0.00    -0.460 OA
BRANCH   4   5
ATOM      5  C   UNL A   1      34.476  30.361  27.904  1.00  0.00     0.338 C 
ATOM      6  O   UNL A   1      34.083  31.487  28.199  1.00  0.00    -0.246 OA
BRANCH   5   7
ATOM      7  C   UNL A   1      35.894  30.006  28.189  1.00  0.00     0.060 A 
ATOM      8  C   UNL A   1      36.931  30.188  27.277  1.00  0.00     0.016 A 
ATOM      9  C   UNL A   1      36.215  29.542  29.473  1.00  0.00     0.016 A 
ATOM     10  C   UNL A   1      38.231  29.831  27.572  1.00  0.00     0.010 A 
ATOM     11  C   UNL A   1      37.541  29.250  29.809  1.00  0.00     0.010 A 
ATOM     12  C   UNL A   1      38.550  29.385  28.848  1.00  0.00    -0.014 A 
BRANCH  12  13
ATOM     13  C   UNL A   1      39.957  29.041  29.102  1.00  0.00     0.031 A 
ATOM     14  C   UNL A   1      40.810  30.014  29.852  1.00  0.00     0.074 A 
ATOM     15  C   UNL A   1      40.385  27.801  28.793  1.00  0.00     0.049 A 
ATOM     16  N   UNL A   1      42.074  29.929  30.157  1.00  0.00    -0.248 NA
ATOM     17  C   UNL A   1      40.151  31.241  30.335  1.00  0.00     0.031 C 
ATOM     18  C   UNL A   1      39.559  26.751  28.184  1.00  0.00     0.029 A 
ATOM     19  N   UNL A   1      41.595  27.195  28.990  1.00  0.00    -0.354 N 
ATOM     20  C   UNL A   1      42.375  31.105  30.829  1.00  0.00     0.074 A 
ATOM     21  C   UNL A   1      41.161  31.885  30.901  1.00  0.00     0.031 C 
ATOM     22  C   UNL A   1      40.277  25.620  28.097  1.00  0.00     0.029 A 
ATOM     23  C   UNL A   1      41.631  25.890  28.560  1.00  0.00     0.049 A 
ATOM     24  H   UNL A   1      42.366  27.650  29.400  1.00  0.00     0.167 HD
ATOM     25  C   UNL A   1      43.573  31.496  31.319  1.00  0.00     0.031 A 
ATOM     26  C   UNL A   1      42.663  25.027  28.508  1.00  0.00     0.031 A 
ATOM     27  C   UNL A   1      44.758  30.690  31.220  1.00  0.00     0.049 A 
ATOM     28  C   UNL A   1      44.000  25.520  28.984  1.00  0.00     0.074 A 
ATOM     29  C   UNL A   1      46.050  30.997  31.601  1.00  0.00     0.029 A 
ATOM     30  N   UNL A   1      44.784  29.400  30.704  1.00  0.00    -0.354 N 
ATOM     31  N   UNL A   1      44.301  26.676  29.532  1.00  0.00    -0.248 NA
ATOM     32  C   UNL A   1      45.141  24.613  28.814  1.00  0.00     0.031 C 
ATOM     33  C   UNL A   1      46.865  29.908  31.275  1.00  0.00     0.029 A 
ATOM     34  C   UNL A   1      46.072  28.902  30.741  1.00  0.00     0.049 A 
ATOM     35  H   UNL A   1      44.000  28.912  30.361  1.00  0.00     0.167 HD
ATOM     36  C   UNL A   1      45.666  26.635  29.778  1.00  0.00     0.074 A 
ATOM     37  C   UNL A   1      46.125  25.328  29.344  1.00  0.00     0.031 C 
ATOM     38  C   UNL A   1      46.475  27.589  30.301  1.00  0.00     0.031 A 
BRANCH  25  39
ATOM     39  C   UNL A   1      43.661  32.875  31.909  1.00  0.00    -0.014 A 
ATOM     40  C   UNL A   1      43.588  33.093  33.296  1.00  0.00     0.010 A 
ATOM     41  C   UNL A   1      43.810  33.978  31.048  1.00  0.00     0.010 A 
ATOM     42  C   UNL A   1      43.630  34.394  33.809  1.00  0.00     0.020 A 
ATOM     43  C   UNL A   1      43.874  35.278  31.558  1.00  0.00     0.020 A 
ATOM     44  C   UNL A   1      43.768  35.479  32.936  1.00  0.00     0.054 A 
BRANCH  44  45
ATOM     45  S   UNL A   1      43.831  37.156  33.626  1.00  0.00     0.124 S 
ATOM     46  O   UNL A   1      45.032  37.095  34.455  1.00  0.00    -0.237 OA
ATOM     47  O   UNL A   1      43.934  37.990  32.432  1.00  0.00    -0.237 OA
ATOM     48  O   UNL A   1      42.573  37.276  34.360  1.00  0.00    -0.744 OA
ENDBRANCH  44  45
ENDBRANCH  25  39
BRANCH  26  49
ATOM     49  C   UNL A   1      42.490  23.673  27.911  1.00  0.00    -0.014 A 
ATOM     50  C   UNL A   1      42.093  22.575  28.692  1.00  0.00     0.010 A 
ATOM     51  C   UNL A   1      42.735  23.473  26.537  1.00  0.00     0.010 A 
ATOM     52  C   UNL A   1      41.969  21.302  28.119  1.00  0.00     0.020 A 
ATOM     53  C   UNL A   1      42.580  22.212  25.954  1.00  0.00     0.020 A 
ATOM     54  C   UNL A   1      42.217  21.130  26.754  1.00  0.00     0.054 A 
BRANCH  54  55
ATOM     55  S   UNL A   1      42.032  19.479  26.022  1.00  0.00     0.124 S 
ATOM     56  O   UNL A   1      42.898  19.570  24.850  1.00  0.00    -0.237 OA
ATOM     57  O   UNL A   1      42.503  18.602  27.091  1.00  0.00    -0.237 OA
ATOM     58  O   UNL A   1      40.601  19.390  25.739  1.00  0.00    -0.744 OA
ENDBRANCH  54  55
ENDBRANCH  26  49
BRANCH  38  59
ATOM     59  C   UNL A   1      47.924  27.234  30.453  1.00  0.00    -0.014 A 
ATOM     60  C   UNL A   1      48.841  27.483  29.419  1.00  0.00     0.010 A 
ATOM     61  C   UNL A   1      48.377  26.701  31.672  1.00  0.00     0.010 A 
ATOM     62  C   UNL A   1      50.192  27.181  29.595  1.00  0.00     0.020 A 
ATOM     63  C   UNL A   1      49.730  26.421  31.860  1.00  0.00     0.020 A 
ATOM     64  C   UNL A   1      50.628  26.652  30.814  1.00  0.00     0.054 A 
BRANCH  64  65
ATOM     65  S   UNL A   1      52.395  26.322  31.040  1.00  0.00     0.124 S 
ATOM     66  O   UNL A   1      52.374  25.070  31.792  1.00  0.00    -0.237 OA
ATOM     67  O   UNL A   1      52.883  26.223  29.667  1.00  0.00    -0.237 OA
ATOM     68  O   UNL A   1      52.872  27.487  31.782  1.00  0.00    -0.744 OA
ENDBRANCH  64  65
ENDBRANCH  38  59
ENDBRANCH  12  13
ENDBRANCH   5   7
ENDBRANCH   4   5
ENDBRANCH   3   4
ENDBRANCH   2   3
ENDBRANCH   1   2
BRANCH   1  69
ATOM     69  C   UNL A   1      32.577  28.705  23.109  1.00  0.00     0.202 C 
BRANCH  69  70
ATOM     70  C   UNL A   1      33.576  27.616  22.719  1.00  0.00     0.261 C 
BRANCH  70  71
ATOM     71  O   UNL A   1      32.877  26.610  21.964  1.00  0.00    -0.461 OA
BRANCH  71  72
ATOM     72  C   UNL A   1      33.040  25.331  22.409  1.00  0.00     0.335 C 
ATOM     73  O   UNL A   1      33.625  24.442  21.800  1.00  0.00    -0.249 OA
BRANCH  72  74
ATOM     74  C   UNL A   1      32.449  25.148  23.812  1.00  0.00     0.228 C 
ATOM     75  C   UNL A   1      33.452  25.136  24.951  1.00  0.00     0.047 C 
ATOM     76  O   UNL A   1      31.737  23.905  23.958  1.00  0.00    -0.361 OA
ATOM     77  C   UNL A   1      32.645  24.521  26.067  1.00  0.00     0.037 C 
ATOM     78  C   UNL A   1      31.761  23.512  25.343  1.00  0.00     0.138 C 
BRANCH  78  79
ATOM     79  C   UNL A   1      32.235  22.049  25.504  1.00  0.00     0.145 C 
BRANCH  79  80
ATOM     80  N   UNL A   1      32.936  21.619  24.303  1.00  0.00    -0.378 N 
ATOM     81  H   UNL A   1      33.326  22.319  23.728  1.00  0.00     0.160 HD
BRANCH  80  82
ATOM     82  C   UNL A   1      33.097  20.300  23.908  1.00  0.00     0.113 A 
ATOM     83  C   UNL A   1      32.372  19.664  22.889  1.00  0.00     0.188 A 
ATOM     84  C   UNL A   1      34.020  19.510  24.618  1.00  0.00     0.188 A 
ATOM     85  F   UNL A   1      31.493  20.360  22.151  1.00  0.00    -0.201 F 
ATOM     86  C   UNL A   1      32.566  18.311  22.599  1.00  0.00     0.199 A 
ATOM     87  C   UNL A   1      34.202  18.160  24.345  1.00  0.00     0.199 A 
ATOM     88  F   UNL A   1      34.731  20.079  25.608  1.00  0.00    -0.201 F 
ATOM     89  F   UNL A   1      31.874  17.734  21.607  1.00  0.00    -0.200 F 
ATOM     90  C   UNL A   1      33.473  17.560  23.334  1.00  0.00     0.200 A 
ATOM     91  F   UNL A   1      35.076  17.445  25.066  1.00  0.00    -0.200 F 
ATOM     92  F   UNL A   1      33.649  16.259  23.065  1.00  0.00    -0.200 F 
ENDBRANCH  80  82
ENDBRANCH  79  80
ENDBRANCH  78  79
ENDBRANCH  72  74
ENDBRANCH  71  72
ENDBRANCH  70  71
ENDBRANCH  69  70
ENDBRANCH   1  69
TORSDOF 20
ENDMDL
MODEL 3
REMARK VINA RESULT:      -9.7      3.058      8.703
REMARK SMILES O=C(OCCOCCOC(=O)[C@@H]1CC[C@H](CNc2c(F)c(F)c(F)c(F)c2F)O1)c1ccc(-c2c3nc(c(-c4ccc(S(=O)(=O)[O-])cc4)c4ccc([nH]4)c(-c4ccc(S(=O)(=O)[O-])cc4)c4nc(c(-c5ccc(S(=O)(=O)[O-])cc5)c5ccc2[nH]5)C=C4)C=C3)cc1
REMARK SMILES IDX 6 1 5 2 4 3 3 4 2 5 1 6 30 7 31 8 89 9 32 10 88 11 33 12
REMARK SMILES IDX 34 13 35 14 82 15 36 16 87 17 81 18 83 19 37 20 86 21 80 22
REMARK SMILES IDX 79 23 38 25 68 26 49 27 67 28 50 29 53 30 66 31 84 32 51 33
REMARK SMILES IDX 52 34 65 36 85 37 54 38 39 39 40 40 48 41 41 42 47 43 42 44
REMARK SMILES IDX 43 45 44 46 45 47 46 48 69 49 70 50 78 51 71 52 77 53 72 54
REMARK SMILES IDX 73 55 74 56 75 57 76 58 55 59 56 60 64 61 57 62 63 63 58 64
REMARK SMILES IDX 59 65 60 66 61 67 62 68 7 69 8 70 9 71 10 72 11 73 12 74
REMARK SMILES IDX 13 75 29 76 14 77 15 78 16 79 17 80 18 82 19 83 27 84 20 85
REMARK SMILES IDX 21 86 25 87 28 88 22 89 23 90 26 91 24 92
REMARK H PARENT 83 24 53 35 17 81
REMARK Flexibility Score: inf
ROOT
ATOM      1  O   UNL A   1      31.043  28.428  25.519  1.00  0.00    -0.374 OA
ENDROOT
BRANCH   1   2
ATOM      2  C   UNL A   1      32.019  28.857  26.464  1.00  0.00     0.202 C 
BRANCH   2   3
ATOM      3  C   UNL A   1      33.004  29.908  25.942  1.00  0.00     0.261 C 
BRANCH   3   4
ATOM      4  O   UNL A   1      34.260  29.794  26.634  1.00  0.00    -0.460 OA
BRANCH   4   5
ATOM      5  C   UNL A   1      34.734  30.601  27.614  1.00  0.00     0.338 C 
ATOM      6  O   UNL A   1      34.101  31.609  27.920  1.00  0.00    -0.246 OA
BRANCH   5   7
ATOM      7  C   UNL A   1      35.988  30.297  28.358  1.00  0.00     0.060 A 
ATOM      8  C   UNL A   1      36.048  29.422  29.440  1.00  0.00     0.016 A 
ATOM      9  C   UNL A   1      37.186  30.858  27.893  1.00  0.00     0.016 A 
ATOM     10  C   UNL A   1      37.226  29.179  30.116  1.00  0.00     0.010 A 
ATOM     11  C   UNL A   1      38.400  30.558  28.522  1.00  0.00     0.010 A 
ATOM     12  C   UNL A   1      38.414  29.723  29.646  1.00  0.00    -0.014 A 
BRANCH  12  13
ATOM     13  C   UNL A   1      39.637  29.408  30.400  1.00  0.00     0.031 A 
ATOM     14  C   UNL A   1      40.551  28.346  29.876  1.00  0.00     0.074 A 
ATOM     15  C   UNL A   1      39.972  30.191  31.444  1.00  0.00     0.049 A 
ATOM     16  N   UNL A   1      41.656  27.890  30.392  1.00  0.00    -0.248 NA
ATOM     17  C   UNL A   1      40.178  27.722  28.593  1.00  0.00     0.031 C 
ATOM     18  C   UNL A   1      39.190  31.338  31.925  1.00  0.00     0.029 A 
ATOM     19  N   UNL A   1      41.071  30.179  32.258  1.00  0.00    -0.354 N 
ATOM     20  C   UNL A   1      42.091  26.898  29.524  1.00  0.00     0.074 A 
ATOM     21  C   UNL A   1      41.140  26.825  28.440  1.00  0.00     0.031 C 
ATOM     22  C   UNL A   1      39.858  31.941  32.920  1.00  0.00     0.029 A 
ATOM     23  C   UNL A   1      41.063  31.175  33.205  1.00  0.00     0.049 A 
ATOM     24  H   UNL A   1      41.797  29.520  32.173  1.00  0.00     0.167 HD
ATOM     25  C   UNL A   1      43.183  26.110  29.647  1.00  0.00     0.031 A 
ATOM     26  C   UNL A   1      41.919  31.410  34.218  1.00  0.00     0.031 A 
ATOM     27  C   UNL A   1      44.101  26.213  30.748  1.00  0.00     0.049 A 
ATOM     28  C   UNL A   1      43.077  30.466  34.376  1.00  0.00     0.074 A 
ATOM     29  C   UNL A   1      45.199  25.426  31.037  1.00  0.00     0.029 A 
ATOM     30  N   UNL A   1      44.024  27.182  31.741  1.00  0.00    -0.354 N 
ATOM     31  N   UNL A   1      43.430  29.464  33.603  1.00  0.00    -0.248 NA
ATOM     32  C   UNL A   1      43.936  30.659  35.550  1.00  0.00     0.031 C 
ATOM     33  C   UNL A   1      45.761  25.894  32.230  1.00  0.00     0.029 A 
ATOM     34  C   UNL A   1      45.044  27.005  32.654  1.00  0.00     0.049 A 
ATOM     35  H   UNL A   1      43.341  27.890  31.788  1.00  0.00     0.167 HD
ATOM     36  C   UNL A   1      44.556  28.908  34.193  1.00  0.00     0.074 A 
ATOM     37  C   UNL A   1      44.840  29.705  35.372  1.00  0.00     0.031 C 
ATOM     38  C   UNL A   1      45.286  27.832  33.810  1.00  0.00     0.031 A 
BRANCH  25  39
ATOM     39  C   UNL A   1      43.372  25.028  28.622  1.00  0.00    -0.014 A 
ATOM     40  C   UNL A   1      42.678  23.807  28.699  1.00  0.00     0.010 A 
ATOM     41  C   UNL A   1      44.276  25.237  27.565  1.00  0.00     0.010 A 
ATOM     42  C   UNL A   1      42.909  22.804  27.751  1.00  0.00     0.020 A 
ATOM     43  C   UNL A   1      44.495  24.245  26.605  1.00  0.00     0.020 A 
ATOM     44  C   UNL A   1      43.820  23.027  26.713  1.00  0.00     0.054 A 
BRANCH  44  45
ATOM     45  S   UNL A   1      44.095  21.714  25.491  1.00  0.00     0.124 S 
ATOM     46  O   UNL A   1      43.314  20.614  26.051  1.00  0.00    -0.237 OA
ATOM     47  O   UNL A   1      43.564  22.301  24.265  1.00  0.00    -0.237 OA
ATOM     48  O   UNL A   1      45.544  21.522  25.510  1.00  0.00    -0.744 OA
ENDBRANCH  44  45
ENDBRANCH  25  39
BRANCH  26  49
ATOM     49  C   UNL A   1      41.661  32.509  35.190  1.00  0.00    -0.014 A 
ATOM     50  C   UNL A   1      40.680  32.386  36.188  1.00  0.00     0.010 A 
ATOM     51  C   UNL A   1      42.401  33.706  35.113  1.00  0.00     0.010 A 
ATOM     52  C   UNL A   1      40.428  33.443  37.072  1.00  0.00     0.020 A 
ATOM     53  C   UNL A   1      42.177  34.751  36.013  1.00  0.00     0.020 A 
ATOM     54  C   UNL A   1      41.176  34.620  36.976  1.00  0.00     0.054 A 
BRANCH  54  55
ATOM     55  S   UNL A   1      40.852  35.974  38.140  1.00  0.00     0.124 S 
ATOM     56  O   UNL A   1      42.168  36.593  38.258  1.00  0.00    -0.237 OA
ATOM     57  O   UNL A   1      39.841  36.762  37.440  1.00  0.00    -0.237 OA
ATOM     58  O   UNL A   1      40.374  35.286  39.338  1.00  0.00    -0.744 OA
ENDBRANCH  54  55
ENDBRANCH  26  49
BRANCH  38  59
ATOM     59  C   UNL A   1      46.470  27.483  34.663  1.00  0.00    -0.014 A 
ATOM     60  C   UNL A   1      46.351  26.575  35.727  1.00  0.00     0.010 A 
ATOM     61  C   UNL A   1      47.727  28.029  34.350  1.00  0.00     0.010 A 
ATOM     62  C   UNL A   1      47.472  26.234  36.484  1.00  0.00     0.020 A 
ATOM     63  C   UNL A   1      48.854  27.671  35.089  1.00  0.00     0.020 A 
ATOM     64  C   UNL A   1      48.717  26.784  36.160  1.00  0.00     0.054 A 
BRANCH  64  65
ATOM     65  S   UNL A   1      50.169  26.282  37.119  1.00  0.00     0.124 S 
ATOM     66  O   UNL A   1      51.188  26.152  36.081  1.00  0.00    -0.237 OA
ATOM     67  O   UNL A   1      50.350  27.401  38.040  1.00  0.00    -0.237 OA
ATOM     68  O   UNL A   1      49.754  25.029  37.746  1.00  0.00    -0.744 OA
ENDBRANCH  64  65
ENDBRANCH  38  59
ENDBRANCH  12  13
ENDBRANCH   5   7
ENDBRANCH   4   5
ENDBRANCH   3   4
ENDBRANCH   2   3
ENDBRANCH   1   2
BRANCH   1  69
ATOM     69  C   UNL A   1      31.334  27.210  24.830  1.00  0.00     0.202 C 
BRANCH  69  70
ATOM     70  C   UNL A   1      30.157  26.248  24.981  1.00  0.00     0.261 C 
BRANCH  70  71
ATOM     71  O   UNL A   1      30.677  24.913  25.105  1.00  0.00    -0.461 OA
BRANCH  71  72
ATOM     72  C   UNL A   1      30.709  24.415  26.375  1.00  0.00     0.335 C 
ATOM     73  O   UNL A   1      29.725  24.093  27.031  1.00  0.00    -0.249 OA
BRANCH  72  74
ATOM     74  C   UNL A   1      32.150  24.243  26.871  1.00  0.00     0.228 C 
ATOM     75  C   UNL A   1      33.220  24.245  25.795  1.00  0.00     0.047 C 
ATOM     76  O   UNL A   1      32.354  23.001  27.568  1.00  0.00    -0.361 OA
ATOM     77  C   UNL A   1      34.392  23.638  26.525  1.00  0.00     0.037 C 
ATOM     78  C   UNL A   1      33.737  22.620  27.452  1.00  0.00     0.138 C 
BRANCH  78  79
ATOM     79  C   UNL A   1      33.879  21.159  26.963  1.00  0.00     0.145 C 
BRANCH  79  80
ATOM     80  N   UNL A   1      32.646  20.729  26.321  1.00  0.00    -0.378 N 
ATOM     81  H   UNL A   1      31.799  20.916  26.789  1.00  0.00     0.160 HD
BRANCH  80  82
ATOM     82  C   UNL A   1      32.575  20.075  25.101  1.00  0.00     0.113 A 
ATOM     83  C   UNL A   1      32.336  20.690  23.863  1.00  0.00     0.188 A 
ATOM     84  C   UNL A   1      32.698  18.673  25.100  1.00  0.00     0.188 A 
ATOM     85  F   UNL A   1      32.234  22.026  23.783  1.00  0.00    -0.201 F 
ATOM     86  C   UNL A   1      32.226  19.939  22.691  1.00  0.00     0.199 A 
ATOM     87  C   UNL A   1      32.571  17.921  23.938  1.00  0.00     0.199 A 
ATOM     88  F   UNL A   1      32.921  18.042  26.266  1.00  0.00    -0.201 F 
ATOM     89  F   UNL A   1      32.016  20.555  21.519  1.00  0.00    -0.200 F 
ATOM     90  C   UNL A   1      32.335  18.556  22.731  1.00  0.00     0.200 A 
ATOM     91  F   UNL A   1      32.671  16.586  23.992  1.00  0.00    -0.200 F 
ATOM     92  F   UNL A   1      32.216  17.834  21.608  1.00  0.00    -0.200 F 
ENDBRANCH  80  82
ENDBRANCH  79  80
ENDBRANCH  78  79
ENDBRANCH  72  74
ENDBRANCH  71  72
ENDBRANCH  70  71
ENDBRANCH  69  70
ENDBRANCH   1  69
TORSDOF 20
ENDMDL
