MODEL 1
REMARK VINA RESULT:     -10.8      0.000      0.000
REMARK SMILES Cc1nn(C(C)C)cc1-c1cnccc1C(=O)OCCOCCOC(=O)c1ccc(-c2c3nc(c(-c4ccc(S(=O)(=O)[O-])cc4)c4ccc([nH]4)c(-c4ccc(S(=O)(=O)[O-])cc4)c4nc(c(-c5ccc(S(=O)(=O)[O-])cc5)c5ccc2[nH]5)C=C4)C=C3)cc1
REMARK SMILES IDX 22 1 21 2 20 3 19 4 18 5 16 6 17 7 15 8 10 9 11 10 12 11
REMARK SMILES IDX 14 12 13 13 9 14 1 15 2 16 3 17 4 18 8 19 5 20 6 21 7 22
REMARK SMILES IDX 23 23 24 24 25 25 26 26 27 27 28 28 86 29 29 30 85 31 30 32
REMARK SMILES IDX 31 33 32 34 79 35 33 36 84 37 78 38 80 39 34 40 83 41 77 42
REMARK SMILES IDX 76 43 35 45 65 46 46 47 64 48 47 49 50 50 63 51 81 52 48 53
REMARK SMILES IDX 49 54 62 56 82 57 51 58 36 59 37 60 45 61 38 62 44 63 39 64
REMARK SMILES IDX 40 65 41 66 42 67 43 68 66 69 67 70 75 71 68 72 74 73 69 74
REMARK SMILES IDX 70 75 71 76 72 77 73 78 52 79 53 80 61 81 54 82 60 83 55 84
REMARK SMILES IDX 56 85 57 86 58 87 59 88
REMARK H PARENT 80 44 50 55
REMARK Flexibility Score: inf
ROOT
ATOM      1  C   UNL A   1      36.496  20.805  25.071  1.00  0.00     0.202 C 
ENDROOT
BRANCH   1   2
ATOM      2  O   UNL A   1      36.280  21.630  26.212  1.00  0.00    -0.374 OA
BRANCH   2   3
ATOM      3  C   UNL A   1      36.062  23.029  26.033  1.00  0.00     0.202 C 
BRANCH   3   4
ATOM      4  C   UNL A   1      36.315  23.607  24.643  1.00  0.00     0.261 C 
BRANCH   4   5
ATOM      5  O   UNL A   1      35.194  24.371  24.174  1.00  0.00    -0.460 OA
BRANCH   5   6
ATOM      6  C   UNL A   1      34.507  23.824  23.145  1.00  0.00     0.338 C 
ATOM      7  O   UNL A   1      34.959  23.100  22.271  1.00  0.00    -0.246 OA
BRANCH   6   8
ATOM      8  C   UNL A   1      33.052  24.051  23.282  1.00  0.00     0.071 A 
ATOM      9  C   UNL A   1      32.167  23.216  23.975  1.00  0.00     0.018 A 
ATOM     10  C   UNL A   1      30.851  23.667  24.067  1.00  0.00     0.120 A 
ATOM     11  N   UNL A   1      30.373  24.802  23.499  1.00  0.00    -0.264 NA
ATOM     12  C   UNL A   1      32.581  25.225  22.673  1.00  0.00     0.036 A 
ATOM     13  C   UNL A   1      31.244  25.545  22.796  1.00  0.00     0.112 A 
BRANCH   9  14
ATOM     14  C   UNL A   1      32.514  21.934  24.559  1.00  0.00     0.025 A 
ATOM     15  C   UNL A   1      32.811  22.419  27.133  1.00  0.00     0.069 C 
ATOM     16  C   UNL A   1      32.777  21.570  25.913  1.00  0.00     0.067 A 
ATOM     17  N   UNL A   1      33.019  20.260  26.031  1.00  0.00    -0.177 NA
ATOM     18  N   UNL A   1      32.916  19.786  24.778  1.00  0.00    -0.269 N 
ATOM     19  C   UNL A   1      32.672  20.760  23.853  1.00  0.00     0.118 A 
BRANCH  18  20
ATOM     20  C   UNL A   1      33.087  18.361  24.517  1.00  0.00     0.101 C 
ATOM     21  C   UNL A   1      34.550  18.027  24.241  1.00  0.00     0.033 C 
ATOM     22  C   UNL A   1      32.517  17.507  25.649  1.00  0.00     0.033 C 
ENDBRANCH  18  20
ENDBRANCH   9  14
ENDBRANCH   6   8
ENDBRANCH   5   6
ENDBRANCH   4   5
ENDBRANCH   3   4
ENDBRANCH   2   3
ENDBRANCH   1   2
BRANCH   1  23
ATOM     23  C   UNL A   1      37.809  20.042  24.962  1.00  0.00     0.261 C 
BRANCH  23  24
ATOM     24  O   UNL A   1      38.938  20.822  25.319  1.00  0.00    -0.460 OA
BRANCH  24  25
ATOM     25  C   UNL A   1      40.016  20.079  25.674  1.00  0.00     0.338 C 
ATOM     26  O   UNL A   1      40.144  18.875  25.566  1.00  0.00    -0.246 OA
BRANCH  25  27
ATOM     27  C   UNL A   1      40.955  20.940  26.399  1.00  0.00     0.060 A 
ATOM     28  C   UNL A   1      40.799  20.989  27.784  1.00  0.00     0.016 A 
ATOM     29  C   UNL A   1      41.717  21.887  25.701  1.00  0.00     0.016 A 
ATOM     30  C   UNL A   1      41.212  22.125  28.438  1.00  0.00     0.010 A 
ATOM     31  C   UNL A   1      42.118  23.027  26.353  1.00  0.00     0.010 A 
ATOM     32  C   UNL A   1      41.778  23.168  27.693  1.00  0.00    -0.014 A 
BRANCH  32  33
ATOM     33  C   UNL A   1      42.148  24.373  28.399  1.00  0.00     0.031 A 
ATOM     34  C   UNL A   1      41.226  25.482  28.087  1.00  0.00     0.074 A 
ATOM     35  C   UNL A   1      43.163  24.442  29.279  1.00  0.00     0.049 A 
ATOM     36  N   UNL A   1      41.453  26.474  27.294  1.00  0.00    -0.248 NA
ATOM     37  C   UNL A   1      39.819  25.345  28.502  1.00  0.00     0.031 C 
ATOM     38  C   UNL A   1      43.963  23.349  29.836  1.00  0.00     0.029 A 
ATOM     39  N   UNL A   1      43.631  25.529  29.944  1.00  0.00    -0.354 N 
ATOM     40  C   UNL A   1      40.294  27.234  27.329  1.00  0.00     0.074 A 
ATOM     41  C   UNL A   1      39.267  26.381  27.870  1.00  0.00     0.031 C 
ATOM     42  C   UNL A   1      44.637  23.802  30.922  1.00  0.00     0.029 A 
ATOM     43  C   UNL A   1      44.425  25.235  31.048  1.00  0.00     0.049 A 
ATOM     44  H   UNL A   1      43.426  26.452  29.668  1.00  0.00     0.167 HD
ATOM     45  C   UNL A   1      40.355  28.589  27.235  1.00  0.00     0.031 A 
ATOM     46  C   UNL A   1      44.810  26.105  32.018  1.00  0.00     0.031 A 
ATOM     47  C   UNL A   1      41.624  29.029  26.710  1.00  0.00     0.049 A 
ATOM     48  C   UNL A   1      44.685  27.472  31.450  1.00  0.00     0.074 A 
ATOM     49  C   UNL A   1      42.333  28.792  25.548  1.00  0.00     0.029 A 
ATOM     50  N   UNL A   1      42.535  29.515  27.620  1.00  0.00    -0.354 N 
ATOM     51  N   UNL A   1      45.431  27.909  30.474  1.00  0.00    -0.248 NA
ATOM     52  C   UNL A   1      43.426  28.178  31.633  1.00  0.00     0.031 C 
ATOM     53  C   UNL A   1      43.697  28.714  25.954  1.00  0.00     0.029 A 
ATOM     54  C   UNL A   1      43.762  28.984  27.322  1.00  0.00     0.049 A 
ATOM     55  H   UNL A   1      42.338  30.136  28.358  1.00  0.00     0.167 HD
ATOM     56  C   UNL A   1      44.564  28.618  29.655  1.00  0.00     0.074 A 
ATOM     57  C   UNL A   1      43.366  28.828  30.467  1.00  0.00     0.031 C 
ATOM     58  C   UNL A   1      44.788  28.714  28.310  1.00  0.00     0.031 A 
BRANCH  45  59
ATOM     59  C   UNL A   1      39.479  29.489  28.072  1.00  0.00    -0.014 A 
ATOM     60  C   UNL A   1      39.941  29.888  29.339  1.00  0.00     0.010 A 
ATOM     61  C   UNL A   1      38.113  29.710  27.790  1.00  0.00     0.010 A 
ATOM     62  C   UNL A   1      39.063  30.410  30.297  1.00  0.00     0.020 A 
ATOM     63  C   UNL A   1      37.239  30.269  28.718  1.00  0.00     0.020 A 
ATOM     64  C   UNL A   1      37.715  30.586  29.980  1.00  0.00     0.054 A 
BRANCH  64  65
ATOM     65  S   UNL A   1      36.574  31.175  31.250  1.00  0.00     0.124 S 
ATOM     66  O   UNL A   1      37.414  32.105  31.998  1.00  0.00    -0.237 OA
ATOM     67  O   UNL A   1      35.512  31.779  30.450  1.00  0.00    -0.237 OA
ATOM     68  O   UNL A   1      36.196  29.956  31.961  1.00  0.00    -0.744 OA
ENDBRANCH  64  65
ENDBRANCH  45  59
BRANCH  46  69
ATOM     69  C   UNL A   1      44.918  25.860  33.482  1.00  0.00    -0.014 A 
ATOM     70  C   UNL A   1      45.738  26.666  34.298  1.00  0.00     0.010 A 
ATOM     71  C   UNL A   1      43.986  25.023  34.127  1.00  0.00     0.010 A 
ATOM     72  C   UNL A   1      45.581  26.685  35.696  1.00  0.00     0.020 A 
ATOM     73  C   UNL A   1      43.827  25.031  35.519  1.00  0.00     0.020 A 
ATOM     74  C   UNL A   1      44.608  25.881  36.297  1.00  0.00     0.054 A 
BRANCH  74  75
ATOM     75  S   UNL A   1      44.279  26.044  38.079  1.00  0.00     0.124 S 
ATOM     76  O   UNL A   1      42.853  26.357  38.105  1.00  0.00    -0.237 OA
ATOM     77  O   UNL A   1      44.647  24.729  38.595  1.00  0.00    -0.237 OA
ATOM     78  O   UNL A   1      45.160  27.137  38.492  1.00  0.00    -0.744 OA
ENDBRANCH  74  75
ENDBRANCH  46  69
BRANCH  58  79
ATOM     79  C   UNL A   1      46.147  28.327  27.776  1.00  0.00    -0.014 A 
ATOM     80  C   UNL A   1      46.514  27.019  27.401  1.00  0.00     0.010 A 
ATOM     81  C   UNL A   1      47.049  29.374  27.518  1.00  0.00     0.010 A 
ATOM     82  C   UNL A   1      47.766  26.766  26.814  1.00  0.00     0.020 A 
ATOM     83  C   UNL A   1      48.286  29.133  26.918  1.00  0.00     0.020 A 
ATOM     84  C   UNL A   1      48.645  27.830  26.579  1.00  0.00     0.054 A 
BRANCH  84  85
ATOM     85  S   UNL A   1      50.253  27.511  25.799  1.00  0.00     0.124 S 
ATOM     86  O   UNL A   1      50.001  26.292  25.036  1.00  0.00    -0.237 OA
ATOM     87  O   UNL A   1      50.474  28.717  25.005  1.00  0.00    -0.237 OA
ATOM     88  O   UNL A   1      51.165  27.352  26.932  1.00  0.00    -0.744 OA
ENDBRANCH  84  85
ENDBRANCH  58  79
ENDBRANCH  32  33
ENDBRANCH  25  27
ENDBRANCH  24  25
ENDBRANCH  23  24
ENDBRANCH   1  23
TORSDOF 19
ENDMDL
MODEL 2
REMARK VINA RESULT:     -10.8      3.419      7.924
REMARK SMILES Cc1nn(C(C)C)cc1-c1cnccc1C(=O)OCCOCCOC(=O)c1ccc(-c2c3nc(c(-c4ccc(S(=O)(=O)[O-])cc4)c4ccc([nH]4)c(-c4ccc(S(=O)(=O)[O-])cc4)c4nc(c(-c5ccc(S(=O)(=O)[O-])cc5)c5ccc2[nH]5)C=C4)C=C3)cc1
REMARK SMILES IDX 22 1 21 2 20 3 19 4 18 5 16 6 17 7 15 8 10 9 11 10 12 11
REMARK SMILES IDX 14 12 13 13 9 14 1 15 2 16 3 17 4 18 8 19 5 20 6 21 7 22
REMARK SMILES IDX 23 23 24 24 25 25 26 26 27 27 28 28 86 29 29 30 85 31 30 32
REMARK SMILES IDX 31 33 32 34 79 35 33 36 84 37 78 38 80 39 34 40 83 41 77 42
REMARK SMILES IDX 76 43 35 45 65 46 46 47 64 48 47 49 50 50 63 51 81 52 48 53
REMARK SMILES IDX 49 54 62 56 82 57 51 58 36 59 37 60 45 61 38 62 44 63 39 64
REMARK SMILES IDX 40 65 41 66 42 67 43 68 66 69 67 70 75 71 68 72 74 73 69 74
REMARK SMILES IDX 70 75 71 76 72 77 73 78 52 79 53 80 61 81 54 82 60 83 55 84
REMARK SMILES IDX 56 85 57 86 58 87 59 88
REMARK H PARENT 80 44 50 55
REMARK Flexibility Score: inf
ROOT
ATOM      1  C   UNL A   1      32.768  30.379  25.994  1.00  0.00     0.202 C 
ENDROOT
BRANCH   1   2
ATOM      2  O   UNL A   1      31.873  29.278  26.112  1.00  0.00    -0.374 OA
BRANCH   2   3
ATOM      3  C   UNL A   1      31.995  28.393  27.226  1.00  0.00     0.202 C 
BRANCH   3   4
ATOM      4  C   UNL A   1      32.036  26.896  26.931  1.00  0.00     0.261 C 
BRANCH   4   5
ATOM      5  O   UNL A   1      30.724  26.366  26.689  1.00  0.00    -0.460 OA
BRANCH   5   6
ATOM      6  C   UNL A   1      30.635  25.470  25.679  1.00  0.00     0.338 C 
ATOM      7  O   UNL A   1      30.305  24.298  25.772  1.00  0.00    -0.246 OA
BRANCH   6   8
ATOM      8  C   UNL A   1      30.813  26.120  24.362  1.00  0.00     0.071 A 
ATOM      9  C   UNL A   1      31.778  25.765  23.411  1.00  0.00     0.018 A 
ATOM     10  C   UNL A   1      31.708  26.439  22.193  1.00  0.00     0.120 A 
ATOM     11  N   UNL A   1      30.828  27.427  21.897  1.00  0.00    -0.264 NA
ATOM     12  C   UNL A   1      29.898  27.148  24.086  1.00  0.00     0.036 A 
ATOM     13  C   UNL A   1      29.955  27.775  22.858  1.00  0.00     0.112 A 
BRANCH   9  14
ATOM     14  C   UNL A   1      32.834  24.791  23.617  1.00  0.00     0.025 A 
ATOM     15  C   UNL A   1      31.747  22.470  23.001  1.00  0.00     0.069 C 
ATOM     16  C   UNL A   1      32.844  23.377  23.430  1.00  0.00     0.067 A 
ATOM     17  N   UNL A   1      34.046  22.855  23.696  1.00  0.00    -0.177 NA
ATOM     18  N   UNL A   1      34.798  23.910  24.050  1.00  0.00    -0.269 N 
ATOM     19  C   UNL A   1      34.102  25.085  24.073  1.00  0.00     0.118 A 
BRANCH  18  20
ATOM     20  C   UNL A   1      36.207  23.729  24.384  1.00  0.00     0.101 C 
ATOM     21  C   UNL A   1      36.406  23.652  25.895  1.00  0.00     0.033 C 
ATOM     22  C   UNL A   1      36.803  22.513  23.674  1.00  0.00     0.033 C 
ENDBRANCH  18  20
ENDBRANCH   9  14
ENDBRANCH   6   8
ENDBRANCH   5   6
ENDBRANCH   4   5
ENDBRANCH   3   4
ENDBRANCH   2   3
ENDBRANCH   1   2
BRANCH   1  23
ATOM     23  C   UNL A   1      32.931  31.317  27.182  1.00  0.00     0.261 C 
BRANCH  23  24
ATOM     24  O   UNL A   1      33.935  30.895  28.091  1.00  0.00    -0.460 OA
BRANCH  24  25
ATOM     25  C   UNL A   1      35.050  31.668  28.058  1.00  0.00     0.338 C 
ATOM     26  O   UNL A   1      35.219  32.684  27.412  1.00  0.00    -0.246 OA
BRANCH  25  27
ATOM     27  C   UNL A   1      36.116  30.975  28.789  1.00  0.00     0.060 A 
ATOM     28  C   UNL A   1      37.133  31.781  29.300  1.00  0.00     0.016 A 
ATOM     29  C   UNL A   1      36.252  29.585  28.674  1.00  0.00     0.016 A 
ATOM     30  C   UNL A   1      38.374  31.216  29.473  1.00  0.00     0.010 A 
ATOM     31  C   UNL A   1      37.494  29.024  28.837  1.00  0.00     0.010 A 
ATOM     32  C   UNL A   1      38.556  29.866  29.145  1.00  0.00    -0.014 A 
BRANCH  32  33
ATOM     33  C   UNL A   1      39.885  29.315  29.282  1.00  0.00     0.031 A 
ATOM     34  C   UNL A   1      40.231  29.097  30.699  1.00  0.00     0.074 A 
ATOM     35  C   UNL A   1      40.668  28.984  28.240  1.00  0.00     0.049 A 
ATOM     36  N   UNL A   1      41.003  29.831  31.428  1.00  0.00    -0.248 NA
ATOM     37  C   UNL A   1      39.448  28.104  31.455  1.00  0.00     0.031 C 
ATOM     38  C   UNL A   1      40.319  28.928  26.818  1.00  0.00     0.029 A 
ATOM     39  N   UNL A   1      41.945  28.522  28.256  1.00  0.00    -0.354 N 
ATOM     40  C   UNL A   1      41.007  29.223  32.673  1.00  0.00     0.074 A 
ATOM     41  C   UNL A   1      39.868  28.342  32.697  1.00  0.00     0.031 C 
ATOM     42  C   UNL A   1      41.274  28.232  26.154  1.00  0.00     0.029 A 
ATOM     43  C   UNL A   1      42.357  27.919  27.073  1.00  0.00     0.049 A 
ATOM     44  H   UNL A   1      42.532  28.609  29.042  1.00  0.00     0.167 HD
ATOM     45  C   UNL A   1      42.129  29.235  33.442  1.00  0.00     0.031 A 
ATOM     46  C   UNL A   1      43.475  27.165  26.900  1.00  0.00     0.031 A 
ATOM     47  C   UNL A   1      43.065  30.241  33.003  1.00  0.00     0.049 A 
ATOM     48  C   UNL A   1      44.408  27.514  28.000  1.00  0.00     0.074 A 
ATOM     49  C   UNL A   1      43.014  31.612  32.836  1.00  0.00     0.029 A 
ATOM     50  N   UNL A   1      44.137  29.805  32.260  1.00  0.00    -0.354 N 
ATOM     51  N   UNL A   1      44.968  28.687  28.116  1.00  0.00    -0.248 NA
ATOM     52  C   UNL A   1      44.346  26.733  29.226  1.00  0.00     0.031 C 
ATOM     53  C   UNL A   1      43.767  31.870  31.654  1.00  0.00     0.029 A 
ATOM     54  C   UNL A   1      44.303  30.662  31.204  1.00  0.00     0.049 A 
ATOM     55  H   UNL A   1      44.691  29.014  32.455  1.00  0.00     0.167 HD
ATOM     56  C   UNL A   1      44.913  28.973  29.473  1.00  0.00     0.074 A 
ATOM     57  C   UNL A   1      44.607  27.695  30.116  1.00  0.00     0.031 C 
ATOM     58  C   UNL A   1      44.837  30.264  29.917  1.00  0.00     0.031 A 
BRANCH  45  59
ATOM     59  C   UNL A   1      42.564  28.029  34.239  1.00  0.00    -0.014 A 
ATOM     60  C   UNL A   1      42.766  28.176  35.624  1.00  0.00     0.010 A 
ATOM     61  C   UNL A   1      43.062  26.851  33.641  1.00  0.00     0.010 A 
ATOM     62  C   UNL A   1      43.495  27.229  36.352  1.00  0.00     0.020 A 
ATOM     63  C   UNL A   1      43.749  25.879  34.364  1.00  0.00     0.020 A 
ATOM     64  C   UNL A   1      43.990  26.092  35.712  1.00  0.00     0.054 A 
BRANCH  64  65
ATOM     65  S   UNL A   1      45.004  24.920  36.639  1.00  0.00     0.124 S 
ATOM     66  O   UNL A   1      44.507  25.105  37.999  1.00  0.00    -0.237 OA
ATOM     67  O   UNL A   1      44.663  23.651  36.003  1.00  0.00    -0.237 OA
ATOM     68  O   UNL A   1      46.368  25.385  36.399  1.00  0.00    -0.744 OA
ENDBRANCH  64  65
ENDBRANCH  45  59
BRANCH  46  69
ATOM     69  C   UNL A   1      43.632  25.929  26.086  1.00  0.00    -0.014 A 
ATOM     70  C   UNL A   1      44.847  25.635  25.434  1.00  0.00     0.010 A 
ATOM     71  C   UNL A   1      42.687  24.889  26.194  1.00  0.00     0.010 A 
ATOM     72  C   UNL A   1      45.131  24.336  24.973  1.00  0.00     0.020 A 
ATOM     73  C   UNL A   1      42.959  23.595  25.732  1.00  0.00     0.020 A 
ATOM     74  C   UNL A   1      44.191  23.316  25.146  1.00  0.00     0.054 A 
BRANCH  74  75
ATOM     75  S   UNL A   1      44.631  21.603  24.721  1.00  0.00     0.124 S 
ATOM     76  O   UNL A   1      45.944  21.456  25.341  1.00  0.00    -0.237 OA
ATOM     77  O   UNL A   1      43.552  20.833  25.334  1.00  0.00    -0.237 OA
ATOM     78  O   UNL A   1      44.633  21.602  23.258  1.00  0.00    -0.744 OA
ENDBRANCH  74  75
ENDBRANCH  46  69
BRANCH  58  79
ATOM     79  C   UNL A   1      45.142  31.380  28.944  1.00  0.00    -0.014 A 
ATOM     80  C   UNL A   1      46.434  31.879  28.683  1.00  0.00     0.010 A 
ATOM     81  C   UNL A   1      44.073  31.847  28.161  1.00  0.00     0.010 A 
ATOM     82  C   UNL A   1      46.639  32.846  27.684  1.00  0.00     0.020 A 
ATOM     83  C   UNL A   1      44.273  32.794  27.154  1.00  0.00     0.020 A 
ATOM     84  C   UNL A   1      45.552  33.298  26.928  1.00  0.00     0.054 A 
BRANCH  84  85
ATOM     85  S   UNL A   1      45.816  34.530  25.620  1.00  0.00     0.124 S 
ATOM     86  O   UNL A   1      45.367  35.767  26.253  1.00  0.00    -0.237 OA
ATOM     87  O   UNL A   1      47.252  34.435  25.369  1.00  0.00    -0.237 OA
ATOM     88  O   UNL A   1      44.973  34.058  24.521  1.00  0.00    -0.744 OA
ENDBRANCH  84  85
ENDBRANCH  58  79
ENDBRANCH  32  33
ENDBRANCH  25  27
ENDBRANCH  24  25
ENDBRANCH  23  24
ENDBRANCH   1  23
TORSDOF 19
ENDMDL
MODEL 3
REMARK VINA RESULT:     -10.8      2.615      7.562
REMARK SMILES Cc1nn(C(C)C)cc1-c1cnccc1C(=O)OCCOCCOC(=O)c1ccc(-c2c3nc(c(-c4ccc(S(=O)(=O)[O-])cc4)c4ccc([nH]4)c(-c4ccc(S(=O)(=O)[O-])cc4)c4nc(c(-c5ccc(S(=O)(=O)[O-])cc5)c5ccc2[nH]5)C=C4)C=C3)cc1
REMARK SMILES IDX 22 1 21 2 20 3 19 4 18 5 16 6 17 7 15 8 10 9 11 10 12 11
REMARK SMILES IDX 14 12 13 13 9 14 1 15 2 16 3 17 4 18 8 19 5 20 6 21 7 22
REMARK SMILES IDX 23 23 24 24 25 25 26 26 27 27 28 28 86 29 29 30 85 31 30 32
REMARK SMILES IDX 31 33 32 34 79 35 33 36 84 37 78 38 80 39 34 40 83 41 77 42
REMARK SMILES IDX 76 43 35 45 65 46 46 47 64 48 47 49 50 50 63 51 81 52 48 53
REMARK SMILES IDX 49 54 62 56 82 57 51 58 36 59 37 60 45 61 38 62 44 63 39 64
REMARK SMILES IDX 40 65 41 66 42 67 43 68 66 69 67 70 75 71 68 72 74 73 69 74
REMARK SMILES IDX 70 75 71 76 72 77 73 78 52 79 53 80 61 81 54 82 60 83 55 84
REMARK SMILES IDX 56 85 57 86 58 87 59 88
REMARK H PARENT 80 44 50 55
REMARK Flexibility Score: inf
ROOT
ATOM      1  C   UNL A   1      40.390  20.929  26.905  1.00  0.00     0.202 C 
ENDROOT
BRANCH   1   2
ATOM      2  O   UNL A   1      39.597  21.772  26.076  1.00  0.00    -0.374 OA
BRANCH   2   3
ATOM      3  C   UNL A   1      38.514  21.207  25.336  1.00  0.00     0.202 C 
BRANCH   3   4
ATOM      4  C   UNL A   1      37.103  21.665  25.698  1.00  0.00     0.261 C 
BRANCH   4   5
ATOM      5  O   UNL A   1      36.107  20.956  24.944  1.00  0.00    -0.460 OA
BRANCH   5   6
ATOM      6  C   UNL A   1      34.869  20.939  25.490  1.00  0.00     0.338 C 
ATOM      7  O   UNL A   1      34.501  21.548  26.483  1.00  0.00    -0.246 OA
BRANCH   6   8
ATOM      8  C   UNL A   1      33.907  20.217  24.628  1.00  0.00     0.071 A 
ATOM      9  C   UNL A   1      32.996  20.821  23.753  1.00  0.00     0.018 A 
ATOM     10  C   UNL A   1      32.249  19.953  22.959  1.00  0.00     0.120 A 
ATOM     11  N   UNL A   1      32.304  18.599  23.016  1.00  0.00    -0.264 NA
ATOM     12  C   UNL A   1      33.975  18.818  24.717  1.00  0.00     0.036 A 
ATOM     13  C   UNL A   1      33.151  18.061  23.910  1.00  0.00     0.112 A 
BRANCH   9  14
ATOM     14  C   UNL A   1      32.765  22.250  23.645  1.00  0.00     0.025 A 
ATOM     15  C   UNL A   1      31.050  22.807  25.568  1.00  0.00     0.069 C 
ATOM     16  C   UNL A   1      31.947  23.120  24.425  1.00  0.00     0.067 A 
ATOM     17  N   UNL A   1      32.052  24.389  24.016  1.00  0.00    -0.177 NA
ATOM     18  N   UNL A   1      32.918  24.340  22.990  1.00  0.00    -0.269 N 
ATOM     19  C   UNL A   1      33.330  23.072  22.693  1.00  0.00     0.118 A 
BRANCH  18  20
ATOM     20  C   UNL A   1      33.310  25.565  22.301  1.00  0.00     0.101 C 
ATOM     21  C   UNL A   1      32.403  25.832  21.103  1.00  0.00     0.033 C 
ATOM     22  C   UNL A   1      33.352  26.760  23.254  1.00  0.00     0.033 C 
ENDBRANCH  18  20
ENDBRANCH   9  14
ENDBRANCH   6   8
ENDBRANCH   5   6
ENDBRANCH   4   5
ENDBRANCH   3   4
ENDBRANCH   2   3
ENDBRANCH   1   2
BRANCH   1  23
ATOM     23  C   UNL A   1      41.292  19.896  26.243  1.00  0.00     0.261 C 
BRANCH  23  24
ATOM     24  O   UNL A   1      42.661  20.056  26.577  1.00  0.00    -0.460 OA
BRANCH  24  25
ATOM     25  C   UNL A   1      43.418  20.504  25.543  1.00  0.00     0.338 C 
ATOM     26  O   UNL A   1      43.923  19.837  24.662  1.00  0.00    -0.246 OA
BRANCH  25  27
ATOM     27  C   UNL A   1      43.702  21.927  25.759  1.00  0.00     0.060 A 
ATOM     28  C   UNL A   1      44.388  22.244  26.931  1.00  0.00     0.016 A 
ATOM     29  C   UNL A   1      43.029  22.896  25.003  1.00  0.00     0.016 A 
ATOM     30  C   UNL A   1      44.198  23.495  27.468  1.00  0.00     0.010 A 
ATOM     31  C   UNL A   1      42.830  24.141  25.546  1.00  0.00     0.010 A 
ATOM     32  C   UNL A   1      43.342  24.391  26.814  1.00  0.00    -0.014 A 
BRANCH  32  33
ATOM     33  C   UNL A   1      43.115  25.677  27.433  1.00  0.00     0.031 A 
ATOM     34  C   UNL A   1      44.200  26.625  27.113  1.00  0.00     0.074 A 
ATOM     35  C   UNL A   1      42.018  25.978  28.149  1.00  0.00     0.049 A 
ATOM     36  N   UNL A   1      45.167  26.981  27.888  1.00  0.00    -0.248 NA
ATOM     37  C   UNL A   1      44.369  27.027  25.706  1.00  0.00     0.031 C 
ATOM     38  C   UNL A   1      40.789  25.198  28.307  1.00  0.00     0.029 A 
ATOM     39  N   UNL A   1      41.736  27.125  28.820  1.00  0.00    -0.354 N 
ATOM     40  C   UNL A   1      45.919  27.873  27.139  1.00  0.00     0.074 A 
ATOM     41  C   UNL A   1      45.536  27.669  25.765  1.00  0.00     0.031 C 
ATOM     42  C   UNL A   1      39.818  25.996  28.816  1.00  0.00     0.029 A 
ATOM     43  C   UNL A   1      40.394  27.290  29.145  1.00  0.00     0.049 A 
ATOM     44  H   UNL A   1      42.426  27.785  29.059  1.00  0.00     0.167 HD
ATOM     45  C   UNL A   1      46.532  28.930  27.736  1.00  0.00     0.031 A 
ATOM     46  C   UNL A   1      39.807  28.434  29.585  1.00  0.00     0.031 A 
ATOM     47  C   UNL A   1      46.633  28.750  29.163  1.00  0.00     0.049 A 
ATOM     48  C   UNL A   1      40.886  29.292  30.136  1.00  0.00     0.074 A 
ATOM     49  C   UNL A   1      47.200  27.796  29.987  1.00  0.00     0.029 A 
ATOM     50  N   UNL A   1      45.725  29.433  29.938  1.00  0.00    -0.354 N 
ATOM     51  N   UNL A   1      41.565  28.984  31.207  1.00  0.00    -0.248 NA
ATOM     52  C   UNL A   1      41.535  30.237  29.241  1.00  0.00     0.031 C 
ATOM     53  C   UNL A   1      46.288  27.654  31.073  1.00  0.00     0.029 A 
ATOM     54  C   UNL A   1      45.255  28.578  30.900  1.00  0.00     0.049 A 
ATOM     55  H   UNL A   1      45.458  30.373  29.821  1.00  0.00     0.167 HD
ATOM     56  C   UNL A   1      42.876  29.325  30.906  1.00  0.00     0.074 A 
ATOM     57  C   UNL A   1      42.781  30.178  29.721  1.00  0.00     0.031 C 
ATOM     58  C   UNL A   1      43.925  28.655  31.470  1.00  0.00     0.031 A 
BRANCH  45  59
ATOM     59  C   UNL A   1      46.573  30.296  27.096  1.00  0.00    -0.014 A 
ATOM     60  C   UNL A   1      47.783  31.013  27.119  1.00  0.00     0.010 A 
ATOM     61  C   UNL A   1      45.410  31.014  26.742  1.00  0.00     0.010 A 
ATOM     62  C   UNL A   1      47.811  32.392  26.875  1.00  0.00     0.020 A 
ATOM     63  C   UNL A   1      45.432  32.376  26.453  1.00  0.00     0.020 A 
ATOM     64  C   UNL A   1      46.630  33.064  26.554  1.00  0.00     0.054 A 
BRANCH  64  65
ATOM     65  S   UNL A   1      46.661  34.855  26.329  1.00  0.00     0.124 S 
ATOM     66  O   UNL A   1      47.219  34.978  24.986  1.00  0.00    -0.237 OA
ATOM     67  O   UNL A   1      45.249  35.204  26.467  1.00  0.00    -0.237 OA
ATOM     68  O   UNL A   1      47.521  35.321  27.414  1.00  0.00    -0.744 OA
ENDBRANCH  64  65
ENDBRANCH  45  59
BRANCH  46  69
ATOM     69  C   UNL A   1      38.466  28.974  29.230  1.00  0.00    -0.014 A 
ATOM     70  C   UNL A   1      37.557  29.382  30.228  1.00  0.00     0.010 A 
ATOM     71  C   UNL A   1      38.193  29.367  27.905  1.00  0.00     0.010 A 
ATOM     72  C   UNL A   1      36.461  30.209  29.920  1.00  0.00     0.020 A 
ATOM     73  C   UNL A   1      37.100  30.185  27.589  1.00  0.00     0.020 A 
ATOM     74  C   UNL A   1      36.251  30.624  28.602  1.00  0.00     0.054 A 
BRANCH  74  75
ATOM     75  S   UNL A   1      34.949  31.840  28.236  1.00  0.00     0.124 S 
ATOM     76  O   UNL A   1      34.029  31.070  27.405  1.00  0.00    -0.237 OA
ATOM     77  O   UNL A   1      34.457  32.193  29.565  1.00  0.00    -0.237 OA
ATOM     78  O   UNL A   1      35.665  32.910  27.540  1.00  0.00    -0.744 OA
ENDBRANCH  74  75
ENDBRANCH  46  69
BRANCH  58  79
ATOM     79  C   UNL A   1      43.654  27.767  32.663  1.00  0.00    -0.014 A 
ATOM     80  C   UNL A   1      43.633  26.359  32.621  1.00  0.00     0.010 A 
ATOM     81  C   UNL A   1      43.550  28.400  33.913  1.00  0.00     0.010 A 
ATOM     82  C   UNL A   1      43.479  25.609  33.800  1.00  0.00     0.020 A 
ATOM     83  C   UNL A   1      43.415  27.662  35.090  1.00  0.00     0.020 A 
ATOM     84  C   UNL A   1      43.368  26.270  35.028  1.00  0.00     0.054 A 
BRANCH  84  85
ATOM     85  S   UNL A   1      43.193  25.306  36.556  1.00  0.00     0.124 S 
ATOM     86  O   UNL A   1      41.956  24.565  36.324  1.00  0.00    -0.237 OA
ATOM     87  O   UNL A   1      44.413  24.504  36.577  1.00  0.00    -0.237 OA
ATOM     88  O   UNL A   1      43.114  26.324  37.604  1.00  0.00    -0.744 OA
ENDBRANCH  84  85
ENDBRANCH  58  79
ENDBRANCH  32  33
ENDBRANCH  25  27
ENDBRANCH  24  25
ENDBRANCH  23  24
ENDBRANCH   1  23
TORSDOF 19
ENDMDL
