MODEL 1
REMARK VINA RESULT:      -9.3      0.000      0.000
REMARK SMILES O=C(OCCOCCOC(=O)c1ccc(-c2c3nc(c(-c4ccc(S(=O)(=O)[O-])cc4)c4ccc([nH]4)c(-c4ccc(S(=O)(=O)[O-])cc4)c4nc(c(-c5ccc(S(=O)(=O)[O-])cc5)c5ccc2[nH]5)C=C4)C=C3)cc1)C1=Cc2cc(Cl)cc(C#Cc3ccccc3)c2O[C@@H]1C(F)(F)F
REMARK SMILES IDX 7 1 6 2 5 3 4 4 3 5 2 6 1 7 72 8 73 9 90 10 74 11 89 12
REMARK SMILES IDX 75 13 88 14 76 15 79 16 77 17 78 18 91 19 92 20 93 21 94 22
REMARK SMILES IDX 80 23 81 24 82 25 83 26 87 27 84 28 86 29 85 30 8 31 9 32
REMARK SMILES IDX 10 33 11 34 12 35 13 36 71 37 14 38 70 39 15 40 16 41 17 42
REMARK SMILES IDX 64 43 18 44 69 45 63 46 65 47 19 48 68 49 62 50 61 51 20 53
REMARK SMILES IDX 50 54 31 55 49 56 32 57 35 58 48 59 66 60 33 61 34 62 47 64
REMARK SMILES IDX 67 65 36 66 21 67 22 68 30 69 23 70 29 71 24 72 25 73 26 74
REMARK SMILES IDX 27 75 28 76 51 77 52 78 60 79 53 80 59 81 54 82 55 83 56 84
REMARK SMILES IDX 57 85 58 86 37 87 38 88 46 89 39 90 45 91 40 92 41 93 42 94
REMARK SMILES IDX 43 95 44 96
REMARK H PARENT 65 52 35 63
REMARK Flexibility Score: inf
ROOT
ATOM      1  C   UNL A   1      51.060  26.064  36.818  1.00  0.00     0.202 C 
ENDROOT
BRANCH   1   2
ATOM      2  O   UNL A   1      50.803  25.205  37.932  1.00  0.00    -0.374 OA
BRANCH   2   3
ATOM      3  C   UNL A   1      49.722  24.115  38.154  1.00  0.00     0.202 C 
BRANCH   3   4
ATOM      4  C   UNL A   1      47.896  23.647  37.068  1.00  0.00     0.261 C 
BRANCH   4   5
ATOM      5  O   UNL A   1      47.151  24.550  36.063  1.00  0.00    -0.460 OA
BRANCH   5   6
ATOM      6  C   UNL A   1      46.751  23.895  34.972  1.00  0.00     0.338 C 
ATOM      7  O   UNL A   1      47.200  22.903  34.457  1.00  0.00    -0.246 OA
BRANCH   6   8
ATOM      8  C   UNL A   1      45.885  24.943  34.485  1.00  0.00     0.087 C 
ATOM      9  C   UNL A   1      46.549  25.655  33.348  1.00  0.00     0.027 C 
ATOM     10  C   UNL A   1      44.291  23.855  34.318  1.00  0.00     0.316 C 
ATOM     11  C   UNL A   1      46.016  25.474  31.611  1.00  0.00     0.020 A 
ATOM     12  O   UNL A   1      43.750  23.617  32.490  1.00  0.00    -0.474 OA
ATOM     13  C   UNL A   1      46.757  26.070  30.633  1.00  0.00     0.032 A 
ATOM     14  C   UNL A   1      44.723  24.375  31.153  1.00  0.00     0.143 A 
ATOM     15  C   UNL A   1      46.406  25.673  29.340  1.00  0.00     0.043 A 
ATOM     16  C   UNL A   1      44.499  23.993  29.863  1.00  0.00     0.069 A 
ATOM     17  Cl  UNL A   1      47.253  26.437  28.031  1.00  0.00    -0.084 Cl
ATOM     18  C   UNL A   1      45.386  24.682  28.996  1.00  0.00     0.041 A 
BRANCH  10  19
ATOM     19  C   UNL A   1      43.451  24.347  35.563  1.00  0.00     0.430 C 
ATOM     20  F   UNL A   1      44.077  24.284  36.751  1.00  0.00    -0.167 F 
ATOM     21  F   UNL A   1      43.182  25.675  35.365  1.00  0.00    -0.167 F 
ATOM     22  F   UNL A   1      42.225  23.778  35.671  1.00  0.00    -0.167 F 
ENDBRANCH  10  19
BRANCH  16  23
ATOM     23  C   UNL A   1      43.527  23.077  29.361  1.00  0.00    -0.058 C 
ATOM     24  C   UNL A   1      42.624  22.472  28.817  1.00  0.00    -0.062 C 
BRANCH  24  25
ATOM     25  C   UNL A   1      41.456  22.055  28.086  1.00  0.00     0.025 A 
ATOM     26  C   UNL A   1      41.405  20.780  27.504  1.00  0.00     0.017 A 
ATOM     27  C   UNL A   1      40.498  23.009  27.708  1.00  0.00     0.017 A 
ATOM     28  C   UNL A   1      40.467  20.493  26.503  1.00  0.00     0.001 A 
ATOM     29  C   UNL A   1      39.572  22.726  26.693  1.00  0.00     0.001 A 
ATOM     30  C   UNL A   1      39.569  21.474  26.079  1.00  0.00     0.000 A 
ENDBRANCH  24  25
ENDBRANCH  16  23
ENDBRANCH   6   8
ENDBRANCH   5   6
ENDBRANCH   4   5
ENDBRANCH   3   4
ENDBRANCH   2   3
ENDBRANCH   1   2
BRANCH   1  31
ATOM     31  C   UNL A   1      50.248  27.307  36.514  1.00  0.00     0.261 C 
BRANCH  31  32
ATOM     32  O   UNL A   1      48.949  27.345  37.067  1.00  0.00    -0.460 OA
BRANCH  32  33
ATOM     33  C   UNL A   1      48.656  28.399  37.868  1.00  0.00     0.338 C 
ATOM     34  O   UNL A   1      49.217  28.747  38.886  1.00  0.00    -0.246 OA
BRANCH  33  35
ATOM     35  C   UNL A   1      47.430  28.976  37.280  1.00  0.00     0.060 A 
ATOM     36  C   UNL A   1      47.372  30.247  36.708  1.00  0.00     0.016 A 
ATOM     37  C   UNL A   1      46.346  28.121  37.168  1.00  0.00     0.016 A 
ATOM     38  C   UNL A   1      46.259  30.609  35.908  1.00  0.00     0.010 A 
ATOM     39  C   UNL A   1      45.295  28.466  36.331  1.00  0.00     0.010 A 
ATOM     40  C   UNL A   1      45.219  29.699  35.671  1.00  0.00    -0.014 A 
BRANCH  40  41
ATOM     41  C   UNL A   1      43.962  29.987  34.898  1.00  0.00     0.031 A 
ATOM     42  C   UNL A   1      42.893  30.808  35.591  1.00  0.00     0.074 A 
ATOM     43  C   UNL A   1      43.649  29.435  33.701  1.00  0.00     0.049 A 
ATOM     44  N   UNL A   1      41.681  31.100  35.192  1.00  0.00    -0.248 NA
ATOM     45  C   UNL A   1      43.188  31.271  36.962  1.00  0.00     0.031 C 
ATOM     46  C   UNL A   1      44.442  28.456  32.966  1.00  0.00     0.029 A 
ATOM     47  N   UNL A   1      42.546  29.605  32.888  1.00  0.00    -0.354 N 
ATOM     48  C   UNL A   1      41.086  31.730  36.276  1.00  0.00     0.074 A 
ATOM     49  C   UNL A   1      41.987  31.605  37.392  1.00  0.00     0.031 C 
ATOM     50  C   UNL A   1      43.858  28.178  31.786  1.00  0.00     0.029 A 
ATOM     51  C   UNL A   1      42.613  28.930  31.684  1.00  0.00     0.049 A 
ATOM     52  H   UNL A   1      41.775  30.162  33.144  1.00  0.00     0.167 HD
ATOM     53  C   UNL A   1      39.948  32.457  36.332  1.00  0.00     0.031 A 
ATOM     54  C   UNL A   1      41.784  28.929  30.617  1.00  0.00     0.031 A 
ATOM     55  C   UNL A   1      39.085  32.663  35.210  1.00  0.00     0.049 A 
ATOM     56  C   UNL A   1      40.536  29.783  30.660  1.00  0.00     0.074 A 
ATOM     57  C   UNL A   1      37.978  33.484  35.116  1.00  0.00     0.029 A 
ATOM     58  N   UNL A   1      39.243  32.049  33.978  1.00  0.00    -0.354 N 
ATOM     59  N   UNL A   1      40.078  30.527  31.639  1.00  0.00    -0.248 NA
ATOM     60  C   UNL A   1      39.708  29.818  29.444  1.00  0.00     0.031 C 
ATOM     61  C   UNL A   1      37.427  33.319  33.844  1.00  0.00     0.029 A 
ATOM     62  C   UNL A   1      38.237  32.456  33.123  1.00  0.00     0.049 A 
ATOM     63  H   UNL A   1      39.962  31.418  33.749  1.00  0.00     0.167 HD
ATOM     64  C   UNL A   1      38.942  31.159  31.137  1.00  0.00     0.074 A 
ATOM     65  C   UNL A   1      38.788  30.716  29.768  1.00  0.00     0.031 C 
ATOM     66  C   UNL A   1      38.106  32.030  31.754  1.00  0.00     0.031 A 
BRANCH  53  67
ATOM     67  C   UNL A   1      39.638  33.139  37.638  1.00  0.00    -0.014 A 
ATOM     68  C   UNL A   1      38.705  32.581  38.537  1.00  0.00     0.010 A 
ATOM     69  C   UNL A   1      40.268  34.348  37.970  1.00  0.00     0.010 A 
ATOM     70  C   UNL A   1      38.351  33.258  39.702  1.00  0.00     0.020 A 
ATOM     71  C   UNL A   1      39.953  35.004  39.163  1.00  0.00     0.020 A 
ATOM     72  C   UNL A   1      38.980  34.467  40.008  1.00  0.00     0.054 A 
BRANCH  72  73
ATOM     73  S   UNL A   1      38.515  35.309  41.543  1.00  0.00     0.124 S 
ATOM     74  O   UNL A   1      38.567  36.713  41.142  1.00  0.00    -0.237 OA
ATOM     75  O   UNL A   1      37.180  34.780  41.804  1.00  0.00    -0.237 OA
ATOM     76  O   UNL A   1      39.546  34.893  42.490  1.00  0.00    -0.744 OA
ENDBRANCH  72  73
ENDBRANCH  53  67
BRANCH  54  77
ATOM     77  C   UNL A   1      42.120  28.176  29.364  1.00  0.00    -0.014 A 
ATOM     78  C   UNL A   1      41.568  26.898  29.139  1.00  0.00     0.010 A 
ATOM     79  C   UNL A   1      43.029  28.687  28.420  1.00  0.00     0.010 A 
ATOM     80  C   UNL A   1      41.939  26.137  28.023  1.00  0.00     0.020 A 
ATOM     81  C   UNL A   1      43.379  27.943  27.283  1.00  0.00     0.020 A 
ATOM     82  C   UNL A   1      42.841  26.667  27.098  1.00  0.00     0.054 A 
BRANCH  82  83
ATOM     83  S   UNL A   1      43.272  25.676  25.638  1.00  0.00     0.124 S 
ATOM     84  O   UNL A   1      44.392  26.425  25.077  1.00  0.00    -0.237 OA
ATOM     85  O   UNL A   1      43.607  24.381  26.226  1.00  0.00    -0.237 OA
ATOM     86  O   UNL A   1      42.048  25.692  24.840  1.00  0.00    -0.744 OA
ENDBRANCH  82  83
ENDBRANCH  54  77
BRANCH  66  87
ATOM     87  C   UNL A   1      36.985  32.632  30.950  1.00  0.00    -0.014 A 
ATOM     88  C   UNL A   1      35.671  32.141  31.030  1.00  0.00     0.010 A 
ATOM     89  C   UNL A   1      37.243  33.774  30.167  1.00  0.00     0.010 A 
ATOM     90  C   UNL A   1      34.642  32.761  30.315  1.00  0.00     0.020 A 
ATOM     91  C   UNL A   1      36.212  34.419  29.483  1.00  0.00     0.020 A 
ATOM     92  C   UNL A   1      34.919  33.899  29.550  1.00  0.00     0.054 A 
BRANCH  92  93
ATOM     93  S   UNL A   1      33.556  34.713  28.674  1.00  0.00     0.124 S 
ATOM     94  O   UNL A   1      34.221  35.875  28.091  1.00  0.00    -0.237 OA
ATOM     95  O   UNL A   1      33.132  33.688  27.724  1.00  0.00    -0.237 OA
ATOM     96  O   UNL A   1      32.592  35.013  29.730  1.00  0.00    -0.744 OA
ENDBRANCH  92  93
ENDBRANCH  66  87
ENDBRANCH  40  41
ENDBRANCH  33  35
ENDBRANCH  32  33
ENDBRANCH  31  32
ENDBRANCH   1  31
TORSDOF 20
ENDMDL
MODEL 2
REMARK VINA RESULT:      -8.9      4.978     14.199
REMARK SMILES O=C(OCCOCCOC(=O)c1ccc(-c2c3nc(c(-c4ccc(S(=O)(=O)[O-])cc4)c4ccc([nH]4)c(-c4ccc(S(=O)(=O)[O-])cc4)c4nc(c(-c5ccc(S(=O)(=O)[O-])cc5)c5ccc2[nH]5)C=C4)C=C3)cc1)C1=Cc2cc(Cl)cc(C#Cc3ccccc3)c2O[C@@H]1C(F)(F)F
REMARK SMILES IDX 7 1 6 2 5 3 4 4 3 5 2 6 1 7 72 8 73 9 90 10 74 11 89 12
REMARK SMILES IDX 75 13 88 14 76 15 79 16 77 17 78 18 91 19 92 20 93 21 94 22
REMARK SMILES IDX 80 23 81 24 82 25 83 26 87 27 84 28 86 29 85 30 8 31 9 32
REMARK SMILES IDX 10 33 11 34 12 35 13 36 71 37 14 38 70 39 15 40 16 41 17 42
REMARK SMILES IDX 64 43 18 44 69 45 63 46 65 47 19 48 68 49 62 50 61 51 20 53
REMARK SMILES IDX 50 54 31 55 49 56 32 57 35 58 48 59 66 60 33 61 34 62 47 64
REMARK SMILES IDX 67 65 36 66 21 67 22 68 30 69 23 70 29 71 24 72 25 73 26 74
REMARK SMILES IDX 27 75 28 76 51 77 52 78 60 79 53 80 59 81 54 82 55 83 56 84
REMARK SMILES IDX 57 85 58 86 37 87 38 88 46 89 39 90 45 91 40 92 41 93 42 94
REMARK SMILES IDX 43 95 44 96
REMARK H PARENT 65 52 35 63
REMARK Flexibility Score: inf
ROOT
ATOM      1  C   UNL A   1      34.402  32.914  28.994  1.00  0.00     0.202 C 
ENDROOT
BRANCH   1   2
ATOM      2  O   UNL A   1      35.746  32.876  29.482  1.00  0.00    -0.374 OA
BRANCH   2   3
ATOM      3  C   UNL A   1      37.030  33.597  28.995  1.00  0.00     0.202 C 
BRANCH   3   4
ATOM      4  C   UNL A   1      38.542  34.737  30.066  1.00  0.00     0.261 C 
BRANCH   4   5
ATOM      5  O   UNL A   1      39.130  34.430  31.459  1.00  0.00    -0.460 OA
BRANCH   5   6
ATOM      6  C   UNL A   1      38.193  34.278  32.397  1.00  0.00     0.338 C 
ATOM      7  O   UNL A   1      37.381  35.063  32.813  1.00  0.00    -0.246 OA
BRANCH   6   8
ATOM      8  C   UNL A   1      38.722  33.044  32.929  1.00  0.00     0.087 C 
ATOM      9  C   UNL A   1      39.930  33.334  33.764  1.00  0.00     0.027 C 
ATOM     10  C   UNL A   1      37.047  32.363  33.622  1.00  0.00     0.316 C 
ATOM     11  C   UNL A   1      39.935  33.216  35.585  1.00  0.00     0.020 A 
ATOM     12  O   UNL A   1      37.023  32.281  35.541  1.00  0.00    -0.474 OA
ATOM     13  C   UNL A   1      41.048  33.614  36.265  1.00  0.00     0.032 A 
ATOM     14  C   UNL A   1      38.477  32.825  36.488  1.00  0.00     0.143 A 
ATOM     15  C   UNL A   1      40.861  33.710  37.647  1.00  0.00     0.043 A 
ATOM     16  C   UNL A   1      38.368  33.016  37.834  1.00  0.00     0.069 A 
ATOM     17  Cl  UNL A   1      42.249  34.143  38.596  1.00  0.00    -0.084 Cl
ATOM     18  C   UNL A   1      39.605  33.469  38.359  1.00  0.00     0.041 A 
BRANCH  10  19
ATOM     19  C   UNL A   1      36.706  31.243  32.560  1.00  0.00     0.430 C 
ATOM     20  F   UNL A   1      35.437  31.227  32.116  1.00  0.00    -0.167 F 
ATOM     21  F   UNL A   1      37.473  31.494  31.454  1.00  0.00    -0.167 F 
ATOM     22  F   UNL A   1      37.067  29.991  32.932  1.00  0.00    -0.167 F 
ENDBRANCH  10  19
BRANCH  16  23
ATOM     23  C   UNL A   1      37.238  32.792  38.676  1.00  0.00    -0.058 C 
ATOM     24  C   UNL A   1      36.422  32.621  39.560  1.00  0.00    -0.062 C 
BRANCH  24  25
ATOM     25  C   UNL A   1      35.721  32.389  40.796  1.00  0.00     0.025 A 
ATOM     26  C   UNL A   1      34.550  33.103  41.088  1.00  0.00     0.017 A 
ATOM     27  C   UNL A   1      36.352  31.674  41.827  1.00  0.00     0.017 A 
ATOM     28  C   UNL A   1      34.068  33.170  42.403  1.00  0.00     0.001 A 
ATOM     29  C   UNL A   1      35.878  31.757  43.145  1.00  0.00     0.001 A 
ATOM     30  C   UNL A   1      34.747  32.519  43.434  1.00  0.00     0.000 A 
ENDBRANCH  24  25
ENDBRANCH  16  23
ENDBRANCH   6   8
ENDBRANCH   5   6
ENDBRANCH   4   5
ENDBRANCH   3   4
ENDBRANCH   2   3
ENDBRANCH   1   2
BRANCH   1  31
ATOM     31  C   UNL A   1      33.740  31.759  28.271  1.00  0.00     0.261 C 
BRANCH  31  32
ATOM     32  O   UNL A   1      34.551  31.066  27.345  1.00  0.00    -0.460 OA
BRANCH  32  33
ATOM     33  C   UNL A   1      34.789  29.755  27.602  1.00  0.00     0.338 C 
ATOM     34  O   UNL A   1      34.029  28.818  27.483  1.00  0.00    -0.246 OA
BRANCH  33  35
ATOM     35  C   UNL A   1      36.155  29.734  28.162  1.00  0.00     0.060 A 
ATOM     36  C   UNL A   1      36.467  29.219  29.421  1.00  0.00     0.016 A 
ATOM     37  C   UNL A   1      37.175  30.107  27.301  1.00  0.00     0.016 A 
ATOM     38  C   UNL A   1      37.819  28.961  29.762  1.00  0.00     0.010 A 
ATOM     39  C   UNL A   1      38.485  29.789  27.623  1.00  0.00     0.010 A 
ATOM     40  C   UNL A   1      38.849  29.203  28.843  1.00  0.00    -0.014 A 
BRANCH  40  41
ATOM     41  C   UNL A   1      40.319  29.032  29.110  1.00  0.00     0.031 A 
ATOM     42  C   UNL A   1      40.942  27.701  28.739  1.00  0.00     0.074 A 
ATOM     43  C   UNL A   1      41.085  29.910  29.801  1.00  0.00     0.049 A 
ATOM     44  N   UNL A   1      42.153  27.259  28.966  1.00  0.00    -0.248 NA
ATOM     45  C   UNL A   1      40.053  26.692  28.129  1.00  0.00     0.031 C 
ATOM     46  C   UNL A   1      40.632  31.147  30.427  1.00  0.00     0.029 A 
ATOM     47  N   UNL A   1      42.429  29.884  30.118  1.00  0.00    -0.354 N 
ATOM     48  C   UNL A   1      42.134  25.931  28.565  1.00  0.00     0.074 A 
ATOM     49  C   UNL A   1      40.765  25.591  28.270  1.00  0.00     0.031 C 
ATOM     50  C   UNL A   1      41.674  31.801  30.971  1.00  0.00     0.029 A 
ATOM     51  C   UNL A   1      42.885  31.012  30.773  1.00  0.00     0.049 A 
ATOM     52  H   UNL A   1      43.015  29.124  29.895  1.00  0.00     0.167 HD
ATOM     53  C   UNL A   1      43.162  25.083  28.340  1.00  0.00     0.031 A 
ATOM     54  C   UNL A   1      44.129  31.379  31.153  1.00  0.00     0.031 A 
ATOM     55  C   UNL A   1      44.535  25.432  28.547  1.00  0.00     0.049 A 
ATOM     56  C   UNL A   1      45.286  30.453  30.855  1.00  0.00     0.074 A 
ATOM     57  C   UNL A   1      45.663  24.702  28.231  1.00  0.00     0.029 A 
ATOM     58  N   UNL A   1      44.963  26.622  29.111  1.00  0.00    -0.354 N 
ATOM     59  N   UNL A   1      45.271  29.263  30.301  1.00  0.00    -0.248 NA
ATOM     60  C   UNL A   1      46.633  30.930  31.209  1.00  0.00     0.031 C 
ATOM     61  C   UNL A   1      46.777  25.425  28.663  1.00  0.00     0.029 A 
ATOM     62  C   UNL A   1      46.342  26.637  29.175  1.00  0.00     0.049 A 
ATOM     63  H   UNL A   1      44.372  27.346  29.421  1.00  0.00     0.167 HD
ATOM     64  C   UNL A   1      46.606  28.878  30.191  1.00  0.00     0.074 A 
ATOM     65  C   UNL A   1      47.400  29.962  30.728  1.00  0.00     0.031 C 
ATOM     66  C   UNL A   1      47.125  27.731  29.687  1.00  0.00     0.031 A 
BRANCH  53  67
ATOM     67  C   UNL A   1      42.821  23.732  27.769  1.00  0.00    -0.014 A 
ATOM     68  C   UNL A   1      42.487  22.656  28.617  1.00  0.00     0.010 A 
ATOM     69  C   UNL A   1      42.843  23.527  26.381  1.00  0.00     0.010 A 
ATOM     70  C   UNL A   1      42.261  21.385  28.094  1.00  0.00     0.020 A 
ATOM     71  C   UNL A   1      42.566  22.265  25.849  1.00  0.00     0.020 A 
ATOM     72  C   UNL A   1      42.301  21.198  26.711  1.00  0.00     0.054 A 
BRANCH  72  73
ATOM     73  S   UNL A   1      41.977  19.539  26.061  1.00  0.00     0.124 S 
ATOM     74  O   UNL A   1      42.829  19.510  24.874  1.00  0.00    -0.237 OA
ATOM     75  O   UNL A   1      42.404  18.678  27.161  1.00  0.00    -0.237 OA
ATOM     76  O   UNL A   1      40.540  19.545  25.797  1.00  0.00    -0.744 OA
ENDBRANCH  72  73
ENDBRANCH  53  67
BRANCH  54  77
ATOM     77  C   UNL A   1      44.394  32.716  31.777  1.00  0.00    -0.014 A 
ATOM     78  C   UNL A   1      44.293  32.876  33.174  1.00  0.00     0.010 A 
ATOM     79  C   UNL A   1      44.688  33.847  30.994  1.00  0.00     0.010 A 
ATOM     80  C   UNL A   1      44.445  34.135  33.770  1.00  0.00     0.020 A 
ATOM     81  C   UNL A   1      44.875  35.104  31.589  1.00  0.00     0.020 A 
ATOM     82  C   UNL A   1      44.740  35.242  32.973  1.00  0.00     0.054 A 
BRANCH  82  83
ATOM     83  S   UNL A   1      44.975  36.855  33.777  1.00  0.00     0.124 S 
ATOM     84  O   UNL A   1      44.998  37.767  32.637  1.00  0.00    -0.237 OA
ATOM     85  O   UNL A   1      43.799  36.949  34.639  1.00  0.00    -0.237 OA
ATOM     86  O   UNL A   1      46.246  36.704  34.482  1.00  0.00    -0.744 OA
ENDBRANCH  82  83
ENDBRANCH  54  77
BRANCH  66  87
ATOM     87  C   UNL A   1      48.624  27.599  29.614  1.00  0.00    -0.014 A 
ATOM     88  C   UNL A   1      49.377  27.120  30.699  1.00  0.00     0.010 A 
ATOM     89  C   UNL A   1      49.275  27.878  28.397  1.00  0.00     0.010 A 
ATOM     90  C   UNL A   1      50.760  26.954  30.577  1.00  0.00     0.020 A 
ATOM     91  C   UNL A   1      50.648  27.677  28.260  1.00  0.00     0.020 A 
ATOM     92  C   UNL A   1      51.385  27.229  29.356  1.00  0.00     0.054 A 
BRANCH  92  93
ATOM     93  S   UNL A   1      53.172  26.957  29.211  1.00  0.00     0.124 S 
ATOM     94  O   UNL A   1      53.250  26.055  28.066  1.00  0.00    -0.237 OA
ATOM     95  O   UNL A   1      53.682  28.307  28.985  1.00  0.00    -0.237 OA
ATOM     96  O   UNL A   1      53.539  26.364  30.496  1.00  0.00    -0.744 OA
ENDBRANCH  92  93
ENDBRANCH  66  87
ENDBRANCH  40  41
ENDBRANCH  33  35
ENDBRANCH  32  33
ENDBRANCH  31  32
ENDBRANCH   1  31
TORSDOF 20
ENDMDL
MODEL 3
REMARK VINA RESULT:      -8.8      5.942     11.207
REMARK SMILES O=C(OCCOCCOC(=O)c1ccc(-c2c3nc(c(-c4ccc(S(=O)(=O)[O-])cc4)c4ccc([nH]4)c(-c4ccc(S(=O)(=O)[O-])cc4)c4nc(c(-c5ccc(S(=O)(=O)[O-])cc5)c5ccc2[nH]5)C=C4)C=C3)cc1)C1=Cc2cc(Cl)cc(C#Cc3ccccc3)c2O[C@@H]1C(F)(F)F
REMARK SMILES IDX 7 1 6 2 5 3 4 4 3 5 2 6 1 7 72 8 73 9 90 10 74 11 89 12
REMARK SMILES IDX 75 13 88 14 76 15 79 16 77 17 78 18 91 19 92 20 93 21 94 22
REMARK SMILES IDX 80 23 81 24 82 25 83 26 87 27 84 28 86 29 85 30 8 31 9 32
REMARK SMILES IDX 10 33 11 34 12 35 13 36 71 37 14 38 70 39 15 40 16 41 17 42
REMARK SMILES IDX 64 43 18 44 69 45 63 46 65 47 19 48 68 49 62 50 61 51 20 53
REMARK SMILES IDX 50 54 31 55 49 56 32 57 35 58 48 59 66 60 33 61 34 62 47 64
REMARK SMILES IDX 67 65 36 66 21 67 22 68 30 69 23 70 29 71 24 72 25 73 26 74
REMARK SMILES IDX 27 75 28 76 51 77 52 78 60 79 53 80 59 81 54 82 55 83 56 84
REMARK SMILES IDX 57 85 58 86 37 87 38 88 46 89 39 90 45 91 40 92 41 93 42 94
REMARK SMILES IDX 43 95 44 96
REMARK H PARENT 65 52 35 63
REMARK Flexibility Score: inf
ROOT
ATOM      1  C   UNL A   1      45.435  37.736  31.358  1.00  0.00     0.202 C 
ENDROOT
BRANCH   1   2
ATOM      2  O   UNL A   1      45.137  38.302  32.637  1.00  0.00    -0.374 OA
BRANCH   2   3
ATOM      3  C   UNL A   1      44.260  37.782  33.806  1.00  0.00     0.202 C 
BRANCH   3   4
ATOM      4  C   UNL A   1      42.665  36.304  33.871  1.00  0.00     0.261 C 
BRANCH   4   5
ATOM      5  O   UNL A   1      42.423  35.149  32.877  1.00  0.00    -0.460 OA
BRANCH   5   6
ATOM      6  C   UNL A   1      42.932  33.988  33.294  1.00  0.00     0.338 C 
ATOM      7  O   UNL A   1      43.464  33.707  34.337  1.00  0.00    -0.246 OA
BRANCH   6   8
ATOM      8  C   UNL A   1      42.932  33.356  31.996  1.00  0.00     0.087 C 
ATOM      9  C   UNL A   1      44.341  33.178  31.523  1.00  0.00     0.027 C 
ATOM     10  C   UNL A   1      41.736  31.903  32.455  1.00  0.00     0.316 C 
ATOM     11  C   UNL A   1      45.171  31.554  31.453  1.00  0.00     0.020 A 
ATOM     12  O   UNL A   1      42.612  30.194  32.432  1.00  0.00    -0.474 OA
ATOM     13  C   UNL A   1      46.493  31.507  31.121  1.00  0.00     0.032 A 
ATOM     14  C   UNL A   1      44.380  30.089  32.018  1.00  0.00     0.143 A 
ATOM     15  C   UNL A   1      47.083  30.258  31.330  1.00  0.00     0.043 A 
ATOM     16  C   UNL A   1      45.057  28.928  32.257  1.00  0.00     0.069 A 
ATOM     17  Cl  UNL A   1      48.748  30.092  30.867  1.00  0.00    -0.084 Cl
ATOM     18  C   UNL A   1      46.419  29.081  31.893  1.00  0.00     0.041 A 
BRANCH  10  19
ATOM     19  C   UNL A   1      40.403  32.363  31.741  1.00  0.00     0.430 C 
ATOM     20  F   UNL A   1      40.196  33.691  31.693  1.00  0.00    -0.167 F 
ATOM     21  F   UNL A   1      40.490  31.962  30.436  1.00  0.00    -0.167 F 
ATOM     22  F   UNL A   1      39.284  31.751  32.198  1.00  0.00    -0.167 F 
ENDBRANCH  10  19
BRANCH  16  23
ATOM     23  C   UNL A   1      44.553  27.692  32.761  1.00  0.00    -0.058 C 
ATOM     24  C   UNL A   1      44.038  26.765  33.354  1.00  0.00    -0.062 C 
BRANCH  24  25
ATOM     25  C   UNL A   1      43.389  25.888  34.294  1.00  0.00     0.025 A 
ATOM     26  C   UNL A   1      43.661  24.513  34.280  1.00  0.00     0.017 A 
ATOM     27  C   UNL A   1      42.280  26.350  35.021  1.00  0.00     0.017 A 
ATOM     28  C   UNL A   1      42.794  23.611  34.912  1.00  0.00     0.001 A 
ATOM     29  C   UNL A   1      41.404  25.445  35.637  1.00  0.00     0.001 A 
ATOM     30  C   UNL A   1      41.652  24.075  35.567  1.00  0.00     0.000 A 
ENDBRANCH  24  25
ENDBRANCH  16  23
ENDBRANCH   6   8
ENDBRANCH   5   6
ENDBRANCH   4   5
ENDBRANCH   3   4
ENDBRANCH   2   3
ENDBRANCH   1   2
BRANCH   1  31
ATOM     31  C   UNL A   1      45.868  38.556  30.160  1.00  0.00     0.261 C 
BRANCH  31  32
ATOM     32  O   UNL A   1      46.685  37.889  29.220  1.00  0.00    -0.460 OA
BRANCH  32  33
ATOM     33  C   UNL A   1      46.101  37.527  28.051  1.00  0.00     0.338 C 
ATOM     34  O   UNL A   1      45.433  38.210  27.303  1.00  0.00    -0.246 OA
BRANCH  33  35
ATOM     35  C   UNL A   1      46.375  36.081  27.937  1.00  0.00     0.060 A 
ATOM     36  C   UNL A   1      46.862  35.301  28.987  1.00  0.00     0.016 A 
ATOM     37  C   UNL A   1      45.966  35.472  26.762  1.00  0.00     0.016 A 
ATOM     38  C   UNL A   1      46.815  33.887  28.895  1.00  0.00     0.010 A 
ATOM     39  C   UNL A   1      45.867  34.090  26.713  1.00  0.00     0.010 A 
ATOM     40  C   UNL A   1      46.271  33.259  27.766  1.00  0.00    -0.014 A 
BRANCH  40  41
ATOM     41  C   UNL A   1      46.226  31.775  27.526  1.00  0.00     0.031 A 
ATOM     42  C   UNL A   1      44.908  31.070  27.777  1.00  0.00     0.074 A 
ATOM     43  C   UNL A   1      47.308  31.004  27.262  1.00  0.00     0.049 A 
ATOM     44  N   UNL A   1      44.633  29.791  27.753  1.00  0.00    -0.248 NA
ATOM     45  C   UNL A   1      43.775  31.907  28.218  1.00  0.00     0.031 C 
ATOM     46  C   UNL A   1      48.695  31.452  27.192  1.00  0.00     0.029 A 
ATOM     47  N   UNL A   1      47.415  29.648  27.023  1.00  0.00    -0.354 N 
ATOM     48  C   UNL A   1      43.328  29.694  28.214  1.00  0.00     0.074 A 
ATOM     49  C   UNL A   1      42.941  30.999  28.685  1.00  0.00     0.031 C 
ATOM     50  C   UNL A   1      49.496  30.429  26.847  1.00  0.00     0.029 A 
ATOM     51  C   UNL A   1      48.691  29.222  26.705  1.00  0.00     0.049 A 
ATOM     52  H   UNL A   1      46.646  29.035  27.074  1.00  0.00     0.167 HD
ATOM     53  C   UNL A   1      42.467  28.653  28.151  1.00  0.00     0.031 A 
ATOM     54  C   UNL A   1      49.156  28.010  26.327  1.00  0.00     0.031 A 
ATOM     55  C   UNL A   1      42.810  27.375  27.608  1.00  0.00     0.049 A 
ATOM     56  C   UNL A   1      48.183  26.859  26.208  1.00  0.00     0.074 A 
ATOM     57  C   UNL A   1      41.985  26.291  27.376  1.00  0.00     0.029 A 
ATOM     58  N   UNL A   1      44.082  27.014  27.198  1.00  0.00    -0.354 N 
ATOM     59  N   UNL A   1      46.899  26.831  26.475  1.00  0.00    -0.248 NA
ATOM     60  C   UNL A   1      48.717  25.581  25.710  1.00  0.00     0.031 C 
ATOM     61  C   UNL A   1      42.773  25.250  26.882  1.00  0.00     0.029 A 
ATOM     62  C   UNL A   1      44.071  25.714  26.735  1.00  0.00     0.049 A 
ATOM     63  H   UNL A   1      44.874  27.598  27.233  1.00  0.00     0.167 HD
ATOM     64  C   UNL A   1      46.464  25.554  26.126  1.00  0.00     0.074 A 
ATOM     65  C   UNL A   1      47.619  24.843  25.621  1.00  0.00     0.031 C 
ATOM     66  C   UNL A   1      45.220  25.022  26.211  1.00  0.00     0.031 A 
BRANCH  53  67
ATOM     67  C   UNL A   1      41.057  28.906  28.616  1.00  0.00    -0.014 A 
ATOM     68  C   UNL A   1      40.102  29.467  27.744  1.00  0.00     0.010 A 
ATOM     69  C   UNL A   1      40.681  28.592  29.931  1.00  0.00     0.010 A 
ATOM     70  C   UNL A   1      38.825  29.784  28.200  1.00  0.00     0.020 A 
ATOM     71  C   UNL A   1      39.384  28.862  30.377  1.00  0.00     0.020 A 
ATOM     72  C   UNL A   1      38.474  29.478  29.516  1.00  0.00     0.054 A 
BRANCH  72  73
ATOM     73  S   UNL A   1      36.797  29.879  30.071  1.00  0.00     0.124 S 
ATOM     74  O   UNL A   1      35.984  29.353  28.977  1.00  0.00    -0.237 OA
ATOM     75  O   UNL A   1      36.698  29.151  31.333  1.00  0.00    -0.237 OA
ATOM     76  O   UNL A   1      36.812  31.335  30.192  1.00  0.00    -0.744 OA
ENDBRANCH  72  73
ENDBRANCH  53  67
BRANCH  54  77
ATOM     77  C   UNL A   1      50.590  27.809  25.936  1.00  0.00    -0.014 A 
ATOM     78  C   UNL A   1      51.529  27.377  26.896  1.00  0.00     0.010 A 
ATOM     79  C   UNL A   1      51.046  28.098  24.637  1.00  0.00     0.010 A 
ATOM     80  C   UNL A   1      52.889  27.272  26.578  1.00  0.00     0.020 A 
ATOM     81  C   UNL A   1      52.402  27.962  24.305  1.00  0.00     0.020 A 
ATOM     82  C   UNL A   1      53.318  27.561  25.282  1.00  0.00     0.054 A 
BRANCH  82  83
ATOM     83  S   UNL A   1      55.081  27.374  24.886  1.00  0.00     0.124 S 
ATOM     84  O   UNL A   1      55.128  26.034  24.311  1.00  0.00    -0.237 OA
ATOM     85  O   UNL A   1      55.310  28.473  23.951  1.00  0.00    -0.237 OA
ATOM     86  O   UNL A   1      55.740  27.521  26.182  1.00  0.00    -0.744 OA
ENDBRANCH  82  83
ENDBRANCH  54  77
BRANCH  66  87
ATOM     87  C   UNL A   1      45.004  23.627  25.686  1.00  0.00    -0.014 A 
ATOM     88  C   UNL A   1      44.645  23.388  24.349  1.00  0.00     0.010 A 
ATOM     89  C   UNL A   1      45.257  22.532  26.534  1.00  0.00     0.010 A 
ATOM     90  C   UNL A   1      44.510  22.078  23.880  1.00  0.00     0.020 A 
ATOM     91  C   UNL A   1      45.162  21.224  26.059  1.00  0.00     0.020 A 
ATOM     92  C   UNL A   1      44.775  21.005  24.736  1.00  0.00     0.054 A 
BRANCH  92  93
ATOM     93  S   UNL A   1      44.641  19.317  24.087  1.00  0.00     0.124 S 
ATOM     94  O   UNL A   1      43.432  18.832  24.746  1.00  0.00    -0.237 OA
ATOM     95  O   UNL A   1      44.528  19.539  22.647  1.00  0.00    -0.237 OA
ATOM     96  O   UNL A   1      45.883  18.679  24.518  1.00  0.00    -0.744 OA
ENDBRANCH  92  93
ENDBRANCH  66  87
ENDBRANCH  40  41
ENDBRANCH  33  35
ENDBRANCH  32  33
ENDBRANCH  31  32
ENDBRANCH   1  31
TORSDOF 20
ENDMDL
