MODEL 1
REMARK VINA RESULT:     -10.1      0.000      0.000
REMARK SMILES N#Cc1ccc(C(=O)N2CCC[C@H]2C(=O)OCCOCCOC(=O)c2ccc(-c3c4nc(c(-c5ccc(S(=O)(=O)[O-])cc5)c5ccc([nH]5)c(-c5ccc(S(=O)(=O)[O-])cc5)c5nc(c(-c6ccc(S(=O)(=O)[O-])cc6)c6ccc3[nH]6)C=C5)C=C4)cc2)cc1
REMARK SMILES IDX 19 1 18 2 17 3 16 4 14 5 15 6 13 7 9 8 10 9 11 10 12 11 7 12
REMARK SMILES IDX 8 13 6 14 3 15 4 16 86 17 5 18 85 19 2 20 1 21 20 22 21 23
REMARK SMILES IDX 22 24 23 25 24 26 25 27 26 28 84 29 27 30 83 31 28 32 29 33
REMARK SMILES IDX 30 34 77 35 31 36 82 37 76 38 78 39 32 40 81 41 75 42 74 43
REMARK SMILES IDX 33 45 63 46 44 47 62 48 45 49 48 50 61 51 79 52 46 53 47 54
REMARK SMILES IDX 60 56 80 57 49 58 34 59 35 60 43 61 36 62 42 63 37 64 38 65
REMARK SMILES IDX 39 66 40 67 41 68 64 69 65 70 73 71 66 72 72 73 67 74 68 75
REMARK SMILES IDX 69 76 70 77 71 78 50 79 51 80 59 81 52 82 58 83 53 84 54 85
REMARK SMILES IDX 55 86 56 87 57 88
REMARK H PARENT 78 44 48 55
REMARK Flexibility Score: inf
ROOT
ATOM      1  O   UNL A   1      37.243  22.352  26.055  1.00  0.00    -0.374 OA
ENDROOT
BRANCH   1   2
ATOM      2  C   UNL A   1      36.548  21.311  25.367  1.00  0.00     0.202 C 
BRANCH   2   3
ATOM      3  C   UNL A   1      35.034  21.169  25.562  1.00  0.00     0.261 C 
BRANCH   3   4
ATOM      4  O   UNL A   1      34.447  22.440  25.835  1.00  0.00    -0.462 OA
BRANCH   4   5
ATOM      5  C   UNL A   1      33.918  23.088  24.760  1.00  0.00     0.328 C 
ATOM      6  O   UNL A   1      34.534  23.445  23.762  1.00  0.00    -0.250 OA
BRANCH   5   7
ATOM      7  C   UNL A   1      32.399  23.190  24.920  1.00  0.00     0.195 C 
ATOM      8  N   UNL A   1      31.978  24.569  25.011  1.00  0.00    -0.325 N 
ATOM      9  C   UNL A   1      31.640  25.065  23.692  1.00  0.00     0.121 C 
ATOM     10  C   UNL A   1      30.959  23.863  23.059  1.00  0.00     0.024 C 
ATOM     11  C   UNL A   1      31.680  22.656  23.668  1.00  0.00     0.039 C 
BRANCH   8  12
ATOM     12  C   UNL A   1      32.001  25.162  26.251  1.00  0.00     0.254 C 
ATOM     13  O   UNL A   1      31.623  24.554  27.251  1.00  0.00    -0.269 OA
BRANCH  12  14
ATOM     14  C   UNL A   1      32.311  26.605  26.392  1.00  0.00     0.040 A 
ATOM     15  C   UNL A   1      33.107  29.232  26.970  1.00  0.00     0.052 A 
ATOM     16  C   UNL A   1      34.020  28.331  26.418  1.00  0.00     0.020 A 
ATOM     17  C   UNL A   1      31.800  28.819  27.242  1.00  0.00     0.020 A 
ATOM     18  C   UNL A   1      33.621  27.024  26.124  1.00  0.00     0.015 A 
ATOM     19  C   UNL A   1      31.413  27.503  26.981  1.00  0.00     0.015 A 
BRANCH  15  20
ATOM     20  C   UNL A   1      33.508  30.570  27.299  1.00  0.00     0.099 C 
ATOM     21  N   UNL A   1      33.850  31.638  27.587  1.00  0.00    -0.192 NA
ENDBRANCH  15  20
ENDBRANCH  12  14
ENDBRANCH   8  12
ENDBRANCH   5   7
ENDBRANCH   4   5
ENDBRANCH   3   4
ENDBRANCH   2   3
ENDBRANCH   1   2
BRANCH   1  22
ATOM     22  C   UNL A   1      38.663  22.409  25.967  1.00  0.00     0.202 C 
BRANCH  22  23
ATOM     23  C   UNL A   1      39.478  23.360  26.853  1.00  0.00     0.261 C 
BRANCH  23  24
ATOM     24  O   UNL A   1      38.942  24.683  26.934  1.00  0.00    -0.460 OA
BRANCH  24  25
ATOM     25  C   UNL A   1      39.892  25.651  26.918  1.00  0.00     0.338 C 
ATOM     26  O   UNL A   1      40.727  25.848  26.052  1.00  0.00    -0.246 OA
BRANCH  25  27
ATOM     27  C   UNL A   1      39.656  26.589  28.026  1.00  0.00     0.060 A 
ATOM     28  C   UNL A   1      40.159  27.889  27.896  1.00  0.00     0.016 A 
ATOM     29  C   UNL A   1      39.028  26.174  29.199  1.00  0.00     0.016 A 
ATOM     30  C   UNL A   1      40.080  28.772  28.965  1.00  0.00     0.010 A 
ATOM     31  C   UNL A   1      38.958  27.060  30.275  1.00  0.00     0.010 A 
ATOM     32  C   UNL A   1      39.520  28.346  30.174  1.00  0.00    -0.014 A 
BRANCH  32  33
ATOM     33  C   UNL A   1      39.656  29.193  31.381  1.00  0.00     0.031 A 
ATOM     34  C   UNL A   1      40.818  28.962  32.306  1.00  0.00     0.074 A 
ATOM     35  C   UNL A   1      38.767  30.168  31.630  1.00  0.00     0.049 A 
ATOM     36  N   UNL A   1      41.113  29.559  33.431  1.00  0.00    -0.248 NA
ATOM     37  C   UNL A   1      41.771  27.912  31.912  1.00  0.00     0.031 C 
ATOM     38  C   UNL A   1      37.635  30.520  30.772  1.00  0.00     0.029 A 
ATOM     39  N   UNL A   1      38.682  31.044  32.680  1.00  0.00    -0.354 N 
ATOM     40  C   UNL A   1      42.276  28.950  33.887  1.00  0.00     0.074 A 
ATOM     41  C   UNL A   1      42.605  27.906  32.940  1.00  0.00     0.031 C 
ATOM     42  C   UNL A   1      36.974  31.549  31.327  1.00  0.00     0.029 A 
ATOM     43  C   UNL A   1      37.607  31.894  32.599  1.00  0.00     0.049 A 
ATOM     44  H   UNL A   1      39.329  31.062  33.421  1.00  0.00     0.167 HD
ATOM     45  C   UNL A   1      43.009  29.239  34.989  1.00  0.00     0.031 A 
ATOM     46  C   UNL A   1      37.173  32.831  33.463  1.00  0.00     0.031 A 
ATOM     47  C   UNL A   1      42.651  30.261  35.940  1.00  0.00     0.049 A 
ATOM     48  C   UNL A   1      37.940  33.063  34.737  1.00  0.00     0.074 A 
ATOM     49  C   UNL A   1      43.321  30.640  37.090  1.00  0.00     0.029 A 
ATOM     50  N   UNL A   1      41.516  31.056  35.858  1.00  0.00    -0.354 N 
ATOM     51  N   UNL A   1      39.048  32.494  35.151  1.00  0.00    -0.248 NA
ATOM     52  C   UNL A   1      37.400  34.072  35.658  1.00  0.00     0.031 C 
ATOM     53  C   UNL A   1      42.551  31.610  37.742  1.00  0.00     0.029 A 
ATOM     54  C   UNL A   1      41.448  31.899  36.955  1.00  0.00     0.049 A 
ATOM     55  H   UNL A   1      40.857  31.026  35.128  1.00  0.00     0.167 HD
ATOM     56  C   UNL A   1      39.357  33.104  36.363  1.00  0.00     0.074 A 
ATOM     57  C   UNL A   1      38.325  34.090  36.606  1.00  0.00     0.031 C 
ATOM     58  C   UNL A   1      40.406  32.873  37.193  1.00  0.00     0.031 A 
BRANCH  45  59
ATOM     59  C   UNL A   1      44.236  28.397  35.243  1.00  0.00    -0.014 A 
ATOM     60  C   UNL A   1      44.146  27.132  35.854  1.00  0.00     0.010 A 
ATOM     61  C   UNL A   1      45.504  28.885  34.876  1.00  0.00     0.010 A 
ATOM     62  C   UNL A   1      45.301  26.407  36.159  1.00  0.00     0.020 A 
ATOM     63  C   UNL A   1      46.660  28.144  35.142  1.00  0.00     0.020 A 
ATOM     64  C   UNL A   1      46.553  26.923  35.808  1.00  0.00     0.054 A 
BRANCH  64  65
ATOM     65  S   UNL A   1      48.035  25.973  36.240  1.00  0.00     0.124 S 
ATOM     66  O   UNL A   1      47.485  24.936  37.110  1.00  0.00    -0.237 OA
ATOM     67  O   UNL A   1      48.510  25.512  34.939  1.00  0.00    -0.237 OA
ATOM     68  O   UNL A   1      48.894  26.950  36.905  1.00  0.00    -0.744 OA
ENDBRANCH  64  65
ENDBRANCH  45  59
BRANCH  46  69
ATOM     69  C   UNL A   1      35.962  33.632  33.136  1.00  0.00    -0.014 A 
ATOM     70  C   UNL A   1      36.093  34.944  32.647  1.00  0.00     0.010 A 
ATOM     71  C   UNL A   1      34.676  33.080  33.278  1.00  0.00     0.010 A 
ATOM     72  C   UNL A   1      34.961  35.689  32.310  1.00  0.00     0.020 A 
ATOM     73  C   UNL A   1      33.543  33.811  32.911  1.00  0.00     0.020 A 
ATOM     74  C   UNL A   1      33.694  35.114  32.433  1.00  0.00     0.054 A 
BRANCH  74  75
ATOM     75  S   UNL A   1      32.248  36.080  31.912  1.00  0.00     0.124 S 
ATOM     76  O   UNL A   1      31.149  35.331  32.512  1.00  0.00    -0.237 OA
ATOM     77  O   UNL A   1      32.520  37.388  32.502  1.00  0.00    -0.237 OA
ATOM     78  O   UNL A   1      32.313  36.035  30.453  1.00  0.00    -0.744 OA
ENDBRANCH  74  75
ENDBRANCH  46  69
BRANCH  58  79
ATOM     79  C   UNL A   1      40.519  33.732  38.428  1.00  0.00    -0.014 A 
ATOM     80  C   UNL A   1      39.961  33.335  39.656  1.00  0.00     0.010 A 
ATOM     81  C   UNL A   1      41.244  34.936  38.367  1.00  0.00     0.010 A 
ATOM     82  C   UNL A   1      40.097  34.143  40.789  1.00  0.00     0.020 A 
ATOM     83  C   UNL A   1      41.415  35.728  39.504  1.00  0.00     0.020 A 
ATOM     84  C   UNL A   1      40.828  35.332  40.707  1.00  0.00     0.054 A 
BRANCH  84  85
ATOM     85  S   UNL A   1      41.031  36.336  42.204  1.00  0.00     0.124 S 
ATOM     86  O   UNL A   1      39.686  36.874  42.395  1.00  0.00    -0.237 OA
ATOM     87  O   UNL A   1      41.459  35.349  43.192  1.00  0.00    -0.237 OA
ATOM     88  O   UNL A   1      42.047  37.318  41.830  1.00  0.00    -0.744 OA
ENDBRANCH  84  85
ENDBRANCH  58  79
ENDBRANCH  32  33
ENDBRANCH  25  27
ENDBRANCH  24  25
ENDBRANCH  23  24
ENDBRANCH  22  23
ENDBRANCH   1  22
TORSDOF 20
ENDMDL
MODEL 2
REMARK VINA RESULT:     -10.0      1.928      4.057
REMARK SMILES N#Cc1ccc(C(=O)N2CCC[C@H]2C(=O)OCCOCCOC(=O)c2ccc(-c3c4nc(c(-c5ccc(S(=O)(=O)[O-])cc5)c5ccc([nH]5)c(-c5ccc(S(=O)(=O)[O-])cc5)c5nc(c(-c6ccc(S(=O)(=O)[O-])cc6)c6ccc3[nH]6)C=C5)C=C4)cc2)cc1
REMARK SMILES IDX 19 1 18 2 17 3 16 4 14 5 15 6 13 7 9 8 10 9 11 10 12 11 7 12
REMARK SMILES IDX 8 13 6 14 3 15 4 16 86 17 5 18 85 19 2 20 1 21 20 22 21 23
REMARK SMILES IDX 22 24 23 25 24 26 25 27 26 28 84 29 27 30 83 31 28 32 29 33
REMARK SMILES IDX 30 34 77 35 31 36 82 37 76 38 78 39 32 40 81 41 75 42 74 43
REMARK SMILES IDX 33 45 63 46 44 47 62 48 45 49 48 50 61 51 79 52 46 53 47 54
REMARK SMILES IDX 60 56 80 57 49 58 34 59 35 60 43 61 36 62 42 63 37 64 38 65
REMARK SMILES IDX 39 66 40 67 41 68 64 69 65 70 73 71 66 72 72 73 67 74 68 75
REMARK SMILES IDX 69 76 70 77 71 78 50 79 51 80 59 81 52 82 58 83 53 84 54 85
REMARK SMILES IDX 55 86 56 87 57 88
REMARK H PARENT 78 44 48 55
REMARK Flexibility Score: inf
ROOT
ATOM      1  O   UNL A   1      39.278  21.630  26.535  1.00  0.00    -0.374 OA
ENDROOT
BRANCH   1   2
ATOM      2  C   UNL A   1      38.213  21.522  25.590  1.00  0.00     0.202 C 
BRANCH   2   3
ATOM      3  C   UNL A   1      37.252  22.703  25.411  1.00  0.00     0.261 C 
BRANCH   3   4
ATOM      4  O   UNL A   1      36.263  22.396  24.431  1.00  0.00    -0.462 OA
BRANCH   4   5
ATOM      5  C   UNL A   1      35.082  21.921  24.915  1.00  0.00     0.328 C 
ATOM      6  O   UNL A   1      34.944  21.207  25.902  1.00  0.00    -0.250 OA
BRANCH   5   7
ATOM      7  C   UNL A   1      33.923  22.522  24.115  1.00  0.00     0.195 C 
ATOM      8  N   UNL A   1      32.707  21.770  24.318  1.00  0.00    -0.325 N 
ATOM      9  C   UNL A   1      31.950  22.349  25.410  1.00  0.00     0.121 C 
ATOM     10  C   UNL A   1      32.168  23.839  25.201  1.00  0.00     0.024 C 
ATOM     11  C   UNL A   1      33.584  23.936  24.623  1.00  0.00     0.039 C 
BRANCH   8  12
ATOM     12  C   UNL A   1      32.495  20.673  23.518  1.00  0.00     0.254 C 
ATOM     13  O   UNL A   1      31.921  20.780  22.435  1.00  0.00    -0.269 OA
BRANCH  12  14
ATOM     14  C   UNL A   1      32.789  19.308  24.016  1.00  0.00     0.040 A 
ATOM     15  C   UNL A   1      33.016  16.617  24.776  1.00  0.00     0.052 A 
ATOM     16  C   UNL A   1      33.270  16.993  23.455  1.00  0.00     0.020 A 
ATOM     17  C   UNL A   1      32.639  17.582  25.714  1.00  0.00     0.020 A 
ATOM     18  C   UNL A   1      33.162  18.335  23.079  1.00  0.00     0.015 A 
ATOM     19  C   UNL A   1      32.499  18.916  25.328  1.00  0.00     0.015 A 
BRANCH  15  20
ATOM     20  C   UNL A   1      33.099  15.241  25.173  1.00  0.00     0.099 C 
ATOM     21  N   UNL A   1      33.137  14.133  25.506  1.00  0.00    -0.192 NA
ENDBRANCH  15  20
ENDBRANCH  12  14
ENDBRANCH   8  12
ENDBRANCH   5   7
ENDBRANCH   4   5
ENDBRANCH   3   4
ENDBRANCH   2   3
ENDBRANCH   1   2
BRANCH   1  22
ATOM     22  C   UNL A   1      40.394  22.459  26.225  1.00  0.00     0.202 C 
BRANCH  22  23
ATOM     23  C   UNL A   1      40.747  23.675  27.092  1.00  0.00     0.261 C 
BRANCH  23  24
ATOM     24  O   UNL A   1      39.783  24.730  27.036  1.00  0.00    -0.460 OA
BRANCH  24  25
ATOM     25  C   UNL A   1      40.326  25.943  26.768  1.00  0.00     0.338 C 
ATOM     26  O   UNL A   1      40.831  26.307  25.719  1.00  0.00    -0.246 OA
BRANCH  25  27
ATOM     27  C   UNL A   1      40.046  26.863  27.880  1.00  0.00     0.060 A 
ATOM     28  C   UNL A   1      40.597  28.149  27.815  1.00  0.00     0.016 A 
ATOM     29  C   UNL A   1      39.326  26.444  28.998  1.00  0.00     0.016 A 
ATOM     30  C   UNL A   1      40.474  29.010  28.897  1.00  0.00     0.010 A 
ATOM     31  C   UNL A   1      39.213  27.308  30.088  1.00  0.00     0.010 A 
ATOM     32  C   UNL A   1      39.821  28.576  30.056  1.00  0.00    -0.014 A 
BRANCH  32  33
ATOM     33  C   UNL A   1      39.901  29.391  31.289  1.00  0.00     0.031 A 
ATOM     34  C   UNL A   1      41.051  29.173  32.233  1.00  0.00     0.074 A 
ATOM     35  C   UNL A   1      38.974  30.329  31.546  1.00  0.00     0.049 A 
ATOM     36  N   UNL A   1      41.300  29.746  33.381  1.00  0.00    -0.248 NA
ATOM     37  C   UNL A   1      42.047  28.167  31.831  1.00  0.00     0.031 C 
ATOM     38  C   UNL A   1      37.850  30.667  30.673  1.00  0.00     0.029 A 
ATOM     39  N   UNL A   1      38.837  31.170  32.618  1.00  0.00    -0.354 N 
ATOM     40  C   UNL A   1      42.474  29.164  33.845  1.00  0.00     0.074 A 
ATOM     41  C   UNL A   1      42.858  28.159  32.877  1.00  0.00     0.031 C 
ATOM     42  C   UNL A   1      37.142  31.656  31.243  1.00  0.00     0.029 A 
ATOM     43  C   UNL A   1      37.735  31.985  32.538  1.00  0.00     0.049 A 
ATOM     44  H   UNL A   1      39.467  31.188  33.374  1.00  0.00     0.167 HD
ATOM     45  C   UNL A   1      43.172  29.445  34.971  1.00  0.00     0.031 A 
ATOM     46  C   UNL A   1      37.251  32.881  33.419  1.00  0.00     0.031 A 
ATOM     47  C   UNL A   1      42.760  30.425  35.943  1.00  0.00     0.049 A 
ATOM     48  C   UNL A   1      37.981  33.101  34.715  1.00  0.00     0.074 A 
ATOM     49  C   UNL A   1      43.391  30.793  37.118  1.00  0.00     0.029 A 
ATOM     50  N   UNL A   1      41.600  31.184  35.859  1.00  0.00    -0.354 N 
ATOM     51  N   UNL A   1      39.099  32.558  35.138  1.00  0.00    -0.248 NA
ATOM     52  C   UNL A   1      37.387  34.064  35.652  1.00  0.00     0.031 C 
ATOM     53  C   UNL A   1      42.575  31.717  37.780  1.00  0.00     0.029 A 
ATOM     54  C   UNL A   1      41.479  31.992  36.978  1.00  0.00     0.049 A 
ATOM     55  H   UNL A   1      40.958  31.153  35.113  1.00  0.00     0.167 HD
ATOM     56  C   UNL A   1      39.362  33.142  36.373  1.00  0.00     0.074 A 
ATOM     57  C   UNL A   1      38.291  34.086  36.621  1.00  0.00     0.031 C 
ATOM     58  C   UNL A   1      40.400  32.922  37.219  1.00  0.00     0.031 A 
BRANCH  45  59
ATOM     59  C   UNL A   1      44.421  28.638  35.229  1.00  0.00    -0.014 A 
ATOM     60  C   UNL A   1      44.425  27.552  36.126  1.00  0.00     0.010 A 
ATOM     61  C   UNL A   1      45.618  28.977  34.571  1.00  0.00     0.010 A 
ATOM     62  C   UNL A   1      45.611  26.874  36.416  1.00  0.00     0.020 A 
ATOM     63  C   UNL A   1      46.800  28.274  34.827  1.00  0.00     0.020 A 
ATOM     64  C   UNL A   1      46.794  27.245  35.769  1.00  0.00     0.054 A 
BRANCH  64  65
ATOM     65  S   UNL A   1      48.324  26.364  36.185  1.00  0.00     0.124 S 
ATOM     66  O   UNL A   1      49.161  26.652  35.022  1.00  0.00    -0.237 OA
ATOM     67  O   UNL A   1      48.736  27.008  37.429  1.00  0.00    -0.237 OA
ATOM     68  O   UNL A   1      47.899  24.972  36.316  1.00  0.00    -0.744 OA
ENDBRANCH  64  65
ENDBRANCH  45  59
BRANCH  46  69
ATOM     69  C   UNL A   1      36.021  33.651  33.087  1.00  0.00    -0.014 A 
ATOM     70  C   UNL A   1      34.776  33.000  33.020  1.00  0.00     0.010 A 
ATOM     71  C   UNL A   1      36.079  35.040  32.870  1.00  0.00     0.010 A 
ATOM     72  C   UNL A   1      33.615  33.722  32.739  1.00  0.00     0.020 A 
ATOM     73  C   UNL A   1      34.914  35.771  32.621  1.00  0.00     0.020 A 
ATOM     74  C   UNL A   1      33.689  35.105  32.553  1.00  0.00     0.054 A 
BRANCH  74  75
ATOM     75  S   UNL A   1      32.152  36.026  32.267  1.00  0.00     0.124 S 
ATOM     76  O   UNL A   1      31.136  35.057  32.664  1.00  0.00    -0.237 OA
ATOM     77  O   UNL A   1      32.311  37.177  33.153  1.00  0.00    -0.237 OA
ATOM     78  O   UNL A   1      32.198  36.336  30.840  1.00  0.00    -0.744 OA
ENDBRANCH  74  75
ENDBRANCH  46  69
BRANCH  58  79
ATOM     79  C   UNL A   1      40.456  33.749  38.480  1.00  0.00    -0.014 A 
ATOM     80  C   UNL A   1      39.919  33.281  39.693  1.00  0.00     0.010 A 
ATOM     81  C   UNL A   1      41.108  34.995  38.460  1.00  0.00     0.010 A 
ATOM     82  C   UNL A   1      40.003  34.060  40.851  1.00  0.00     0.020 A 
ATOM     83  C   UNL A   1      41.228  35.760  39.622  1.00  0.00     0.020 A 
ATOM     84  C   UNL A   1      40.661  35.293  40.809  1.00  0.00     0.054 A 
BRANCH  84  85
ATOM     85  S   UNL A   1      40.798  36.260  42.337  1.00  0.00     0.124 S 
ATOM     86  O   UNL A   1      41.439  35.311  43.243  1.00  0.00    -0.237 OA
ATOM     87  O   UNL A   1      41.624  37.391  41.924  1.00  0.00    -0.237 OA
ATOM     88  O   UNL A   1      39.413  36.594  42.663  1.00  0.00    -0.744 OA
ENDBRANCH  84  85
ENDBRANCH  58  79
ENDBRANCH  32  33
ENDBRANCH  25  27
ENDBRANCH  24  25
ENDBRANCH  23  24
ENDBRANCH  22  23
ENDBRANCH   1  22
TORSDOF 20
ENDMDL
MODEL 3
REMARK VINA RESULT:      -9.6      1.780      9.011
REMARK SMILES N#Cc1ccc(C(=O)N2CCC[C@H]2C(=O)OCCOCCOC(=O)c2ccc(-c3c4nc(c(-c5ccc(S(=O)(=O)[O-])cc5)c5ccc([nH]5)c(-c5ccc(S(=O)(=O)[O-])cc5)c5nc(c(-c6ccc(S(=O)(=O)[O-])cc6)c6ccc3[nH]6)C=C5)C=C4)cc2)cc1
REMARK SMILES IDX 19 1 18 2 17 3 16 4 14 5 15 6 13 7 9 8 10 9 11 10 12 11 7 12
REMARK SMILES IDX 8 13 6 14 3 15 4 16 86 17 5 18 85 19 2 20 1 21 20 22 21 23
REMARK SMILES IDX 22 24 23 25 24 26 25 27 26 28 84 29 27 30 83 31 28 32 29 33
REMARK SMILES IDX 30 34 77 35 31 36 82 37 76 38 78 39 32 40 81 41 75 42 74 43
REMARK SMILES IDX 33 45 63 46 44 47 62 48 45 49 48 50 61 51 79 52 46 53 47 54
REMARK SMILES IDX 60 56 80 57 49 58 34 59 35 60 43 61 36 62 42 63 37 64 38 65
REMARK SMILES IDX 39 66 40 67 41 68 64 69 65 70 73 71 66 72 72 73 67 74 68 75
REMARK SMILES IDX 69 76 70 77 71 78 50 79 51 80 59 81 52 82 58 83 53 84 54 85
REMARK SMILES IDX 55 86 56 87 57 88
REMARK H PARENT 78 44 48 55
REMARK Flexibility Score: inf
ROOT
ATOM      1  O   UNL A   1      38.705  21.617  25.931  1.00  0.00    -0.374 OA
ENDROOT
BRANCH   1   2
ATOM      2  C   UNL A   1      37.393  21.746  25.383  1.00  0.00     0.202 C 
BRANCH   2   3
ATOM      3  C   UNL A   1      36.426  22.766  25.996  1.00  0.00     0.261 C 
BRANCH   3   4
ATOM      4  O   UNL A   1      35.225  22.834  25.231  1.00  0.00    -0.462 OA
BRANCH   4   5
ATOM      5  C   UNL A   1      34.082  23.029  25.945  1.00  0.00     0.328 C 
ATOM      6  O   UNL A   1      33.979  22.980  27.166  1.00  0.00    -0.250 OA
BRANCH   5   7
ATOM      7  C   UNL A   1      32.955  23.456  25.000  1.00  0.00     0.195 C 
ATOM      8  N   UNL A   1      32.027  22.373  24.777  1.00  0.00    -0.325 N 
ATOM      9  C   UNL A   1      30.941  22.453  25.734  1.00  0.00     0.121 C 
ATOM     10  C   UNL A   1      30.707  23.951  25.833  1.00  0.00     0.024 C 
ATOM     11  C   UNL A   1      32.097  24.565  25.638  1.00  0.00     0.039 C 
BRANCH   8  12
ATOM     12  C   UNL A   1      32.323  21.475  23.779  1.00  0.00     0.254 C 
ATOM     13  O   UNL A   1      32.193  21.779  22.594  1.00  0.00    -0.269 OA
BRANCH  12  14
ATOM     14  C   UNL A   1      32.634  20.062  24.103  1.00  0.00     0.040 A 
ATOM     15  C   UNL A   1      32.837  17.325  24.687  1.00  0.00     0.052 A 
ATOM     16  C   UNL A   1      32.566  17.743  23.382  1.00  0.00     0.020 A 
ATOM     17  C   UNL A   1      32.997  18.274  25.701  1.00  0.00     0.020 A 
ATOM     18  C   UNL A   1      32.471  19.106  23.091  1.00  0.00     0.015 A 
ATOM     19  C   UNL A   1      32.867  19.634  25.415  1.00  0.00     0.015 A 
BRANCH  15  20
ATOM     20  C   UNL A   1      32.914  15.929  25.007  1.00  0.00     0.099 C 
ATOM     21  N   UNL A   1      32.949  14.798  25.251  1.00  0.00    -0.192 NA
ENDBRANCH  15  20
ENDBRANCH  12  14
ENDBRANCH   8  12
ENDBRANCH   5   7
ENDBRANCH   4   5
ENDBRANCH   3   4
ENDBRANCH   2   3
ENDBRANCH   1   2
BRANCH   1  22
ATOM     22  C   UNL A   1      39.558  22.756  25.953  1.00  0.00     0.202 C 
BRANCH  22  23
ATOM     23  C   UNL A   1      39.791  23.551  27.244  1.00  0.00     0.261 C 
BRANCH  23  24
ATOM     24  O   UNL A   1      39.127  24.817  27.277  1.00  0.00    -0.460 OA
BRANCH  24  25
ATOM     25  C   UNL A   1      39.964  25.871  27.109  1.00  0.00     0.338 C 
ATOM     26  O   UNL A   1      40.618  26.139  26.116  1.00  0.00    -0.246 OA
BRANCH  25  27
ATOM     27  C   UNL A   1      39.831  26.790  28.249  1.00  0.00     0.060 A 
ATOM     28  C   UNL A   1      40.611  27.953  28.242  1.00  0.00     0.016 A 
ATOM     29  C   UNL A   1      39.021  26.474  29.339  1.00  0.00     0.016 A 
ATOM     30  C   UNL A   1      40.623  28.786  29.353  1.00  0.00     0.010 A 
ATOM     31  C   UNL A   1      39.043  27.308  30.458  1.00  0.00     0.010 A 
ATOM     32  C   UNL A   1      39.874  28.442  30.483  1.00  0.00    -0.014 A 
BRANCH  32  33
ATOM     33  C   UNL A   1      40.073  29.187  31.746  1.00  0.00     0.031 A 
ATOM     34  C   UNL A   1      39.093  30.264  32.119  1.00  0.00     0.074 A 
ATOM     35  C   UNL A   1      41.101  28.887  32.558  1.00  0.00     0.049 A 
ATOM     36  N   UNL A   1      39.093  31.061  33.156  1.00  0.00    -0.248 NA
ATOM     37  C   UNL A   1      37.967  30.475  31.196  1.00  0.00     0.031 C 
ATOM     38  C   UNL A   1      42.078  27.823  32.326  1.00  0.00     0.029 A 
ATOM     39  N   UNL A   1      41.488  29.451  33.745  1.00  0.00    -0.354 N 
ATOM     40  C   UNL A   1      37.978  31.877  33.003  1.00  0.00     0.074 A 
ATOM     41  C   UNL A   1      37.354  31.508  31.750  1.00  0.00     0.031 C 
ATOM     42  C   UNL A   1      42.948  27.804  33.349  1.00  0.00     0.029 A 
ATOM     43  C   UNL A   1      42.618  28.883  34.278  1.00  0.00     0.049 A 
ATOM     44  H   UNL A   1      41.003  30.192  34.174  1.00  0.00     0.167 HD
ATOM     45  C   UNL A   1      37.511  32.839  33.834  1.00  0.00     0.031 A 
ATOM     46  C   UNL A   1      43.317  29.209  35.383  1.00  0.00     0.031 A 
ATOM     47  C   UNL A   1      38.162  33.219  35.063  1.00  0.00     0.049 A 
ATOM     48  C   UNL A   1      42.843  30.354  36.236  1.00  0.00     0.074 A 
ATOM     49  C   UNL A   1      37.776  34.178  35.982  1.00  0.00     0.029 A 
ATOM     50  N   UNL A   1      39.344  32.665  35.535  1.00  0.00    -0.354 N 
ATOM     51  N   UNL A   1      41.778  31.108  36.092  1.00  0.00    -0.248 NA
ATOM     52  C   UNL A   1      43.665  30.688  37.407  1.00  0.00     0.031 C 
ATOM     53  C   UNL A   1      38.764  34.257  36.970  1.00  0.00     0.029 A 
ATOM     54  C   UNL A   1      39.721  33.287  36.714  1.00  0.00     0.049 A 
ATOM     55  H   UNL A   1      39.841  31.936  35.097  1.00  0.00     0.167 HD
ATOM     56  C   UNL A   1      41.782  31.979  37.177  1.00  0.00     0.074 A 
ATOM     57  C   UNL A   1      42.949  31.651  37.970  1.00  0.00     0.031 C 
ATOM     58  C   UNL A   1      40.894  32.957  37.491  1.00  0.00     0.031 A 
BRANCH  45  59
ATOM     59  C   UNL A   1      36.267  33.579  33.404  1.00  0.00    -0.014 A 
ATOM     60  C   UNL A   1      34.985  33.024  33.575  1.00  0.00     0.010 A 
ATOM     61  C   UNL A   1      36.383  34.848  32.806  1.00  0.00     0.010 A 
ATOM     62  C   UNL A   1      33.854  33.686  33.090  1.00  0.00     0.020 A 
ATOM     63  C   UNL A   1      35.250  35.533  32.358  1.00  0.00     0.020 A 
ATOM     64  C   UNL A   1      33.995  34.935  32.477  1.00  0.00     0.054 A 
BRANCH  64  65
ATOM     65  S   UNL A   1      32.513  35.759  31.834  1.00  0.00     0.124 S 
ATOM     66  O   UNL A   1      32.489  35.297  30.448  1.00  0.00    -0.237 OA
ATOM     67  O   UNL A   1      31.456  35.228  32.690  1.00  0.00    -0.237 OA
ATOM     68  O   UNL A   1      32.801  37.181  32.011  1.00  0.00    -0.744 OA
ENDBRANCH  64  65
ENDBRANCH  45  59
BRANCH  46  69
ATOM     69  C   UNL A   1      44.526  28.423  35.750  1.00  0.00    -0.014 A 
ATOM     70  C   UNL A   1      45.796  28.831  35.307  1.00  0.00     0.010 A 
ATOM     71  C   UNL A   1      44.420  27.284  36.570  1.00  0.00     0.010 A 
ATOM     72  C   UNL A   1      46.937  28.113  35.673  1.00  0.00     0.020 A 
ATOM     73  C   UNL A   1      45.562  26.583  36.966  1.00  0.00     0.020 A 
ATOM     74  C   UNL A   1      46.814  27.001  36.510  1.00  0.00     0.054 A 
BRANCH  74  75
ATOM     75  S   UNL A   1      48.321  26.136  37.032  1.00  0.00     0.124 S 
ATOM     76  O   UNL A   1      47.911  25.547  38.303  1.00  0.00    -0.237 OA
ATOM     77  O   UNL A   1      48.535  25.195  35.936  1.00  0.00    -0.237 OA
ATOM     78  O   UNL A   1      49.313  27.205  37.130  1.00  0.00    -0.744 OA
ENDBRANCH  74  75
ENDBRANCH  46  69
BRANCH  58  79
ATOM     79  C   UNL A   1      41.123  33.719  38.773  1.00  0.00    -0.014 A 
ATOM     80  C   UNL A   1      41.752  34.977  38.780  1.00  0.00     0.010 A 
ATOM     81  C   UNL A   1      40.650  33.186  39.986  1.00  0.00     0.010 A 
ATOM     82  C   UNL A   1      41.933  35.669  39.982  1.00  0.00     0.020 A 
ATOM     83  C   UNL A   1      40.796  33.892  41.183  1.00  0.00     0.020 A 
ATOM     84  C   UNL A   1      41.449  35.125  41.175  1.00  0.00     0.054 A 
BRANCH  84  85
ATOM     85  S   UNL A   1      41.655  36.067  42.710  1.00  0.00     0.124 S 
ATOM     86  O   UNL A   1      42.256  35.076  43.599  1.00  0.00    -0.237 OA
ATOM     87  O   UNL A   1      42.536  37.157  42.298  1.00  0.00    -0.237 OA
ATOM     88  O   UNL A   1      40.294  36.470  43.057  1.00  0.00    -0.744 OA
ENDBRANCH  84  85
ENDBRANCH  58  79
ENDBRANCH  32  33
ENDBRANCH  25  27
ENDBRANCH  24  25
ENDBRANCH  23  24
ENDBRANCH  22  23
ENDBRANCH   1  22
TORSDOF 20
ENDMDL
