MODEL 1
REMARK VINA RESULT:     -11.0      0.000      0.000
REMARK SMILES CCc1c(C(=O)NCC(=O)OCCOCCOC(=O)c2ccc(-c3c4nc(c(-c5ccc(S(=O)(=O)[O-])cc5)c5ccc([nH]5)c(-c5ccc(S(=O)(=O)[O-])cc5)c5nc(c(-c6ccc(S(=O)(=O)[O-])cc6)c6ccc3[nH]6)C=C5)C=C4)cc2)nnn1-c1ccc(Cl)cc1Cl
REMARK SMILES IDX 14 1 13 2 12 3 11 4 9 5 10 6 8 7 7 8 5 9 6 10 4 12 3 13
REMARK SMILES IDX 82 14 80 15 81 16 2 17 1 18 83 19 84 20 89 21 85 22 88 23
REMARK SMILES IDX 90 24 86 25 87 26 15 27 16 28 17 29 18 30 19 31 20 32 21 33
REMARK SMILES IDX 79 34 22 35 78 36 23 37 24 38 25 39 72 40 26 41 77 42 71 43
REMARK SMILES IDX 73 44 27 45 76 46 70 47 69 48 28 50 58 51 39 52 57 53 40 54
REMARK SMILES IDX 43 55 56 56 74 57 41 58 42 59 55 61 75 62 44 63 29 64 30 65
REMARK SMILES IDX 38 66 31 67 37 68 32 69 33 70 34 71 35 72 36 73 59 74 60 75
REMARK SMILES IDX 68 76 61 77 67 78 62 79 63 80 64 81 65 82 66 83 45 84 46 85
REMARK SMILES IDX 54 86 47 87 53 88 48 89 49 90 50 91 51 92 52 93
REMARK H PARENT 7 11 73 49 43 60
REMARK Flexibility Score: inf
ROOT
ATOM      1  O   UNL A   1      40.116  21.836  27.590  1.00  0.00    -0.374 OA
ENDROOT
BRANCH   1   2
ATOM      2  C   UNL A   1      39.335  22.402  26.543  1.00  0.00     0.202 C 
BRANCH   2   3
ATOM      3  C   UNL A   1      38.541  21.512  25.583  1.00  0.00     0.261 C 
BRANCH   3   4
ATOM      4  O   UNL A   1      37.203  21.949  25.298  1.00  0.00    -0.462 OA
BRANCH   4   5
ATOM      5  C   UNL A   1      36.244  20.984  25.352  1.00  0.00     0.325 C 
ATOM      6  O   UNL A   1      36.350  19.866  24.856  1.00  0.00    -0.250 OA
BRANCH   5   7
ATOM      7  C   UNL A   1      35.043  21.381  26.199  1.00  0.00     0.239 C 
BRANCH   7   8
ATOM      8  N   UNL A   1      33.776  20.829  25.796  1.00  0.00    -0.340 N 
ATOM      9  C   UNL A   1      32.521  21.319  25.579  1.00  0.00     0.274 C 
ATOM     10  O   UNL A   1      31.738  20.445  25.187  1.00  0.00    -0.267 OA
ATOM     11  H   UNL A   1      33.828  19.859  25.636  1.00  0.00     0.164 HD
BRANCH   9  12
ATOM     12  C   UNL A   1      32.041  22.702  25.760  1.00  0.00     0.174 A 
ATOM     13  C   UNL A   1      32.308  23.983  25.252  1.00  0.00     0.077 A 
ATOM     14  N   UNL A   1      31.432  24.811  25.968  1.00  0.00    -0.215 N 
ATOM     15  N   UNL A   1      31.104  22.850  26.773  1.00  0.00    -0.124 NA
ATOM     16  N   UNL A   1      30.825  24.123  26.943  1.00  0.00    -0.061 NA
BRANCH  13  17
ATOM     17  C   UNL A   1      33.303  24.566  24.303  1.00  0.00     0.055 C 
ATOM     18  C   UNL A   1      32.840  24.519  22.860  1.00  0.00     0.011 C 
ENDBRANCH  13  17
BRANCH  14  19
ATOM     19  C   UNL A   1      31.344  26.222  25.964  1.00  0.00     0.085 A 
ATOM     20  C   UNL A   1      31.970  26.914  27.015  1.00  0.00     0.031 A 
ATOM     21  C   UNL A   1      30.721  26.930  24.930  1.00  0.00     0.068 A 
ATOM     22  C   UNL A   1      32.082  28.302  26.959  1.00  0.00     0.023 A 
ATOM     23  C   UNL A   1      30.845  28.320  24.874  1.00  0.00     0.043 A 
ATOM     24  Cl  UNL A   1      29.703  26.174  23.752  1.00  0.00    -0.082 Cl
ATOM     25  C   UNL A   1      31.548  28.994  25.873  1.00  0.00     0.042 A 
ATOM     26  Cl  UNL A   1      31.754  30.699  25.765  1.00  0.00    -0.084 Cl
ENDBRANCH  14  19
ENDBRANCH   9  12
ENDBRANCH   7   8
ENDBRANCH   5   7
ENDBRANCH   4   5
ENDBRANCH   3   4
ENDBRANCH   2   3
ENDBRANCH   1   2
BRANCH   1  27
ATOM     27  C   UNL A   1      40.944  20.698  27.397  1.00  0.00     0.202 C 
BRANCH  27  28
ATOM     28  C   UNL A   1      42.411  20.846  27.005  1.00  0.00     0.261 C 
BRANCH  28  29
ATOM     29  O   UNL A   1      42.632  20.677  25.618  1.00  0.00    -0.460 OA
BRANCH  29  30
ATOM     30  C   UNL A   1      43.944  20.654  25.299  1.00  0.00     0.338 C 
ATOM     31  O   UNL A   1      44.687  19.674  25.322  1.00  0.00    -0.246 OA
BRANCH  30  32
ATOM     32  C   UNL A   1      44.413  22.022  25.060  1.00  0.00     0.060 A 
ATOM     33  C   UNL A   1      45.406  22.426  25.949  1.00  0.00     0.016 A 
ATOM     34  C   UNL A   1      43.543  22.927  24.433  1.00  0.00     0.016 A 
ATOM     35  C   UNL A   1      45.260  23.661  26.519  1.00  0.00     0.010 A 
ATOM     36  C   UNL A   1      43.392  24.161  25.014  1.00  0.00     0.010 A 
ATOM     37  C   UNL A   1      44.173  24.451  26.127  1.00  0.00    -0.014 A 
BRANCH  37  38
ATOM     38  C   UNL A   1      43.912  25.613  26.938  1.00  0.00     0.031 A 
ATOM     39  C   UNL A   1      44.926  26.665  26.774  1.00  0.00     0.074 A 
ATOM     40  C   UNL A   1      42.830  25.737  27.722  1.00  0.00     0.049 A 
ATOM     41  N   UNL A   1      45.831  27.034  27.616  1.00  0.00    -0.248 NA
ATOM     42  C   UNL A   1      45.058  27.236  25.427  1.00  0.00     0.031 C 
ATOM     43  C   UNL A   1      41.607  24.933  27.722  1.00  0.00     0.029 A 
ATOM     44  N   UNL A   1      42.555  26.729  28.607  1.00  0.00    -0.354 N 
ATOM     45  C   UNL A   1      46.533  28.039  26.966  1.00  0.00     0.074 A 
ATOM     46  C   UNL A   1      46.159  27.967  25.575  1.00  0.00     0.031 C 
ATOM     47  C   UNL A   1      40.637  25.626  28.364  1.00  0.00     0.029 A 
ATOM     48  C   UNL A   1      41.209  26.850  28.908  1.00  0.00     0.049 A 
ATOM     49  H   UNL A   1      43.248  27.309  28.998  1.00  0.00     0.167 HD
ATOM     50  C   UNL A   1      47.165  29.032  27.646  1.00  0.00     0.031 A 
ATOM     51  C   UNL A   1      40.619  27.951  29.435  1.00  0.00     0.031 A 
ATOM     52  C   UNL A   1      47.343  28.714  29.039  1.00  0.00     0.049 A 
ATOM     53  C   UNL A   1      41.691  28.795  30.035  1.00  0.00     0.074 A 
ATOM     54  C   UNL A   1      47.963  27.689  29.728  1.00  0.00     0.029 A 
ATOM     55  N   UNL A   1      46.506  29.326  29.945  1.00  0.00    -0.354 N 
ATOM     56  N   UNL A   1      42.376  28.462  31.093  1.00  0.00    -0.248 NA
ATOM     57  C   UNL A   1      42.301  29.824  29.203  1.00  0.00     0.031 C 
ATOM     58  C   UNL A   1      47.135  27.447  30.862  1.00  0.00     0.029 A 
ATOM     59  C   UNL A   1      46.079  28.360  30.820  1.00  0.00     0.049 A 
ATOM     60  H   UNL A   1      46.260  30.279  29.961  1.00  0.00     0.167 HD
ATOM     61  C   UNL A   1      43.663  28.927  30.855  1.00  0.00     0.074 A 
ATOM     62  C   UNL A   1      43.532  29.839  29.721  1.00  0.00     0.031 C 
ATOM     63  C   UNL A   1      44.758  28.324  31.411  1.00  0.00     0.031 A 
BRANCH  50  64
ATOM     64  C   UNL A   1      47.240  30.441  27.116  1.00  0.00    -0.014 A 
ATOM     65  C   UNL A   1      48.455  31.142  27.218  1.00  0.00     0.010 A 
ATOM     66  C   UNL A   1      46.092  31.191  26.775  1.00  0.00     0.010 A 
ATOM     67  C   UNL A   1      48.498  32.534  27.066  1.00  0.00     0.020 A 
ATOM     68  C   UNL A   1      46.133  32.565  26.567  1.00  0.00     0.020 A 
ATOM     69  C   UNL A   1      47.330  33.236  26.760  1.00  0.00     0.054 A 
BRANCH  69  70
ATOM     70  S   UNL A   1      47.361  35.041  26.707  1.00  0.00     0.124 S 
ATOM     71  O   UNL A   1      47.543  35.375  28.115  1.00  0.00    -0.237 OA
ATOM     72  O   UNL A   1      48.504  35.306  25.837  1.00  0.00    -0.237 OA
ATOM     73  O   UNL A   1      46.059  35.388  26.140  1.00  0.00    -0.744 OA
ENDBRANCH  69  70
ENDBRANCH  50  64
BRANCH  51  74
ATOM     74  C   UNL A   1      39.272  28.484  29.106  1.00  0.00    -0.014 A 
ATOM     75  C   UNL A   1      38.267  28.540  30.087  1.00  0.00     0.010 A 
ATOM     76  C   UNL A   1      39.051  29.187  27.903  1.00  0.00     0.010 A 
ATOM     77  C   UNL A   1      37.116  29.323  29.898  1.00  0.00     0.020 A 
ATOM     78  C   UNL A   1      37.901  29.954  27.699  1.00  0.00     0.020 A 
ATOM     79  C   UNL A   1      36.950  30.041  28.710  1.00  0.00     0.054 A 
BRANCH  79  80
ATOM     80  S   UNL A   1      35.555  31.191  28.547  1.00  0.00     0.124 S 
ATOM     81  O   UNL A   1      34.550  30.367  27.884  1.00  0.00    -0.237 OA
ATOM     82  O   UNL A   1      35.270  31.544  29.934  1.00  0.00    -0.237 OA
ATOM     83  O   UNL A   1      36.099  32.278  27.734  1.00  0.00    -0.744 OA
ENDBRANCH  79  80
ENDBRANCH  51  74
BRANCH  63  84
ATOM     84  C   UNL A   1      44.552  27.343  32.543  1.00  0.00    -0.014 A 
ATOM     85  C   UNL A   1      44.209  27.727  33.853  1.00  0.00     0.010 A 
ATOM     86  C   UNL A   1      44.563  25.971  32.230  1.00  0.00     0.010 A 
ATOM     87  C   UNL A   1      43.922  26.765  34.831  1.00  0.00     0.020 A 
ATOM     88  C   UNL A   1      44.259  25.007  33.195  1.00  0.00     0.020 A 
ATOM     89  C   UNL A   1      43.951  25.408  34.496  1.00  0.00     0.054 A 
BRANCH  89  90
ATOM     90  S   UNL A   1      43.535  24.171  35.756  1.00  0.00     0.124 S 
ATOM     91  O   UNL A   1      42.144  24.489  36.066  1.00  0.00    -0.237 OA
ATOM     92  O   UNL A   1      43.750  22.907  35.054  1.00  0.00    -0.237 OA
ATOM     93  O   UNL A   1      44.487  24.438  36.835  1.00  0.00    -0.744 OA
ENDBRANCH  89  90
ENDBRANCH  63  84
ENDBRANCH  37  38
ENDBRANCH  30  32
ENDBRANCH  29  30
ENDBRANCH  28  29
ENDBRANCH  27  28
ENDBRANCH   1  27
TORSDOF 21
ENDMDL
MODEL 2
REMARK VINA RESULT:     -10.8      1.727      2.708
REMARK SMILES CCc1c(C(=O)NCC(=O)OCCOCCOC(=O)c2ccc(-c3c4nc(c(-c5ccc(S(=O)(=O)[O-])cc5)c5ccc([nH]5)c(-c5ccc(S(=O)(=O)[O-])cc5)c5nc(c(-c6ccc(S(=O)(=O)[O-])cc6)c6ccc3[nH]6)C=C5)C=C4)cc2)nnn1-c1ccc(Cl)cc1Cl
REMARK SMILES IDX 14 1 13 2 12 3 11 4 9 5 10 6 8 7 7 8 5 9 6 10 4 12 3 13
REMARK SMILES IDX 82 14 80 15 81 16 2 17 1 18 83 19 84 20 89 21 85 22 88 23
REMARK SMILES IDX 90 24 86 25 87 26 15 27 16 28 17 29 18 30 19 31 20 32 21 33
REMARK SMILES IDX 79 34 22 35 78 36 23 37 24 38 25 39 72 40 26 41 77 42 71 43
REMARK SMILES IDX 73 44 27 45 76 46 70 47 69 48 28 50 58 51 39 52 57 53 40 54
REMARK SMILES IDX 43 55 56 56 74 57 41 58 42 59 55 61 75 62 44 63 29 64 30 65
REMARK SMILES IDX 38 66 31 67 37 68 32 69 33 70 34 71 35 72 36 73 59 74 60 75
REMARK SMILES IDX 68 76 61 77 67 78 62 79 63 80 64 81 65 82 66 83 45 84 46 85
REMARK SMILES IDX 54 86 47 87 53 88 48 89 49 90 50 91 51 92 52 93
REMARK H PARENT 7 11 73 49 43 60
REMARK Flexibility Score: inf
ROOT
ATOM      1  O   UNL A   1      43.784  19.543  25.999  1.00  0.00    -0.374 OA
ENDROOT
BRANCH   1   2
ATOM      2  C   UNL A   1      42.509  20.144  25.801  1.00  0.00     0.202 C 
BRANCH   2   3
ATOM      3  C   UNL A   1      41.337  19.832  26.735  1.00  0.00     0.261 C 
BRANCH   3   4
ATOM      4  O   UNL A   1      40.044  20.244  26.266  1.00  0.00    -0.462 OA
BRANCH   4   5
ATOM      5  C   UNL A   1      39.708  21.538  26.526  1.00  0.00     0.325 C 
ATOM      6  O   UNL A   1      40.338  22.288  27.265  1.00  0.00    -0.250 OA
BRANCH   5   7
ATOM      7  C   UNL A   1      38.514  22.020  25.712  1.00  0.00     0.239 C 
BRANCH   7   8
ATOM      8  N   UNL A   1      37.531  21.022  25.382  1.00  0.00    -0.340 N 
ATOM      9  C   UNL A   1      36.173  20.992  25.255  1.00  0.00     0.274 C 
ATOM     10  O   UNL A   1      35.759  19.881  24.900  1.00  0.00    -0.267 OA
ATOM     11  H   UNL A   1      37.939  20.144  25.203  1.00  0.00     0.164 HD
BRANCH   9  12
ATOM     12  C   UNL A   1      35.213  22.088  25.489  1.00  0.00     0.174 A 
ATOM     13  C   UNL A   1      34.624  23.140  24.773  1.00  0.00     0.077 A 
ATOM     14  N   UNL A   1      33.821  23.781  25.728  1.00  0.00    -0.215 N 
ATOM     15  N   UNL A   1      34.800  22.207  26.809  1.00  0.00    -0.124 NA
ATOM     16  N   UNL A   1      34.047  23.275  26.947  1.00  0.00    -0.061 NA
BRANCH  13  17
ATOM     17  C   UNL A   1      34.765  23.703  23.397  1.00  0.00     0.055 C 
ATOM     18  C   UNL A   1      33.618  23.319  22.482  1.00  0.00     0.011 C 
ENDBRANCH  13  17
BRANCH  14  19
ATOM     19  C   UNL A   1      33.087  24.982  25.607  1.00  0.00     0.085 A 
ATOM     20  C   UNL A   1      33.798  26.190  25.705  1.00  0.00     0.031 A 
ATOM     21  C   UNL A   1      31.715  24.996  25.332  1.00  0.00     0.068 A 
ATOM     22  C   UNL A   1      33.164  27.394  25.401  1.00  0.00     0.023 A 
ATOM     23  C   UNL A   1      31.087  26.203  25.018  1.00  0.00     0.043 A 
ATOM     24  Cl  UNL A   1      30.715  23.589  25.459  1.00  0.00    -0.082 Cl
ATOM     25  C   UNL A   1      31.820  27.390  25.028  1.00  0.00     0.042 A 
ATOM     26  Cl  UNL A   1      31.059  28.865  24.578  1.00  0.00    -0.084 Cl
ENDBRANCH  14  19
ENDBRANCH   9  12
ENDBRANCH   7   8
ENDBRANCH   5   7
ENDBRANCH   4   5
ENDBRANCH   3   4
ENDBRANCH   2   3
ENDBRANCH   1   2
BRANCH   1  27
ATOM     27  C   UNL A   1      44.800  19.560  25.005  1.00  0.00     0.202 C 
BRANCH  27  28
ATOM     28  C   UNL A   1      45.199  20.855  24.306  1.00  0.00     0.261 C 
BRANCH  28  29
ATOM     29  O   UNL A   1      45.787  21.797  25.182  1.00  0.00    -0.460 OA
BRANCH  29  30
ATOM     30  C   UNL A   1      45.267  23.036  25.039  1.00  0.00     0.338 C 
ATOM     31  O   UNL A   1      45.661  23.912  24.271  1.00  0.00    -0.246 OA
BRANCH  30  32
ATOM     32  C   UNL A   1      44.236  23.253  26.057  1.00  0.00     0.060 A 
ATOM     33  C   UNL A   1      43.147  23.986  25.590  1.00  0.00     0.016 A 
ATOM     34  C   UNL A   1      44.615  23.238  27.408  1.00  0.00     0.016 A 
ATOM     35  C   UNL A   1      42.705  25.010  26.383  1.00  0.00     0.010 A 
ATOM     36  C   UNL A   1      44.179  24.273  28.197  1.00  0.00     0.010 A 
ATOM     37  C   UNL A   1      43.325  25.209  27.621  1.00  0.00    -0.014 A 
BRANCH  37  38
ATOM     38  C   UNL A   1      43.014  26.445  28.293  1.00  0.00     0.031 A 
ATOM     39  C   UNL A   1      44.068  27.458  28.144  1.00  0.00     0.074 A 
ATOM     40  C   UNL A   1      41.860  26.660  28.943  1.00  0.00     0.049 A 
ATOM     41  N   UNL A   1      44.891  27.886  29.041  1.00  0.00    -0.248 NA
ATOM     42  C   UNL A   1      44.356  27.900  26.774  1.00  0.00     0.031 C 
ATOM     43  C   UNL A   1      40.621  25.882  28.885  1.00  0.00     0.029 A 
ATOM     44  N   UNL A   1      41.521  27.733  29.702  1.00  0.00    -0.354 N 
ATOM     45  C   UNL A   1      45.684  28.814  28.382  1.00  0.00     0.074 A 
ATOM     46  C   UNL A   1      45.456  28.622  26.972  1.00  0.00     0.031 C 
ATOM     47  C   UNL A   1      39.609  26.648  29.355  1.00  0.00     0.029 A 
ATOM     48  C   UNL A   1      40.156  27.907  29.846  1.00  0.00     0.049 A 
ATOM     49  H   UNL A   1      42.186  28.334  30.111  1.00  0.00     0.167 HD
ATOM     50  C   UNL A   1      46.270  29.853  29.035  1.00  0.00     0.031 A 
ATOM     51  C   UNL A   1      39.545  29.062  30.207  1.00  0.00     0.031 A 
ATOM     52  C   UNL A   1      46.292  29.660  30.462  1.00  0.00     0.049 A 
ATOM     53  C   UNL A   1      40.572  29.937  30.840  1.00  0.00     0.074 A 
ATOM     54  C   UNL A   1      46.808  28.692  31.301  1.00  0.00     0.029 A 
ATOM     55  N   UNL A   1      45.383  30.368  31.216  1.00  0.00    -0.354 N 
ATOM     56  N   UNL A   1      41.134  29.690  31.990  1.00  0.00    -0.248 NA
ATOM     57  C   UNL A   1      41.294  30.875  29.989  1.00  0.00     0.031 C 
ATOM     58  C   UNL A   1      45.860  28.570  32.359  1.00  0.00     0.029 A 
ATOM     59  C   UNL A   1      44.841  29.494  32.123  1.00  0.00     0.049 A 
ATOM     60  H   UNL A   1      45.164  31.323  31.120  1.00  0.00     0.167 HD
ATOM     61  C   UNL A   1      42.451  30.107  31.850  1.00  0.00     0.074 A 
ATOM     62  C   UNL A   1      42.464  30.914  30.632  1.00  0.00     0.031 C 
ATOM     63  C   UNL A   1      43.464  29.538  32.571  1.00  0.00     0.031 A 
BRANCH  50  64
ATOM     64  C   UNL A   1      46.439  31.206  28.393  1.00  0.00    -0.014 A 
ATOM     65  C   UNL A   1      45.293  31.964  28.093  1.00  0.00     0.010 A 
ATOM     66  C   UNL A   1      47.660  31.636  27.828  1.00  0.00     0.010 A 
ATOM     67  C   UNL A   1      45.358  33.047  27.207  1.00  0.00     0.020 A 
ATOM     68  C   UNL A   1      47.745  32.743  26.990  1.00  0.00     0.020 A 
ATOM     69  C   UNL A   1      46.584  33.415  26.648  1.00  0.00     0.054 A 
BRANCH  69  70
ATOM     70  S   UNL A   1      46.640  34.717  25.397  1.00  0.00     0.124 S 
ATOM     71  O   UNL A   1      45.607  34.277  24.466  1.00  0.00    -0.237 OA
ATOM     72  O   UNL A   1      46.327  35.911  26.177  1.00  0.00    -0.237 OA
ATOM     73  O   UNL A   1      48.011  34.648  24.895  1.00  0.00    -0.744 OA
ENDBRANCH  69  70
ENDBRANCH  50  64
BRANCH  51  74
ATOM     74  C   UNL A   1      38.256  29.587  29.690  1.00  0.00    -0.014 A 
ATOM     75  C   UNL A   1      37.098  29.550  30.487  1.00  0.00     0.010 A 
ATOM     76  C   UNL A   1      38.216  30.371  28.517  1.00  0.00     0.010 A 
ATOM     77  C   UNL A   1      35.969  30.319  30.159  1.00  0.00     0.020 A 
ATOM     78  C   UNL A   1      37.091  31.125  28.173  1.00  0.00     0.020 A 
ATOM     79  C   UNL A   1      35.981  31.117  29.012  1.00  0.00     0.054 A 
BRANCH  79  80
ATOM     80  S   UNL A   1      34.595  32.245  28.691  1.00  0.00     0.124 S 
ATOM     81  O   UNL A   1      34.193  32.633  30.039  1.00  0.00    -0.237 OA
ATOM     82  O   UNL A   1      35.218  33.294  27.890  1.00  0.00    -0.237 OA
ATOM     83  O   UNL A   1      33.632  31.411  27.972  1.00  0.00    -0.744 OA
ENDBRANCH  79  80
ENDBRANCH  51  74
BRANCH  63  84
ATOM     84  C   UNL A   1      43.114  28.668  33.757  1.00  0.00    -0.014 A 
ATOM     85  C   UNL A   1      43.013  29.153  35.074  1.00  0.00     0.010 A 
ATOM     86  C   UNL A   1      42.729  27.338  33.504  1.00  0.00     0.010 A 
ATOM     87  C   UNL A   1      42.575  28.321  36.115  1.00  0.00     0.020 A 
ATOM     88  C   UNL A   1      42.273  26.509  34.532  1.00  0.00     0.020 A 
ATOM     89  C   UNL A   1      42.209  27.001  35.836  1.00  0.00     0.054 A 
BRANCH  89  90
ATOM     90  S   UNL A   1      41.602  25.944  37.179  1.00  0.00     0.124 S 
ATOM     91  O   UNL A   1      42.654  26.073  38.184  1.00  0.00    -0.237 OA
ATOM     92  O   UNL A   1      40.322  26.560  37.525  1.00  0.00    -0.237 OA
ATOM     93  O   UNL A   1      41.495  24.622  36.562  1.00  0.00    -0.744 OA
ENDBRANCH  89  90
ENDBRANCH  63  84
ENDBRANCH  37  38
ENDBRANCH  30  32
ENDBRANCH  29  30
ENDBRANCH  28  29
ENDBRANCH  27  28
ENDBRANCH   1  27
TORSDOF 21
ENDMDL
MODEL 3
REMARK VINA RESULT:     -10.7      4.474     10.660
REMARK SMILES CCc1c(C(=O)NCC(=O)OCCOCCOC(=O)c2ccc(-c3c4nc(c(-c5ccc(S(=O)(=O)[O-])cc5)c5ccc([nH]5)c(-c5ccc(S(=O)(=O)[O-])cc5)c5nc(c(-c6ccc(S(=O)(=O)[O-])cc6)c6ccc3[nH]6)C=C5)C=C4)cc2)nnn1-c1ccc(Cl)cc1Cl
REMARK SMILES IDX 14 1 13 2 12 3 11 4 9 5 10 6 8 7 7 8 5 9 6 10 4 12 3 13
REMARK SMILES IDX 82 14 80 15 81 16 2 17 1 18 83 19 84 20 89 21 85 22 88 23
REMARK SMILES IDX 90 24 86 25 87 26 15 27 16 28 17 29 18 30 19 31 20 32 21 33
REMARK SMILES IDX 79 34 22 35 78 36 23 37 24 38 25 39 72 40 26 41 77 42 71 43
REMARK SMILES IDX 73 44 27 45 76 46 70 47 69 48 28 50 58 51 39 52 57 53 40 54
REMARK SMILES IDX 43 55 56 56 74 57 41 58 42 59 55 61 75 62 44 63 29 64 30 65
REMARK SMILES IDX 38 66 31 67 37 68 32 69 33 70 34 71 35 72 36 73 59 74 60 75
REMARK SMILES IDX 68 76 61 77 67 78 62 79 63 80 64 81 65 82 66 83 45 84 46 85
REMARK SMILES IDX 54 86 47 87 53 88 48 89 49 90 50 91 51 92 52 93
REMARK H PARENT 7 11 73 49 43 60
REMARK Flexibility Score: inf
ROOT
ATOM      1  O   UNL A   1      34.600  34.863  29.037  1.00  0.00    -0.374 OA
ENDROOT
BRANCH   1   2
ATOM      2  C   UNL A   1      34.770  33.781  28.127  1.00  0.00     0.202 C 
BRANCH   2   3
ATOM      3  C   UNL A   1      33.846  32.561  28.172  1.00  0.00     0.261 C 
BRANCH   3   4
ATOM      4  O   UNL A   1      34.501  31.285  28.091  1.00  0.00    -0.462 OA
BRANCH   4   5
ATOM      5  C   UNL A   1      33.965  30.404  27.202  1.00  0.00     0.325 C 
ATOM      6  O   UNL A   1      34.610  29.583  26.556  1.00  0.00    -0.250 OA
BRANCH   5   7
ATOM      7  C   UNL A   1      32.444  30.450  27.158  1.00  0.00     0.239 C 
BRANCH   7   8
ATOM      8  N   UNL A   1      31.845  30.289  25.859  1.00  0.00    -0.340 N 
ATOM      9  C   UNL A   1      31.532  29.235  25.050  1.00  0.00     0.274 C 
ATOM     10  O   UNL A   1      30.971  29.594  24.008  1.00  0.00    -0.267 OA
ATOM     11  H   UNL A   1      31.602  31.152  25.452  1.00  0.00     0.164 HD
BRANCH   9  12
ATOM     12  C   UNL A   1      31.785  27.801  25.287  1.00  0.00     0.174 A 
ATOM     13  C   UNL A   1      32.592  26.776  24.771  1.00  0.00     0.077 A 
ATOM     14  N   UNL A   1      32.224  25.653  25.525  1.00  0.00    -0.215 N 
ATOM     15  N   UNL A   1      30.952  27.228  26.238  1.00  0.00    -0.124 NA
ATOM     16  N   UNL A   1      31.165  25.932  26.297  1.00  0.00    -0.061 NA
BRANCH  13  17
ATOM     17  C   UNL A   1      33.557  26.649  23.638  1.00  0.00     0.055 C 
ATOM     18  C   UNL A   1      32.879  26.647  22.282  1.00  0.00     0.011 C 
ENDBRANCH  13  17
BRANCH  14  19
ATOM     19  C   UNL A   1      32.621  24.307  25.363  1.00  0.00     0.085 A 
ATOM     20  C   UNL A   1      33.728  23.862  26.105  1.00  0.00     0.031 A 
ATOM     21  C   UNL A   1      31.915  23.411  24.550  1.00  0.00     0.068 A 
ATOM     22  C   UNL A   1      34.041  22.504  26.133  1.00  0.00     0.023 A 
ATOM     23  C   UNL A   1      32.227  22.051  24.590  1.00  0.00     0.043 A 
ATOM     24  Cl  UNL A   1      30.721  23.921  23.405  1.00  0.00    -0.082 Cl
ATOM     25  C   UNL A   1      33.270  21.602  25.401  1.00  0.00     0.042 A 
ATOM     26  Cl  UNL A   1      33.609  19.919  25.497  1.00  0.00    -0.084 Cl
ENDBRANCH  14  19
ENDBRANCH   9  12
ENDBRANCH   7   8
ENDBRANCH   5   7
ENDBRANCH   4   5
ENDBRANCH   3   4
ENDBRANCH   2   3
ENDBRANCH   1   2
BRANCH   1  27
ATOM     27  C   UNL A   1      33.326  35.414  29.341  1.00  0.00     0.202 C 
BRANCH  27  28
ATOM     28  C   UNL A   1      33.171  36.513  30.387  1.00  0.00     0.261 C 
BRANCH  28  29
ATOM     29  O   UNL A   1      33.837  36.220  31.600  1.00  0.00    -0.460 OA
BRANCH  29  30
ATOM     30  C   UNL A   1      33.189  35.292  32.338  1.00  0.00     0.338 C 
ATOM     31  O   UNL A   1      31.974  35.109  32.381  1.00  0.00    -0.246 OA
BRANCH  30  32
ATOM     32  C   UNL A   1      34.144  34.615  33.219  1.00  0.00     0.060 A 
ATOM     33  C   UNL A   1      35.281  35.375  33.485  1.00  0.00     0.016 A 
ATOM     34  C   UNL A   1      34.147  33.212  33.252  1.00  0.00     0.016 A 
ATOM     35  C   UNL A   1      36.489  34.742  33.375  1.00  0.00     0.010 A 
ATOM     36  C   UNL A   1      35.359  32.581  33.129  1.00  0.00     0.010 A 
ATOM     37  C   UNL A   1      36.499  33.376  33.069  1.00  0.00    -0.014 A 
BRANCH  37  38
ATOM     38  C   UNL A   1      37.776  32.820  32.702  1.00  0.00     0.031 A 
ATOM     39  C   UNL A   1      38.675  32.645  33.851  1.00  0.00     0.074 A 
ATOM     40  C   UNL A   1      38.089  32.457  31.448  1.00  0.00     0.049 A 
ATOM     41  N   UNL A   1      39.737  33.319  34.139  1.00  0.00    -0.248 NA
ATOM     42  C   UNL A   1      38.216  31.728  34.902  1.00  0.00     0.031 C 
ATOM     43  C   UNL A   1      37.196  32.268  30.303  1.00  0.00     0.029 A 
ATOM     44  N   UNL A   1      39.293  32.039  30.981  1.00  0.00    -0.354 N 
ATOM     45  C   UNL A   1      40.197  32.769  35.326  1.00  0.00     0.074 A 
ATOM     46  C   UNL A   1      39.123  31.960  35.847  1.00  0.00     0.031 C 
ATOM     47  C   UNL A   1      37.842  31.528  29.372  1.00  0.00     0.029 A 
ATOM     48  C   UNL A   1      39.212  31.301  29.812  1.00  0.00     0.049 A 
ATOM     49  H   UNL A   1      40.145  32.242  31.431  1.00  0.00     0.167 HD
ATOM     50  C   UNL A   1      41.512  32.793  35.670  1.00  0.00     0.031 A 
ATOM     51  C   UNL A   1      40.170  30.461  29.347  1.00  0.00     0.031 A 
ATOM     52  C   UNL A   1      42.262  33.747  34.894  1.00  0.00     0.049 A 
ATOM     53  C   UNL A   1      41.446  30.808  30.032  1.00  0.00     0.074 A 
ATOM     54  C   UNL A   1      42.173  35.109  34.682  1.00  0.00     0.029 A 
ATOM     55  N   UNL A   1      43.064  33.259  33.886  1.00  0.00    -0.354 N 
ATOM     56  N   UNL A   1      42.102  31.918  29.837  1.00  0.00    -0.248 NA
ATOM     57  C   UNL A   1      41.778  30.104  31.264  1.00  0.00     0.031 C 
ATOM     58  C   UNL A   1      42.533  35.299  33.316  1.00  0.00     0.029 A 
ATOM     59  C   UNL A   1      42.854  34.050  32.784  1.00  0.00     0.049 A 
ATOM     60  H   UNL A   1      43.672  32.488  33.945  1.00  0.00     0.167 HD
ATOM     61  C   UNL A   1      42.617  32.261  31.080  1.00  0.00     0.074 A 
ATOM     62  C   UNL A   1      42.466  31.059  31.896  1.00  0.00     0.031 C 
ATOM     63  C   UNL A   1      42.863  33.563  31.420  1.00  0.00     0.031 A 
BRANCH  50  64
ATOM     64  C   UNL A   1      42.164  31.659  36.418  1.00  0.00    -0.014 A 
ATOM     65  C   UNL A   1      42.968  31.953  37.534  1.00  0.00     0.010 A 
ATOM     66  C   UNL A   1      42.237  30.346  35.902  1.00  0.00     0.010 A 
ATOM     67  C   UNL A   1      43.857  31.003  38.052  1.00  0.00     0.020 A 
ATOM     68  C   UNL A   1      43.076  29.378  36.443  1.00  0.00     0.020 A 
ATOM     69  C   UNL A   1      43.916  29.727  37.488  1.00  0.00     0.054 A 
BRANCH  69  70
ATOM     70  S   UNL A   1      45.163  28.554  38.062  1.00  0.00     0.124 S 
ATOM     71  O   UNL A   1      44.372  27.339  38.227  1.00  0.00    -0.237 OA
ATOM     72  O   UNL A   1      46.116  28.547  36.956  1.00  0.00    -0.237 OA
ATOM     73  O   UNL A   1      45.655  29.157  39.299  1.00  0.00    -0.744 OA
ENDBRANCH  69  70
ENDBRANCH  50  64
BRANCH  51  74
ATOM     74  C   UNL A   1      39.957  29.161  28.662  1.00  0.00    -0.014 A 
ATOM     75  C   UNL A   1      40.440  28.953  27.357  1.00  0.00     0.010 A 
ATOM     76  C   UNL A   1      39.518  28.031  29.384  1.00  0.00     0.010 A 
ATOM     77  C   UNL A   1      40.541  27.659  26.822  1.00  0.00     0.020 A 
ATOM     78  C   UNL A   1      39.598  26.740  28.851  1.00  0.00     0.020 A 
ATOM     79  C   UNL A   1      40.136  26.558  27.582  1.00  0.00     0.054 A 
BRANCH  79  80
ATOM     80  S   UNL A   1      40.438  24.880  26.959  1.00  0.00     0.124 S 
ATOM     81  O   UNL A   1      41.498  25.098  25.980  1.00  0.00    -0.237 OA
ATOM     82  O   UNL A   1      40.830  24.159  28.166  1.00  0.00    -0.237 OA
ATOM     83  O   UNL A   1      39.147  24.484  26.397  1.00  0.00    -0.744 OA
ENDBRANCH  79  80
ENDBRANCH  51  74
BRANCH  63  84
ATOM     84  C   UNL A   1      42.874  34.610  30.331  1.00  0.00    -0.014 A 
ATOM     85  C   UNL A   1      41.735  34.971  29.587  1.00  0.00     0.010 A 
ATOM     86  C   UNL A   1      44.052  35.360  30.155  1.00  0.00     0.010 A 
ATOM     87  C   UNL A   1      41.783  36.028  28.667  1.00  0.00     0.020 A 
ATOM     88  C   UNL A   1      44.101  36.427  29.254  1.00  0.00     0.020 A 
ATOM     89  C   UNL A   1      42.969  36.750  28.505  1.00  0.00     0.054 A 
BRANCH  89  90
ATOM     90  S   UNL A   1      43.010  38.144  27.345  1.00  0.00     0.124 S 
ATOM     91  O   UNL A   1      41.822  37.912  26.528  1.00  0.00    -0.237 OA
ATOM     92  O   UNL A   1      42.948  39.305  28.230  1.00  0.00    -0.237 OA
ATOM     93  O   UNL A   1      44.284  37.978  26.645  1.00  0.00    -0.744 OA
ENDBRANCH  89  90
ENDBRANCH  63  84
ENDBRANCH  37  38
ENDBRANCH  30  32
ENDBRANCH  29  30
ENDBRANCH  28  29
ENDBRANCH  27  28
ENDBRANCH   1  27
TORSDOF 21
ENDMDL
