MODEL 1
REMARK VINA RESULT:      -9.4      0.000      0.000
REMARK SMILES CCOc1ccc2c(c1)=N[C@H](SCC(=O)OCCOCCOC(=O)c1ccc(-c3c4nc(c(-c5ccc(S(=O)(=O)[O-])cc5)c5ccc([nH]5)c(-c5ccc(S(=O)(=O)[O-])cc5)c5nc(c(-c6ccc(S(=O)(=O)[O-])cc6)c6ccc3[nH]6)C=C5)C=C4)cc1)N=2
REMARK SMILES IDX 18 1 17 2 16 3 14 4 15 5 13 6 12 7 11 8 4 9 5 10 9 11 6 12
REMARK SMILES IDX 8 13 7 14 10 15 85 16 3 17 2 18 1 19 19 20 20 21 21 22 22 23
REMARK SMILES IDX 23 24 24 25 25 26 26 27 84 28 27 29 83 30 28 31 29 32 30 33
REMARK SMILES IDX 77 34 31 35 82 36 76 37 78 38 32 39 81 40 75 41 74 42 33 44
REMARK SMILES IDX 63 45 44 46 62 47 45 48 48 49 61 50 79 51 46 52 47 53 60 55
REMARK SMILES IDX 80 56 49 57 34 58 35 59 43 60 36 61 42 62 37 63 38 64 39 65
REMARK SMILES IDX 40 66 41 67 64 68 65 69 73 70 66 71 72 72 67 73 68 74 69 75
REMARK SMILES IDX 70 76 71 77 50 78 51 79 59 80 52 81 58 82 53 83 54 84 55 85
REMARK SMILES IDX 56 86 57 87
REMARK H PARENT 78 43 48 54
REMARK Flexibility Score: inf
ROOT
ATOM      1  C   UNL A   1      33.122  26.491  25.886  1.00  0.00     0.202 C 
ENDROOT
BRANCH   1   2
ATOM      2  C   UNL A   1      32.875  25.037  26.312  1.00  0.00     0.261 C 
BRANCH   2   3
ATOM      3  O   UNL A   1      32.877  24.080  25.232  1.00  0.00    -0.463 OA
BRANCH   3   4
ATOM      4  C   UNL A   1      31.653  23.663  24.811  1.00  0.00     0.316 C 
ATOM      5  O   UNL A   1      30.663  23.600  25.541  1.00  0.00    -0.251 OA
BRANCH   4   6
ATOM      6  C   UNL A   1      31.534  23.308  23.341  1.00  0.00     0.196 C 
BRANCH   6   7
ATOM      7  S   UNL A   1      33.051  23.291  22.350  1.00  0.00    -0.100 SA
BRANCH   7   8
ATOM      8  C   UNL A   1      32.933  24.936  21.555  1.00  0.00     0.282 C 
ATOM      9  C   UNL A   1      31.231  28.878  22.967  1.00  0.00     0.121 A 
ATOM     10  C   UNL A   1      32.649  29.180  23.068  1.00  0.00     0.049 A 
ATOM     11  C   UNL A   1      30.775  27.701  22.515  1.00  0.00     0.076 A 
ATOM     12  C   UNL A   1      33.617  28.299  22.768  1.00  0.00     0.034 A 
ATOM     13  C   UNL A   1      31.766  26.690  22.133  1.00  0.00     0.090 A 
ATOM     14  C   UNL A   1      33.205  26.966  22.309  1.00  0.00     0.087 A 
ATOM     15  N   UNL A   1      31.565  25.513  21.661  1.00  0.00    -0.246 NA
ATOM     16  N   UNL A   1      33.937  25.949  22.008  1.00  0.00    -0.246 NA
BRANCH   9  17
ATOM     17  O   UNL A   1      30.381  29.768  23.584  1.00  0.00    -0.494 OA
BRANCH  17  18
ATOM     18  C   UNL A   1      29.108  29.960  22.960  1.00  0.00     0.226 C 
ATOM     19  C   UNL A   1      28.368  31.127  23.592  1.00  0.00     0.049 C 
ENDBRANCH  17  18
ENDBRANCH   9  17
ENDBRANCH   7   8
ENDBRANCH   6   7
ENDBRANCH   4   6
ENDBRANCH   3   4
ENDBRANCH   2   3
ENDBRANCH   1   2
BRANCH   1  20
ATOM     20  O   UNL A   1      32.883  27.531  26.830  1.00  0.00    -0.374 OA
BRANCH  20  21
ATOM     21  C   UNL A   1      31.786  28.407  26.597  1.00  0.00     0.202 C 
BRANCH  21  22
ATOM     22  C   UNL A   1      32.011  29.919  26.735  1.00  0.00     0.261 C 
BRANCH  22  23
ATOM     23  O   UNL A   1      33.364  30.336  26.521  1.00  0.00    -0.460 OA
BRANCH  23  24
ATOM     24  C   UNL A   1      33.778  31.355  27.314  1.00  0.00     0.338 C 
ATOM     25  O   UNL A   1      33.149  32.353  27.630  1.00  0.00    -0.246 OA
BRANCH  24  26
ATOM     26  C   UNL A   1      35.080  31.008  27.905  1.00  0.00     0.060 A 
ATOM     27  C   UNL A   1      36.102  31.954  27.995  1.00  0.00     0.016 A 
ATOM     28  C   UNL A   1      35.254  29.714  28.411  1.00  0.00     0.016 A 
ATOM     29  C   UNL A   1      37.309  31.599  28.602  1.00  0.00     0.010 A 
ATOM     30  C   UNL A   1      36.462  29.362  29.012  1.00  0.00     0.010 A 
ATOM     31  C   UNL A   1      37.495  30.304  29.119  1.00  0.00    -0.014 A 
BRANCH  31  32
ATOM     32  C   UNL A   1      38.732  29.950  29.856  1.00  0.00     0.031 A 
ATOM     33  C   UNL A   1      39.613  28.829  29.391  1.00  0.00     0.074 A 
ATOM     34  C   UNL A   1      39.025  30.621  30.986  1.00  0.00     0.049 A 
ATOM     35  N   UNL A   1      40.712  28.373  29.931  1.00  0.00    -0.248 NA
ATOM     36  C   UNL A   1      39.206  28.125  28.165  1.00  0.00     0.031 C 
ATOM     37  C   UNL A   1      38.230  31.724  31.530  1.00  0.00     0.029 A 
ATOM     38  N   UNL A   1      40.059  30.482  31.877  1.00  0.00    -0.354 N 
ATOM     39  C   UNL A   1      41.136  27.334  29.112  1.00  0.00     0.074 A 
ATOM     40  C   UNL A   1      40.150  27.197  28.062  1.00  0.00     0.031 C 
ATOM     41  C   UNL A   1      38.818  32.176  32.646  1.00  0.00     0.029 A 
ATOM     42  C   UNL A   1      40.003  31.368  32.927  1.00  0.00     0.049 A 
ATOM     43  H   UNL A   1      40.773  29.812  31.774  1.00  0.00     0.167 HD
ATOM     44  C   UNL A   1      42.256  26.579  29.223  1.00  0.00     0.031 A 
ATOM     45  C   UNL A   1      40.804  31.513  34.002  1.00  0.00     0.031 A 
ATOM     46  C   UNL A   1      43.220  26.726  30.287  1.00  0.00     0.049 A 
ATOM     47  C   UNL A   1      42.010  30.624  34.137  1.00  0.00     0.074 A 
ATOM     48  C   UNL A   1      44.407  26.037  30.464  1.00  0.00     0.029 A 
ATOM     49  N   UNL A   1      43.110  27.610  31.352  1.00  0.00    -0.354 N 
ATOM     50  N   UNL A   1      42.434  29.691  33.319  1.00  0.00    -0.248 NA
ATOM     51  C   UNL A   1      42.849  30.810  35.327  1.00  0.00     0.031 C 
ATOM     52  C   UNL A   1      44.967  26.438  31.677  1.00  0.00     0.029 A 
ATOM     53  C   UNL A   1      44.183  27.448  32.213  1.00  0.00     0.049 A 
ATOM     54  H   UNL A   1      42.377  28.256  31.477  1.00  0.00     0.167 HD
ATOM     55  C   UNL A   1      43.598  29.186  33.885  1.00  0.00     0.074 A 
ATOM     56  C   UNL A   1      43.824  29.934  35.106  1.00  0.00     0.031 C 
ATOM     57  C   UNL A   1      44.400  28.192  33.433  1.00  0.00     0.031 A 
BRANCH  44  58
ATOM     58  C   UNL A   1      42.520  25.524  28.176  1.00  0.00    -0.014 A 
ATOM     59  C   UNL A   1      42.109  24.196  28.399  1.00  0.00     0.010 A 
ATOM     60  C   UNL A   1      43.286  25.814  27.032  1.00  0.00     0.010 A 
ATOM     61  C   UNL A   1      42.487  23.175  27.521  1.00  0.00     0.020 A 
ATOM     62  C   UNL A   1      43.637  24.802  26.133  1.00  0.00     0.020 A 
ATOM     63  C   UNL A   1      43.255  23.484  26.397  1.00  0.00     0.054 A 
BRANCH  63  64
ATOM     64  S   UNL A   1      43.760  22.141  25.286  1.00  0.00     0.124 S 
ATOM     65  O   UNL A   1      45.090  21.808  25.787  1.00  0.00    -0.237 OA
ATOM     66  O   UNL A   1      42.726  21.134  25.514  1.00  0.00    -0.237 OA
ATOM     67  O   UNL A   1      43.729  22.762  23.962  1.00  0.00    -0.744 OA
ENDBRANCH  63  64
ENDBRANCH  44  58
BRANCH  45  68
ATOM     68  C   UNL A   1      40.493  32.584  34.990  1.00  0.00    -0.014 A 
ATOM     69  C   UNL A   1      41.105  33.848  34.888  1.00  0.00     0.010 A 
ATOM     70  C   UNL A   1      39.690  32.304  36.108  1.00  0.00     0.010 A 
ATOM     71  C   UNL A   1      40.989  34.779  35.924  1.00  0.00     0.020 A 
ATOM     72  C   UNL A   1      39.542  33.247  37.131  1.00  0.00     0.020 A 
ATOM     73  C   UNL A   1      40.225  34.463  37.050  1.00  0.00     0.054 A 
BRANCH  73  74
ATOM     74  S   UNL A   1      40.180  35.642  38.427  1.00  0.00     0.124 S 
ATOM     75  O   UNL A   1      39.240  34.999  39.342  1.00  0.00    -0.237 OA
ATOM     76  O   UNL A   1      41.572  35.667  38.869  1.00  0.00    -0.237 OA
ATOM     77  O   UNL A   1      39.702  36.876  37.808  1.00  0.00    -0.744 OA
ENDBRANCH  73  74
ENDBRANCH  45  68
BRANCH  57  78
ATOM     78  C   UNL A   1      45.610  27.815  34.255  1.00  0.00    -0.014 A 
ATOM     79  C   UNL A   1      46.861  28.392  33.963  1.00  0.00     0.010 A 
ATOM     80  C   UNL A   1      45.541  26.775  35.198  1.00  0.00     0.010 A 
ATOM     81  C   UNL A   1      48.027  27.895  34.551  1.00  0.00     0.020 A 
ATOM     82  C   UNL A   1      46.702  26.299  35.816  1.00  0.00     0.020 A 
ATOM     83  C   UNL A   1      47.941  26.840  35.463  1.00  0.00     0.054 A 
BRANCH  83  84
ATOM     84  S   UNL A   1      49.472  26.158  36.154  1.00  0.00     0.124 S 
ATOM     85  O   UNL A   1      49.228  24.720  36.086  1.00  0.00    -0.237 OA
ATOM     86  O   UNL A   1      50.491  26.668  35.238  1.00  0.00    -0.237 OA
ATOM     87  O   UNL A   1      49.521  26.718  37.503  1.00  0.00    -0.744 OA
ENDBRANCH  83  84
ENDBRANCH  57  78
ENDBRANCH  31  32
ENDBRANCH  24  26
ENDBRANCH  23  24
ENDBRANCH  22  23
ENDBRANCH  21  22
ENDBRANCH  20  21
ENDBRANCH   1  20
TORSDOF 21
ENDMDL
MODEL 2
REMARK VINA RESULT:      -9.0      5.631     10.843
REMARK SMILES CCOc1ccc2c(c1)=N[C@H](SCC(=O)OCCOCCOC(=O)c1ccc(-c3c4nc(c(-c5ccc(S(=O)(=O)[O-])cc5)c5ccc([nH]5)c(-c5ccc(S(=O)(=O)[O-])cc5)c5nc(c(-c6ccc(S(=O)(=O)[O-])cc6)c6ccc3[nH]6)C=C5)C=C4)cc1)N=2
REMARK SMILES IDX 18 1 17 2 16 3 14 4 15 5 13 6 12 7 11 8 4 9 5 10 9 11 6 12
REMARK SMILES IDX 8 13 7 14 10 15 85 16 3 17 2 18 1 19 19 20 20 21 21 22 22 23
REMARK SMILES IDX 23 24 24 25 25 26 26 27 84 28 27 29 83 30 28 31 29 32 30 33
REMARK SMILES IDX 77 34 31 35 82 36 76 37 78 38 32 39 81 40 75 41 74 42 33 44
REMARK SMILES IDX 63 45 44 46 62 47 45 48 48 49 61 50 79 51 46 52 47 53 60 55
REMARK SMILES IDX 80 56 49 57 34 58 35 59 43 60 36 61 42 62 37 63 38 64 39 65
REMARK SMILES IDX 40 66 41 67 64 68 65 69 73 70 66 71 72 72 67 73 68 74 69 75
REMARK SMILES IDX 70 76 71 77 50 78 51 79 59 80 52 81 58 82 53 83 54 84 55 85
REMARK SMILES IDX 56 86 57 87
REMARK H PARENT 78 43 48 54
REMARK Flexibility Score: inf
ROOT
ATOM      1  C   UNL A   1      37.638  23.717  25.733  1.00  0.00     0.202 C 
ENDROOT
BRANCH   1   2
ATOM      2  C   UNL A   1      36.399  23.343  24.907  1.00  0.00     0.261 C 
BRANCH   2   3
ATOM      3  O   UNL A   1      35.431  24.402  24.753  1.00  0.00    -0.463 OA
BRANCH   3   4
ATOM      4  C   UNL A   1      34.646  24.328  23.645  1.00  0.00     0.316 C 
ATOM      5  O   UNL A   1      34.855  23.556  22.709  1.00  0.00    -0.251 OA
BRANCH   4   6
ATOM      6  C   UNL A   1      33.427  25.231  23.625  1.00  0.00     0.196 C 
BRANCH   6   7
ATOM      7  S   UNL A   1      32.717  25.729  25.217  1.00  0.00    -0.100 SA
BRANCH   7   8
ATOM      8  C   UNL A   1      32.035  24.126  25.779  1.00  0.00     0.282 C 
ATOM      9  C   UNL A   1      32.812  19.869  24.476  1.00  0.00     0.121 A 
ATOM     10  C   UNL A   1      33.514  19.861  25.748  1.00  0.00     0.049 A 
ATOM     11  C   UNL A   1      32.148  20.943  24.025  1.00  0.00     0.076 A 
ATOM     12  C   UNL A   1      33.600  20.933  26.553  1.00  0.00     0.034 A 
ATOM     13  C   UNL A   1      32.163  22.150  24.858  1.00  0.00     0.090 A 
ATOM     14  C   UNL A   1      32.941  22.169  26.112  1.00  0.00     0.087 A 
ATOM     15  N   UNL A   1      31.588  23.277  24.641  1.00  0.00    -0.246 NA
ATOM     16  N   UNL A   1      32.920  23.325  26.681  1.00  0.00    -0.246 NA
BRANCH   9  17
ATOM     17  O   UNL A   1      33.062  18.800  23.645  1.00  0.00    -0.494 OA
BRANCH  17  18
ATOM     18  C   UNL A   1      34.045  17.865  24.099  1.00  0.00     0.226 C 
ATOM     19  C   UNL A   1      33.908  16.541  23.365  1.00  0.00     0.049 C 
ENDBRANCH  17  18
ENDBRANCH   9  17
ENDBRANCH   7   8
ENDBRANCH   6   7
ENDBRANCH   4   6
ENDBRANCH   3   4
ENDBRANCH   2   3
ENDBRANCH   1   2
BRANCH   1  20
ATOM     20  O   UNL A   1      38.701  22.773  25.839  1.00  0.00    -0.374 OA
BRANCH  20  21
ATOM     21  C   UNL A   1      38.364  21.395  25.948  1.00  0.00     0.202 C 
BRANCH  21  22
ATOM     22  C   UNL A   1      39.371  20.351  25.446  1.00  0.00     0.261 C 
BRANCH  22  23
ATOM     23  O   UNL A   1      40.115  19.703  26.482  1.00  0.00    -0.460 OA
BRANCH  23  24
ATOM     24  C   UNL A   1      41.440  19.562  26.229  1.00  0.00     0.338 C 
ATOM     25  O   UNL A   1      42.006  18.588  25.758  1.00  0.00    -0.246 OA
BRANCH  24  26
ATOM     26  C   UNL A   1      42.113  20.851  26.451  1.00  0.00     0.060 A 
ATOM     27  C   UNL A   1      42.562  21.620  25.376  1.00  0.00     0.016 A 
ATOM     28  C   UNL A   1      42.258  21.305  27.768  1.00  0.00     0.016 A 
ATOM     29  C   UNL A   1      43.158  22.859  25.625  1.00  0.00     0.010 A 
ATOM     30  C   UNL A   1      42.858  22.539  28.013  1.00  0.00     0.010 A 
ATOM     31  C   UNL A   1      43.305  23.328  26.943  1.00  0.00    -0.014 A 
BRANCH  31  32
ATOM     32  C   UNL A   1      43.841  24.686  27.212  1.00  0.00     0.031 A 
ATOM     33  C   UNL A   1      42.956  25.772  27.746  1.00  0.00     0.074 A 
ATOM     34  C   UNL A   1      45.130  24.940  26.918  1.00  0.00     0.049 A 
ATOM     35  N   UNL A   1      43.257  27.016  28.011  1.00  0.00    -0.248 NA
ATOM     36  C   UNL A   1      41.552  25.421  28.010  1.00  0.00     0.031 C 
ATOM     37  C   UNL A   1      46.074  23.954  26.389  1.00  0.00     0.029 A 
ATOM     38  N   UNL A   1      45.869  26.091  27.021  1.00  0.00    -0.354 N 
ATOM     39  C   UNL A   1      42.086  27.598  28.481  1.00  0.00     0.074 A 
ATOM     40  C   UNL A   1      41.057  26.582  28.421  1.00  0.00     0.031 C 
ATOM     41  C   UNL A   1      47.272  24.536  26.236  1.00  0.00     0.029 A 
ATOM     42  C   UNL A   1      47.173  25.946  26.608  1.00  0.00     0.049 A 
ATOM     43  H   UNL A   1      45.502  26.940  27.358  1.00  0.00     0.167 HD
ATOM     44  C   UNL A   1      41.898  28.861  28.934  1.00  0.00     0.031 A 
ATOM     45  C   UNL A   1      48.176  26.843  26.526  1.00  0.00     0.031 A 
ATOM     46  C   UNL A   1      42.938  29.862  28.974  1.00  0.00     0.049 A 
ATOM     47  C   UNL A   1      47.930  28.255  26.979  1.00  0.00     0.074 A 
ATOM     48  C   UNL A   1      42.857  31.157  29.454  1.00  0.00     0.029 A 
ATOM     49  N   UNL A   1      44.235  29.688  28.512  1.00  0.00    -0.354 N 
ATOM     50  N   UNL A   1      46.836  28.773  27.484  1.00  0.00    -0.248 NA
ATOM     51  C   UNL A   1      49.048  29.200  26.864  1.00  0.00     0.031 C 
ATOM     52  C   UNL A   1      44.074  31.792  29.202  1.00  0.00     0.029 A 
ATOM     53  C   UNL A   1      44.949  30.868  28.654  1.00  0.00     0.049 A 
ATOM     54  H   UNL A   1      44.596  28.851  28.141  1.00  0.00     0.167 HD
ATOM     55  C   UNL A   1      47.135  30.102  27.761  1.00  0.00     0.074 A 
ATOM     56  C   UNL A   1      48.521  30.302  27.388  1.00  0.00     0.031 C 
ATOM     57  C   UNL A   1      46.330  31.063  28.274  1.00  0.00     0.031 A 
BRANCH  44  58
ATOM     58  C   UNL A   1      40.528  29.252  29.433  1.00  0.00    -0.014 A 
ATOM     59  C   UNL A   1      39.579  29.778  28.536  1.00  0.00     0.010 A 
ATOM     60  C   UNL A   1      40.221  29.222  30.806  1.00  0.00     0.010 A 
ATOM     61  C   UNL A   1      38.367  30.296  29.003  1.00  0.00     0.020 A 
ATOM     62  C   UNL A   1      38.995  29.707  31.273  1.00  0.00     0.020 A 
ATOM     63  C   UNL A   1      38.086  30.264  30.371  1.00  0.00     0.054 A 
BRANCH  63  64
ATOM     64  S   UNL A   1      36.522  30.968  30.960  1.00  0.00     0.124 S 
ATOM     65  O   UNL A   1      36.930  32.294  31.415  1.00  0.00    -0.237 OA
ATOM     66  O   UNL A   1      35.689  30.941  29.760  1.00  0.00    -0.237 OA
ATOM     67  O   UNL A   1      36.106  30.046  32.016  1.00  0.00    -0.744 OA
ENDBRANCH  63  64
ENDBRANCH  44  58
BRANCH  45  68
ATOM     68  C   UNL A   1      49.508  26.387  26.038  1.00  0.00    -0.014 A 
ATOM     69  C   UNL A   1      50.410  25.752  26.914  1.00  0.00     0.010 A 
ATOM     70  C   UNL A   1      49.931  26.702  24.736  1.00  0.00     0.010 A 
ATOM     71  C   UNL A   1      51.732  25.519  26.526  1.00  0.00     0.020 A 
ATOM     72  C   UNL A   1      51.244  26.438  24.331  1.00  0.00     0.020 A 
ATOM     73  C   UNL A   1      52.146  25.884  25.243  1.00  0.00     0.054 A 
BRANCH  73  74
ATOM     74  S   UNL A   1      53.893  25.674  24.801  1.00  0.00     0.124 S 
ATOM     75  O   UNL A   1      54.079  24.237  24.991  1.00  0.00    -0.237 OA
ATOM     76  O   UNL A   1      53.929  26.136  23.416  1.00  0.00    -0.237 OA
ATOM     77  O   UNL A   1      54.595  26.525  25.759  1.00  0.00    -0.744 OA
ENDBRANCH  73  74
ENDBRANCH  45  68
BRANCH  57  78
ATOM     78  C   UNL A   1      46.898  32.450  28.463  1.00  0.00    -0.014 A 
ATOM     79  C   UNL A   1      46.869  33.368  27.396  1.00  0.00     0.010 A 
ATOM     80  C   UNL A   1      47.604  32.785  29.631  1.00  0.00     0.010 A 
ATOM     81  C   UNL A   1      47.586  34.566  27.468  1.00  0.00     0.020 A 
ATOM     82  C   UNL A   1      48.293  33.998  29.723  1.00  0.00     0.020 A 
ATOM     83  C   UNL A   1      48.306  34.866  28.627  1.00  0.00     0.054 A 
BRANCH  83  84
ATOM     84  S   UNL A   1      49.293  36.386  28.671  1.00  0.00     0.124 S 
ATOM     85  O   UNL A   1      49.643  36.567  27.265  1.00  0.00    -0.237 OA
ATOM     86  O   UNL A   1      48.352  37.362  29.216  1.00  0.00    -0.237 OA
ATOM     87  O   UNL A   1      50.409  36.048  29.552  1.00  0.00    -0.744 OA
ENDBRANCH  83  84
ENDBRANCH  57  78
ENDBRANCH  31  32
ENDBRANCH  24  26
ENDBRANCH  23  24
ENDBRANCH  22  23
ENDBRANCH  21  22
ENDBRANCH  20  21
ENDBRANCH   1  20
TORSDOF 21
ENDMDL
MODEL 3
REMARK VINA RESULT:      -8.7      3.051      9.554
REMARK SMILES CCOc1ccc2c(c1)=N[C@H](SCC(=O)OCCOCCOC(=O)c1ccc(-c3c4nc(c(-c5ccc(S(=O)(=O)[O-])cc5)c5ccc([nH]5)c(-c5ccc(S(=O)(=O)[O-])cc5)c5nc(c(-c6ccc(S(=O)(=O)[O-])cc6)c6ccc3[nH]6)C=C5)C=C4)cc1)N=2
REMARK SMILES IDX 18 1 17 2 16 3 14 4 15 5 13 6 12 7 11 8 4 9 5 10 9 11 6 12
REMARK SMILES IDX 8 13 7 14 10 15 85 16 3 17 2 18 1 19 19 20 20 21 21 22 22 23
REMARK SMILES IDX 23 24 24 25 25 26 26 27 84 28 27 29 83 30 28 31 29 32 30 33
REMARK SMILES IDX 77 34 31 35 82 36 76 37 78 38 32 39 81 40 75 41 74 42 33 44
REMARK SMILES IDX 63 45 44 46 62 47 45 48 48 49 61 50 79 51 46 52 47 53 60 55
REMARK SMILES IDX 80 56 49 57 34 58 35 59 43 60 36 61 42 62 37 63 38 64 39 65
REMARK SMILES IDX 40 66 41 67 64 68 65 69 73 70 66 71 72 72 67 73 68 74 69 75
REMARK SMILES IDX 70 76 71 77 50 78 51 79 59 80 52 81 58 82 53 83 54 84 55 85
REMARK SMILES IDX 56 86 57 87
REMARK H PARENT 78 43 48 54
REMARK Flexibility Score: inf
ROOT
ATOM      1  C   UNL A   1      34.665  33.912  28.064  1.00  0.00     0.202 C 
ENDROOT
BRANCH   1   2
ATOM      2  C   UNL A   1      35.305  33.138  29.225  1.00  0.00     0.261 C 
BRANCH   2   3
ATOM      3  O   UNL A   1      34.882  31.763  29.341  1.00  0.00    -0.463 OA
BRANCH   3   4
ATOM      4  C   UNL A   1      35.254  30.943  28.322  1.00  0.00     0.316 C 
ATOM      5  O   UNL A   1      36.381  30.935  27.827  1.00  0.00    -0.251 OA
BRANCH   4   6
ATOM      6  C   UNL A   1      34.202  29.966  27.829  1.00  0.00     0.196 C 
BRANCH   6   7
ATOM      7  S   UNL A   1      33.092  30.517  26.506  1.00  0.00    -0.100 SA
BRANCH   7   8
ATOM      8  C   UNL A   1      32.318  28.921  26.054  1.00  0.00     0.282 C 
ATOM      9  C   UNL A   1      33.835  25.361  23.719  1.00  0.00     0.121 A 
ATOM     10  C   UNL A   1      33.879  24.804  25.060  1.00  0.00     0.049 A 
ATOM     11  C   UNL A   1      33.392  26.602  23.468  1.00  0.00     0.076 A 
ATOM     12  C   UNL A   1      33.530  25.491  26.159  1.00  0.00     0.034 A 
ATOM     13  C   UNL A   1      32.960  27.413  24.610  1.00  0.00     0.090 A 
ATOM     14  C   UNL A   1      33.077  26.877  25.980  1.00  0.00     0.087 A 
ATOM     15  N   UNL A   1      32.486  28.606  24.608  1.00  0.00    -0.246 NA
ATOM     16  N   UNL A   1      32.736  27.741  26.873  1.00  0.00    -0.246 NA
BRANCH   9  17
ATOM     17  O   UNL A   1      34.495  24.643  22.747  1.00  0.00    -0.494 OA
BRANCH  17  18
ATOM     18  C   UNL A   1      34.673  23.247  23.006  1.00  0.00     0.226 C 
ATOM     19  C   UNL A   1      36.135  22.933  23.281  1.00  0.00     0.049 C 
ENDBRANCH  17  18
ENDBRANCH   9  17
ENDBRANCH   7   8
ENDBRANCH   6   7
ENDBRANCH   4   6
ENDBRANCH   3   4
ENDBRANCH   2   3
ENDBRANCH   1   2
BRANCH   1  20
ATOM     20  O   UNL A   1      33.454  34.625  28.300  1.00  0.00    -0.374 OA
BRANCH  20  21
ATOM     21  C   UNL A   1      33.546  35.960  28.783  1.00  0.00     0.202 C 
BRANCH  21  22
ATOM     22  C   UNL A   1      32.687  36.366  29.989  1.00  0.00     0.261 C 
BRANCH  22  23
ATOM     23  O   UNL A   1      33.391  36.381  31.235  1.00  0.00    -0.460 OA
BRANCH  23  24
ATOM     24  C   UNL A   1      33.017  35.416  32.112  1.00  0.00     0.338 C 
ATOM     25  O   UNL A   1      31.882  35.052  32.376  1.00  0.00    -0.246 OA
BRANCH  24  26
ATOM     26  C   UNL A   1      34.217  34.720  32.603  1.00  0.00     0.060 A 
ATOM     27  C   UNL A   1      34.117  33.484  33.243  1.00  0.00     0.016 A 
ATOM     28  C   UNL A   1      35.466  35.312  32.378  1.00  0.00     0.016 A 
ATOM     29  C   UNL A   1      35.282  32.834  33.657  1.00  0.00     0.010 A 
ATOM     30  C   UNL A   1      36.626  34.663  32.797  1.00  0.00     0.010 A 
ATOM     31  C   UNL A   1      36.543  33.416  33.432  1.00  0.00    -0.014 A 
BRANCH  31  32
ATOM     32  C   UNL A   1      37.789  32.687  33.773  1.00  0.00     0.031 A 
ATOM     33  C   UNL A   1      38.556  33.013  35.020  1.00  0.00     0.074 A 
ATOM     34  C   UNL A   1      38.250  31.758  32.914  1.00  0.00     0.049 A 
ATOM     35  N   UNL A   1      39.674  32.492  35.454  1.00  0.00    -0.248 NA
ATOM     36  C   UNL A   1      38.002  34.062  35.890  1.00  0.00     0.031 C 
ATOM     37  C   UNL A   1      37.583  31.371  31.670  1.00  0.00     0.029 A 
ATOM     38  N   UNL A   1      39.376  30.975  32.950  1.00  0.00    -0.354 N 
ATOM     39  C   UNL A   1      39.957  33.141  36.649  1.00  0.00     0.074 A 
ATOM     40  C   UNL A   1      38.916  34.127  36.850  1.00  0.00     0.031 C 
ATOM     41  C   UNL A   1      38.300  30.407  31.073  1.00  0.00     0.029 A 
ATOM     42  C   UNL A   1      39.500  30.141  31.863  1.00  0.00     0.049 A 
ATOM     43  H   UNL A   1      40.032  31.007  33.682  1.00  0.00     0.167 HD
ATOM     44  C   UNL A   1      40.985  32.918  37.504  1.00  0.00     0.031 A 
ATOM     45  C   UNL A   1      40.471  29.267  31.530  1.00  0.00     0.031 A 
ATOM     46  C   UNL A   1      42.018  31.937  37.276  1.00  0.00     0.049 A 
ATOM     47  C   UNL A   1      41.633  29.077  32.464  1.00  0.00     0.074 A 
ATOM     48  C   UNL A   1      43.078  31.608  38.103  1.00  0.00     0.029 A 
ATOM     49  N   UNL A   1      42.130  31.137  36.147  1.00  0.00    -0.354 N 
ATOM     50  N   UNL A   1      41.852  29.650  33.623  1.00  0.00    -0.248 NA
ATOM     51  C   UNL A   1      42.672  28.122  32.057  1.00  0.00     0.031 C 
ATOM     52  C   UNL A   1      43.877  30.677  37.437  1.00  0.00     0.029 A 
ATOM     53  C   UNL A   1      43.267  30.351  36.236  1.00  0.00     0.049 A 
ATOM     54  H   UNL A   1      41.494  31.130  35.395  1.00  0.00     0.167 HD
ATOM     55  C   UNL A   1      43.046  29.116  34.094  1.00  0.00     0.074 A 
ATOM     56  C   UNL A   1      43.491  28.156  33.103  1.00  0.00     0.031 C 
ATOM     57  C   UNL A   1      43.709  29.400  35.241  1.00  0.00     0.031 A 
BRANCH  44  58
ATOM     58  C   UNL A   1      41.058  33.735  38.771  1.00  0.00    -0.014 A 
ATOM     59  C   UNL A   1      40.391  33.293  39.930  1.00  0.00     0.010 A 
ATOM     60  C   UNL A   1      41.676  34.999  38.784  1.00  0.00     0.010 A 
ATOM     61  C   UNL A   1      40.310  34.110  41.061  1.00  0.00     0.020 A 
ATOM     62  C   UNL A   1      41.627  35.805  39.926  1.00  0.00     0.020 A 
ATOM     63  C   UNL A   1      40.923  35.365  41.049  1.00  0.00     0.054 A 
BRANCH  63  64
ATOM     64  S   UNL A   1      40.781  36.422  42.517  1.00  0.00     0.124 S 
ATOM     65  O   UNL A   1      40.616  35.445  43.588  1.00  0.00    -0.237 OA
ATOM     66  O   UNL A   1      42.049  37.147  42.511  1.00  0.00    -0.237 OA
ATOM     67  O   UNL A   1      39.604  37.244  42.235  1.00  0.00    -0.744 OA
ENDBRANCH  63  64
ENDBRANCH  44  58
BRANCH  45  68
ATOM     68  C   UNL A   1      40.328  28.483  30.270  1.00  0.00    -0.014 A 
ATOM     69  C   UNL A   1      39.456  27.378  30.213  1.00  0.00     0.010 A 
ATOM     70  C   UNL A   1      41.158  28.753  29.170  1.00  0.00     0.010 A 
ATOM     71  C   UNL A   1      39.478  26.512  29.116  1.00  0.00     0.020 A 
ATOM     72  C   UNL A   1      41.158  27.908  28.055  1.00  0.00     0.020 A 
ATOM     73  C   UNL A   1      40.346  26.772  28.053  1.00  0.00     0.054 A 
BRANCH  73  74
ATOM     74  S   UNL A   1      40.435  25.575  26.693  1.00  0.00     0.124 S 
ATOM     75  O   UNL A   1      39.043  25.148  26.578  1.00  0.00    -0.237 OA
ATOM     76  O   UNL A   1      40.939  26.386  25.589  1.00  0.00    -0.237 OA
ATOM     77  O   UNL A   1      41.359  24.558  27.190  1.00  0.00    -0.744 OA
ENDBRANCH  73  74
ENDBRANCH  45  68
BRANCH  57  78
ATOM     78  C   UNL A   1      45.012  28.686  35.512  1.00  0.00    -0.014 A 
ATOM     79  C   UNL A   1      45.021  27.523  36.305  1.00  0.00     0.010 A 
ATOM     80  C   UNL A   1      46.238  29.257  35.125  1.00  0.00     0.010 A 
ATOM     81  C   UNL A   1      46.226  26.979  36.758  1.00  0.00     0.020 A 
ATOM     82  C   UNL A   1      47.447  28.695  35.546  1.00  0.00     0.020 A 
ATOM     83  C   UNL A   1      47.432  27.579  36.387  1.00  0.00     0.054 A 
BRANCH  83  84
ATOM     84  S   UNL A   1      48.980  26.906  37.049  1.00  0.00     0.124 S 
ATOM     85  O   UNL A   1      49.715  28.116  37.406  1.00  0.00    -0.237 OA
ATOM     86  O   UNL A   1      48.520  26.093  38.173  1.00  0.00    -0.237 OA
ATOM     87  O   UNL A   1      49.534  26.149  35.927  1.00  0.00    -0.744 OA
ENDBRANCH  83  84
ENDBRANCH  57  78
ENDBRANCH  31  32
ENDBRANCH  24  26
ENDBRANCH  23  24
ENDBRANCH  22  23
ENDBRANCH  21  22
ENDBRANCH  20  21
ENDBRANCH   1  20
TORSDOF 21
ENDMDL
