MODEL 1
REMARK VINA RESULT:      -7.4      0.000      0.000
REMARK SMILES Cc1ccc(S(=O)(=O)n2cc(C(=O)C(=O)N[C@@H](Cc3c[nH]c4ccccc34)C(=O)NCC(=O)OCCOCCOC(=O)c3ccc(-c4c5nc(c(-c6ccc(S(=O)(=O)[O-])cc6)c6ccc([nH]6)c(-c6ccc(S(=O)(=O)[O-])cc6)c6nc(c(-c7ccc(S(=O)(=O)[O-])cc7)c7ccc4[nH]7)C=C6)C=C5)cc3)c3ccccc32)cc1
REMARK SMILES IDX 35 1 34 2 32 3 33 4 31 5 30 6 28 7 29 8 17 10 16 11 14 12
REMARK SMILES IDX 15 13 12 15 13 16 11 17 9 18 10 19 108 20 103 21 107 22
REMARK SMILES IDX 104 23 106 24 105 25 6 26 7 27 8 28 5 29 1 30 2 31 3 32
REMARK SMILES IDX 110 33 4 34 109 35 18 36 19 37 20 38 27 39 21 40 22 41 26 42
REMARK SMILES IDX 23 44 25 45 24 46 36 47 37 48 38 49 39 50 40 51 41 52 42 53
REMARK SMILES IDX 43 54 44 55 102 56 45 57 101 58 46 59 47 60 48 61 95 62
REMARK SMILES IDX 49 63 100 64 94 65 96 66 50 67 99 68 93 69 92 70 51 72 81 73
REMARK SMILES IDX 62 74 80 75 63 76 66 77 79 78 97 79 64 80 65 81 78 83 98 84
REMARK SMILES IDX 67 85 52 86 53 87 61 88 54 89 60 90 55 91 56 92 57 93 58 94
REMARK SMILES IDX 59 95 82 96 83 97 91 98 84 99 90 100 85 101 86 102 87 103
REMARK SMILES IDX 88 104 89 105 68 106 69 107 77 108 70 109 76 110 71 111
REMARK SMILES IDX 72 112 73 113 74 114 75 115
REMARK H PARENT 30 9 16 14 21 43 96 71 66 82
REMARK Flexibility Score: inf
ROOT
ATOM      1  C   UNL A   1      37.800  31.008  29.044  1.00  0.00     0.261 C 
ENDROOT
BRANCH   1   2
ATOM      2  O   UNL A   1      38.961  30.163  29.101  1.00  0.00    -0.462 OA
BRANCH   2   3
ATOM      3  C   UNL A   1      39.021  29.234  28.121  1.00  0.00     0.325 C 
ATOM      4  O   UNL A   1      39.068  29.482  26.919  1.00  0.00    -0.250 OA
BRANCH   3   5
ATOM      5  C   UNL A   1      39.049  27.848  28.696  1.00  0.00     0.238 C 
BRANCH   5   6
ATOM      6  N   UNL A   1      39.008  27.706  30.139  1.00  0.00    -0.343 N 
ATOM      7  C   UNL A   1      39.932  27.989  31.093  1.00  0.00     0.243 C 
ATOM      8  O   UNL A   1      39.477  28.117  32.238  1.00  0.00    -0.273 OA
ATOM      9  H   UNL A   1      38.162  27.343  30.487  1.00  0.00     0.164 HD
BRANCH   7  10
ATOM     10  C   UNL A   1      41.453  28.231  30.831  1.00  0.00     0.176 C 
BRANCH  10  11
ATOM     11  N   UNL A   1      41.822  29.400  29.988  1.00  0.00    -0.337 N 
ATOM     12  C   UNL A   1      42.679  29.483  28.876  1.00  0.00     0.293 C 
ATOM     13  O   UNL A   1      43.114  30.576  28.522  1.00  0.00    -0.265 OA
ATOM     14  H   UNL A   1      41.398  30.249  30.249  1.00  0.00     0.164 HD
BRANCH  12  15
ATOM     15  C   UNL A   1      43.142  28.239  28.083  1.00  0.00     0.252 C 
ATOM     16  O   UNL A   1      42.279  27.690  27.398  1.00  0.00    -0.283 OA
BRANCH  15  17
ATOM     17  C   UNL A   1      44.494  27.602  28.224  1.00  0.00     0.054 A 
ATOM     18  N   UNL A   1      46.385  26.497  28.858  1.00  0.00    -0.240 N 
ATOM     19  C   UNL A   1      45.384  27.375  29.299  1.00  0.00     0.117 A 
ATOM     20  C   UNL A   1      46.027  26.105  27.549  1.00  0.00     0.065 A 
ATOM     21  C   UNL A   1      45.211  27.125  27.081  1.00  0.00     0.012 A 
ATOM     22  C   UNL A   1      46.625  25.176  26.671  1.00  0.00     0.028 A 
ATOM     23  C   UNL A   1      45.194  27.381  25.693  1.00  0.00     0.011 A 
ATOM     24  C   UNL A   1      46.666  25.501  25.317  1.00  0.00     0.002 A 
ATOM     25  C   UNL A   1      46.003  26.622  24.841  1.00  0.00     0.001 A 
BRANCH  18  26
ATOM     26  S   UNL A   1      48.124  26.534  28.992  1.00  0.00     0.268 S 
ATOM     27  O   UNL A   1      48.361  25.557  30.048  1.00  0.00    -0.201 OA
ATOM     28  O   UNL A   1      48.307  27.963  29.248  1.00  0.00    -0.201 OA
BRANCH  26  29
ATOM     29  C   UNL A   1      49.519  26.309  27.948  1.00  0.00     0.088 A 
ATOM     30  C   UNL A   1      52.127  26.457  24.483  1.00  0.00     0.044 C 
ATOM     31  C   UNL A   1      51.294  26.404  25.732  1.00  0.00    -0.051 A 
ATOM     32  C   UNL A   1      50.390  27.435  25.919  1.00  0.00     0.005 A 
ATOM     33  C   UNL A   1      51.335  25.357  26.685  1.00  0.00     0.005 A 
ATOM     34  C   UNL A   1      49.545  27.386  27.010  1.00  0.00     0.022 A 
ATOM     35  C   UNL A   1      50.443  25.294  27.800  1.00  0.00     0.022 A 
ENDBRANCH  26  29
ENDBRANCH  18  26
ENDBRANCH  15  17
ENDBRANCH  12  15
ENDBRANCH  10  11
BRANCH  10  36
ATOM     36  C   UNL A   1      42.408  27.985  32.053  1.00  0.00     0.072 C 
BRANCH  36  37
ATOM     37  C   UNL A   1      42.960  29.142  32.850  1.00  0.00    -0.020 A 
ATOM     38  C   UNL A   1      44.208  29.731  32.690  1.00  0.00     0.087 A 
ATOM     39  C   UNL A   1      42.335  29.852  33.933  1.00  0.00     0.003 A 
ATOM     40  N   UNL A   1      44.416  30.611  33.725  1.00  0.00    -0.361 N 
ATOM     41  C   UNL A   1      43.318  30.636  34.548  1.00  0.00     0.046 A 
ATOM     42  C   UNL A   1      41.059  29.823  34.511  1.00  0.00     0.010 A 
ATOM     43  H   UNL A   1      45.233  31.145  33.858  1.00  0.00     0.166 HD
ATOM     44  C   UNL A   1      43.145  31.249  35.795  1.00  0.00     0.026 A 
ATOM     45  C   UNL A   1      40.847  30.528  35.698  1.00  0.00     0.001 A 
ATOM     46  C   UNL A   1      41.885  31.160  36.376  1.00  0.00     0.002 A 
ENDBRANCH  36  37
ENDBRANCH  10  36
ENDBRANCH   7  10
ENDBRANCH   5   6
ENDBRANCH   3   5
ENDBRANCH   2   3
ENDBRANCH   1   2
BRANCH   1  47
ATOM     47  C   UNL A   1      36.542  30.400  29.627  1.00  0.00     0.202 C 
BRANCH  47  48
ATOM     48  O   UNL A   1      35.436  31.067  29.012  1.00  0.00    -0.374 OA
BRANCH  48  49
ATOM     49  C   UNL A   1      35.449  32.481  29.027  1.00  0.00     0.202 C 
BRANCH  49  50
ATOM     50  C   UNL A   1      34.428  33.103  29.979  1.00  0.00     0.261 C 
BRANCH  50  51
ATOM     51  O   UNL A   1      34.405  32.421  31.251  1.00  0.00    -0.460 OA
BRANCH  51  52
ATOM     52  C   UNL A   1      34.701  33.183  32.347  1.00  0.00     0.338 C 
ATOM     53  O   UNL A   1      33.861  33.712  33.048  1.00  0.00    -0.246 OA
BRANCH  52  54
ATOM     54  C   UNL A   1      36.165  33.167  32.618  1.00  0.00     0.060 A 
ATOM     55  C   UNL A   1      36.729  32.294  33.564  1.00  0.00     0.016 A 
ATOM     56  C   UNL A   1      36.958  34.139  32.014  1.00  0.00     0.016 A 
ATOM     57  C   UNL A   1      38.053  32.480  33.994  1.00  0.00     0.010 A 
ATOM     58  C   UNL A   1      38.212  34.387  32.520  1.00  0.00     0.010 A 
ATOM     59  C   UNL A   1      38.767  33.576  33.522  1.00  0.00    -0.014 A 
BRANCH  59  60
ATOM     60  C   UNL A   1      40.099  34.020  33.944  1.00  0.00     0.031 A 
ATOM     61  C   UNL A   1      41.215  33.597  33.060  1.00  0.00     0.074 A 
ATOM     62  C   UNL A   1      40.263  35.013  34.849  1.00  0.00     0.049 A 
ATOM     63  N   UNL A   1      42.357  34.169  33.012  1.00  0.00    -0.248 NA
ATOM     64  C   UNL A   1      41.096  32.516  32.077  1.00  0.00     0.031 C 
ATOM     65  C   UNL A   1      41.426  35.874  35.036  1.00  0.00     0.029 A 
ATOM     66  N   UNL A   1      39.399  35.471  35.846  1.00  0.00    -0.354 N 
ATOM     67  C   UNL A   1      43.075  33.659  31.963  1.00  0.00     0.074 A 
ATOM     68  C   UNL A   1      42.223  32.663  31.368  1.00  0.00     0.031 C 
ATOM     69  C   UNL A   1      41.319  36.572  36.179  1.00  0.00     0.029 A 
ATOM     70  C   UNL A   1      40.183  36.007  36.877  1.00  0.00     0.049 A 
ATOM     71  H   UNL A   1      38.415  35.427  35.827  1.00  0.00     0.167 HD
ATOM     72  C   UNL A   1      44.304  34.193  31.737  1.00  0.00     0.031 A 
ATOM     73  C   UNL A   1      40.258  35.361  38.074  1.00  0.00     0.031 A 
ATOM     74  C   UNL A   1      44.770  34.883  32.954  1.00  0.00     0.049 A 
ATOM     75  C   UNL A   1      41.684  34.858  38.192  1.00  0.00     0.074 A 
ATOM     76  C   UNL A   1      45.055  36.189  33.299  1.00  0.00     0.029 A 
ATOM     77  N   UNL A   1      44.718  34.170  34.166  1.00  0.00    -0.354 N 
ATOM     78  N   UNL A   1      42.385  34.345  37.200  1.00  0.00    -0.248 NA
ATOM     79  C   UNL A   1      42.512  35.262  39.329  1.00  0.00     0.031 C 
ATOM     80  C   UNL A   1      45.012  36.276  34.729  1.00  0.00     0.029 A 
ATOM     81  C   UNL A   1      44.733  35.018  35.258  1.00  0.00     0.049 A 
ATOM     82  H   UNL A   1      44.675  33.189  34.229  1.00  0.00     0.167 HD
ATOM     83  C   UNL A   1      43.722  34.528  37.478  1.00  0.00     0.074 A 
ATOM     84  C   UNL A   1      43.743  35.054  38.842  1.00  0.00     0.031 C 
ATOM     85  C   UNL A   1      44.791  34.492  36.620  1.00  0.00     0.031 A 
BRANCH  72  86
ATOM     86  C   UNL A   1      45.013  34.177  30.399  1.00  0.00    -0.014 A 
ATOM     87  C   UNL A   1      44.408  34.791  29.282  1.00  0.00     0.010 A 
ATOM     88  C   UNL A   1      46.214  33.482  30.135  1.00  0.00     0.010 A 
ATOM     89  C   UNL A   1      44.963  34.715  27.991  1.00  0.00     0.020 A 
ATOM     90  C   UNL A   1      46.793  33.416  28.856  1.00  0.00     0.020 A 
ATOM     91  C   UNL A   1      46.157  34.028  27.785  1.00  0.00     0.054 A 
BRANCH  91  92
ATOM     92  S   UNL A   1      46.857  33.937  26.113  1.00  0.00     0.124 S 
ATOM     93  O   UNL A   1      45.676  33.680  25.293  1.00  0.00    -0.237 OA
ATOM     94  O   UNL A   1      47.463  35.256  25.952  1.00  0.00    -0.237 OA
ATOM     95  O   UNL A   1      47.806  32.828  26.193  1.00  0.00    -0.744 OA
ENDBRANCH  91  92
ENDBRANCH  72  86
BRANCH  73  96
ATOM     96  C   UNL A   1      38.923  34.801  38.485  1.00  0.00    -0.014 A 
ATOM     97  C   UNL A   1      38.293  33.952  37.536  1.00  0.00     0.010 A 
ATOM     98  C   UNL A   1      38.571  34.625  39.832  1.00  0.00     0.010 A 
ATOM     99  C   UNL A   1      37.519  32.843  37.924  1.00  0.00     0.020 A 
ATOM    100  C   UNL A   1      37.780  33.520  40.228  1.00  0.00     0.020 A 
ATOM    101  C   UNL A   1      37.312  32.602  39.278  1.00  0.00     0.054 A 
BRANCH 101 102
ATOM    102  S   UNL A   1      36.679  30.960  39.800  1.00  0.00     0.124 S 
ATOM    103  O   UNL A   1      37.600  30.591  40.867  1.00  0.00    -0.237 OA
ATOM    104  O   UNL A   1      35.309  31.242  40.230  1.00  0.00    -0.237 OA
ATOM    105  O   UNL A   1      36.765  30.167  38.578  1.00  0.00    -0.744 OA
ENDBRANCH 101 102
ENDBRANCH  73  96
BRANCH  85 106
ATOM    106  C   UNL A   1      46.119  33.959  37.100  1.00  0.00    -0.014 A 
ATOM    107  C   UNL A   1      46.442  32.592  37.064  1.00  0.00     0.010 A 
ATOM    108  C   UNL A   1      47.160  34.863  37.417  1.00  0.00     0.010 A 
ATOM    109  C   UNL A   1      47.717  32.142  37.392  1.00  0.00     0.020 A 
ATOM    110  C   UNL A   1      48.454  34.427  37.691  1.00  0.00     0.020 A 
ATOM    111  C   UNL A   1      48.716  33.063  37.701  1.00  0.00     0.054 A 
BRANCH 111 112
ATOM    112  S   UNL A   1      50.372  32.449  38.054  1.00  0.00     0.124 S 
ATOM    113  O   UNL A   1      51.190  33.296  37.190  1.00  0.00    -0.237 OA
ATOM    114  O   UNL A   1      50.508  32.700  39.488  1.00  0.00    -0.237 OA
ATOM    115  O   UNL A   1      50.307  31.041  37.677  1.00  0.00    -0.744 OA
ENDBRANCH 111 112
ENDBRANCH  85 106
ENDBRANCH  59  60
ENDBRANCH  52  54
ENDBRANCH  51  52
ENDBRANCH  50  51
ENDBRANCH  49  50
ENDBRANCH  48  49
ENDBRANCH  47  48
ENDBRANCH   1  47
TORSDOF 26
ENDMDL
MODEL 2
REMARK VINA RESULT:      -7.3      4.044      9.655
REMARK SMILES Cc1ccc(S(=O)(=O)n2cc(C(=O)C(=O)N[C@@H](Cc3c[nH]c4ccccc34)C(=O)NCC(=O)OCCOCCOC(=O)c3ccc(-c4c5nc(c(-c6ccc(S(=O)(=O)[O-])cc6)c6ccc([nH]6)c(-c6ccc(S(=O)(=O)[O-])cc6)c6nc(c(-c7ccc(S(=O)(=O)[O-])cc7)c7ccc4[nH]7)C=C6)C=C5)cc3)c3ccccc32)cc1
REMARK SMILES IDX 35 1 34 2 32 3 33 4 31 5 30 6 28 7 29 8 17 10 16 11 14 12
REMARK SMILES IDX 15 13 12 15 13 16 11 17 9 18 10 19 108 20 103 21 107 22
REMARK SMILES IDX 104 23 106 24 105 25 6 26 7 27 8 28 5 29 1 30 2 31 3 32
REMARK SMILES IDX 110 33 4 34 109 35 18 36 19 37 20 38 27 39 21 40 22 41 26 42
REMARK SMILES IDX 23 44 25 45 24 46 36 47 37 48 38 49 39 50 40 51 41 52 42 53
REMARK SMILES IDX 43 54 44 55 102 56 45 57 101 58 46 59 47 60 48 61 95 62
REMARK SMILES IDX 49 63 100 64 94 65 96 66 50 67 99 68 93 69 92 70 51 72 81 73
REMARK SMILES IDX 62 74 80 75 63 76 66 77 79 78 97 79 64 80 65 81 78 83 98 84
REMARK SMILES IDX 67 85 52 86 53 87 61 88 54 89 60 90 55 91 56 92 57 93 58 94
REMARK SMILES IDX 59 95 82 96 83 97 91 98 84 99 90 100 85 101 86 102 87 103
REMARK SMILES IDX 88 104 89 105 68 106 69 107 77 108 70 109 76 110 71 111
REMARK SMILES IDX 72 112 73 113 74 114 75 115
REMARK H PARENT 30 9 16 14 21 43 96 71 66 82
REMARK Flexibility Score: inf
ROOT
ATOM      1  C   UNL A   1      37.875  31.892  35.779  1.00  0.00     0.261 C 
ENDROOT
BRANCH   1   2
ATOM      2  O   UNL A   1      37.030  32.695  34.937  1.00  0.00    -0.462 OA
BRANCH   2   3
ATOM      3  C   UNL A   1      37.293  32.582  33.616  1.00  0.00     0.325 C 
ATOM      4  O   UNL A   1      38.416  32.492  33.128  1.00  0.00    -0.250 OA
BRANCH   3   5
ATOM      5  C   UNL A   1      36.023  32.552  32.817  1.00  0.00     0.238 C 
BRANCH   5   6
ATOM      6  N   UNL A   1      35.687  31.328  32.114  1.00  0.00    -0.343 N 
ATOM      7  C   UNL A   1      36.267  30.722  31.046  1.00  0.00     0.243 C 
ATOM      8  O   UNL A   1      35.992  29.521  30.916  1.00  0.00    -0.273 OA
ATOM      9  H   UNL A   1      34.903  30.855  32.474  1.00  0.00     0.164 HD
BRANCH   7  10
ATOM     10  C   UNL A   1      37.277  31.397  30.064  1.00  0.00     0.176 C 
BRANCH  10  11
ATOM     11  N   UNL A   1      38.722  31.307  30.406  1.00  0.00    -0.337 N 
ATOM     12  C   UNL A   1      39.646  30.272  30.178  1.00  0.00     0.293 C 
ATOM     13  O   UNL A   1      40.695  30.239  30.818  1.00  0.00    -0.265 OA
ATOM     14  H   UNL A   1      39.089  32.098  30.863  1.00  0.00     0.164 HD
BRANCH  12  15
ATOM     15  C   UNL A   1      39.389  29.129  29.170  1.00  0.00     0.252 C 
ATOM     16  O   UNL A   1      38.241  28.685  29.145  1.00  0.00    -0.283 OA
BRANCH  15  17
ATOM     17  C   UNL A   1      40.462  28.453  28.366  1.00  0.00     0.054 A 
ATOM     18  N   UNL A   1      42.350  27.801  27.265  1.00  0.00    -0.240 N 
ATOM     19  C   UNL A   1      41.515  28.896  27.532  1.00  0.00     0.117 A 
ATOM     20  C   UNL A   1      41.859  26.724  28.037  1.00  0.00     0.065 A 
ATOM     21  C   UNL A   1      40.524  27.027  28.264  1.00  0.00     0.012 A 
ATOM     22  C   UNL A   1      42.361  25.418  28.219  1.00  0.00     0.028 A 
ATOM     23  C   UNL A   1      39.618  25.958  28.429  1.00  0.00     0.011 A 
ATOM     24  C   UNL A   1      41.440  24.376  28.292  1.00  0.00     0.002 A 
ATOM     25  C   UNL A   1      40.080  24.640  28.342  1.00  0.00     0.001 A 
BRANCH  18  26
ATOM     26  S   UNL A   1      43.039  27.182  25.788  1.00  0.00     0.268 S 
ATOM     27  O   UNL A   1      43.862  28.303  25.351  1.00  0.00    -0.201 OA
ATOM     28  O   UNL A   1      41.805  26.845  25.078  1.00  0.00    -0.201 OA
BRANCH  26  29
ATOM     29  C   UNL A   1      43.985  25.795  25.269  1.00  0.00     0.088 A 
ATOM     30  C   UNL A   1      45.182  21.699  24.476  1.00  0.00     0.044 C 
ATOM     31  C   UNL A   1      44.816  23.141  24.685  1.00  0.00    -0.051 A 
ATOM     32  C   UNL A   1      43.468  23.449  24.658  1.00  0.00     0.005 A 
ATOM     33  C   UNL A   1      45.743  24.178  24.957  1.00  0.00     0.005 A 
ATOM     34  C   UNL A   1      43.077  24.747  24.926  1.00  0.00     0.022 A 
ATOM     35  C   UNL A   1      45.337  25.514  25.259  1.00  0.00     0.022 A 
ENDBRANCH  26  29
ENDBRANCH  18  26
ENDBRANCH  15  17
ENDBRANCH  12  15
ENDBRANCH  10  11
BRANCH  10  36
ATOM     36  C   UNL A   1      36.960  31.237  28.535  1.00  0.00     0.072 C 
BRANCH  36  37
ATOM     37  C   UNL A   1      35.550  31.386  28.016  1.00  0.00    -0.020 A 
ATOM     38  C   UNL A   1      34.795  32.552  28.002  1.00  0.00     0.087 A 
ATOM     39  C   UNL A   1      34.699  30.371  27.455  1.00  0.00     0.003 A 
ATOM     40  N   UNL A   1      33.507  32.241  27.641  1.00  0.00    -0.361 N 
ATOM     41  C   UNL A   1      33.404  30.896  27.387  1.00  0.00     0.046 A 
ATOM     42  C   UNL A   1      34.885  29.029  27.099  1.00  0.00     0.010 A 
ATOM     43  H   UNL A   1      32.766  32.886  27.574  1.00  0.00     0.166 HD
ATOM     44  C   UNL A   1      32.267  30.112  27.151  1.00  0.00     0.026 A 
ATOM     45  C   UNL A   1      33.767  28.268  26.751  1.00  0.00     0.001 A 
ATOM     46  C   UNL A   1      32.473  28.770  26.855  1.00  0.00     0.002 A 
ENDBRANCH  36  37
ENDBRANCH  10  36
ENDBRANCH   7  10
ENDBRANCH   5   6
ENDBRANCH   3   5
ENDBRANCH   2   3
ENDBRANCH   1   2
BRANCH   1  47
ATOM     47  C   UNL A   1      39.143  32.577  36.244  1.00  0.00     0.202 C 
BRANCH  47  48
ATOM     48  O   UNL A   1      38.771  33.454  37.311  1.00  0.00    -0.374 OA
BRANCH  48  49
ATOM     49  C   UNL A   1      39.710  34.442  37.688  1.00  0.00     0.202 C 
BRANCH  49  50
ATOM     50  C   UNL A   1      41.144  34.135  37.257  1.00  0.00     0.261 C 
BRANCH  50  51
ATOM     51  O   UNL A   1      41.883  33.473  38.304  1.00  0.00    -0.460 OA
BRANCH  51  52
ATOM     52  C   UNL A   1      43.186  33.169  38.022  1.00  0.00     0.338 C 
ATOM     53  O   UNL A   1      44.113  33.409  38.771  1.00  0.00    -0.246 OA
BRANCH  52  54
ATOM     54  C   UNL A   1      43.283  32.410  36.744  1.00  0.00     0.060 A 
ATOM     55  C   UNL A   1      42.429  31.330  36.465  1.00  0.00     0.016 A 
ATOM     56  C   UNL A   1      44.337  32.701  35.883  1.00  0.00     0.016 A 
ATOM     57  C   UNL A   1      42.710  30.468  35.391  1.00  0.00     0.010 A 
ATOM     58  C   UNL A   1      44.671  31.793  34.907  1.00  0.00     0.010 A 
ATOM     59  C   UNL A   1      43.876  30.663  34.659  1.00  0.00    -0.014 A 
BRANCH  59  60
ATOM     60  C   UNL A   1      44.415  29.806  33.599  1.00  0.00     0.031 A 
ATOM     61  C   UNL A   1      45.087  28.567  34.069  1.00  0.00     0.074 A 
ATOM     62  C   UNL A   1      44.030  29.944  32.308  1.00  0.00     0.049 A 
ATOM     63  N   UNL A   1      45.274  27.527  33.350  1.00  0.00    -0.248 NA
ATOM     64  C   UNL A   1      45.540  28.373  35.449  1.00  0.00     0.031 C 
ATOM     65  C   UNL A   1      44.081  28.947  31.244  1.00  0.00     0.029 A 
ATOM     66  N   UNL A   1      43.507  31.054  31.642  1.00  0.00    -0.354 N 
ATOM     67  C   UNL A   1      45.738  26.509  34.138  1.00  0.00     0.074 A 
ATOM     68  C   UNL A   1      45.837  27.067  35.461  1.00  0.00     0.031 C 
ATOM     69  C   UNL A   1      43.845  29.517  30.051  1.00  0.00     0.029 A 
ATOM     70  C   UNL A   1      43.860  30.945  30.290  1.00  0.00     0.049 A 
ATOM     71  H   UNL A   1      42.983  31.782  32.049  1.00  0.00     0.167 HD
ATOM     72  C   UNL A   1      45.947  25.307  33.538  1.00  0.00     0.031 A 
ATOM     73  C   UNL A   1      44.772  31.805  29.758  1.00  0.00     0.031 A 
ATOM     74  C   UNL A   1      46.062  25.501  32.081  1.00  0.00     0.049 A 
ATOM     75  C   UNL A   1      45.995  30.970  29.426  1.00  0.00     0.074 A 
ATOM     76  C   UNL A   1      45.329  25.118  30.975  1.00  0.00     0.029 A 
ATOM     77  N   UNL A   1      46.959  26.484  31.624  1.00  0.00    -0.354 N 
ATOM     78  N   UNL A   1      46.469  29.999  30.182  1.00  0.00    -0.248 NA
ATOM     79  C   UNL A   1      46.506  30.931  28.056  1.00  0.00     0.031 C 
ATOM     80  C   UNL A   1      45.687  25.994  29.898  1.00  0.00     0.029 A 
ATOM     81  C   UNL A   1      46.661  26.888  30.336  1.00  0.00     0.049 A 
ATOM     82  H   UNL A   1      47.707  26.840  32.156  1.00  0.00     0.167 HD
ATOM     83  C   UNL A   1      47.167  29.127  29.375  1.00  0.00     0.074 A 
ATOM     84  C   UNL A   1      47.204  29.786  28.071  1.00  0.00     0.031 C 
ATOM     85  C   UNL A   1      47.524  27.826  29.621  1.00  0.00     0.031 A 
BRANCH  72  86
ATOM     86  C   UNL A   1      45.937  23.975  34.259  1.00  0.00    -0.014 A 
ATOM     87  C   UNL A   1      47.020  23.625  35.091  1.00  0.00     0.010 A 
ATOM     88  C   UNL A   1      44.958  22.972  34.079  1.00  0.00     0.010 A 
ATOM     89  C   UNL A   1      47.122  22.360  35.700  1.00  0.00     0.020 A 
ATOM     90  C   UNL A   1      45.034  21.712  34.697  1.00  0.00     0.020 A 
ATOM     91  C   UNL A   1      46.124  21.409  35.500  1.00  0.00     0.054 A 
BRANCH  91  92
ATOM     92  S   UNL A   1      46.272  19.782  36.290  1.00  0.00     0.124 S 
ATOM     93  O   UNL A   1      45.624  20.001  37.581  1.00  0.00    -0.237 OA
ATOM     94  O   UNL A   1      45.552  18.913  35.363  1.00  0.00    -0.237 OA
ATOM     95  O   UNL A   1      47.714  19.555  36.355  1.00  0.00    -0.744 OA
ENDBRANCH  91  92
ENDBRANCH  72  86
BRANCH  73  96
ATOM     96  C   UNL A   1      44.582  33.204  30.278  1.00  0.00    -0.014 A 
ATOM     97  C   UNL A   1      43.280  33.749  30.118  1.00  0.00     0.010 A 
ATOM     98  C   UNL A   1      45.370  33.728  31.315  1.00  0.00     0.010 A 
ATOM     99  C   UNL A   1      42.711  34.614  31.069  1.00  0.00     0.020 A 
ATOM    100  C   UNL A   1      44.808  34.611  32.267  1.00  0.00     0.020 A 
ATOM    101  C   UNL A   1      43.464  34.998  32.174  1.00  0.00     0.054 A 
BRANCH 101 102
ATOM    102  S   UNL A   1      42.611  35.765  33.606  1.00  0.00     0.124 S 
ATOM    103  O   UNL A   1      41.266  35.212  33.505  1.00  0.00    -0.237 OA
ATOM    104  O   UNL A   1      43.389  35.303  34.756  1.00  0.00    -0.237 OA
ATOM    105  O   UNL A   1      42.736  37.194  33.342  1.00  0.00    -0.744 OA
ENDBRANCH 101 102
ENDBRANCH  73  96
BRANCH  85 106
ATOM    106  C   UNL A   1      48.828  27.292  29.080  1.00  0.00    -0.014 A 
ATOM    107  C   UNL A   1      48.887  26.224  28.170  1.00  0.00     0.010 A 
ATOM    108  C   UNL A   1      50.028  27.998  29.331  1.00  0.00     0.010 A 
ATOM    109  C   UNL A   1      50.090  25.834  27.590  1.00  0.00     0.020 A 
ATOM    110  C   UNL A   1      51.227  27.652  28.712  1.00  0.00     0.020 A 
ATOM    111  C   UNL A   1      51.253  26.553  27.863  1.00  0.00     0.054 A 
BRANCH 111 112
ATOM    112  S   UNL A   1      52.779  26.063  27.041  1.00  0.00     0.124 S 
ATOM    113  O   UNL A   1      52.370  24.832  26.371  1.00  0.00    -0.237 OA
ATOM    114  O   UNL A   1      53.047  27.199  26.160  1.00  0.00    -0.237 OA
ATOM    115  O   UNL A   1      53.726  25.898  28.139  1.00  0.00    -0.744 OA
ENDBRANCH 111 112
ENDBRANCH  85 106
ENDBRANCH  59  60
ENDBRANCH  52  54
ENDBRANCH  51  52
ENDBRANCH  50  51
ENDBRANCH  49  50
ENDBRANCH  48  49
ENDBRANCH  47  48
ENDBRANCH   1  47
TORSDOF 26
ENDMDL
MODEL 3
REMARK VINA RESULT:      -7.3      6.375     11.511
REMARK SMILES Cc1ccc(S(=O)(=O)n2cc(C(=O)C(=O)N[C@@H](Cc3c[nH]c4ccccc34)C(=O)NCC(=O)OCCOCCOC(=O)c3ccc(-c4c5nc(c(-c6ccc(S(=O)(=O)[O-])cc6)c6ccc([nH]6)c(-c6ccc(S(=O)(=O)[O-])cc6)c6nc(c(-c7ccc(S(=O)(=O)[O-])cc7)c7ccc4[nH]7)C=C6)C=C5)cc3)c3ccccc32)cc1
REMARK SMILES IDX 35 1 34 2 32 3 33 4 31 5 30 6 28 7 29 8 17 10 16 11 14 12
REMARK SMILES IDX 15 13 12 15 13 16 11 17 9 18 10 19 108 20 103 21 107 22
REMARK SMILES IDX 104 23 106 24 105 25 6 26 7 27 8 28 5 29 1 30 2 31 3 32
REMARK SMILES IDX 110 33 4 34 109 35 18 36 19 37 20 38 27 39 21 40 22 41 26 42
REMARK SMILES IDX 23 44 25 45 24 46 36 47 37 48 38 49 39 50 40 51 41 52 42 53
REMARK SMILES IDX 43 54 44 55 102 56 45 57 101 58 46 59 47 60 48 61 95 62
REMARK SMILES IDX 49 63 100 64 94 65 96 66 50 67 99 68 93 69 92 70 51 72 81 73
REMARK SMILES IDX 62 74 80 75 63 76 66 77 79 78 97 79 64 80 65 81 78 83 98 84
REMARK SMILES IDX 67 85 52 86 53 87 61 88 54 89 60 90 55 91 56 92 57 93 58 94
REMARK SMILES IDX 59 95 82 96 83 97 91 98 84 99 90 100 85 101 86 102 87 103
REMARK SMILES IDX 88 104 89 105 68 106 69 107 77 108 70 109 76 110 71 111
REMARK SMILES IDX 72 112 73 113 74 114 75 115
REMARK H PARENT 30 9 16 14 21 43 96 71 66 82
REMARK Flexibility Score: inf
ROOT
ATOM      1  C   UNL A   1      41.942  24.139  35.487  1.00  0.00     0.261 C 
ENDROOT
BRANCH   1   2
ATOM      2  O   UNL A   1      43.369  23.965  35.491  1.00  0.00    -0.462 OA
BRANCH   2   3
ATOM      3  C   UNL A   1      43.829  23.134  34.530  1.00  0.00     0.325 C 
ATOM      4  O   UNL A   1      43.663  23.294  33.323  1.00  0.00    -0.250 OA
BRANCH   3   5
ATOM      5  C   UNL A   1      44.599  21.993  35.129  1.00  0.00     0.238 C 
BRANCH   5   6
ATOM      6  N   UNL A   1      45.139  22.162  36.465  1.00  0.00    -0.343 N 
ATOM      7  C   UNL A   1      45.945  21.364  37.212  1.00  0.00     0.243 C 
ATOM      8  O   UNL A   1      46.531  21.938  38.141  1.00  0.00    -0.273 OA
ATOM      9  H   UNL A   1      44.874  23.001  36.907  1.00  0.00     0.164 HD
BRANCH   7  10
ATOM     10  C   UNL A   1      46.229  19.854  36.932  1.00  0.00     0.176 C 
BRANCH  10  11
ATOM     11  N   UNL A   1      46.720  19.493  35.575  1.00  0.00    -0.337 N 
ATOM     12  C   UNL A   1      47.797  20.009  34.833  1.00  0.00     0.293 C 
ATOM     13  O   UNL A   1      47.844  19.825  33.618  1.00  0.00    -0.265 OA
ATOM     14  H   UNL A   1      46.211  18.780  35.127  1.00  0.00     0.164 HD
BRANCH  12  15
ATOM     15  C   UNL A   1      48.930  20.844  35.473  1.00  0.00     0.252 C 
ATOM     16  O   UNL A   1      49.591  20.274  36.340  1.00  0.00    -0.283 OA
BRANCH  15  17
ATOM     17  C   UNL A   1      49.151  22.306  35.213  1.00  0.00     0.054 A 
ATOM     18  N   UNL A   1      49.294  24.582  35.244  1.00  0.00    -0.240 N 
ATOM     19  C   UNL A   1      48.457  23.495  35.538  1.00  0.00     0.117 A 
ATOM     20  C   UNL A   1      50.536  24.038  34.851  1.00  0.00     0.065 A 
ATOM     21  C   UNL A   1      50.240  22.758  34.402  1.00  0.00     0.012 A 
ATOM     22  C   UNL A   1      51.757  24.668  34.530  1.00  0.00     0.028 A 
ATOM     23  C   UNL A   1      51.064  22.195  33.405  1.00  0.00     0.011 A 
ATOM     24  C   UNL A   1      52.503  24.135  33.482  1.00  0.00     0.002 A 
ATOM     25  C   UNL A   1      52.131  22.938  32.889  1.00  0.00     0.001 A 
BRANCH  18  26
ATOM     26  S   UNL A   1      49.022  26.075  34.384  1.00  0.00     0.268 S 
ATOM     27  O   UNL A   1      49.271  27.066  35.423  1.00  0.00    -0.201 OA
ATOM     28  O   UNL A   1      47.662  25.824  33.906  1.00  0.00    -0.201 OA
BRANCH  26  29
ATOM     29  C   UNL A   1      49.624  26.879  32.942  1.00  0.00     0.088 A 
ATOM     30  C   UNL A   1      51.437  29.843  30.343  1.00  0.00     0.044 C 
ATOM     31  C   UNL A   1      50.835  28.757  31.188  1.00  0.00    -0.051 A 
ATOM     32  C   UNL A   1      51.277  28.671  32.495  1.00  0.00     0.005 A 
ATOM     33  C   UNL A   1      49.822  27.867  30.754  1.00  0.00     0.005 A 
ATOM     34  C   UNL A   1      50.694  27.742  33.334  1.00  0.00     0.022 A 
ATOM     35  C   UNL A   1      49.200  26.923  31.629  1.00  0.00     0.022 A 
ENDBRANCH  26  29
ENDBRANCH  18  26
ENDBRANCH  15  17
ENDBRANCH  12  15
ENDBRANCH  10  11
BRANCH  10  36
ATOM     36  C   UNL A   1      46.904  19.054  38.102  1.00  0.00     0.072 C 
BRANCH  36  37
ATOM     37  C   UNL A   1      46.091  18.557  39.273  1.00  0.00    -0.020 A 
ATOM     38  C   UNL A   1      46.237  18.942  40.600  1.00  0.00     0.087 A 
ATOM     39  C   UNL A   1      45.028  17.589  39.268  1.00  0.00     0.003 A 
ATOM     40  N   UNL A   1      45.455  18.128  41.384  1.00  0.00    -0.361 N 
ATOM     41  C   UNL A   1      44.774  17.233  40.597  1.00  0.00     0.046 A 
ATOM     42  C   UNL A   1      44.335  16.905  38.260  1.00  0.00     0.010 A 
ATOM     43  H   UNL A   1      45.393  18.179  42.365  1.00  0.00     0.166 HD
ATOM     44  C   UNL A   1      44.000  16.124  40.964  1.00  0.00     0.026 A 
ATOM     45  C   UNL A   1      43.471  15.871  38.626  1.00  0.00     0.001 A 
ATOM     46  C   UNL A   1      43.366  15.428  39.941  1.00  0.00     0.002 A 
ENDBRANCH  36  37
ENDBRANCH  10  36
ENDBRANCH   7  10
ENDBRANCH   5   6
ENDBRANCH   3   5
ENDBRANCH   2   3
ENDBRANCH   1   2
BRANCH   1  47
ATOM     47  C   UNL A   1      41.477  25.575  35.616  1.00  0.00     0.202 C 
BRANCH  47  48
ATOM     48  O   UNL A   1      42.635  26.399  35.466  1.00  0.00    -0.374 OA
BRANCH  48  49
ATOM     49  C   UNL A   1      42.711  27.198  34.301  1.00  0.00     0.202 C 
BRANCH  49  50
ATOM     50  C   UNL A   1      41.353  27.668  33.780  1.00  0.00     0.261 C 
BRANCH  50  51
ATOM     51  O   UNL A   1      41.323  29.098  33.593  1.00  0.00    -0.460 OA
BRANCH  51  52
ATOM     52  C   UNL A   1      40.689  29.544  32.467  1.00  0.00     0.338 C 
ATOM     53  O   UNL A   1      39.549  29.967  32.456  1.00  0.00    -0.246 OA
BRANCH  52  54
ATOM     54  C   UNL A   1      41.622  29.549  31.306  1.00  0.00     0.060 A 
ATOM     55  C   UNL A   1      41.210  29.127  30.030  1.00  0.00     0.016 A 
ATOM     56  C   UNL A   1      42.962  29.846  31.538  1.00  0.00     0.016 A 
ATOM     57  C   UNL A   1      42.162  28.885  29.026  1.00  0.00     0.010 A 
ATOM     58  C   UNL A   1      43.896  29.499  30.592  1.00  0.00     0.010 A 
ATOM     59  C   UNL A   1      43.512  29.001  29.337  1.00  0.00    -0.014 A 
BRANCH  59  60
ATOM     60  C   UNL A   1      44.655  28.666  28.481  1.00  0.00     0.031 A 
ATOM     61  C   UNL A   1      44.887  27.213  28.279  1.00  0.00     0.074 A 
ATOM     62  C   UNL A   1      45.227  29.584  27.666  1.00  0.00     0.049 A 
ATOM     63  N   UNL A   1      45.547  26.713  27.305  1.00  0.00    -0.248 NA
ATOM     64  C   UNL A   1      44.306  26.179  29.141  1.00  0.00     0.031 C 
ATOM     65  C   UNL A   1      46.015  29.348  26.462  1.00  0.00     0.029 A 
ATOM     66  N   UNL A   1      45.242  30.977  27.756  1.00  0.00    -0.354 N 
ATOM     67  C   UNL A   1      45.402  25.352  27.311  1.00  0.00     0.074 A 
ATOM     68  C   UNL A   1      44.569  25.063  28.449  1.00  0.00     0.031 C 
ATOM     69  C   UNL A   1      46.616  30.481  26.060  1.00  0.00     0.029 A 
ATOM     70  C   UNL A   1      46.413  31.432  27.133  1.00  0.00     0.049 A 
ATOM     71  H   UNL A   1      44.553  31.540  28.179  1.00  0.00     0.167 HD
ATOM     72  C   UNL A   1      46.005  24.661  26.307  1.00  0.00     0.031 A 
ATOM     73  C   UNL A   1      47.412  31.970  27.885  1.00  0.00     0.031 A 
ATOM     74  C   UNL A   1      47.058  25.497  25.701  1.00  0.00     0.049 A 
ATOM     75  C   UNL A   1      48.574  30.997  27.799  1.00  0.00     0.074 A 
ATOM     76  C   UNL A   1      47.268  26.073  24.464  1.00  0.00     0.029 A 
ATOM     77  N   UNL A   1      47.992  26.096  26.566  1.00  0.00    -0.354 N 
ATOM     78  N   UNL A   1      48.458  29.684  27.824  1.00  0.00    -0.248 NA
ATOM     79  C   UNL A   1      49.871  31.448  27.296  1.00  0.00     0.031 C 
ATOM     80  C   UNL A   1      48.221  27.129  24.639  1.00  0.00     0.029 A 
ATOM     81  C   UNL A   1      48.616  27.177  25.973  1.00  0.00     0.049 A 
ATOM     82  H   UNL A   1      48.177  25.784  27.481  1.00  0.00     0.167 HD
ATOM     83  C   UNL A   1      49.549  29.143  27.180  1.00  0.00     0.074 A 
ATOM     84  C   UNL A   1      50.424  30.285  26.920  1.00  0.00     0.031 C 
ATOM     85  C   UNL A   1      49.699  27.888  26.650  1.00  0.00     0.031 A 
BRANCH  72  86
ATOM     86  C   UNL A   1      45.566  23.295  25.823  1.00  0.00    -0.014 A 
ATOM     87  C   UNL A   1      44.368  22.734  26.313  1.00  0.00     0.010 A 
ATOM     88  C   UNL A   1      46.332  22.458  24.981  1.00  0.00     0.010 A 
ATOM     89  C   UNL A   1      43.963  21.426  25.986  1.00  0.00     0.020 A 
ATOM     90  C   UNL A   1      45.930  21.158  24.628  1.00  0.00     0.020 A 
ATOM     91  C   UNL A   1      44.748  20.643  25.141  1.00  0.00     0.054 A 
BRANCH  91  92
ATOM     92  S   UNL A   1      44.213  18.958  24.733  1.00  0.00     0.124 S 
ATOM     93  O   UNL A   1      44.935  18.154  25.716  1.00  0.00    -0.237 OA
ATOM     94  O   UNL A   1      42.767  19.032  24.918  1.00  0.00    -0.237 OA
ATOM     95  O   UNL A   1      44.650  18.780  23.349  1.00  0.00    -0.744 OA
ENDBRANCH  91  92
ENDBRANCH  72  86
BRANCH  73  96
ATOM     96  C   UNL A   1      46.870  32.843  28.984  1.00  0.00    -0.014 A 
ATOM     97  C   UNL A   1      46.634  34.199  28.634  1.00  0.00     0.010 A 
ATOM     98  C   UNL A   1      46.123  32.320  30.052  1.00  0.00     0.010 A 
ATOM     99  C   UNL A   1      45.562  34.934  29.171  1.00  0.00     0.020 A 
ATOM    100  C   UNL A   1      45.052  33.060  30.608  1.00  0.00     0.020 A 
ATOM    101  C   UNL A   1      44.739  34.336  30.120  1.00  0.00     0.054 A 
BRANCH 101 102
ATOM    102  S   UNL A   1      43.122  35.112  30.507  1.00  0.00     0.124 S 
ATOM    103  O   UNL A   1      42.885  34.682  31.880  1.00  0.00    -0.237 OA
ATOM    104  O   UNL A   1      43.378  36.543  30.338  1.00  0.00    -0.237 OA
ATOM    105  O   UNL A   1      42.232  34.547  29.498  1.00  0.00    -0.744 OA
ENDBRANCH 101 102
ENDBRANCH  73  96
BRANCH  85 106
ATOM    106  C   UNL A   1      51.049  27.214  26.690  1.00  0.00    -0.014 A 
ATOM    107  C   UNL A   1      51.836  27.030  25.541  1.00  0.00     0.010 A 
ATOM    108  C   UNL A   1      51.648  26.926  27.939  1.00  0.00     0.010 A 
ATOM    109  C   UNL A   1      53.128  26.522  25.624  1.00  0.00     0.020 A 
ATOM    110  C   UNL A   1      52.961  26.472  28.037  1.00  0.00     0.020 A 
ATOM    111  C   UNL A   1      53.684  26.249  26.872  1.00  0.00     0.054 A 
BRANCH 111 112
ATOM    112  S   UNL A   1      55.384  25.658  26.946  1.00  0.00     0.124 S 
ATOM    113  O   UNL A   1      55.449  25.116  28.300  1.00  0.00    -0.237 OA
ATOM    114  O   UNL A   1      55.426  24.667  25.871  1.00  0.00    -0.237 OA
ATOM    115  O   UNL A   1      56.179  26.859  26.709  1.00  0.00    -0.744 OA
ENDBRANCH 111 112
ENDBRANCH  85 106
ENDBRANCH  59  60
ENDBRANCH  52  54
ENDBRANCH  51  52
ENDBRANCH  50  51
ENDBRANCH  49  50
ENDBRANCH  48  49
ENDBRANCH  47  48
ENDBRANCH   1  47
TORSDOF 26
ENDMDL
