MODEL 1
REMARK VINA RESULT:     -10.7      0.000      0.000
REMARK SMILES CC(=O)Oc1ccc2oc(N)c([C@@H]3[NH2+][C@@H](C(=O)OCCOCCOC(=O)c4ccc(-c5c6nc(c(-c7ccc(S(=O)(=O)[O-])cc7)c7ccc([nH]7)c(-c7ccc(S(=O)(=O)[O-])cc7)c7nc(c(-c8ccc(S(=O)(=O)[O-])cc8)c8ccc5[nH]8)C=C7)C=C6)cc4)C(C)(C)S3)c(=O)c2c1
REMARK SMILES IDX 21 1 20 2 19 3 18 4 16 5 17 6 15 7 13 8 14 9 90 10 87 13
REMARK SMILES IDX 88 14 89 15 12 16 5 17 6 18 94 19 7 20 93 21 8 22 91 23 9 24
REMARK SMILES IDX 92 25 10 26 4 27 2 28 1 29 3 30 11 31 22 34 23 35 24 36
REMARK SMILES IDX 25 37 26 38 27 39 28 40 86 41 29 42 85 43 30 44 31 45 32 46
REMARK SMILES IDX 79 47 33 48 84 49 78 50 80 51 34 52 83 53 77 54 76 55 35 57
REMARK SMILES IDX 65 58 46 59 64 60 47 61 50 62 63 63 81 64 48 65 49 66 62 68
REMARK SMILES IDX 82 69 51 70 36 71 37 72 45 73 38 74 44 75 39 76 40 77 41 78
REMARK SMILES IDX 42 79 43 80 66 81 67 82 75 83 68 84 74 85 69 86 70 87 71 88
REMARK SMILES IDX 72 89 73 90 52 91 53 92 61 93 54 94 60 95 55 96 56 97 57 98
REMARK SMILES IDX 58 99 59 100
REMARK H PARENT 14 11 14 12 11 32 11 33 80 56 50 67
REMARK Flexibility Score: inf
ROOT
ATOM      1  O   UNL A   1      34.581  31.775  27.373  1.00  0.00    -0.374 OA
ENDROOT
BRANCH   1   2
ATOM      2  C   UNL A   1      33.917  30.519  27.231  1.00  0.00     0.202 C 
BRANCH   2   3
ATOM      3  C   UNL A   1      32.396  30.535  27.035  1.00  0.00     0.261 C 
BRANCH   3   4
ATOM      4  O   UNL A   1      31.906  29.294  26.488  1.00  0.00    -0.459 OA
BRANCH   4   5
ATOM      5  C   UNL A   1      31.366  29.399  25.248  1.00  0.00     0.366 C 
ATOM      6  O   UNL A   1      30.872  30.431  24.798  1.00  0.00    -0.245 OA
BRANCH   5   7
ATOM      7  C   UNL A   1      31.423  28.107  24.428  1.00  0.00     0.310 C 
ATOM      8  C   UNL A   1      32.826  26.472  23.450  1.00  0.00     0.284 C 
ATOM      9  N   UNL A   1      32.833  27.797  24.085  1.00  0.00    -0.318 N 
ATOM     10  S   UNL A   1      31.327  26.386  22.426  1.00  0.00    -0.081 SA
ATOM     11  H   UNL A   1      33.198  28.496  23.437  1.00  0.00     0.348 HD
ATOM     12  H   UNL A   1      33.425  27.806  24.915  1.00  0.00     0.348 HD
ATOM     13  C   UNL A   1      30.539  27.889  23.171  1.00  0.00     0.079 C 
ATOM     14  C   UNL A   1      30.598  28.999  22.115  1.00  0.00     0.030 C 
ATOM     15  C   UNL A   1      29.079  27.496  23.464  1.00  0.00     0.030 C 
BRANCH   8  16
ATOM     16  C   UNL A   1      32.972  25.343  24.454  1.00  0.00     0.128 A 
ATOM     17  C   UNL A   1      33.879  20.548  25.040  1.00  0.00     0.131 A 
ATOM     18  C   UNL A   1      33.658  20.694  26.411  1.00  0.00     0.051 A 
ATOM     19  C   UNL A   1      33.887  21.647  24.183  1.00  0.00     0.063 A 
ATOM     20  C   UNL A   1      33.379  21.957  26.924  1.00  0.00     0.052 A 
ATOM     21  C   UNL A   1      33.600  22.905  24.712  1.00  0.00     0.069 A 
ATOM     22  C   UNL A   1      33.332  23.052  26.064  1.00  0.00     0.140 A 
ATOM     23  C   UNL A   1      33.544  24.097  23.859  1.00  0.00     0.205 A 
ATOM     24  O   UNL A   1      32.995  24.249  26.611  1.00  0.00    -0.440 OA
ATOM     25  O   UNL A   1      33.903  24.020  22.690  1.00  0.00    -0.288 OA
ATOM     26  C   UNL A   1      32.670  25.302  25.776  1.00  0.00     0.205 A 
BRANCH  17  27
ATOM     27  O   UNL A   1      34.175  19.300  24.486  1.00  0.00    -0.427 OA
BRANCH  27  28
ATOM     28  C   UNL A   1      33.084  18.455  24.311  1.00  0.00     0.308 C 
ATOM     29  C   UNL A   1      33.313  17.632  23.081  1.00  0.00     0.139 C 
ATOM     30  O   UNL A   1      32.090  18.372  25.021  1.00  0.00    -0.252 OA
ENDBRANCH  27  28
ENDBRANCH  17  27
BRANCH  26  31
ATOM     31  N   UNL A   1      32.021  26.269  26.483  1.00  0.00    -0.369 N 
ATOM     32  H   UNL A   1      31.343  26.017  27.152  1.00  0.00     0.159 HD
ATOM     33  H   UNL A   1      32.229  27.218  26.325  1.00  0.00     0.159 HD
ENDBRANCH  26  31
ENDBRANCH   8  16
ENDBRANCH   5   7
ENDBRANCH   4   5
ENDBRANCH   3   4
ENDBRANCH   2   3
ENDBRANCH   1   2
BRANCH   1  34
ATOM     34  C   UNL A   1      35.692  31.818  28.263  1.00  0.00     0.202 C 
BRANCH  34  35
ATOM     35  C   UNL A   1      35.909  30.611  29.184  1.00  0.00     0.261 C 
BRANCH  35  36
ATOM     36  O   UNL A   1      37.126  30.749  29.938  1.00  0.00    -0.460 OA
BRANCH  36  37
ATOM     37  C   UNL A   1      37.600  29.597  30.473  1.00  0.00     0.338 C 
ATOM     38  O   UNL A   1      36.986  28.817  31.184  1.00  0.00    -0.246 OA
BRANCH  37  39
ATOM     39  C   UNL A   1      38.910  29.279  29.864  1.00  0.00     0.060 A 
ATOM     40  C   UNL A   1      39.193  29.544  28.523  1.00  0.00     0.016 A 
ATOM     41  C   UNL A   1      39.878  28.687  30.688  1.00  0.00     0.016 A 
ATOM     42  C   UNL A   1      40.467  29.258  28.023  1.00  0.00     0.010 A 
ATOM     43  C   UNL A   1      41.147  28.402  30.188  1.00  0.00     0.010 A 
ATOM     44  C   UNL A   1      41.462  28.713  28.859  1.00  0.00    -0.014 A 
BRANCH  44  45
ATOM     45  C   UNL A   1      42.873  28.633  28.402  1.00  0.00     0.031 A 
ATOM     46  C   UNL A   1      43.811  29.799  28.520  1.00  0.00     0.074 A 
ATOM     47  C   UNL A   1      43.283  27.490  27.815  1.00  0.00     0.049 A 
ATOM     48  N   UNL A   1      45.067  29.870  28.166  1.00  0.00    -0.248 NA
ATOM     49  C   UNL A   1      43.280  31.041  29.103  1.00  0.00     0.031 C 
ATOM     50  C   UNL A   1      42.439  26.310  27.607  1.00  0.00     0.029 A 
ATOM     51  N   UNL A   1      44.497  27.126  27.287  1.00  0.00    -0.354 N 
ATOM     52  C   UNL A   1      45.486  31.153  28.494  1.00  0.00     0.074 A 
ATOM     53  C   UNL A   1      44.337  31.844  29.038  1.00  0.00     0.031 C 
ATOM     54  C   UNL A   1      43.166  25.348  27.020  1.00  0.00     0.029 A 
ATOM     55  C   UNL A   1      44.512  25.853  26.765  1.00  0.00     0.049 A 
ATOM     56  H   UNL A   1      45.282  27.720  27.282  1.00  0.00     0.167 HD
ATOM     57  C   UNL A   1      46.722  31.689  28.368  1.00  0.00     0.031 A 
ATOM     58  C   UNL A   1      45.490  25.164  26.143  1.00  0.00     0.031 A 
ATOM     59  C   UNL A   1      47.858  30.985  27.822  1.00  0.00     0.049 A 
ATOM     60  C   UNL A   1      46.846  25.796  25.993  1.00  0.00     0.074 A 
ATOM     61  C   UNL A   1      49.162  31.436  27.705  1.00  0.00     0.029 A 
ATOM     62  N   UNL A   1      47.836  29.699  27.303  1.00  0.00    -0.354 N 
ATOM     63  N   UNL A   1      47.245  26.979  26.396  1.00  0.00    -0.248 NA
ATOM     64  C   UNL A   1      47.890  25.003  25.329  1.00  0.00     0.031 C 
ATOM     65  C   UNL A   1      49.906  30.461  27.041  1.00  0.00     0.029 A 
ATOM     66  C   UNL A   1      49.093  29.359  26.830  1.00  0.00     0.049 A 
ATOM     67  H   UNL A   1      47.043  29.116  27.274  1.00  0.00     0.167 HD
ATOM     68  C   UNL A   1      48.590  27.063  26.052  1.00  0.00     0.074 A 
ATOM     69  C   UNL A   1      48.944  25.802  25.434  1.00  0.00     0.031 C 
ATOM     70  C   UNL A   1      49.447  28.097  26.226  1.00  0.00     0.031 A 
BRANCH  57  71
ATOM     71  C   UNL A   1      46.968  33.095  28.855  1.00  0.00    -0.014 A 
ATOM     72  C   UNL A   1      46.887  34.173  27.953  1.00  0.00     0.010 A 
ATOM     73  C   UNL A   1      47.494  33.318  30.141  1.00  0.00     0.010 A 
ATOM     74  C   UNL A   1      47.393  35.429  28.300  1.00  0.00     0.020 A 
ATOM     75  C   UNL A   1      47.973  34.581  30.502  1.00  0.00     0.020 A 
ATOM     76  C   UNL A   1      47.953  35.618  29.566  1.00  0.00     0.054 A 
BRANCH  76  77
ATOM     77  S   UNL A   1      48.711  37.222  29.954  1.00  0.00     0.124 S 
ATOM     78  O   UNL A   1      50.136  36.922  29.850  1.00  0.00    -0.237 OA
ATOM     79  O   UNL A   1      48.168  38.087  28.909  1.00  0.00    -0.237 OA
ATOM     80  O   UNL A   1      48.230  37.509  31.304  1.00  0.00    -0.744 OA
ENDBRANCH  76  77
ENDBRANCH  57  71
BRANCH  58  81
ATOM     81  C   UNL A   1      45.209  23.788  25.640  1.00  0.00    -0.014 A 
ATOM     82  C   UNL A   1      45.402  22.674  26.481  1.00  0.00     0.010 A 
ATOM     83  C   UNL A   1      44.814  23.572  24.309  1.00  0.00     0.010 A 
ATOM     84  C   UNL A   1      45.258  21.374  25.989  1.00  0.00     0.020 A 
ATOM     85  C   UNL A   1      44.629  22.272  23.822  1.00  0.00     0.020 A 
ATOM     86  C   UNL A   1      44.881  21.183  24.657  1.00  0.00     0.054 A 
BRANCH  86  87
ATOM     87  S   UNL A   1      44.733  19.486  24.034  1.00  0.00     0.124 S 
ATOM     88  O   UNL A   1      46.027  18.918  24.403  1.00  0.00    -0.237 OA
ATOM     89  O   UNL A   1      43.585  18.973  24.777  1.00  0.00    -0.237 OA
ATOM     90  O   UNL A   1      44.514  19.666  22.601  1.00  0.00    -0.744 OA
ENDBRANCH  86  87
ENDBRANCH  58  81
BRANCH  70  91
ATOM     91  C   UNL A   1      50.873  27.941  25.755  1.00  0.00    -0.014 A 
ATOM     92  C   UNL A   1      51.198  28.214  24.412  1.00  0.00     0.010 A 
ATOM     93  C   UNL A   1      51.851  27.377  26.592  1.00  0.00     0.010 A 
ATOM     94  C   UNL A   1      52.455  27.877  23.902  1.00  0.00     0.020 A 
ATOM     95  C   UNL A   1      53.123  27.074  26.096  1.00  0.00     0.020 A 
ATOM     96  C   UNL A   1      53.405  27.297  24.745  1.00  0.00     0.054 A 
BRANCH  96  97
ATOM     97  S   UNL A   1      55.008  26.810  24.049  1.00  0.00     0.124 S 
ATOM     98  O   UNL A   1      54.714  26.736  22.621  1.00  0.00    -0.237 OA
ATOM     99  O   UNL A   1      55.880  27.909  24.457  1.00  0.00    -0.237 OA
ATOM    100  O   UNL A   1      55.289  25.530  24.696  1.00  0.00    -0.744 OA
ENDBRANCH  96  97
ENDBRANCH  70  91
ENDBRANCH  44  45
ENDBRANCH  37  39
ENDBRANCH  36  37
ENDBRANCH  35  36
ENDBRANCH  34  35
ENDBRANCH   1  34
TORSDOF 21
ENDMDL
MODEL 2
REMARK VINA RESULT:     -10.2      1.592      2.090
REMARK SMILES CC(=O)Oc1ccc2oc(N)c([C@@H]3[NH2+][C@@H](C(=O)OCCOCCOC(=O)c4ccc(-c5c6nc(c(-c7ccc(S(=O)(=O)[O-])cc7)c7ccc([nH]7)c(-c7ccc(S(=O)(=O)[O-])cc7)c7nc(c(-c8ccc(S(=O)(=O)[O-])cc8)c8ccc5[nH]8)C=C7)C=C6)cc4)C(C)(C)S3)c(=O)c2c1
REMARK SMILES IDX 21 1 20 2 19 3 18 4 16 5 17 6 15 7 13 8 14 9 90 10 87 13
REMARK SMILES IDX 88 14 89 15 12 16 5 17 6 18 94 19 7 20 93 21 8 22 91 23 9 24
REMARK SMILES IDX 92 25 10 26 4 27 2 28 1 29 3 30 11 31 22 34 23 35 24 36
REMARK SMILES IDX 25 37 26 38 27 39 28 40 86 41 29 42 85 43 30 44 31 45 32 46
REMARK SMILES IDX 79 47 33 48 84 49 78 50 80 51 34 52 83 53 77 54 76 55 35 57
REMARK SMILES IDX 65 58 46 59 64 60 47 61 50 62 63 63 81 64 48 65 49 66 62 68
REMARK SMILES IDX 82 69 51 70 36 71 37 72 45 73 38 74 44 75 39 76 40 77 41 78
REMARK SMILES IDX 42 79 43 80 66 81 67 82 75 83 68 84 74 85 69 86 70 87 71 88
REMARK SMILES IDX 72 89 73 90 52 91 53 92 61 93 54 94 60 95 55 96 56 97 57 98
REMARK SMILES IDX 58 99 59 100
REMARK H PARENT 14 11 14 12 11 32 11 33 80 56 50 67
REMARK Flexibility Score: inf
ROOT
ATOM      1  O   UNL A   1      34.061  31.510  27.573  1.00  0.00    -0.374 OA
ENDROOT
BRANCH   1   2
ATOM      2  C   UNL A   1      33.591  30.226  27.163  1.00  0.00     0.202 C 
BRANCH   2   3
ATOM      3  C   UNL A   1      32.078  30.040  26.998  1.00  0.00     0.261 C 
BRANCH   3   4
ATOM      4  O   UNL A   1      31.755  29.141  25.918  1.00  0.00    -0.459 OA
BRANCH   4   5
ATOM      5  C   UNL A   1      31.594  27.847  26.292  1.00  0.00     0.366 C 
ATOM      6  O   UNL A   1      31.457  27.480  27.456  1.00  0.00    -0.245 OA
BRANCH   5   7
ATOM      7  C   UNL A   1      31.591  26.854  25.126  1.00  0.00     0.310 C 
ATOM      8  C   UNL A   1      32.875  25.843  23.416  1.00  0.00     0.284 C 
ATOM      9  N   UNL A   1      32.886  26.928  24.406  1.00  0.00    -0.318 N 
ATOM     10  S   UNL A   1      31.181  25.738  22.766  1.00  0.00    -0.081 SA
ATOM     11  H   UNL A   1      32.977  27.831  23.939  1.00  0.00     0.348 HD
ATOM     12  H   UNL A   1      33.671  26.834  25.049  1.00  0.00     0.348 HD
ATOM     13  C   UNL A   1      30.439  26.807  24.086  1.00  0.00     0.079 C 
ATOM     14  C   UNL A   1      30.077  28.145  23.432  1.00  0.00     0.030 C 
ATOM     15  C   UNL A   1      29.169  26.072  24.556  1.00  0.00     0.030 C 
BRANCH   8  16
ATOM     16  C   UNL A   1      33.422  24.540  23.972  1.00  0.00     0.128 A 
ATOM     17  C   UNL A   1      32.934  19.650  24.026  1.00  0.00     0.131 A 
ATOM     18  C   UNL A   1      33.966  19.577  24.964  1.00  0.00     0.051 A 
ATOM     19  C   UNL A   1      32.576  20.858  23.430  1.00  0.00     0.063 A 
ATOM     20  C   UNL A   1      34.610  20.746  25.357  1.00  0.00     0.052 A 
ATOM     21  C   UNL A   1      33.228  22.020  23.840  1.00  0.00     0.069 A 
ATOM     22  C   UNL A   1      34.220  21.964  24.805  1.00  0.00     0.140 A 
ATOM     23  C   UNL A   1      32.868  23.331  23.289  1.00  0.00     0.205 A 
ATOM     24  O   UNL A   1      34.842  23.077  25.272  1.00  0.00    -0.440 OA
ATOM     25  O   UNL A   1      32.089  23.396  22.344  1.00  0.00    -0.288 OA
ATOM     26  C   UNL A   1      34.317  24.319  24.967  1.00  0.00     0.205 A 
BRANCH  17  27
ATOM     27  O   UNL A   1      32.270  18.498  23.594  1.00  0.00    -0.427 OA
BRANCH  27  28
ATOM     28  C   UNL A   1      33.082  17.386  23.394  1.00  0.00     0.308 C 
ATOM     29  C   UNL A   1      32.933  16.473  24.573  1.00  0.00     0.139 C 
ATOM     30  O   UNL A   1      33.805  17.160  22.434  1.00  0.00    -0.252 OA
ENDBRANCH  27  28
ENDBRANCH  17  27
BRANCH  26  31
ATOM     31  N   UNL A   1      34.839  25.260  25.802  1.00  0.00    -0.369 N 
ATOM     32  H   UNL A   1      34.297  25.612  26.546  1.00  0.00     0.159 HD
ATOM     33  H   UNL A   1      35.756  25.589  25.662  1.00  0.00     0.159 HD
ENDBRANCH  26  31
ENDBRANCH   8  16
ENDBRANCH   5   7
ENDBRANCH   4   5
ENDBRANCH   3   4
ENDBRANCH   2   3
ENDBRANCH   1   2
BRANCH   1  34
ATOM     34  C   UNL A   1      35.423  31.596  27.982  1.00  0.00     0.202 C 
BRANCH  34  35
ATOM     35  C   UNL A   1      35.755  31.203  29.426  1.00  0.00     0.261 C 
BRANCH  35  36
ATOM     36  O   UNL A   1      36.644  32.158  30.030  1.00  0.00    -0.460 OA
BRANCH  36  37
ATOM     37  C   UNL A   1      37.411  31.669  31.036  1.00  0.00     0.338 C 
ATOM     38  O   UNL A   1      37.105  31.593  32.216  1.00  0.00    -0.246 OA
BRANCH  37  39
ATOM     39  C   UNL A   1      38.598  30.997  30.462  1.00  0.00     0.060 A 
ATOM     40  C   UNL A   1      38.792  30.875  29.085  1.00  0.00     0.016 A 
ATOM     41  C   UNL A   1      39.538  30.470  31.359  1.00  0.00     0.016 A 
ATOM     42  C   UNL A   1      39.958  30.266  28.610  1.00  0.00     0.010 A 
ATOM     43  C   UNL A   1      40.699  29.863  30.884  1.00  0.00     0.010 A 
ATOM     44  C   UNL A   1      40.933  29.783  29.505  1.00  0.00    -0.014 A 
BRANCH  44  45
ATOM     45  C   UNL A   1      42.268  29.359  29.012  1.00  0.00     0.031 A 
ATOM     46  C   UNL A   1      43.405  30.329  28.869  1.00  0.00     0.074 A 
ATOM     47  C   UNL A   1      42.422  28.074  28.633  1.00  0.00     0.049 A 
ATOM     48  N   UNL A   1      44.623  30.098  28.455  1.00  0.00    -0.248 NA
ATOM     49  C   UNL A   1      43.149  31.732  29.231  1.00  0.00     0.031 C 
ATOM     50  C   UNL A   1      41.369  27.056  28.685  1.00  0.00     0.029 A 
ATOM     51  N   UNL A   1      43.508  27.400  28.130  1.00  0.00    -0.354 N 
ATOM     52  C   UNL A   1      45.287  31.316  28.519  1.00  0.00     0.074 A 
ATOM     53  C   UNL A   1      44.324  32.297  28.971  1.00  0.00     0.031 C 
ATOM     54  C   UNL A   1      41.866  25.887  28.258  1.00  0.00     0.029 A 
ATOM     55  C   UNL A   1      43.257  26.075  27.857  1.00  0.00     0.049 A 
ATOM     56  H   UNL A   1      44.384  27.825  27.981  1.00  0.00     0.167 HD
ATOM     57  C   UNL A   1      46.585  31.578  28.242  1.00  0.00     0.031 A 
ATOM     58  C   UNL A   1      44.046  25.115  27.333  1.00  0.00     0.031 A 
ATOM     59  C   UNL A   1      47.533  30.587  27.790  1.00  0.00     0.049 A 
ATOM     60  C   UNL A   1      45.478  25.444  27.011  1.00  0.00     0.074 A 
ATOM     61  C   UNL A   1      48.883  30.757  27.535  1.00  0.00     0.029 A 
ATOM     62  N   UNL A   1      47.243  29.258  27.522  1.00  0.00    -0.354 N 
ATOM     63  N   UNL A   1      46.111  26.582  27.167  1.00  0.00    -0.248 NA
ATOM     64  C   UNL A   1      46.310  24.363  26.463  1.00  0.00     0.031 C 
ATOM     65  C   UNL A   1      49.389  29.557  27.035  1.00  0.00     0.029 A 
ATOM     66  C   UNL A   1      48.380  28.609  27.069  1.00  0.00     0.049 A 
ATOM     67  H   UNL A   1      46.359  28.839  27.637  1.00  0.00     0.167 HD
ATOM     68  C   UNL A   1      47.418  26.349  26.756  1.00  0.00     0.074 A 
ATOM     69  C   UNL A   1      47.494  24.955  26.371  1.00  0.00     0.031 C 
ATOM     70  C   UNL A   1      48.457  27.216  26.697  1.00  0.00     0.031 A 
BRANCH  57  71
ATOM     71  C   UNL A   1      47.114  32.976  28.446  1.00  0.00    -0.014 A 
ATOM     72  C   UNL A   1      47.153  33.875  27.363  1.00  0.00     0.010 A 
ATOM     73  C   UNL A   1      47.771  33.318  29.642  1.00  0.00     0.010 A 
ATOM     74  C   UNL A   1      47.899  35.055  27.446  1.00  0.00     0.020 A 
ATOM     75  C   UNL A   1      48.493  34.512  29.739  1.00  0.00     0.020 A 
ATOM     76  C   UNL A   1      48.582  35.353  28.627  1.00  0.00     0.054 A 
BRANCH  76  77
ATOM     77  S   UNL A   1      49.640  36.828  28.674  1.00  0.00     0.124 S 
ATOM     78  O   UNL A   1      48.864  37.788  27.894  1.00  0.00    -0.237 OA
ATOM     79  O   UNL A   1      49.733  37.104  30.105  1.00  0.00    -0.237 OA
ATOM     80  O   UNL A   1      50.883  36.378  28.051  1.00  0.00    -0.744 OA
ENDBRANCH  76  77
ENDBRANCH  57  71
BRANCH  58  81
ATOM     81  C   UNL A   1      43.487  23.750  27.110  1.00  0.00    -0.014 A 
ATOM     82  C   UNL A   1      43.048  23.365  25.828  1.00  0.00     0.010 A 
ATOM     83  C   UNL A   1      43.327  22.853  28.179  1.00  0.00     0.010 A 
ATOM     84  C   UNL A   1      42.414  22.137  25.629  1.00  0.00     0.020 A 
ATOM     85  C   UNL A   1      42.728  21.603  27.977  1.00  0.00     0.020 A 
ATOM     86  C   UNL A   1      42.250  21.267  26.709  1.00  0.00     0.054 A 
BRANCH  86  87
ATOM     87  S   UNL A   1      41.394  19.691  26.432  1.00  0.00     0.124 S 
ATOM     88  O   UNL A   1      42.153  19.133  25.315  1.00  0.00    -0.237 OA
ATOM     89  O   UNL A   1      41.563  19.008  27.712  1.00  0.00    -0.237 OA
ATOM     90  O   UNL A   1      40.026  20.097  26.119  1.00  0.00    -0.744 OA
ENDBRANCH  86  87
ENDBRANCH  58  81
BRANCH  70  91
ATOM     91  C   UNL A   1      49.792  26.713  26.204  1.00  0.00    -0.014 A 
ATOM     92  C   UNL A   1      50.735  26.219  27.125  1.00  0.00     0.010 A 
ATOM     93  C   UNL A   1      50.171  26.875  24.860  1.00  0.00     0.010 A 
ATOM     94  C   UNL A   1      52.046  25.948  26.725  1.00  0.00     0.020 A 
ATOM     95  C   UNL A   1      51.471  26.568  24.447  1.00  0.00     0.020 A 
ATOM     96  C   UNL A   1      52.409  26.137  25.390  1.00  0.00     0.054 A 
BRANCH  96  97
ATOM     97  S   UNL A   1      54.131  25.838  24.903  1.00  0.00     0.124 S 
ATOM     98  O   UNL A   1      54.144  26.300  23.518  1.00  0.00    -0.237 OA
ATOM     99  O   UNL A   1      54.878  26.662  25.850  1.00  0.00    -0.237 OA
ATOM    100  O   UNL A   1      54.293  24.397  25.081  1.00  0.00    -0.744 OA
ENDBRANCH  96  97
ENDBRANCH  70  91
ENDBRANCH  44  45
ENDBRANCH  37  39
ENDBRANCH  36  37
ENDBRANCH  35  36
ENDBRANCH  34  35
ENDBRANCH   1  34
TORSDOF 21
ENDMDL
MODEL 3
REMARK VINA RESULT:      -9.8      6.376     14.375
REMARK SMILES CC(=O)Oc1ccc2oc(N)c([C@@H]3[NH2+][C@@H](C(=O)OCCOCCOC(=O)c4ccc(-c5c6nc(c(-c7ccc(S(=O)(=O)[O-])cc7)c7ccc([nH]7)c(-c7ccc(S(=O)(=O)[O-])cc7)c7nc(c(-c8ccc(S(=O)(=O)[O-])cc8)c8ccc5[nH]8)C=C7)C=C6)cc4)C(C)(C)S3)c(=O)c2c1
REMARK SMILES IDX 21 1 20 2 19 3 18 4 16 5 17 6 15 7 13 8 14 9 90 10 87 13
REMARK SMILES IDX 88 14 89 15 12 16 5 17 6 18 94 19 7 20 93 21 8 22 91 23 9 24
REMARK SMILES IDX 92 25 10 26 4 27 2 28 1 29 3 30 11 31 22 34 23 35 24 36
REMARK SMILES IDX 25 37 26 38 27 39 28 40 86 41 29 42 85 43 30 44 31 45 32 46
REMARK SMILES IDX 79 47 33 48 84 49 78 50 80 51 34 52 83 53 77 54 76 55 35 57
REMARK SMILES IDX 65 58 46 59 64 60 47 61 50 62 63 63 81 64 48 65 49 66 62 68
REMARK SMILES IDX 82 69 51 70 36 71 37 72 45 73 38 74 44 75 39 76 40 77 41 78
REMARK SMILES IDX 42 79 43 80 66 81 67 82 75 83 68 84 74 85 69 86 70 87 71 88
REMARK SMILES IDX 72 89 73 90 52 91 53 92 61 93 54 94 60 95 55 96 56 97 57 98
REMARK SMILES IDX 58 99 59 100
REMARK H PARENT 14 11 14 12 11 32 11 33 80 56 50 67
REMARK Flexibility Score: inf
ROOT
ATOM      1  O   UNL A   1      42.529  21.949  26.244  1.00  0.00    -0.374 OA
ENDROOT
BRANCH   1   2
ATOM      2  C   UNL A   1      43.313  22.160  25.069  1.00  0.00     0.202 C 
BRANCH   2   3
ATOM      3  C   UNL A   1      43.980  23.530  24.894  1.00  0.00     0.261 C 
BRANCH   3   4
ATOM      4  O   UNL A   1      44.305  24.142  26.159  1.00  0.00    -0.459 OA
BRANCH   4   5
ATOM      5  C   UNL A   1      45.626  24.134  26.464  1.00  0.00     0.366 C 
ATOM      6  O   UNL A   1      46.275  23.115  26.689  1.00  0.00    -0.245 OA
BRANCH   5   7
ATOM      7  C   UNL A   1      46.267  25.524  26.507  1.00  0.00     0.310 C 
ATOM      8  C   UNL A   1      45.903  27.852  26.293  1.00  0.00     0.284 C 
ATOM      9  N   UNL A   1      45.279  26.541  26.070  1.00  0.00    -0.318 N 
ATOM     10  S   UNL A   1      47.663  27.677  25.874  1.00  0.00    -0.081 SA
ATOM     11  H   UNL A   1      45.062  26.418  25.080  1.00  0.00     0.348 HD
ATOM     12  H   UNL A   1      44.406  26.454  26.589  1.00  0.00     0.348 HD
ATOM     13  C   UNL A   1      47.631  25.824  25.828  1.00  0.00     0.079 C 
ATOM     14  C   UNL A   1      47.749  25.407  24.358  1.00  0.00     0.030 C 
ATOM     15  C   UNL A   1      48.867  25.363  26.623  1.00  0.00     0.030 C 
BRANCH   8  16
ATOM     16  C   UNL A   1      45.636  28.397  27.685  1.00  0.00     0.128 A 
ATOM     17  C   UNL A   1      43.911  32.203  30.272  1.00  0.00     0.131 A 
ATOM     18  C   UNL A   1      44.269  31.541  31.448  1.00  0.00     0.051 A 
ATOM     19  C   UNL A   1      44.035  31.591  29.026  1.00  0.00     0.063 A 
ATOM     20  C   UNL A   1      44.819  30.265  31.369  1.00  0.00     0.052 A 
ATOM     21  C   UNL A   1      44.593  30.315  28.964  1.00  0.00     0.069 A 
ATOM     22  C   UNL A   1      44.995  29.670  30.122  1.00  0.00     0.140 A 
ATOM     23  C   UNL A   1      44.795  29.633  27.682  1.00  0.00     0.205 A 
ATOM     24  O   UNL A   1      45.592  28.450  30.102  1.00  0.00    -0.440 OA
ATOM     25  O   UNL A   1      44.331  30.122  26.657  1.00  0.00    -0.288 OA
ATOM     26  C   UNL A   1      46.036  27.937  28.897  1.00  0.00     0.205 A 
BRANCH  17  27
ATOM     27  O   UNL A   1      43.344  33.480  30.308  1.00  0.00    -0.427 OA
BRANCH  27  28
ATOM     28  C   UNL A   1      41.985  33.517  30.603  1.00  0.00     0.308 C 
ATOM     29  C   UNL A   1      41.308  34.408  29.607  1.00  0.00     0.139 C 
ATOM     30  O   UNL A   1      41.408  32.935  31.512  1.00  0.00    -0.252 OA
ENDBRANCH  27  28
ENDBRANCH  17  27
BRANCH  26  31
ATOM     31  N   UNL A   1      46.909  26.916  29.122  1.00  0.00    -0.369 N 
ATOM     32  H   UNL A   1      46.851  26.093  28.584  1.00  0.00     0.159 HD
ATOM     33  H   UNL A   1      47.596  27.001  29.822  1.00  0.00     0.159 HD
ENDBRANCH  26  31
ENDBRANCH   8  16
ENDBRANCH   5   7
ENDBRANCH   4   5
ENDBRANCH   3   4
ENDBRANCH   2   3
ENDBRANCH   1   2
BRANCH   1  34
ATOM     34  C   UNL A   1      41.139  22.246  26.151  1.00  0.00     0.202 C 
BRANCH  34  35
ATOM     35  C   UNL A   1      40.560  23.249  27.157  1.00  0.00     0.261 C 
BRANCH  35  36
ATOM     36  O   UNL A   1      40.016  24.398  26.486  1.00  0.00    -0.460 OA
BRANCH  36  37
ATOM     37  C   UNL A   1      40.886  25.424  26.314  1.00  0.00     0.338 C 
ATOM     38  O   UNL A   1      41.384  25.788  25.259  1.00  0.00    -0.246 OA
BRANCH  37  39
ATOM     39  C   UNL A   1      40.961  26.215  27.561  1.00  0.00     0.060 A 
ATOM     40  C   UNL A   1      42.045  27.044  27.854  1.00  0.00     0.016 A 
ATOM     41  C   UNL A   1      39.894  26.100  28.463  1.00  0.00     0.016 A 
ATOM     42  C   UNL A   1      42.033  27.797  29.032  1.00  0.00     0.010 A 
ATOM     43  C   UNL A   1      39.883  26.852  29.637  1.00  0.00     0.010 A 
ATOM     44  C   UNL A   1      40.938  27.730  29.917  1.00  0.00    -0.014 A 
BRANCH  44  45
ATOM     45  C   UNL A   1      40.809  28.698  31.036  1.00  0.00     0.031 A 
ATOM     46  C   UNL A   1      41.634  28.579  32.284  1.00  0.00     0.074 A 
ATOM     47  C   UNL A   1      39.878  29.667  30.928  1.00  0.00     0.049 A 
ATOM     48  N   UNL A   1      41.628  29.352  33.338  1.00  0.00    -0.248 NA
ATOM     49  C   UNL A   1      42.580  27.456  32.368  1.00  0.00     0.031 C 
ATOM     50  C   UNL A   1      38.988  29.846  29.777  1.00  0.00     0.029 A 
ATOM     51  N   UNL A   1      39.517  30.678  31.785  1.00  0.00    -0.354 N 
ATOM     52  C   UNL A   1      42.576  28.825  34.205  1.00  0.00     0.074 A 
ATOM     53  C   UNL A   1      43.110  27.637  33.574  1.00  0.00     0.031 C 
ATOM     54  C   UNL A   1      38.205  30.913  29.988  1.00  0.00     0.029 A 
ATOM     55  C   UNL A   1      38.499  31.470  31.305  1.00  0.00     0.049 A 
ATOM     56  H   UNL A   1      39.947  30.822  32.658  1.00  0.00     0.167 HD
ATOM     57  C   UNL A   1      42.972  29.306  35.407  1.00  0.00     0.031 A 
ATOM     58  C   UNL A   1      37.861  32.521  31.859  1.00  0.00     0.031 A 
ATOM     59  C   UNL A   1      42.428  30.493  36.023  1.00  0.00     0.049 A 
ATOM     60  C   UNL A   1      38.306  33.016  33.208  1.00  0.00     0.074 A 
ATOM     61  C   UNL A   1      42.809  31.080  37.218  1.00  0.00     0.029 A 
ATOM     62  N   UNL A   1      41.398  31.267  35.511  1.00  0.00    -0.354 N 
ATOM     63  N   UNL A   1      39.269  32.557  33.971  1.00  0.00    -0.248 NA
ATOM     64  C   UNL A   1      37.599  34.178  33.765  1.00  0.00     0.031 C 
ATOM     65  C   UNL A   1      41.956  32.156  37.468  1.00  0.00     0.029 A 
ATOM     66  C   UNL A   1      41.106  32.302  36.384  1.00  0.00     0.049 A 
ATOM     67  H   UNL A   1      40.942  31.104  34.653  1.00  0.00     0.167 HD
ATOM     68  C   UNL A   1      39.297  33.385  35.087  1.00  0.00     0.074 A 
ATOM     69  C   UNL A   1      38.274  34.390  34.888  1.00  0.00     0.031 C 
ATOM     70  C   UNL A   1      40.094  33.311  36.179  1.00  0.00     0.031 A 
BRANCH  57  71
ATOM     71  C   UNL A   1      44.076  28.600  36.155  1.00  0.00    -0.014 A 
ATOM     72  C   UNL A   1      45.420  28.868  35.834  1.00  0.00     0.010 A 
ATOM     73  C   UNL A   1      43.778  27.521  37.007  1.00  0.00     0.010 A 
ATOM     74  C   UNL A   1      46.441  28.028  36.291  1.00  0.00     0.020 A 
ATOM     75  C   UNL A   1      44.799  26.697  37.490  1.00  0.00     0.020 A 
ATOM     76  C   UNL A   1      46.119  26.934  37.099  1.00  0.00     0.054 A 
BRANCH  76  77
ATOM     77  S   UNL A   1      47.442  25.789  37.583  1.00  0.00     0.124 S 
ATOM     78  O   UNL A   1      48.640  26.502  37.150  1.00  0.00    -0.237 OA
ATOM     79  O   UNL A   1      47.255  25.684  39.028  1.00  0.00    -0.237 OA
ATOM     80  O   UNL A   1      47.134  24.574  36.832  1.00  0.00    -0.744 OA
ENDBRANCH  76  77
ENDBRANCH  57  71
BRANCH  58  81
ATOM     81  C   UNL A   1      36.750  33.178  31.112  1.00  0.00    -0.014 A 
ATOM     82  C   UNL A   1      35.423  32.741  31.286  1.00  0.00     0.010 A 
ATOM     83  C   UNL A   1      37.012  34.194  30.176  1.00  0.00     0.010 A 
ATOM     84  C   UNL A   1      34.389  33.264  30.506  1.00  0.00     0.020 A 
ATOM     85  C   UNL A   1      35.973  34.751  29.420  1.00  0.00     0.020 A 
ATOM     86  C   UNL A   1      34.674  34.262  29.570  1.00  0.00     0.054 A 
BRANCH  86  87
ATOM     87  S   UNL A   1      33.320  34.903  28.547  1.00  0.00     0.124 S 
ATOM     88  O   UNL A   1      32.684  33.670  28.089  1.00  0.00    -0.237 OA
ATOM     89  O   UNL A   1      32.548  35.694  29.501  1.00  0.00    -0.237 OA
ATOM     90  O   UNL A   1      34.008  35.673  27.514  1.00  0.00    -0.744 OA
ENDBRANCH  86  87
ENDBRANCH  58  81
BRANCH  70  91
ATOM     91  C   UNL A   1      39.923  34.338  37.271  1.00  0.00    -0.014 A 
ATOM     92  C   UNL A   1      40.742  35.484  37.286  1.00  0.00     0.010 A 
ATOM     93  C   UNL A   1      39.068  34.097  38.361  1.00  0.00     0.010 A 
ATOM     94  C   UNL A   1      40.750  36.338  38.392  1.00  0.00     0.020 A 
ATOM     95  C   UNL A   1      39.045  34.970  39.453  1.00  0.00     0.020 A 
ATOM     96  C   UNL A   1      39.910  36.067  39.475  1.00  0.00     0.054 A 
BRANCH  96  97
ATOM     97  S   UNL A   1      39.981  37.153  40.926  1.00  0.00     0.124 S 
ATOM     98  O   UNL A   1      41.268  37.818  40.751  1.00  0.00    -0.237 OA
ATOM     99  O   UNL A   1      38.804  38.000  40.749  1.00  0.00    -0.237 OA
ATOM    100  O   UNL A   1      39.906  36.225  42.053  1.00  0.00    -0.744 OA
ENDBRANCH  96  97
ENDBRANCH  70  91
ENDBRANCH  44  45
ENDBRANCH  37  39
ENDBRANCH  36  37
ENDBRANCH  35  36
ENDBRANCH  34  35
ENDBRANCH   1  34
TORSDOF 21
ENDMDL
