MODEL 1
REMARK VINA RESULT:     -11.8      0.000      0.000
REMARK SMILES Cc1ccc(C(=O)N2CCC3(CCC(=O)N(CC(=O)OCCOCCOC(=O)c4ccc(-c5c6nc(c(-c7ccc(S(=O)(=O)[O-])cc7)c7ccc([nH]7)c(-c7ccc(S(=O)(=O)[O-])cc7)c7nc(c(-c8ccc(S(=O)(=O)[O-])cc8)c8ccc5[nH]8)C=C7)C=C6)cc4)C3)CC2)cc1O
REMARK SMILES IDX 23 1 22 2 21 3 20 4 18 5 19 6 17 7 16 8 6 9 7 10 8 11 9 12
REMARK SMILES IDX 91 13 10 14 90 15 11 16 12 17 89 18 13 19 14 20 15 21 5 22
REMARK SMILES IDX 1 23 2 24 3 25 93 26 4 27 92 28 94 29 24 31 25 32 26 33
REMARK SMILES IDX 27 34 28 35 29 36 30 37 88 38 31 39 87 40 32 41 33 42 34 43
REMARK SMILES IDX 81 44 35 45 86 46 80 47 82 48 36 49 85 50 79 51 78 52 37 54
REMARK SMILES IDX 67 55 48 56 66 57 49 58 52 59 65 60 83 61 50 62 51 63 64 65
REMARK SMILES IDX 84 66 53 67 38 68 39 69 47 70 40 71 46 72 41 73 42 74 43 75
REMARK SMILES IDX 44 76 45 77 68 78 69 79 77 80 70 81 76 82 71 83 72 84 73 85
REMARK SMILES IDX 74 86 75 87 54 88 55 89 63 90 56 91 62 92 57 93 58 94 59 95
REMARK SMILES IDX 60 96 61 97
REMARK H PARENT 94 30 82 53 52 64
REMARK Flexibility Score: inf
ROOT
ATOM      1  O   UNL A   1      39.450  21.666  26.218  1.00  0.00    -0.374 OA
ENDROOT
BRANCH   1   2
ATOM      2  C   UNL A   1      38.183  22.137  25.757  1.00  0.00     0.202 C 
BRANCH   2   3
ATOM      3  C   UNL A   1      37.565  21.376  24.577  1.00  0.00     0.261 C 
BRANCH   3   4
ATOM      4  O   UNL A   1      36.136  21.514  24.487  1.00  0.00    -0.462 OA
BRANCH   4   5
ATOM      5  C   UNL A   1      35.416  20.487  25.003  1.00  0.00     0.325 C 
ATOM      6  O   UNL A   1      35.662  19.296  24.825  1.00  0.00    -0.250 OA
BRANCH   5   7
ATOM      7  C   UNL A   1      34.314  20.913  25.970  1.00  0.00     0.242 C 
BRANCH   7   8
ATOM      8  N   UNL A   1      32.905  20.943  25.572  1.00  0.00    -0.331 N 
ATOM      9  C   UNL A   1      32.931  26.922  22.972  1.00  0.00     0.253 C 
ATOM     10  O   UNL A   1      33.742  27.252  22.108  1.00  0.00    -0.269 OA
ATOM     11  N   UNL A   1      32.545  25.601  23.153  1.00  0.00    -0.339 N 
ATOM     12  C   UNL A   1      33.509  24.559  22.859  1.00  0.00     0.120 C 
ATOM     13  C   UNL A   1      31.171  25.162  23.368  1.00  0.00     0.120 C 
ATOM     14  C   UNL A   1      33.533  23.576  24.025  1.00  0.00     0.030 C 
ATOM     15  C   UNL A   1      31.091  24.106  24.469  1.00  0.00     0.030 C 
ATOM     16  C   UNL A   1      32.136  22.968  24.327  1.00  0.00    -0.008 C 
ATOM     17  C   UNL A   1      31.698  21.990  23.202  1.00  0.00     0.019 C 
ATOM     18  C   UNL A   1      32.172  22.190  25.671  1.00  0.00     0.127 C 
ATOM     19  C   UNL A   1      32.508  20.701  23.205  1.00  0.00     0.101 C 
ATOM     20  C   UNL A   1      32.464  20.084  24.580  1.00  0.00     0.223 C 
ATOM     21  O   UNL A   1      32.102  18.935  24.768  1.00  0.00    -0.275 OA
BRANCH   9  22
ATOM     22  C   UNL A   1      32.491  27.939  23.969  1.00  0.00     0.043 A 
ATOM     23  C   UNL A   1      31.573  31.332  26.486  1.00  0.00     0.048 C 
ATOM     24  C   UNL A   1      31.845  30.139  25.617  1.00  0.00    -0.009 A 
ATOM     25  C   UNL A   1      32.931  29.312  25.925  1.00  0.00     0.008 A 
ATOM     26  C   UNL A   1      31.093  29.848  24.472  1.00  0.00     0.119 A 
ATOM     27  C   UNL A   1      33.262  28.236  25.098  1.00  0.00     0.014 A 
ATOM     28  C   UNL A   1      31.398  28.755  23.661  1.00  0.00     0.060 A 
BRANCH  26  29
ATOM     29  O   UNL A   1      30.049  30.629  24.060  1.00  0.00    -0.508 OA
ATOM     30  H   UNL A   1      30.216  31.454  23.647  1.00  0.00     0.293 HD
ENDBRANCH  26  29
ENDBRANCH   9  22
ENDBRANCH   7   8
ENDBRANCH   5   7
ENDBRANCH   4   5
ENDBRANCH   3   4
ENDBRANCH   2   3
ENDBRANCH   1   2
BRANCH   1  31
ATOM     31  C   UNL A   1      40.131  22.463  27.195  1.00  0.00     0.202 C 
BRANCH  31  32
ATOM     32  C   UNL A   1      40.820  23.721  26.662  1.00  0.00     0.261 C 
BRANCH  32  33
ATOM     33  O   UNL A   1      39.943  24.849  26.781  1.00  0.00    -0.460 OA
BRANCH  33  34
ATOM     34  C   UNL A   1      40.501  26.041  26.523  1.00  0.00     0.338 C 
ATOM     35  O   UNL A   1      41.101  26.378  25.507  1.00  0.00    -0.246 OA
BRANCH  34  36
ATOM     36  C   UNL A   1      40.159  26.967  27.610  1.00  0.00     0.060 A 
ATOM     37  C   UNL A   1      40.680  28.265  27.568  1.00  0.00     0.016 A 
ATOM     38  C   UNL A   1      39.437  26.522  28.719  1.00  0.00     0.016 A 
ATOM     39  C   UNL A   1      40.543  29.101  28.677  1.00  0.00     0.010 A 
ATOM     40  C   UNL A   1      39.302  27.363  29.829  1.00  0.00     0.010 A 
ATOM     41  C   UNL A   1      39.895  28.638  29.832  1.00  0.00    -0.014 A 
BRANCH  41  42
ATOM     42  C   UNL A   1      39.980  29.422  31.092  1.00  0.00     0.031 A 
ATOM     43  C   UNL A   1      41.110  29.144  32.049  1.00  0.00     0.074 A 
ATOM     44  C   UNL A   1      39.085  30.386  31.376  1.00  0.00     0.049 A 
ATOM     45  N   UNL A   1      41.360  29.685  33.214  1.00  0.00    -0.248 NA
ATOM     46  C   UNL A   1      42.088  28.123  31.639  1.00  0.00     0.031 C 
ATOM     47  C   UNL A   1      37.971  30.786  30.517  1.00  0.00     0.029 A 
ATOM     48  N   UNL A   1      38.974  31.200  32.477  1.00  0.00    -0.354 N 
ATOM     49  C   UNL A   1      42.516  29.069  33.679  1.00  0.00     0.074 A 
ATOM     50  C   UNL A   1      42.908  28.098  32.680  1.00  0.00     0.031 C 
ATOM     51  C   UNL A   1      37.281  31.766  31.130  1.00  0.00     0.029 A 
ATOM     52  C   UNL A   1      37.886  32.039  32.434  1.00  0.00     0.049 A 
ATOM     53  H   UNL A   1      39.612  31.184  33.225  1.00  0.00     0.167 HD
ATOM     54  C   UNL A   1      43.194  29.290  34.830  1.00  0.00     0.031 A 
ATOM     55  C   UNL A   1      37.415  32.912  33.348  1.00  0.00     0.031 A 
ATOM     56  C   UNL A   1      42.806  30.247  35.830  1.00  0.00     0.049 A 
ATOM     57  C   UNL A   1      38.147  33.093  34.653  1.00  0.00     0.074 A 
ATOM     58  C   UNL A   1      43.438  30.546  37.025  1.00  0.00     0.029 A 
ATOM     59  N   UNL A   1      41.682  31.055  35.759  1.00  0.00    -0.354 N 
ATOM     60  N   UNL A   1      39.248  32.514  35.066  1.00  0.00    -0.248 NA
ATOM     61  C   UNL A   1      37.574  34.049  35.613  1.00  0.00     0.031 C 
ATOM     62  C   UNL A   1      42.672  31.503  37.697  1.00  0.00     0.029 A 
ATOM     63  C   UNL A   1      41.590  31.837  36.898  1.00  0.00     0.049 A 
ATOM     64  H   UNL A   1      41.044  31.071  35.010  1.00  0.00     0.167 HD
ATOM     65  C   UNL A   1      39.516  33.059  36.318  1.00  0.00     0.074 A 
ATOM     66  C   UNL A   1      38.464  34.013  36.596  1.00  0.00     0.031 C 
ATOM     67  C   UNL A   1      40.546  32.794  37.159  1.00  0.00     0.031 A 
BRANCH  54  68
ATOM     68  C   UNL A   1      44.419  28.456  35.087  1.00  0.00    -0.014 A 
ATOM     69  C   UNL A   1      45.695  28.899  34.695  1.00  0.00     0.010 A 
ATOM     70  C   UNL A   1      44.296  27.235  35.774  1.00  0.00     0.010 A 
ATOM     71  C   UNL A   1      46.824  28.118  34.959  1.00  0.00     0.020 A 
ATOM     72  C   UNL A   1      45.425  26.462  36.058  1.00  0.00     0.020 A 
ATOM     73  C   UNL A   1      46.681  26.902  35.635  1.00  0.00     0.054 A 
BRANCH  73  74
ATOM     74  S   UNL A   1      48.165  25.920  35.988  1.00  0.00     0.124 S 
ATOM     75  O   UNL A   1      48.669  26.561  37.199  1.00  0.00    -0.237 OA
ATOM     76  O   UNL A   1      47.626  24.574  36.167  1.00  0.00    -0.237 OA
ATOM     77  O   UNL A   1      48.991  26.102  34.797  1.00  0.00    -0.744 OA
ENDBRANCH  73  74
ENDBRANCH  54  68
BRANCH  55  78
ATOM     78  C   UNL A   1      36.163  33.667  33.073  1.00  0.00    -0.014 A 
ATOM     79  C   UNL A   1      36.206  34.944  32.485  1.00  0.00     0.010 A 
ATOM     80  C   UNL A   1      34.916  33.106  33.402  1.00  0.00     0.010 A 
ATOM     81  C   UNL A   1      35.025  35.650  32.243  1.00  0.00     0.020 A 
ATOM     82  C   UNL A   1      33.732  33.799  33.139  1.00  0.00     0.020 A 
ATOM     83  C   UNL A   1      33.794  35.073  32.572  1.00  0.00     0.054 A 
BRANCH  83  84
ATOM     84  S   UNL A   1      32.267  35.979  32.201  1.00  0.00     0.124 S 
ATOM     85  O   UNL A   1      32.407  36.237  30.772  1.00  0.00    -0.237 OA
ATOM     86  O   UNL A   1      31.229  35.022  32.575  1.00  0.00    -0.237 OA
ATOM     87  O   UNL A   1      32.354  37.157  33.063  1.00  0.00    -0.744 OA
ENDBRANCH  83  84
ENDBRANCH  55  78
BRANCH  67  88
ATOM     88  C   UNL A   1      40.626  33.572  38.444  1.00  0.00    -0.014 A 
ATOM     89  C   UNL A   1      41.214  34.847  38.490  1.00  0.00     0.010 A 
ATOM     90  C   UNL A   1      40.019  33.054  39.604  1.00  0.00     0.010 A 
ATOM     91  C   UNL A   1      41.204  35.587  39.677  1.00  0.00     0.020 A 
ATOM     92  C   UNL A   1      39.990  33.798  40.786  1.00  0.00     0.020 A 
ATOM     93  C   UNL A   1      40.590  35.058  40.817  1.00  0.00     0.054 A 
BRANCH  93  94
ATOM     94  S   UNL A   1      40.524  36.066  42.324  1.00  0.00     0.124 S 
ATOM     95  O   UNL A   1      39.577  37.112  41.950  1.00  0.00    -0.237 OA
ATOM     96  O   UNL A   1      40.048  35.117  43.327  1.00  0.00    -0.237 OA
ATOM     97  O   UNL A   1      41.905  36.511  42.504  1.00  0.00    -0.744 OA
ENDBRANCH  93  94
ENDBRANCH  67  88
ENDBRANCH  41  42
ENDBRANCH  34  36
ENDBRANCH  33  34
ENDBRANCH  32  33
ENDBRANCH  31  32
ENDBRANCH   1  31
TORSDOF 20
ENDMDL
MODEL 2
REMARK VINA RESULT:     -11.5      1.563      1.914
REMARK SMILES Cc1ccc(C(=O)N2CCC3(CCC(=O)N(CC(=O)OCCOCCOC(=O)c4ccc(-c5c6nc(c(-c7ccc(S(=O)(=O)[O-])cc7)c7ccc([nH]7)c(-c7ccc(S(=O)(=O)[O-])cc7)c7nc(c(-c8ccc(S(=O)(=O)[O-])cc8)c8ccc5[nH]8)C=C7)C=C6)cc4)C3)CC2)cc1O
REMARK SMILES IDX 23 1 22 2 21 3 20 4 18 5 19 6 17 7 16 8 6 9 7 10 8 11 9 12
REMARK SMILES IDX 91 13 10 14 90 15 11 16 12 17 89 18 13 19 14 20 15 21 5 22
REMARK SMILES IDX 1 23 2 24 3 25 93 26 4 27 92 28 94 29 24 31 25 32 26 33
REMARK SMILES IDX 27 34 28 35 29 36 30 37 88 38 31 39 87 40 32 41 33 42 34 43
REMARK SMILES IDX 81 44 35 45 86 46 80 47 82 48 36 49 85 50 79 51 78 52 37 54
REMARK SMILES IDX 67 55 48 56 66 57 49 58 52 59 65 60 83 61 50 62 51 63 64 65
REMARK SMILES IDX 84 66 53 67 38 68 39 69 47 70 40 71 46 72 41 73 42 74 43 75
REMARK SMILES IDX 44 76 45 77 68 78 69 79 77 80 70 81 76 82 71 83 72 84 73 85
REMARK SMILES IDX 74 86 75 87 54 88 55 89 63 90 56 91 62 92 57 93 58 94 59 95
REMARK SMILES IDX 60 96 61 97
REMARK H PARENT 94 30 82 53 52 64
REMARK Flexibility Score: inf
ROOT
ATOM      1  O   UNL A   1      40.576  22.533  25.903  1.00  0.00    -0.374 OA
ENDROOT
BRANCH   1   2
ATOM      2  C   UNL A   1      39.511  21.730  26.416  1.00  0.00     0.202 C 
BRANCH   2   3
ATOM      3  C   UNL A   1      38.471  21.251  25.396  1.00  0.00     0.261 C 
BRANCH   3   4
ATOM      4  O   UNL A   1      37.111  21.424  25.834  1.00  0.00    -0.462 OA
BRANCH   4   5
ATOM      5  C   UNL A   1      36.184  20.695  25.164  1.00  0.00     0.325 C 
ATOM      6  O   UNL A   1      36.221  19.476  25.013  1.00  0.00    -0.250 OA
BRANCH   5   7
ATOM      7  C   UNL A   1      34.968  21.495  24.703  1.00  0.00     0.242 C 
BRANCH   7   8
ATOM      8  N   UNL A   1      33.719  21.513  25.467  1.00  0.00    -0.331 N 
ATOM      9  C   UNL A   1      32.186  27.753  24.362  1.00  0.00     0.253 C 
ATOM     10  O   UNL A   1      32.128  28.216  23.224  1.00  0.00    -0.269 OA
ATOM     11  N   UNL A   1      31.979  26.405  24.619  1.00  0.00    -0.339 N 
ATOM     12  C   UNL A   1      32.361  25.446  23.601  1.00  0.00     0.120 C 
ATOM     13  C   UNL A   1      31.174  25.885  25.719  1.00  0.00     0.120 C 
ATOM     14  C   UNL A   1      33.171  24.334  24.259  1.00  0.00     0.030 C 
ATOM     15  C   UNL A   1      31.861  24.705  26.402  1.00  0.00     0.030 C 
ATOM     16  C   UNL A   1      32.405  23.636  25.416  1.00  0.00    -0.008 C 
ATOM     17  C   UNL A   1      31.228  22.781  24.869  1.00  0.00     0.019 C 
ATOM     18  C   UNL A   1      33.364  22.707  26.209  1.00  0.00     0.127 C 
ATOM     19  C   UNL A   1      31.708  21.535  24.136  1.00  0.00     0.101 C 
ATOM     20  C   UNL A   1      32.645  20.759  25.026  1.00  0.00     0.223 C 
ATOM     21  O   UNL A   1      32.469  19.582  25.289  1.00  0.00    -0.275 OA
BRANCH   9  22
ATOM     22  C   UNL A   1      32.673  28.625  25.468  1.00  0.00     0.043 A 
ATOM     23  C   UNL A   1      34.365  31.533  28.183  1.00  0.00     0.048 C 
ATOM     24  C   UNL A   1      33.737  30.523  27.268  1.00  0.00    -0.009 A 
ATOM     25  C   UNL A   1      34.443  29.354  26.965  1.00  0.00     0.008 A 
ATOM     26  C   UNL A   1      32.494  30.726  26.653  1.00  0.00     0.119 A 
ATOM     27  C   UNL A   1      33.925  28.426  26.059  1.00  0.00     0.014 A 
ATOM     28  C   UNL A   1      31.957  29.786  25.775  1.00  0.00     0.060 A 
BRANCH  26  29
ATOM     29  O   UNL A   1      31.757  31.862  26.844  1.00  0.00    -0.508 OA
ATOM     30  H   UNL A   1      31.862  32.591  26.265  1.00  0.00     0.293 HD
ENDBRANCH  26  29
ENDBRANCH   9  22
ENDBRANCH   7   8
ENDBRANCH   5   7
ENDBRANCH   4   5
ENDBRANCH   3   4
ENDBRANCH   2   3
ENDBRANCH   1   2
BRANCH   1  31
ATOM     31  C   UNL A   1      41.907  22.025  26.044  1.00  0.00     0.202 C 
BRANCH  31  32
ATOM     32  C   UNL A   1      43.016  23.077  26.118  1.00  0.00     0.261 C 
BRANCH  32  33
ATOM     33  O   UNL A   1      42.575  24.200  26.891  1.00  0.00    -0.460 OA
BRANCH  33  34
ATOM     34  C   UNL A   1      42.254  25.294  26.184  1.00  0.00     0.338 C 
ATOM     35  O   UNL A   1      42.301  25.434  24.966  1.00  0.00    -0.246 OA
BRANCH  34  36
ATOM     36  C   UNL A   1      41.681  26.293  27.095  1.00  0.00     0.060 A 
ATOM     37  C   UNL A   1      42.192  27.595  27.062  1.00  0.00     0.016 A 
ATOM     38  C   UNL A   1      40.741  25.918  28.058  1.00  0.00     0.016 A 
ATOM     39  C   UNL A   1      41.815  28.511  28.046  1.00  0.00     0.010 A 
ATOM     40  C   UNL A   1      40.367  26.839  29.042  1.00  0.00     0.010 A 
ATOM     41  C   UNL A   1      40.938  28.124  29.069  1.00  0.00    -0.014 A 
BRANCH  41  42
ATOM     42  C   UNL A   1      40.748  29.003  30.252  1.00  0.00     0.031 A 
ATOM     43  C   UNL A   1      41.638  28.815  31.453  1.00  0.00     0.074 A 
ATOM     44  C   UNL A   1      39.816  29.974  30.256  1.00  0.00     0.049 A 
ATOM     45  N   UNL A   1      41.627  29.448  32.598  1.00  0.00    -0.248 NA
ATOM     46  C   UNL A   1      42.678  27.778  31.349  1.00  0.00     0.031 C 
ATOM     47  C   UNL A   1      38.920  30.293  29.145  1.00  0.00     0.029 A 
ATOM     48  N   UNL A   1      39.468  30.870  31.238  1.00  0.00    -0.354 N 
ATOM     49  C   UNL A   1      42.650  28.885  33.353  1.00  0.00     0.074 A 
ATOM     50  C   UNL A   1      43.248  27.845  32.544  1.00  0.00     0.031 C 
ATOM     51  C   UNL A   1      38.116  31.308  29.512  1.00  0.00     0.029 A 
ATOM     52  C   UNL A   1      38.420  31.689  30.891  1.00  0.00     0.049 A 
ATOM     53  H   UNL A   1      39.926  30.921  32.107  1.00  0.00     0.167 HD
ATOM     54  C   UNL A   1      43.059  29.204  34.603  1.00  0.00     0.031 A 
ATOM     55  C   UNL A   1      37.764  32.623  31.609  1.00  0.00     0.031 A 
ATOM     56  C   UNL A   1      42.464  30.230  35.416  1.00  0.00     0.049 A 
ATOM     57  C   UNL A   1      38.191  32.915  33.025  1.00  0.00     0.074 A 
ATOM     58  C   UNL A   1      42.820  30.629  36.693  1.00  0.00     0.029 A 
ATOM     59  N   UNL A   1      41.388  31.015  35.036  1.00  0.00    -0.354 N 
ATOM     60  N   UNL A   1      39.172  32.384  33.713  1.00  0.00    -0.248 NA
ATOM     61  C   UNL A   1      37.425  33.935  33.757  1.00  0.00     0.031 C 
ATOM     62  C   UNL A   1      41.928  31.625  37.104  1.00  0.00     0.029 A 
ATOM     63  C   UNL A   1      41.051  31.882  36.062  1.00  0.00     0.049 A 
ATOM     64  H   UNL A   1      40.930  30.965  34.166  1.00  0.00     0.167 HD
ATOM     65  C   UNL A   1      39.160  33.028  34.947  1.00  0.00     0.074 A 
ATOM     66  C   UNL A   1      38.077  33.987  34.911  1.00  0.00     0.031 C 
ATOM     67  C   UNL A   1      39.978  32.842  36.012  1.00  0.00     0.031 A 
BRANCH  54  68
ATOM     68  C   UNL A   1      44.194  28.407  35.188  1.00  0.00    -0.014 A 
ATOM     69  C   UNL A   1      45.529  28.816  35.022  1.00  0.00     0.010 A 
ATOM     70  C   UNL A   1      43.916  27.263  35.956  1.00  0.00     0.010 A 
ATOM     71  C   UNL A   1      46.569  28.074  35.588  1.00  0.00     0.020 A 
ATOM     72  C   UNL A   1      44.953  26.530  36.541  1.00  0.00     0.020 A 
ATOM     73  C   UNL A   1      46.274  26.933  36.340  1.00  0.00     0.054 A 
BRANCH  73  74
ATOM     74  S   UNL A   1      47.641  26.001  37.086  1.00  0.00     0.124 S 
ATOM     75  O   UNL A   1      46.930  25.074  37.962  1.00  0.00    -0.237 OA
ATOM     76  O   UNL A   1      48.290  25.397  35.926  1.00  0.00    -0.237 OA
ATOM     77  O   UNL A   1      48.425  27.026  37.771  1.00  0.00    -0.744 OA
ENDBRANCH  73  74
ENDBRANCH  54  68
BRANCH  55  78
ATOM     78  C   UNL A   1      36.607  33.339  31.007  1.00  0.00    -0.014 A 
ATOM     79  C   UNL A   1      35.333  33.275  31.599  1.00  0.00     0.010 A 
ATOM     80  C   UNL A   1      36.779  34.090  29.830  1.00  0.00     0.010 A 
ATOM     81  C   UNL A   1      34.250  33.940  31.017  1.00  0.00     0.020 A 
ATOM     82  C   UNL A   1      35.703  34.775  29.259  1.00  0.00     0.020 A 
ATOM     83  C   UNL A   1      34.442  34.687  29.850  1.00  0.00     0.054 A 
BRANCH  83  84
ATOM     84  S   UNL A   1      33.038  35.589  29.139  1.00  0.00     0.124 S 
ATOM     85  O   UNL A   1      33.706  36.653  28.397  1.00  0.00    -0.237 OA
ATOM     86  O   UNL A   1      32.380  34.567  28.329  1.00  0.00    -0.237 OA
ATOM     87  O   UNL A   1      32.282  36.021  30.313  1.00  0.00    -0.744 OA
ENDBRANCH  83  84
ENDBRANCH  55  78
BRANCH  67  88
ATOM     88  C   UNL A   1      39.777  33.718  37.218  1.00  0.00    -0.014 A 
ATOM     89  C   UNL A   1      40.297  35.023  37.268  1.00  0.00     0.010 A 
ATOM     90  C   UNL A   1      38.975  33.258  38.280  1.00  0.00     0.010 A 
ATOM     91  C   UNL A   1      40.028  35.848  38.364  1.00  0.00     0.020 A 
ATOM     92  C   UNL A   1      38.688  34.087  39.367  1.00  0.00     0.020 A 
ATOM     93  C   UNL A   1      39.223  35.376  39.405  1.00  0.00     0.054 A 
BRANCH  93  94
ATOM     94  S   UNL A   1      38.827  36.490  40.782  1.00  0.00     0.124 S 
ATOM     95  O   UNL A   1      38.359  37.683  40.082  1.00  0.00    -0.237 OA
ATOM     96  O   UNL A   1      37.802  35.749  41.514  1.00  0.00    -0.237 OA
ATOM     97  O   UNL A   1      40.099  36.638  41.485  1.00  0.00    -0.744 OA
ENDBRANCH  93  94
ENDBRANCH  67  88
ENDBRANCH  41  42
ENDBRANCH  34  36
ENDBRANCH  33  34
ENDBRANCH  32  33
ENDBRANCH  31  32
ENDBRANCH   1  31
TORSDOF 20
ENDMDL
MODEL 3
REMARK VINA RESULT:     -11.5      6.221     12.164
REMARK SMILES Cc1ccc(C(=O)N2CCC3(CCC(=O)N(CC(=O)OCCOCCOC(=O)c4ccc(-c5c6nc(c(-c7ccc(S(=O)(=O)[O-])cc7)c7ccc([nH]7)c(-c7ccc(S(=O)(=O)[O-])cc7)c7nc(c(-c8ccc(S(=O)(=O)[O-])cc8)c8ccc5[nH]8)C=C7)C=C6)cc4)C3)CC2)cc1O
REMARK SMILES IDX 23 1 22 2 21 3 20 4 18 5 19 6 17 7 16 8 6 9 7 10 8 11 9 12
REMARK SMILES IDX 91 13 10 14 90 15 11 16 12 17 89 18 13 19 14 20 15 21 5 22
REMARK SMILES IDX 1 23 2 24 3 25 93 26 4 27 92 28 94 29 24 31 25 32 26 33
REMARK SMILES IDX 27 34 28 35 29 36 30 37 88 38 31 39 87 40 32 41 33 42 34 43
REMARK SMILES IDX 81 44 35 45 86 46 80 47 82 48 36 49 85 50 79 51 78 52 37 54
REMARK SMILES IDX 67 55 48 56 66 57 49 58 52 59 65 60 83 61 50 62 51 63 64 65
REMARK SMILES IDX 84 66 53 67 38 68 39 69 47 70 40 71 46 72 41 73 42 74 43 75
REMARK SMILES IDX 44 76 45 77 68 78 69 79 77 80 70 81 76 82 71 83 72 84 73 85
REMARK SMILES IDX 74 86 75 87 54 88 55 89 63 90 56 91 62 92 57 93 58 94 59 95
REMARK SMILES IDX 60 96 61 97
REMARK H PARENT 94 30 82 53 52 64
REMARK Flexibility Score: inf
ROOT
ATOM      1  O   UNL A   1      34.567  29.495  27.854  1.00  0.00    -0.374 OA
ENDROOT
BRANCH   1   2
ATOM      2  C   UNL A   1      33.985  28.558  26.945  1.00  0.00     0.202 C 
BRANCH   2   3
ATOM      3  C   UNL A   1      33.764  29.054  25.510  1.00  0.00     0.261 C 
BRANCH   3   4
ATOM      4  O   UNL A   1      34.030  28.056  24.508  1.00  0.00    -0.462 OA
BRANCH   4   5
ATOM      5  C   UNL A   1      33.584  28.348  23.261  1.00  0.00     0.325 C 
ATOM      6  O   UNL A   1      33.656  29.453  22.727  1.00  0.00    -0.250 OA
BRANCH   5   7
ATOM      7  C   UNL A   1      33.086  27.139  22.472  1.00  0.00     0.242 C 
BRANCH   7   8
ATOM      8  N   UNL A   1      31.737  26.599  22.654  1.00  0.00    -0.331 N 
ATOM      9  C   UNL A   1      33.401  21.500  26.360  1.00  0.00     0.253 C 
ATOM     10  O   UNL A   1      34.071  21.631  27.383  1.00  0.00    -0.269 OA
ATOM     11  N   UNL A   1      32.605  22.524  25.865  1.00  0.00    -0.339 N 
ATOM     12  C   UNL A   1      33.031  23.891  26.088  1.00  0.00     0.120 C 
ATOM     13  C   UNL A   1      31.246  22.349  25.365  1.00  0.00     0.120 C 
ATOM     14  C   UNL A   1      32.941  24.650  24.767  1.00  0.00     0.030 C 
ATOM     15  C   UNL A   1      31.021  23.139  24.077  1.00  0.00     0.030 C 
ATOM     16  C   UNL A   1      31.518  24.608  24.145  1.00  0.00    -0.008 C 
ATOM     17  C   UNL A   1      30.521  25.461  24.977  1.00  0.00     0.019 C 
ATOM     18  C   UNL A   1      31.553  25.162  22.694  1.00  0.00     0.127 C 
ATOM     19  C   UNL A   1      30.781  26.956  24.839  1.00  0.00     0.101 C 
ATOM     20  C   UNL A   1      30.809  27.328  23.379  1.00  0.00     0.223 C 
ATOM     21  O   UNL A   1      30.099  28.204  22.915  1.00  0.00    -0.275 OA
BRANCH   9  22
ATOM     22  C   UNL A   1      33.591  20.277  25.530  1.00  0.00     0.043 A 
ATOM     23  C   UNL A   1      34.280  16.416  23.710  1.00  0.00     0.048 C 
ATOM     24  C   UNL A   1      34.003  17.763  24.312  1.00  0.00    -0.009 A 
ATOM     25  C   UNL A   1      35.045  18.692  24.399  1.00  0.00     0.008 A 
ATOM     26  C   UNL A   1      32.755  18.112  24.846  1.00  0.00     0.119 A 
ATOM     27  C   UNL A   1      34.845  19.928  25.019  1.00  0.00     0.014 A 
ATOM     28  C   UNL A   1      32.542  19.357  25.436  1.00  0.00     0.060 A 
BRANCH  26  29
ATOM     29  O   UNL A   1      31.694  17.251  24.858  1.00  0.00    -0.508 OA
ATOM     30  H   UNL A   1      31.812  16.357  24.600  1.00  0.00     0.293 HD
ENDBRANCH  26  29
ENDBRANCH   9  22
ENDBRANCH   7   8
ENDBRANCH   5   7
ENDBRANCH   4   5
ENDBRANCH   3   4
ENDBRANCH   2   3
ENDBRANCH   1   2
BRANCH   1  31
ATOM     31  C   UNL A   1      34.321  30.884  27.610  1.00  0.00     0.202 C 
BRANCH  31  32
ATOM     32  C   UNL A   1      34.744  31.840  28.728  1.00  0.00     0.261 C 
BRANCH  32  33
ATOM     33  O   UNL A   1      35.595  31.160  29.659  1.00  0.00    -0.460 OA
BRANCH  33  34
ATOM     34  C   UNL A   1      36.724  31.807  29.984  1.00  0.00     0.338 C 
ATOM     35  O   UNL A   1      36.826  32.898  30.534  1.00  0.00    -0.246 OA
BRANCH  34  36
ATOM     36  C   UNL A   1      37.867  30.927  29.705  1.00  0.00     0.060 A 
ATOM     37  C   UNL A   1      38.816  30.728  30.714  1.00  0.00     0.016 A 
ATOM     38  C   UNL A   1      38.066  30.408  28.424  1.00  0.00     0.016 A 
ATOM     39  C   UNL A   1      40.010  30.068  30.419  1.00  0.00     0.010 A 
ATOM     40  C   UNL A   1      39.264  29.747  28.133  1.00  0.00     0.010 A 
ATOM     41  C   UNL A   1      40.262  29.616  29.116  1.00  0.00    -0.014 A 
BRANCH  41  42
ATOM     42  C   UNL A   1      41.625  29.157  28.742  1.00  0.00     0.031 A 
ATOM     43  C   UNL A   1      42.755  30.153  28.737  1.00  0.00     0.074 A 
ATOM     44  C   UNL A   1      41.868  27.869  28.436  1.00  0.00     0.049 A 
ATOM     45  N   UNL A   1      44.012  29.977  28.417  1.00  0.00    -0.248 NA
ATOM     46  C   UNL A   1      42.426  31.528  29.148  1.00  0.00     0.031 C 
ATOM     47  C   UNL A   1      40.875  26.795  28.445  1.00  0.00     0.029 A 
ATOM     48  N   UNL A   1      43.032  27.250  28.051  1.00  0.00    -0.354 N 
ATOM     49  C   UNL A   1      44.622  31.215  28.581  1.00  0.00     0.074 A 
ATOM     50  C   UNL A   1      43.594  32.140  29.009  1.00  0.00     0.031 C 
ATOM     51  C   UNL A   1      41.472  25.648  28.072  1.00  0.00     0.029 A 
ATOM     52  C   UNL A   1      42.878  25.913  27.769  1.00  0.00     0.049 A 
ATOM     53  H   UNL A   1      43.894  27.719  27.983  1.00  0.00     0.167 HD
ATOM     54  C   UNL A   1      45.919  31.555  28.396  1.00  0.00     0.031 A 
ATOM     55  C   UNL A   1      43.762  25.010  27.298  1.00  0.00     0.031 A 
ATOM     56  C   UNL A   1      46.944  30.645  27.962  1.00  0.00     0.049 A 
ATOM     57  C   UNL A   1      45.187  25.426  27.033  1.00  0.00     0.074 A 
ATOM     58  C   UNL A   1      48.289  30.899  27.756  1.00  0.00     0.029 A 
ATOM     59  N   UNL A   1      46.739  29.308  27.661  1.00  0.00    -0.354 N 
ATOM     60  N   UNL A   1      45.748  26.597  27.212  1.00  0.00    -0.248 NA
ATOM     61  C   UNL A   1      46.096  24.397  26.507  1.00  0.00     0.031 C 
ATOM     62  C   UNL A   1      48.889  29.727  27.287  1.00  0.00     0.029 A 
ATOM     63  C   UNL A   1      47.928  28.729  27.250  1.00  0.00     0.049 A 
ATOM     64  H   UNL A   1      45.877  28.839  27.730  1.00  0.00     0.167 HD
ATOM     65  C   UNL A   1      47.082  26.436  26.850  1.00  0.00     0.074 A 
ATOM     66  C   UNL A   1      47.245  25.057  26.444  1.00  0.00     0.031 C 
ATOM     67  C   UNL A   1      48.083  27.351  26.860  1.00  0.00     0.031 A 
BRANCH  54  68
ATOM     68  C   UNL A   1      46.303  32.991  28.633  1.00  0.00    -0.014 A 
ATOM     69  C   UNL A   1      46.762  33.421  29.891  1.00  0.00     0.010 A 
ATOM     70  C   UNL A   1      46.249  33.909  27.570  1.00  0.00     0.010 A 
ATOM     71  C   UNL A   1      47.132  34.754  30.088  1.00  0.00     0.020 A 
ATOM     72  C   UNL A   1      46.638  35.238  27.758  1.00  0.00     0.020 A 
ATOM     73  C   UNL A   1      47.063  35.656  29.021  1.00  0.00     0.054 A 
BRANCH  73  74
ATOM     74  S   UNL A   1      47.572  37.375  29.296  1.00  0.00     0.124 S 
ATOM     75  O   UNL A   1      48.465  37.245  30.444  1.00  0.00    -0.237 OA
ATOM     76  O   UNL A   1      48.218  37.727  28.034  1.00  0.00    -0.237 OA
ATOM     77  O   UNL A   1      46.315  38.070  29.562  1.00  0.00    -0.744 OA
ENDBRANCH  73  74
ENDBRANCH  54  68
BRANCH  55  78
ATOM     78  C   UNL A   1      43.318  23.618  27.019  1.00  0.00    -0.014 A 
ATOM     79  C   UNL A   1      42.985  23.216  25.713  1.00  0.00     0.010 A 
ATOM     80  C   UNL A   1      43.225  22.685  28.068  1.00  0.00     0.010 A 
ATOM     81  C   UNL A   1      42.556  21.909  25.465  1.00  0.00     0.020 A 
ATOM     82  C   UNL A   1      42.819  21.372  27.819  1.00  0.00     0.020 A 
ATOM     83  C   UNL A   1      42.475  20.995  26.520  1.00  0.00     0.054 A 
BRANCH  83  84
ATOM     84  S   UNL A   1      41.969  19.288  26.171  1.00  0.00     0.124 S 
ATOM     85  O   UNL A   1      42.790  18.959  25.011  1.00  0.00    -0.237 OA
ATOM     86  O   UNL A   1      42.314  18.594  27.410  1.00  0.00    -0.237 OA
ATOM     87  O   UNL A   1      40.535  19.405  25.913  1.00  0.00    -0.744 OA
ENDBRANCH  83  84
ENDBRANCH  55  78
BRANCH  67  88
ATOM     88  C   UNL A   1      49.460  26.894  26.465  1.00  0.00    -0.014 A 
ATOM     89  C   UNL A   1      50.326  26.296  27.396  1.00  0.00     0.010 A 
ATOM     90  C   UNL A   1      49.858  26.984  25.117  1.00  0.00     0.010 A 
ATOM     91  C   UNL A   1      51.570  25.805  26.990  1.00  0.00     0.020 A 
ATOM     92  C   UNL A   1      51.092  26.476  24.704  1.00  0.00     0.020 A 
ATOM     93  C   UNL A   1      51.944  25.895  25.645  1.00  0.00     0.054 A 
BRANCH  93  94
ATOM     94  S   UNL A   1      53.531  25.185  25.126  1.00  0.00     0.124 S 
ATOM     95  O   UNL A   1      53.637  25.652  23.747  1.00  0.00    -0.237 OA
ATOM     96  O   UNL A   1      54.476  25.783  26.067  1.00  0.00    -0.237 OA
ATOM     97  O   UNL A   1      53.334  23.745  25.284  1.00  0.00    -0.744 OA
ENDBRANCH  93  94
ENDBRANCH  67  88
ENDBRANCH  41  42
ENDBRANCH  34  36
ENDBRANCH  33  34
ENDBRANCH  32  33
ENDBRANCH  31  32
ENDBRANCH   1  31
TORSDOF 20
ENDMDL
