MODEL 1
REMARK VINA RESULT:      -9.1      0.000      0.000
REMARK SMILES O=CN1CCC[C@@H](C(=O)OCCOCCOC(=O)c2ccc(-c3c4nc(c(-c5ccc(S(=O)(=O)[O-])cc5)c5ccc([nH]5)c(-c5ccc(S(=O)(=O)[O-])cc5)c5nc(c(-c6ccc(S(=O)(=O)[O-])cc6)c6ccc3[nH]6)C=C5)C=C4)cc2)C1
REMARK SMILES IDX 14 1 13 2 12 3 11 4 10 5 8 6 9 7 7 8 3 9 4 10 79 11 5 12
REMARK SMILES IDX 6 13 2 14 1 15 15 16 16 17 17 18 18 19 19 20 20 21 78 22
REMARK SMILES IDX 21 23 77 24 22 25 23 26 24 27 71 28 25 29 76 30 70 31 72 32
REMARK SMILES IDX 26 33 75 34 69 35 68 36 27 38 57 39 38 40 56 41 39 42 42 43
REMARK SMILES IDX 55 44 73 45 40 46 41 47 54 49 74 50 43 51 28 52 29 53 37 54
REMARK SMILES IDX 30 55 36 56 31 57 32 58 33 59 34 60 35 61 58 62 59 63 67 64
REMARK SMILES IDX 60 65 66 66 61 67 62 68 63 69 64 70 65 71 44 72 45 73 53 74
REMARK SMILES IDX 46 75 52 76 47 77 48 78 49 79 50 80 51 81
REMARK H PARENT 72 37 42 48
REMARK Flexibility Score: inf
ROOT
ATOM      1  C   UNL A   1      41.050  21.632  26.559  1.00  0.00     0.202 C 
ENDROOT
BRANCH   1   2
ATOM      2  O   UNL A   1      39.677  21.466  26.189  1.00  0.00    -0.374 OA
BRANCH   2   3
ATOM      3  C   UNL A   1      38.862  22.634  26.132  1.00  0.00     0.202 C 
BRANCH   3   4
ATOM      4  C   UNL A   1      37.411  22.454  25.676  1.00  0.00     0.261 C 
BRANCH   4   5
ATOM      5  O   UNL A   1      36.942  23.559  24.891  1.00  0.00    -0.463 OA
BRANCH   5   6
ATOM      6  C   UNL A   1      36.192  23.220  23.810  1.00  0.00     0.310 C 
ATOM      7  O   UNL A   1      36.629  23.067  22.674  1.00  0.00    -0.252 OA
BRANCH   6   8
ATOM      8  C   UNL A   1      34.736  22.971  24.155  1.00  0.00     0.119 C 
ATOM      9  N   UNL A   1      32.726  23.670  25.399  1.00  0.00    -0.344 N 
ATOM     10  C   UNL A   1      31.908  23.779  24.201  1.00  0.00     0.119 C 
ATOM     11  C   UNL A   1      34.163  23.893  25.236  1.00  0.00     0.134 C 
ATOM     12  C   UNL A   1      32.423  22.825  23.130  1.00  0.00     0.022 C 
ATOM     13  C   UNL A   1      33.908  23.060  22.863  1.00  0.00     0.019 C 
BRANCH   9  14
ATOM     14  C   UNL A   1      32.178  23.363  26.625  1.00  0.00     0.339 C 
ATOM     15  O   UNL A   1      31.347  24.029  27.228  1.00  0.00    -0.279 OA
ENDBRANCH   9  14
ENDBRANCH   6   8
ENDBRANCH   5   6
ENDBRANCH   4   5
ENDBRANCH   3   4
ENDBRANCH   2   3
ENDBRANCH   1   2
BRANCH   1  16
ATOM     16  C   UNL A   1      41.856  22.711  25.823  1.00  0.00     0.261 C 
BRANCH  16  17
ATOM     17  O   UNL A   1      42.291  23.760  26.706  1.00  0.00    -0.460 OA
BRANCH  17  18
ATOM     18  C   UNL A   1      41.941  25.013  26.334  1.00  0.00     0.338 C 
ATOM     19  O   UNL A   1      41.557  25.378  25.229  1.00  0.00    -0.246 OA
BRANCH  18  20
ATOM     20  C   UNL A   1      41.886  25.882  27.522  1.00  0.00     0.060 A 
ATOM     21  C   UNL A   1      40.805  25.724  28.401  1.00  0.00     0.016 A 
ATOM     22  C   UNL A   1      42.846  26.869  27.744  1.00  0.00     0.016 A 
ATOM     23  C   UNL A   1      40.669  26.573  29.497  1.00  0.00     0.010 A 
ATOM     24  C   UNL A   1      42.698  27.729  28.836  1.00  0.00     0.010 A 
ATOM     25  C   UNL A   1      41.598  27.599  29.705  1.00  0.00    -0.014 A 
BRANCH  25  26
ATOM     26  C   UNL A   1      41.369  28.610  30.764  1.00  0.00     0.031 A 
ATOM     27  C   UNL A   1      42.210  28.567  32.010  1.00  0.00     0.074 A 
ATOM     28  C   UNL A   1      40.420  29.551  30.618  1.00  0.00     0.049 A 
ATOM     29  N   UNL A   1      42.123  29.297  33.090  1.00  0.00    -0.248 NA
ATOM     30  C   UNL A   1      43.289  27.565  32.041  1.00  0.00     0.031 C 
ATOM     31  C   UNL A   1      39.577  29.724  29.434  1.00  0.00     0.029 A 
ATOM     32  N   UNL A   1      39.996  30.530  31.480  1.00  0.00    -0.354 N 
ATOM     33  C   UNL A   1      43.127  28.840  33.936  1.00  0.00     0.074 A 
ATOM     34  C   UNL A   1      43.797  27.756  33.251  1.00  0.00     0.031 C 
ATOM     35  C   UNL A   1      38.725  30.740  29.653  1.00  0.00     0.029 A 
ATOM     36  C   UNL A   1      38.933  31.259  31.004  1.00  0.00     0.049 A 
ATOM     37  H   UNL A   1      40.414  30.695  32.356  1.00  0.00     0.167 HD
ATOM     38  C   UNL A   1      43.459  29.284  35.171  1.00  0.00     0.031 A 
ATOM     39  C   UNL A   1      38.190  32.212  31.601  1.00  0.00     0.031 A 
ATOM     40  C   UNL A   1      42.775  30.349  35.856  1.00  0.00     0.049 A 
ATOM     41  C   UNL A   1      38.517  32.623  33.013  1.00  0.00     0.074 A 
ATOM     42  C   UNL A   1      43.046  30.883  37.103  1.00  0.00     0.029 A 
ATOM     43  N   UNL A   1      41.677  31.032  35.358  1.00  0.00    -0.354 N 
ATOM     44  N   UNL A   1      39.485  32.200  33.792  1.00  0.00    -0.248 NA
ATOM     45  C   UNL A   1      37.649  33.639  33.627  1.00  0.00     0.031 C 
ATOM     46  C   UNL A   1      42.073  31.849  37.384  1.00  0.00     0.029 A 
ATOM     47  C   UNL A   1      41.234  31.959  36.287  1.00  0.00     0.049 A 
ATOM     48  H   UNL A   1      41.270  30.882  34.473  1.00  0.00     0.167 HD
ATOM     49  C   UNL A   1      39.355  32.912  34.979  1.00  0.00     0.074 A 
ATOM     50  C   UNL A   1      38.225  33.803  34.812  1.00  0.00     0.031 C 
ATOM     51  C   UNL A   1      40.104  32.836  36.108  1.00  0.00     0.031 A 
BRANCH  38  52
ATOM     52  C   UNL A   1      44.589  28.587  35.881  1.00  0.00    -0.014 A 
ATOM     53  C   UNL A   1      45.907  29.070  35.803  1.00  0.00     0.010 A 
ATOM     54  C   UNL A   1      44.321  27.452  36.668  1.00  0.00     0.010 A 
ATOM     55  C   UNL A   1      46.943  28.409  36.470  1.00  0.00     0.020 A 
ATOM     56  C   UNL A   1      45.349  26.803  37.358  1.00  0.00     0.020 A 
ATOM     57  C   UNL A   1      46.657  27.278  37.241  1.00  0.00     0.054 A 
BRANCH  57  58
ATOM     58  S   UNL A   1      48.017  26.452  38.113  1.00  0.00     0.124 S 
ATOM     59  O   UNL A   1      48.762  25.852  37.009  1.00  0.00    -0.237 OA
ATOM     60  O   UNL A   1      48.684  27.561  38.790  1.00  0.00    -0.237 OA
ATOM     61  O   UNL A   1      47.339  25.504  38.994  1.00  0.00    -0.744 OA
ENDBRANCH  57  58
ENDBRANCH  38  52
BRANCH  39  62
ATOM     62  C   UNL A   1      37.037  32.815  30.880  1.00  0.00    -0.014 A 
ATOM     63  C   UNL A   1      35.723  32.393  31.148  1.00  0.00     0.010 A 
ATOM     64  C   UNL A   1      37.248  33.822  29.921  1.00  0.00     0.010 A 
ATOM     65  C   UNL A   1      34.644  32.961  30.463  1.00  0.00     0.020 A 
ATOM     66  C   UNL A   1      36.171  34.411  29.253  1.00  0.00     0.020 A 
ATOM     67  C   UNL A   1      34.874  33.969  29.523  1.00  0.00     0.054 A 
BRANCH  67  68
ATOM     68  S   UNL A   1      33.455  34.733  28.689  1.00  0.00     0.124 S 
ATOM     69  O   UNL A   1      34.059  35.914  28.081  1.00  0.00    -0.237 OA
ATOM     70  O   UNL A   1      33.035  33.686  27.760  1.00  0.00    -0.237 OA
ATOM     71  O   UNL A   1      32.520  34.996  29.780  1.00  0.00    -0.744 OA
ENDBRANCH  67  68
ENDBRANCH  39  62
BRANCH  51  72
ATOM     72  C   UNL A   1      39.744  33.752  37.247  1.00  0.00    -0.014 A 
ATOM     73  C   UNL A   1      38.816  33.362  38.227  1.00  0.00     0.010 A 
ATOM     74  C   UNL A   1      40.402  34.990  37.378  1.00  0.00     0.010 A 
ATOM     75  C   UNL A   1      38.537  34.202  39.310  1.00  0.00     0.020 A 
ATOM     76  C   UNL A   1      40.146  35.819  38.473  1.00  0.00     0.020 A 
ATOM     77  C   UNL A   1      39.207  35.424  39.427  1.00  0.00     0.054 A 
BRANCH  77  78
ATOM     78  S   UNL A   1      38.872  36.467  40.874  1.00  0.00     0.124 S 
ATOM     79  O   UNL A   1      40.200  36.597  41.468  1.00  0.00    -0.237 OA
ATOM     80  O   UNL A   1      38.331  37.683  40.273  1.00  0.00    -0.237 OA
ATOM     81  O   UNL A   1      37.915  35.684  41.652  1.00  0.00    -0.744 OA
ENDBRANCH  77  78
ENDBRANCH  51  72
ENDBRANCH  25  26
ENDBRANCH  18  20
ENDBRANCH  17  18
ENDBRANCH  16  17
ENDBRANCH   1  16
TORSDOF 18
ENDMDL
MODEL 2
REMARK VINA RESULT:      -9.1      6.411     12.321
REMARK SMILES O=CN1CCC[C@@H](C(=O)OCCOCCOC(=O)c2ccc(-c3c4nc(c(-c5ccc(S(=O)(=O)[O-])cc5)c5ccc([nH]5)c(-c5ccc(S(=O)(=O)[O-])cc5)c5nc(c(-c6ccc(S(=O)(=O)[O-])cc6)c6ccc3[nH]6)C=C5)C=C4)cc2)C1
REMARK SMILES IDX 14 1 13 2 12 3 11 4 10 5 8 6 9 7 7 8 3 9 4 10 79 11 5 12
REMARK SMILES IDX 6 13 2 14 1 15 15 16 16 17 17 18 18 19 19 20 20 21 78 22
REMARK SMILES IDX 21 23 77 24 22 25 23 26 24 27 71 28 25 29 76 30 70 31 72 32
REMARK SMILES IDX 26 33 75 34 69 35 68 36 27 38 57 39 38 40 56 41 39 42 42 43
REMARK SMILES IDX 55 44 73 45 40 46 41 47 54 49 74 50 43 51 28 52 29 53 37 54
REMARK SMILES IDX 30 55 36 56 31 57 32 58 33 59 34 60 35 61 58 62 59 63 67 64
REMARK SMILES IDX 60 65 66 66 61 67 62 68 63 69 64 70 65 71 44 72 45 73 53 74
REMARK SMILES IDX 46 75 52 76 47 77 48 78 49 79 50 80 51 81
REMARK H PARENT 72 37 42 48
REMARK Flexibility Score: inf
ROOT
ATOM      1  C   UNL A   1      34.670  32.773  28.063  1.00  0.00     0.202 C 
ENDROOT
BRANCH   1   2
ATOM      2  O   UNL A   1      33.802  31.690  27.717  1.00  0.00    -0.374 OA
BRANCH   2   3
ATOM      3  C   UNL A   1      34.373  30.388  27.624  1.00  0.00     0.202 C 
BRANCH   3   4
ATOM      4  C   UNL A   1      33.709  29.398  26.663  1.00  0.00     0.261 C 
BRANCH   4   5
ATOM      5  O   UNL A   1      32.301  29.632  26.521  1.00  0.00    -0.463 OA
BRANCH   5   6
ATOM      6  C   UNL A   1      31.720  29.019  25.457  1.00  0.00     0.310 C 
ATOM      7  O   UNL A   1      31.098  29.596  24.571  1.00  0.00    -0.252 OA
BRANCH   6   8
ATOM      8  C   UNL A   1      31.976  27.524  25.422  1.00  0.00     0.119 C 
ATOM      9  N   UNL A   1      31.053  25.239  25.428  1.00  0.00    -0.344 N 
ATOM     10  C   UNL A   1      31.695  24.875  24.175  1.00  0.00     0.119 C 
ATOM     11  C   UNL A   1      30.729  26.654  25.615  1.00  0.00     0.134 C 
ATOM     12  C   UNL A   1      32.971  25.687  23.989  1.00  0.00     0.022 C 
ATOM     13  C   UNL A   1      32.684  27.182  24.102  1.00  0.00     0.019 C 
BRANCH   9  14
ATOM     14  C   UNL A   1      30.769  24.300  26.396  1.00  0.00     0.339 C 
ATOM     15  O   UNL A   1      31.489  24.000  27.338  1.00  0.00    -0.279 OA
ENDBRANCH   9  14
ENDBRANCH   6   8
ENDBRANCH   5   6
ENDBRANCH   4   5
ENDBRANCH   3   4
ENDBRANCH   2   3
ENDBRANCH   1   2
BRANCH   1  16
ATOM     16  C   UNL A   1      35.088  32.905  29.533  1.00  0.00     0.261 C 
BRANCH  16  17
ATOM     17  O   UNL A   1      36.474  32.578  29.735  1.00  0.00    -0.460 OA
BRANCH  17  18
ATOM     18  C   UNL A   1      36.707  31.516  30.543  1.00  0.00     0.338 C 
ATOM     19  O   UNL A   1      35.960  31.057  31.398  1.00  0.00    -0.246 OA
BRANCH  18  20
ATOM     20  C   UNL A   1      37.938  30.831  30.111  1.00  0.00     0.060 A 
ATOM     21  C   UNL A   1      38.886  30.506  31.090  1.00  0.00     0.016 A 
ATOM     22  C   UNL A   1      38.182  30.560  28.765  1.00  0.00     0.016 A 
ATOM     23  C   UNL A   1      40.098  29.927  30.721  1.00  0.00     0.010 A 
ATOM     24  C   UNL A   1      39.406  29.994  28.395  1.00  0.00     0.010 A 
ATOM     25  C   UNL A   1      40.378  29.695  29.369  1.00  0.00    -0.014 A 
BRANCH  25  26
ATOM     26  C   UNL A   1      41.725  29.240  28.954  1.00  0.00     0.031 A 
ATOM     27  C   UNL A   1      42.844  30.241  28.878  1.00  0.00     0.074 A 
ATOM     28  C   UNL A   1      41.945  27.951  28.643  1.00  0.00     0.049 A 
ATOM     29  N   UNL A   1      44.072  30.076  28.462  1.00  0.00    -0.248 NA
ATOM     30  C   UNL A   1      42.537  31.608  29.331  1.00  0.00     0.031 C 
ATOM     31  C   UNL A   1      40.951  26.879  28.726  1.00  0.00     0.029 A 
ATOM     32  N   UNL A   1      43.076  27.326  28.178  1.00  0.00    -0.354 N 
ATOM     33  C   UNL A   1      44.684  31.318  28.590  1.00  0.00     0.074 A 
ATOM     34  C   UNL A   1      43.685  32.230  29.105  1.00  0.00     0.031 C 
ATOM     35  C   UNL A   1      41.514  25.732  28.310  1.00  0.00     0.029 A 
ATOM     36  C   UNL A   1      42.890  25.995  27.893  1.00  0.00     0.049 A 
ATOM     37  H   UNL A   1      43.937  27.788  28.062  1.00  0.00     0.167 HD
ATOM     38  C   UNL A   1      45.960  31.666  28.305  1.00  0.00     0.031 A 
ATOM     39  C   UNL A   1      43.723  25.099  27.326  1.00  0.00     0.031 A 
ATOM     40  C   UNL A   1      46.943  30.759  27.774  1.00  0.00     0.049 A 
ATOM     41  C   UNL A   1      45.110  25.533  26.927  1.00  0.00     0.074 A 
ATOM     42  C   UNL A   1      48.268  31.010  27.466  1.00  0.00     0.029 A 
ATOM     43  N   UNL A   1      46.704  29.430  27.457  1.00  0.00    -0.354 N 
ATOM     44  N   UNL A   1      45.682  26.704  27.078  1.00  0.00    -0.248 NA
ATOM     45  C   UNL A   1      45.961  24.524  26.279  1.00  0.00     0.031 C 
ATOM     46  C   UNL A   1      48.814  29.849  26.907  1.00  0.00     0.029 A 
ATOM     47  C   UNL A   1      47.847  28.858  26.924  1.00  0.00     0.049 A 
ATOM     48  H   UNL A   1      45.848  28.962  27.592  1.00  0.00     0.167 HD
ATOM     49  C   UNL A   1      46.967  26.567  26.562  1.00  0.00     0.074 A 
ATOM     50  C   UNL A   1      47.093  25.196  26.110  1.00  0.00     0.031 C 
ATOM     51  C   UNL A   1      47.954  27.492  26.472  1.00  0.00     0.031 A 
BRANCH  38  52
ATOM     52  C   UNL A   1      46.357  33.102  28.523  1.00  0.00    -0.014 A 
ATOM     53  C   UNL A   1      46.183  34.067  27.516  1.00  0.00     0.010 A 
ATOM     54  C   UNL A   1      46.877  33.498  29.768  1.00  0.00     0.010 A 
ATOM     55  C   UNL A   1      46.557  35.396  27.739  1.00  0.00     0.020 A 
ATOM     56  C   UNL A   1      47.229  34.830  30.004  1.00  0.00     0.020 A 
ATOM     57  C   UNL A   1      47.081  35.768  28.980  1.00  0.00     0.054 A 
BRANCH  57  58
ATOM     58  S   UNL A   1      47.538  37.503  29.249  1.00  0.00     0.124 S 
ATOM     59  O   UNL A   1      47.633  37.566  30.705  1.00  0.00    -0.237 OA
ATOM     60  O   UNL A   1      48.805  37.615  28.532  1.00  0.00    -0.237 OA
ATOM     61  O   UNL A   1      46.425  38.249  28.665  1.00  0.00    -0.744 OA
ENDBRANCH  57  58
ENDBRANCH  38  52
BRANCH  39  62
ATOM     62  C   UNL A   1      43.254  23.711  27.066  1.00  0.00    -0.014 A 
ATOM     63  C   UNL A   1      42.857  23.319  25.776  1.00  0.00     0.010 A 
ATOM     64  C   UNL A   1      43.209  22.770  28.111  1.00  0.00     0.010 A 
ATOM     65  C   UNL A   1      42.413  22.014  25.539  1.00  0.00     0.020 A 
ATOM     66  C   UNL A   1      42.791  21.458  27.872  1.00  0.00     0.020 A 
ATOM     67  C   UNL A   1      42.387  21.091  26.588  1.00  0.00     0.054 A 
BRANCH  67  68
ATOM     68  S   UNL A   1      41.864  19.387  26.245  1.00  0.00     0.124 S 
ATOM     69  O   UNL A   1      40.423  19.541  26.072  1.00  0.00    -0.237 OA
ATOM     70  O   UNL A   1      42.618  19.064  25.036  1.00  0.00    -0.237 OA
ATOM     71  O   UNL A   1      42.278  18.656  27.440  1.00  0.00    -0.744 OA
ENDBRANCH  67  68
ENDBRANCH  39  62
BRANCH  51  72
ATOM     72  C   UNL A   1      49.268  27.055  25.881  1.00  0.00    -0.014 A 
ATOM     73  C   UNL A   1      49.603  27.362  24.551  1.00  0.00     0.010 A 
ATOM     74  C   UNL A   1      50.210  26.396  26.692  1.00  0.00     0.010 A 
ATOM     75  C   UNL A   1      50.851  26.998  24.035  1.00  0.00     0.020 A 
ATOM     76  C   UNL A   1      51.469  26.055  26.189  1.00  0.00     0.020 A 
ATOM     77  C   UNL A   1      51.777  26.350  24.859  1.00  0.00     0.054 A 
BRANCH  77  78
ATOM     78  S   UNL A   1      53.412  25.945  24.184  1.00  0.00     0.124 S 
ATOM     79  O   UNL A   1      53.157  25.951  22.746  1.00  0.00    -0.237 OA
ATOM     80  O   UNL A   1      54.242  27.040  24.679  1.00  0.00    -0.237 OA
ATOM     81  O   UNL A   1      53.710  24.636  24.759  1.00  0.00    -0.744 OA
ENDBRANCH  77  78
ENDBRANCH  51  72
ENDBRANCH  25  26
ENDBRANCH  18  20
ENDBRANCH  17  18
ENDBRANCH  16  17
ENDBRANCH   1  16
TORSDOF 18
ENDMDL
MODEL 3
REMARK VINA RESULT:      -9.0      6.272     11.324
REMARK SMILES O=CN1CCC[C@@H](C(=O)OCCOCCOC(=O)c2ccc(-c3c4nc(c(-c5ccc(S(=O)(=O)[O-])cc5)c5ccc([nH]5)c(-c5ccc(S(=O)(=O)[O-])cc5)c5nc(c(-c6ccc(S(=O)(=O)[O-])cc6)c6ccc3[nH]6)C=C5)C=C4)cc2)C1
REMARK SMILES IDX 14 1 13 2 12 3 11 4 10 5 8 6 9 7 7 8 3 9 4 10 79 11 5 12
REMARK SMILES IDX 6 13 2 14 1 15 15 16 16 17 17 18 18 19 19 20 20 21 78 22
REMARK SMILES IDX 21 23 77 24 22 25 23 26 24 27 71 28 25 29 76 30 70 31 72 32
REMARK SMILES IDX 26 33 75 34 69 35 68 36 27 38 57 39 38 40 56 41 39 42 42 43
REMARK SMILES IDX 55 44 73 45 40 46 41 47 54 49 74 50 43 51 28 52 29 53 37 54
REMARK SMILES IDX 30 55 36 56 31 57 32 58 33 59 34 60 35 61 58 62 59 63 67 64
REMARK SMILES IDX 60 65 66 66 61 67 62 68 63 69 64 70 65 71 44 72 45 73 53 74
REMARK SMILES IDX 46 75 52 76 47 77 48 78 49 79 50 80 51 81
REMARK H PARENT 72 37 42 48
REMARK Flexibility Score: inf
ROOT
ATOM      1  C   UNL A   1      38.274  22.078  25.717  1.00  0.00     0.202 C 
ENDROOT
BRANCH   1   2
ATOM      2  O   UNL A   1      36.864  22.163  25.942  1.00  0.00    -0.374 OA
BRANCH   2   3
ATOM      3  C   UNL A   1      36.000  21.683  24.916  1.00  0.00     0.202 C 
BRANCH   3   4
ATOM      4  C   UNL A   1      35.020  22.685  24.299  1.00  0.00     0.261 C 
BRANCH   4   5
ATOM      5  O   UNL A   1      35.230  24.022  24.774  1.00  0.00    -0.463 OA
BRANCH   5   6
ATOM      6  C   UNL A   1      34.163  24.586  25.397  1.00  0.00     0.310 C 
ATOM      7  O   UNL A   1      33.404  23.996  26.158  1.00  0.00    -0.252 OA
BRANCH   6   8
ATOM      8  C   UNL A   1      34.032  26.072  25.117  1.00  0.00     0.119 C 
ATOM      9  N   UNL A   1      33.186  27.861  23.648  1.00  0.00    -0.344 N 
ATOM     10  C   UNL A   1      32.423  28.500  24.708  1.00  0.00     0.119 C 
ATOM     11  C   UNL A   1      33.396  26.418  23.766  1.00  0.00     0.134 C 
ATOM     12  C   UNL A   1      33.071  28.218  26.058  1.00  0.00     0.022 C 
ATOM     13  C   UNL A   1      33.251  26.717  26.272  1.00  0.00     0.019 C 
BRANCH   9  14
ATOM     14  C   UNL A   1      33.695  28.579  22.588  1.00  0.00     0.339 C 
ATOM     15  O   UNL A   1      34.370  28.129  21.672  1.00  0.00    -0.279 OA
ENDBRANCH   9  14
ENDBRANCH   6   8
ENDBRANCH   5   6
ENDBRANCH   4   5
ENDBRANCH   3   4
ENDBRANCH   2   3
ENDBRANCH   1   2
BRANCH   1  16
ATOM     16  C   UNL A   1      38.872  20.684  25.490  1.00  0.00     0.261 C 
BRANCH  16  17
ATOM     17  O   UNL A   1      39.694  20.259  26.591  1.00  0.00    -0.460 OA
BRANCH  17  18
ATOM     18  C   UNL A   1      40.980  19.973  26.278  1.00  0.00     0.338 C 
ATOM     19  O   UNL A   1      41.402  18.963  25.730  1.00  0.00    -0.246 OA
BRANCH  18  20
ATOM     20  C   UNL A   1      41.818  21.163  26.507  1.00  0.00     0.060 A 
ATOM     21  C   UNL A   1      42.068  21.545  27.831  1.00  0.00     0.016 A 
ATOM     22  C   UNL A   1      42.305  21.922  25.443  1.00  0.00     0.016 A 
ATOM     23  C   UNL A   1      42.790  22.706  28.098  1.00  0.00     0.010 A 
ATOM     24  C   UNL A   1      43.016  23.095  25.712  1.00  0.00     0.010 A 
ATOM     25  C   UNL A   1      43.243  23.504  27.040  1.00  0.00    -0.014 A 
BRANCH  25  26
ATOM     26  C   UNL A   1      43.862  24.823  27.312  1.00  0.00     0.031 A 
ATOM     27  C   UNL A   1      42.989  25.960  27.764  1.00  0.00     0.074 A 
ATOM     28  C   UNL A   1      45.184  25.003  27.153  1.00  0.00     0.049 A 
ATOM     29  N   UNL A   1      43.306  27.211  27.977  1.00  0.00    -0.248 NA
ATOM     30  C   UNL A   1      41.571  25.646  28.007  1.00  0.00     0.031 C 
ATOM     31  C   UNL A   1      46.139  23.963  26.768  1.00  0.00     0.029 A 
ATOM     32  N   UNL A   1      45.951  26.134  27.281  1.00  0.00    -0.354 N 
ATOM     33  C   UNL A   1      42.129  27.837  28.367  1.00  0.00     0.074 A 
ATOM     34  C   UNL A   1      41.086  26.834  28.342  1.00  0.00     0.031 C 
ATOM     35  C   UNL A   1      47.364  24.510  26.676  1.00  0.00     0.029 A 
ATOM     36  C   UNL A   1      47.272  25.943  26.954  1.00  0.00     0.049 A 
ATOM     37  H   UNL A   1      45.589  27.000  27.580  1.00  0.00     0.167 HD
ATOM     38  C   UNL A   1      41.934  29.131  28.713  1.00  0.00     0.031 A 
ATOM     39  C   UNL A   1      48.284  26.828  26.855  1.00  0.00     0.031 A 
ATOM     40  C   UNL A   1      42.971  30.130  28.716  1.00  0.00     0.049 A 
ATOM     41  C   UNL A   1      48.022  28.281  27.152  1.00  0.00     0.074 A 
ATOM     42  C   UNL A   1      42.878  31.465  29.066  1.00  0.00     0.029 A 
ATOM     43  N   UNL A   1      44.285  29.906  28.336  1.00  0.00    -0.354 N 
ATOM     44  N   UNL A   1      46.910  28.855  27.544  1.00  0.00    -0.248 NA
ATOM     45  C   UNL A   1      49.154  29.206  26.990  1.00  0.00     0.031 C 
ATOM     46  C   UNL A   1      44.124  32.062  28.841  1.00  0.00     0.029 A 
ATOM     47  C   UNL A   1      45.007  31.086  28.408  1.00  0.00     0.049 A 
ATOM     48  H   UNL A   1      44.653  29.036  28.056  1.00  0.00     0.167 HD
ATOM     49  C   UNL A   1      47.213  30.204  27.696  1.00  0.00     0.074 A 
ATOM     50  C   UNL A   1      48.615  30.358  27.368  1.00  0.00     0.031 C 
ATOM     51  C   UNL A   1      46.402  31.224  28.073  1.00  0.00     0.031 A 
BRANCH  38  52
ATOM     52  C   UNL A   1      40.536  29.552  29.079  1.00  0.00    -0.014 A 
ATOM     53  C   UNL A   1      39.533  29.680  28.103  1.00  0.00     0.010 A 
ATOM     54  C   UNL A   1      40.212  29.788  30.428  1.00  0.00     0.010 A 
ATOM     55  C   UNL A   1      38.240  30.071  28.464  1.00  0.00     0.020 A 
ATOM     56  C   UNL A   1      38.915  30.155  30.797  1.00  0.00     0.020 A 
ATOM     57  C   UNL A   1      37.940  30.309  29.808  1.00  0.00     0.054 A 
BRANCH  57  58
ATOM     58  S   UNL A   1      36.249  30.795  30.251  1.00  0.00     0.124 S 
ATOM     59  O   UNL A   1      36.391  32.237  30.442  1.00  0.00    -0.237 OA
ATOM     60  O   UNL A   1      35.482  30.391  29.076  1.00  0.00    -0.237 OA
ATOM     61  O   UNL A   1      35.975  30.031  31.465  1.00  0.00    -0.744 OA
ENDBRANCH  57  58
ENDBRANCH  38  52
BRANCH  39  62
ATOM     62  C   UNL A   1      49.630  26.369  26.416  1.00  0.00    -0.014 A 
ATOM     63  C   UNL A   1      50.019  26.471  25.069  1.00  0.00     0.010 A 
ATOM     64  C   UNL A   1      50.535  25.832  27.350  1.00  0.00     0.010 A 
ATOM     65  C   UNL A   1      51.284  26.034  24.663  1.00  0.00     0.020 A 
ATOM     66  C   UNL A   1      51.810  25.419  26.953  1.00  0.00     0.020 A 
ATOM     67  C   UNL A   1      52.173  25.514  25.608  1.00  0.00     0.054 A 
BRANCH  67  68
ATOM     68  S   UNL A   1      53.830  25.008  25.069  1.00  0.00     0.124 S 
ATOM     69  O   UNL A   1      53.674  23.565  24.924  1.00  0.00    -0.237 OA
ATOM     70  O   UNL A   1      53.999  25.758  23.827  1.00  0.00    -0.237 OA
ATOM     71  O   UNL A   1      54.692  25.440  26.168  1.00  0.00    -0.744 OA
ENDBRANCH  67  68
ENDBRANCH  39  62
BRANCH  51  72
ATOM     72  C   UNL A   1      47.010  32.598  28.174  1.00  0.00    -0.014 A 
ATOM     73  C   UNL A   1      46.997  33.480  27.080  1.00  0.00     0.010 A 
ATOM     74  C   UNL A   1      47.533  33.038  29.405  1.00  0.00     0.010 A 
ATOM     75  C   UNL A   1      47.516  34.772  27.209  1.00  0.00     0.020 A 
ATOM     76  C   UNL A   1      48.026  34.338  29.545  1.00  0.00     0.020 A 
ATOM     77  C   UNL A   1      48.023  35.194  28.441  1.00  0.00     0.054 A 
BRANCH  77  78
ATOM     78  S   UNL A   1      48.632  36.896  28.598  1.00  0.00     0.124 S 
ATOM     79  O   UNL A   1      49.796  36.885  27.716  1.00  0.00    -0.237 OA
ATOM     80  O   UNL A   1      47.496  37.686  28.130  1.00  0.00    -0.237 OA
ATOM     81  O   UNL A   1      48.931  37.028  30.022  1.00  0.00    -0.744 OA
ENDBRANCH  77  78
ENDBRANCH  51  72
ENDBRANCH  25  26
ENDBRANCH  18  20
ENDBRANCH  17  18
ENDBRANCH  16  17
ENDBRANCH   1  16
TORSDOF 18
ENDMDL
