MODEL 1
REMARK VINA RESULT:     -10.6      0.000      0.000
REMARK SMILES NC(=O)c1ccccc1NC(=O)[C@@H]1CC=CC[C@@H]1C(=O)OCCOCCOC(=O)c1ccc(-c2c3nc(c(-c4ccc(S(=O)(=O)[O-])cc4)c4ccc([nH]4)c(-c4ccc(S(=O)(=O)[O-])cc4)c4nc(c(-c5ccc(S(=O)(=O)[O-])cc5)c5ccc2[nH]5)C=C4)C=C3)cc1
REMARK SMILES IDX 24 1 23 2 22 3 21 4 19 5 20 6 18 7 13 8 14 9 15 10 17 11
REMARK SMILES IDX 16 12 11 13 10 14 12 16 9 17 4 18 5 19 6 20 8 21 7 22 2 23
REMARK SMILES IDX 1 24 3 27 25 28 26 29 27 30 28 31 29 32 30 33 31 34 89 35
REMARK SMILES IDX 32 36 88 37 33 38 34 39 35 40 82 41 36 42 87 43 81 44 83 45
REMARK SMILES IDX 37 46 86 47 80 48 79 49 38 51 68 52 49 53 67 54 50 55 53 56
REMARK SMILES IDX 66 57 84 58 51 59 52 60 65 62 85 63 54 64 39 65 40 66 48 67
REMARK SMILES IDX 41 68 47 69 42 70 43 71 44 72 45 73 46 74 69 75 70 76 78 77
REMARK SMILES IDX 71 78 77 79 72 80 73 81 74 82 75 83 76 84 55 85 56 86 64 87
REMARK SMILES IDX 57 88 63 89 58 90 59 91 60 92 61 93 62 94
REMARK H PARENT 10 15 1 25 1 26 83 50 53 61
REMARK Flexibility Score: inf
ROOT
ATOM      1  O   UNL A   1      31.108  30.632  25.025  1.00  0.00    -0.374 OA
ENDROOT
BRANCH   1   2
ATOM      2  C   UNL A   1      30.680  29.516  24.246  1.00  0.00     0.202 C 
BRANCH   2   3
ATOM      3  C   UNL A   1      31.780  28.772  23.484  1.00  0.00     0.261 C 
BRANCH   3   4
ATOM      4  O   UNL A   1      31.733  27.353  23.717  1.00  0.00    -0.463 OA
BRANCH   4   5
ATOM      5  C   UNL A   1      32.929  26.711  23.631  1.00  0.00     0.310 C 
ATOM      6  O   UNL A   1      33.654  26.742  22.644  1.00  0.00    -0.252 OA
BRANCH   5   7
ATOM      7  C   UNL A   1      33.187  25.827  24.842  1.00  0.00     0.116 C 
ATOM      8  C   UNL A   1      32.450  24.465  24.965  1.00  0.00     0.097 C 
ATOM      9  C   UNL A   1      30.985  24.645  25.483  1.00  0.00     0.041 C 
ATOM     10  C   UNL A   1      30.691  25.874  26.285  1.00  0.00    -0.030 C 
ATOM     11  C   UNL A   1      33.030  26.659  26.135  1.00  0.00     0.043 C 
ATOM     12  C   UNL A   1      31.615  26.788  26.589  1.00  0.00    -0.030 C 
BRANCH   8  13
ATOM     13  C   UNL A   1      32.395  23.446  23.795  1.00  0.00     0.228 C 
ATOM     14  N   UNL A   1      33.323  22.499  23.495  1.00  0.00    -0.325 N 
ATOM     15  H   UNL A   1      33.039  21.883  22.782  1.00  0.00     0.169 HD
ATOM     16  O   UNL A   1      31.405  23.429  23.046  1.00  0.00    -0.274 OA
BRANCH  14  17
ATOM     17  C   UNL A   1      34.602  22.220  23.995  1.00  0.00     0.053 A 
ATOM     18  C   UNL A   1      34.809  21.101  24.826  1.00  0.00     0.063 A 
ATOM     19  C   UNL A   1      36.116  20.675  25.106  1.00  0.00     0.016 A 
ATOM     20  C   UNL A   1      37.207  21.389  24.621  1.00  0.00     0.001 A 
ATOM     21  C   UNL A   1      35.696  23.019  23.676  1.00  0.00     0.027 A 
ATOM     22  C   UNL A   1      36.997  22.589  23.951  1.00  0.00     0.002 A 
BRANCH  18  23
ATOM     23  C   UNL A   1      33.723  20.336  25.484  1.00  0.00     0.250 C 
ATOM     24  N   UNL A   1      33.576  20.437  26.836  1.00  0.00    -0.366 N 
ATOM     25  H   UNL A   1      32.862  19.937  27.292  1.00  0.00     0.159 HD
ATOM     26  H   UNL A   1      34.185  21.010  27.355  1.00  0.00     0.159 HD
ATOM     27  O   UNL A   1      32.968  19.632  24.826  1.00  0.00    -0.269 OA
ENDBRANCH  18  23
ENDBRANCH  14  17
ENDBRANCH   8  13
ENDBRANCH   5   7
ENDBRANCH   4   5
ENDBRANCH   3   4
ENDBRANCH   2   3
ENDBRANCH   1   2
BRANCH   1  28
ATOM     28  C   UNL A   1      31.640  30.330  26.315  1.00  0.00     0.202 C 
BRANCH  28  29
ATOM     29  C   UNL A   1      33.133  30.602  26.501  1.00  0.00     0.261 C 
BRANCH  29  30
ATOM     30  O   UNL A   1      33.577  30.166  27.796  1.00  0.00    -0.460 OA
BRANCH  30  31
ATOM     31  C   UNL A   1      34.524  30.953  28.351  1.00  0.00     0.338 C 
ATOM     32  O   UNL A   1      34.357  32.032  28.906  1.00  0.00    -0.246 OA
BRANCH  31  33
ATOM     33  C   UNL A   1      35.817  30.247  28.370  1.00  0.00     0.060 A 
ATOM     34  C   UNL A   1      36.211  29.693  29.592  1.00  0.00     0.016 A 
ATOM     35  C   UNL A   1      36.654  30.178  27.253  1.00  0.00     0.016 A 
ATOM     36  C   UNL A   1      37.479  29.143  29.727  1.00  0.00     0.010 A 
ATOM     37  C   UNL A   1      37.931  29.622  27.390  1.00  0.00     0.010 A 
ATOM     38  C   UNL A   1      38.365  29.148  28.642  1.00  0.00    -0.014 A 
BRANCH  38  39
ATOM     39  C   UNL A   1      39.784  28.802  28.893  1.00  0.00     0.031 A 
ATOM     40  C   UNL A   1      40.658  29.797  29.612  1.00  0.00     0.074 A 
ATOM     41  C   UNL A   1      40.252  27.580  28.579  1.00  0.00     0.049 A 
ATOM     42  N   UNL A   1      41.888  29.659  30.039  1.00  0.00    -0.248 NA
ATOM     43  C   UNL A   1      40.070  31.116  29.892  1.00  0.00     0.031 C 
ATOM     44  C   UNL A   1      39.486  26.528  27.911  1.00  0.00     0.029 A 
ATOM     45  N   UNL A   1      41.480  27.013  28.802  1.00  0.00    -0.354 N 
ATOM     46  C   UNL A   1      42.216  30.870  30.638  1.00  0.00     0.074 A 
ATOM     47  C   UNL A   1      41.075  31.744  30.483  1.00  0.00     0.031 C 
ATOM     48  C   UNL A   1      40.259  25.437  27.789  1.00  0.00     0.029 A 
ATOM     49  C   UNL A   1      41.577  25.718  28.352  1.00  0.00     0.049 A 
ATOM     50  H   UNL A   1      42.222  27.488  29.243  1.00  0.00     0.167 HD
ATOM     51  C   UNL A   1      43.361  31.220  31.271  1.00  0.00     0.031 A 
ATOM     52  C   UNL A   1      42.613  24.857  28.390  1.00  0.00     0.031 A 
ATOM     53  C   UNL A   1      44.499  30.349  31.409  1.00  0.00     0.049 A 
ATOM     54  C   UNL A   1      43.895  25.287  29.052  1.00  0.00     0.074 A 
ATOM     55  C   UNL A   1      45.701  30.597  32.047  1.00  0.00     0.029 A 
ATOM     56  N   UNL A   1      44.576  29.064  30.893  1.00  0.00    -0.354 N 
ATOM     57  N   UNL A   1      44.174  26.421  29.650  1.00  0.00    -0.248 NA
ATOM     58  C   UNL A   1      44.995  24.314  29.059  1.00  0.00     0.031 C 
ATOM     59  C   UNL A   1      46.527  29.481  31.868  1.00  0.00     0.029 A 
ATOM     60  C   UNL A   1      45.817  28.516  31.171  1.00  0.00     0.049 A 
ATOM     61  H   UNL A   1      43.854  28.608  30.403  1.00  0.00     0.167 HD
ATOM     62  C   UNL A   1      45.478  26.293  30.117  1.00  0.00     0.074 A 
ATOM     63  C   UNL A   1      45.920  24.961  29.755  1.00  0.00     0.031 C 
ATOM     64  C   UNL A   1      46.242  27.194  30.785  1.00  0.00     0.031 A 
BRANCH  51  65
ATOM     65  C   UNL A   1      43.448  32.615  31.832  1.00  0.00    -0.014 A 
ATOM     66  C   UNL A   1      43.008  32.907  33.136  1.00  0.00     0.010 A 
ATOM     67  C   UNL A   1      43.998  33.647  31.051  1.00  0.00     0.010 A 
ATOM     68  C   UNL A   1      43.082  34.212  33.634  1.00  0.00     0.020 A 
ATOM     69  C   UNL A   1      44.098  34.949  31.553  1.00  0.00     0.020 A 
ATOM     70  C   UNL A   1      43.623  35.226  32.837  1.00  0.00     0.054 A 
BRANCH  70  71
ATOM     71  S   UNL A   1      43.721  36.906  33.511  1.00  0.00     0.124 S 
ATOM     72  O   UNL A   1      42.560  36.945  34.398  1.00  0.00    -0.237 OA
ATOM     73  O   UNL A   1      45.020  36.909  34.179  1.00  0.00    -0.237 OA
ATOM     74  O   UNL A   1      43.630  37.761  32.330  1.00  0.00    -0.744 OA
ENDBRANCH  70  71
ENDBRANCH  51  65
BRANCH  52  75
ATOM     75  C   UNL A   1      42.475  23.504  27.783  1.00  0.00    -0.014 A 
ATOM     76  C   UNL A   1      42.849  23.267  26.449  1.00  0.00     0.010 A 
ATOM     77  C   UNL A   1      41.978  22.434  28.551  1.00  0.00     0.010 A 
ATOM     78  C   UNL A   1      42.721  21.991  25.892  1.00  0.00     0.020 A 
ATOM     79  C   UNL A   1      41.873  21.151  28.007  1.00  0.00     0.020 A 
ATOM     80  C   UNL A   1      42.237  20.940  26.676  1.00  0.00     0.054 A 
BRANCH  80  81
ATOM     81  S   UNL A   1      42.138  19.279  25.951  1.00  0.00     0.124 S 
ATOM     82  O   UNL A   1      42.996  19.408  24.777  1.00  0.00    -0.237 OA
ATOM     83  O   UNL A   1      42.656  18.433  27.023  1.00  0.00    -0.237 OA
ATOM     84  O   UNL A   1      40.713  19.110  25.670  1.00  0.00    -0.744 OA
ENDBRANCH  80  81
ENDBRANCH  52  75
BRANCH  64  85
ATOM     85  C   UNL A   1      47.630  26.760  31.175  1.00  0.00    -0.014 A 
ATOM     86  C   UNL A   1      48.753  27.160  30.428  1.00  0.00     0.010 A 
ATOM     87  C   UNL A   1      47.816  25.967  32.322  1.00  0.00     0.010 A 
ATOM     88  C   UNL A   1      50.032  26.737  30.796  1.00  0.00     0.020 A 
ATOM     89  C   UNL A   1      49.097  25.567  32.710  1.00  0.00     0.020 A 
ATOM     90  C   UNL A   1      50.195  25.938  31.932  1.00  0.00     0.054 A 
BRANCH  90  91
ATOM     91  S   UNL A   1      51.868  25.416  32.399  1.00  0.00     0.124 S 
ATOM     92  O   UNL A   1      52.668  25.937  31.296  1.00  0.00    -0.237 OA
ATOM     93  O   UNL A   1      52.064  26.078  33.686  1.00  0.00    -0.237 OA
ATOM     94  O   UNL A   1      51.770  23.958  32.465  1.00  0.00    -0.744 OA
ENDBRANCH  90  91
ENDBRANCH  64  85
ENDBRANCH  38  39
ENDBRANCH  31  33
ENDBRANCH  30  31
ENDBRANCH  29  30
ENDBRANCH  28  29
ENDBRANCH   1  28
TORSDOF 20
ENDMDL
MODEL 2
REMARK VINA RESULT:     -10.5      3.481      9.488
REMARK SMILES NC(=O)c1ccccc1NC(=O)[C@@H]1CC=CC[C@@H]1C(=O)OCCOCCOC(=O)c1ccc(-c2c3nc(c(-c4ccc(S(=O)(=O)[O-])cc4)c4ccc([nH]4)c(-c4ccc(S(=O)(=O)[O-])cc4)c4nc(c(-c5ccc(S(=O)(=O)[O-])cc5)c5ccc2[nH]5)C=C4)C=C3)cc1
REMARK SMILES IDX 24 1 23 2 22 3 21 4 19 5 20 6 18 7 13 8 14 9 15 10 17 11
REMARK SMILES IDX 16 12 11 13 10 14 12 16 9 17 4 18 5 19 6 20 8 21 7 22 2 23
REMARK SMILES IDX 1 24 3 27 25 28 26 29 27 30 28 31 29 32 30 33 31 34 89 35
REMARK SMILES IDX 32 36 88 37 33 38 34 39 35 40 82 41 36 42 87 43 81 44 83 45
REMARK SMILES IDX 37 46 86 47 80 48 79 49 38 51 68 52 49 53 67 54 50 55 53 56
REMARK SMILES IDX 66 57 84 58 51 59 52 60 65 62 85 63 54 64 39 65 40 66 48 67
REMARK SMILES IDX 41 68 47 69 42 70 43 71 44 72 45 73 46 74 69 75 70 76 78 77
REMARK SMILES IDX 71 78 77 79 72 80 73 81 74 82 75 83 76 84 55 85 56 86 64 87
REMARK SMILES IDX 57 88 63 89 58 90 59 91 60 92 61 93 62 94
REMARK H PARENT 10 15 1 25 1 26 83 50 53 61
REMARK Flexibility Score: inf
ROOT
ATOM      1  O   UNL A   1      37.789  21.200  25.058  1.00  0.00    -0.374 OA
ENDROOT
BRANCH   1   2
ATOM      2  C   UNL A   1      36.727  21.771  24.294  1.00  0.00     0.202 C 
BRANCH   2   3
ATOM      3  C   UNL A   1      36.879  23.254  23.945  1.00  0.00     0.261 C 
BRANCH   3   4
ATOM      4  O   UNL A   1      35.784  23.735  23.145  1.00  0.00    -0.463 OA
BRANCH   4   5
ATOM      5  C   UNL A   1      34.574  23.752  23.767  1.00  0.00     0.310 C 
ATOM      6  O   UNL A   1      34.422  23.965  24.963  1.00  0.00    -0.252 OA
BRANCH   5   7
ATOM      7  C   UNL A   1      33.451  23.324  22.835  1.00  0.00     0.116 C 
ATOM      8  C   UNL A   1      32.462  24.391  22.290  1.00  0.00     0.097 C 
ATOM      9  C   UNL A   1      31.366  24.755  23.345  1.00  0.00     0.041 C 
ATOM     10  C   UNL A   1      31.058  23.730  24.390  1.00  0.00    -0.030 C 
ATOM     11  C   UNL A   1      32.690  22.129  23.451  1.00  0.00     0.043 C 
ATOM     12  C   UNL A   1      31.650  22.534  24.441  1.00  0.00    -0.030 C 
BRANCH   8  13
ATOM     13  C   UNL A   1      32.948  25.725  21.663  1.00  0.00     0.228 C 
ATOM     14  N   UNL A   1      33.147  26.904  22.310  1.00  0.00    -0.325 N 
ATOM     15  H   UNL A   1      33.566  27.595  21.748  1.00  0.00     0.169 HD
ATOM     16  O   UNL A   1      33.231  25.766  20.455  1.00  0.00    -0.274 OA
BRANCH  14  17
ATOM     17  C   UNL A   1      32.879  27.336  23.616  1.00  0.00     0.053 A 
ATOM     18  C   UNL A   1      31.681  28.022  23.903  1.00  0.00     0.063 A 
ATOM     19  C   UNL A   1      31.295  28.218  25.237  1.00  0.00     0.016 A 
ATOM     20  C   UNL A   1      32.118  27.797  26.277  1.00  0.00     0.001 A 
ATOM     21  C   UNL A   1      33.767  27.091  24.659  1.00  0.00     0.027 A 
ATOM     22  C   UNL A   1      33.377  27.282  25.987  1.00  0.00     0.002 A 
BRANCH  18  23
ATOM     23  C   UNL A   1      30.786  28.607  22.876  1.00  0.00     0.250 C 
ATOM     24  N   UNL A   1      30.530  29.946  22.916  1.00  0.00    -0.366 N 
ATOM     25  H   UNL A   1      29.939  30.355  22.244  1.00  0.00     0.159 HD
ATOM     26  H   UNL A   1      30.938  30.504  23.618  1.00  0.00     0.159 HD
ATOM     27  O   UNL A   1      30.292  27.904  22.005  1.00  0.00    -0.269 OA
ENDBRANCH  18  23
ENDBRANCH  14  17
ENDBRANCH   8  13
ENDBRANCH   5   7
ENDBRANCH   4   5
ENDBRANCH   3   4
ENDBRANCH   2   3
ENDBRANCH   1   2
BRANCH   1  28
ATOM     28  C   UNL A   1      37.914  19.780  24.994  1.00  0.00     0.202 C 
BRANCH  28  29
ATOM     29  C   UNL A   1      39.164  19.190  25.648  1.00  0.00     0.261 C 
BRANCH  29  30
ATOM     30  O   UNL A   1      40.053  20.229  26.087  1.00  0.00    -0.460 OA
BRANCH  30  31
ATOM     31  C   UNL A   1      41.349  19.855  26.163  1.00  0.00     0.338 C 
ATOM     32  O   UNL A   1      41.814  18.748  25.924  1.00  0.00    -0.246 OA
BRANCH  31  33
ATOM     33  C   UNL A   1      42.199  21.033  26.407  1.00  0.00     0.060 A 
ATOM     34  C   UNL A   1      42.429  21.375  27.743  1.00  0.00     0.016 A 
ATOM     35  C   UNL A   1      42.707  21.824  25.371  1.00  0.00     0.016 A 
ATOM     36  C   UNL A   1      43.095  22.554  28.053  1.00  0.00     0.010 A 
ATOM     37  C   UNL A   1      43.379  23.011  25.685  1.00  0.00     0.010 A 
ATOM     38  C   UNL A   1      43.530  23.403  27.027  1.00  0.00    -0.014 A 
BRANCH  38  39
ATOM     39  C   UNL A   1      43.990  24.764  27.391  1.00  0.00     0.031 A 
ATOM     40  C   UNL A   1      45.440  25.121  27.188  1.00  0.00     0.074 A 
ATOM     41  C   UNL A   1      43.106  25.695  27.794  1.00  0.00     0.049 A 
ATOM     42  N   UNL A   1      46.033  26.279  27.326  1.00  0.00    -0.248 NA
ATOM     43  C   UNL A   1      46.338  24.032  26.769  1.00  0.00     0.031 C 
ATOM     44  C   UNL A   1      41.675  25.470  27.995  1.00  0.00     0.029 A 
ATOM     45  N   UNL A   1      43.283  27.023  28.086  1.00  0.00    -0.354 N 
ATOM     46  C   UNL A   1      47.369  26.058  27.009  1.00  0.00     0.074 A 
ATOM     47  C   UNL A   1      47.508  24.650  26.713  1.00  0.00     0.031 C 
ATOM     48  C   UNL A   1      41.100  26.626  28.366  1.00  0.00     0.029 A 
ATOM     49  C   UNL A   1      42.122  27.666  28.447  1.00  0.00     0.049 A 
ATOM     50  H   UNL A   1      44.157  27.474  28.041  1.00  0.00     0.167 HD
ATOM     51  C   UNL A   1      48.387  26.950  26.957  1.00  0.00     0.031 A 
ATOM     52  C   UNL A   1      41.910  28.948  28.803  1.00  0.00     0.031 A 
ATOM     53  C   UNL A   1      48.244  28.348  27.266  1.00  0.00     0.049 A 
ATOM     54  C   UNL A   1      43.068  29.910  28.790  1.00  0.00     0.074 A 
ATOM     55  C   UNL A   1      49.205  29.343  27.227  1.00  0.00     0.029 A 
ATOM     56  N   UNL A   1      47.063  28.949  27.678  1.00  0.00    -0.354 N 
ATOM     57  N   UNL A   1      44.316  29.693  28.448  1.00  0.00    -0.248 NA
ATOM     58  C   UNL A   1      42.783  31.293  29.194  1.00  0.00     0.031 C 
ATOM     59  C   UNL A   1      48.619  30.533  27.671  1.00  0.00     0.029 A 
ATOM     60  C   UNL A   1      47.278  30.294  27.928  1.00  0.00     0.049 A 
ATOM     61  H   UNL A   1      46.199  28.487  27.777  1.00  0.00     0.167 HD
ATOM     62  C   UNL A   1      44.964  30.916  28.582  1.00  0.00     0.074 A 
ATOM     63  C   UNL A   1      43.962  31.873  29.011  1.00  0.00     0.031 C 
ATOM     64  C   UNL A   1      46.269  31.223  28.371  1.00  0.00     0.031 A 
BRANCH  51  65
ATOM     65  C   UNL A   1      49.750  26.430  26.582  1.00  0.00    -0.014 A 
ATOM     66  C   UNL A   1      50.169  26.379  25.240  1.00  0.00     0.010 A 
ATOM     67  C   UNL A   1      50.635  26.005  27.589  1.00  0.00     0.010 A 
ATOM     68  C   UNL A   1      51.432  25.877  24.910  1.00  0.00     0.020 A 
ATOM     69  C   UNL A   1      51.909  25.527  27.267  1.00  0.00     0.020 A 
ATOM     70  C   UNL A   1      52.293  25.451  25.926  1.00  0.00     0.054 A 
BRANCH  70  71
ATOM     71  S   UNL A   1      53.931  24.819  25.473  1.00  0.00     0.124 S 
ATOM     72  O   UNL A   1      54.680  25.001  26.715  1.00  0.00    -0.237 OA
ATOM     73  O   UNL A   1      53.650  23.433  25.107  1.00  0.00    -0.237 OA
ATOM     74  O   UNL A   1      54.343  25.681  24.368  1.00  0.00    -0.744 OA
ENDBRANCH  70  71
ENDBRANCH  51  65
BRANCH  52  75
ATOM     75  C   UNL A   1      40.544  29.390  29.200  1.00  0.00    -0.014 A 
ATOM     76  C   UNL A   1      40.203  29.559  30.553  1.00  0.00     0.010 A 
ATOM     77  C   UNL A   1      39.577  29.661  28.214  1.00  0.00     0.010 A 
ATOM     78  C   UNL A   1      38.919  29.981  30.913  1.00  0.00     0.020 A 
ATOM     79  C   UNL A   1      38.301  30.110  28.568  1.00  0.00     0.020 A 
ATOM     80  C   UNL A   1      37.977  30.257  29.917  1.00  0.00     0.054 A 
BRANCH  80  81
ATOM     81  S   UNL A   1      36.338  30.864  30.406  1.00  0.00     0.124 S 
ATOM     82  O   UNL A   1      35.576  30.713  29.170  1.00  0.00    -0.237 OA
ATOM     83  O   UNL A   1      35.973  29.955  31.489  1.00  0.00    -0.237 OA
ATOM     84  O   UNL A   1      36.590  32.243  30.821  1.00  0.00    -0.744 OA
ENDBRANCH  80  81
ENDBRANCH  52  75
BRANCH  64  85
ATOM     85  C   UNL A   1      46.680  32.655  28.590  1.00  0.00    -0.014 A 
ATOM     86  C   UNL A   1      46.632  33.593  27.543  1.00  0.00     0.010 A 
ATOM     87  C   UNL A   1      47.091  33.074  29.868  1.00  0.00     0.010 A 
ATOM     88  C   UNL A   1      47.031  34.914  27.760  1.00  0.00     0.020 A 
ATOM     89  C   UNL A   1      47.462  34.401  30.096  1.00  0.00     0.020 A 
ATOM     90  C   UNL A   1      47.449  35.308  29.035  1.00  0.00     0.054 A 
BRANCH  90  91
ATOM     91  S   UNL A   1      47.945  37.033  29.297  1.00  0.00     0.124 S 
ATOM     92  O   UNL A   1      48.158  37.073  30.740  1.00  0.00    -0.237 OA
ATOM     93  O   UNL A   1      49.151  37.149  28.480  1.00  0.00    -0.237 OA
ATOM     94  O   UNL A   1      46.798  37.800  28.813  1.00  0.00    -0.744 OA
ENDBRANCH  90  91
ENDBRANCH  64  85
ENDBRANCH  38  39
ENDBRANCH  31  33
ENDBRANCH  30  31
ENDBRANCH  29  30
ENDBRANCH  28  29
ENDBRANCH   1  28
TORSDOF 20
ENDMDL
MODEL 3
REMARK VINA RESULT:     -10.5      3.423      9.453
REMARK SMILES NC(=O)c1ccccc1NC(=O)[C@@H]1CC=CC[C@@H]1C(=O)OCCOCCOC(=O)c1ccc(-c2c3nc(c(-c4ccc(S(=O)(=O)[O-])cc4)c4ccc([nH]4)c(-c4ccc(S(=O)(=O)[O-])cc4)c4nc(c(-c5ccc(S(=O)(=O)[O-])cc5)c5ccc2[nH]5)C=C4)C=C3)cc1
REMARK SMILES IDX 24 1 23 2 22 3 21 4 19 5 20 6 18 7 13 8 14 9 15 10 17 11
REMARK SMILES IDX 16 12 11 13 10 14 12 16 9 17 4 18 5 19 6 20 8 21 7 22 2 23
REMARK SMILES IDX 1 24 3 27 25 28 26 29 27 30 28 31 29 32 30 33 31 34 89 35
REMARK SMILES IDX 32 36 88 37 33 38 34 39 35 40 82 41 36 42 87 43 81 44 83 45
REMARK SMILES IDX 37 46 86 47 80 48 79 49 38 51 68 52 49 53 67 54 50 55 53 56
REMARK SMILES IDX 66 57 84 58 51 59 52 60 65 62 85 63 54 64 39 65 40 66 48 67
REMARK SMILES IDX 41 68 47 69 42 70 43 71 44 72 45 73 46 74 69 75 70 76 78 77
REMARK SMILES IDX 71 78 77 79 72 80 73 81 74 82 75 83 76 84 55 85 56 86 64 87
REMARK SMILES IDX 57 88 63 89 58 90 59 91 60 92 61 93 62 94
REMARK H PARENT 10 15 1 25 1 26 83 50 53 61
REMARK Flexibility Score: inf
ROOT
ATOM      1  O   UNL A   1      37.904  22.123  25.421  1.00  0.00    -0.374 OA
ENDROOT
BRANCH   1   2
ATOM      2  C   UNL A   1      36.733  22.809  25.864  1.00  0.00     0.202 C 
BRANCH   2   3
ATOM      3  C   UNL A   1      35.398  22.220  25.400  1.00  0.00     0.261 C 
BRANCH   3   4
ATOM      4  O   UNL A   1      34.312  23.150  25.563  1.00  0.00    -0.463 OA
BRANCH   4   5
ATOM      5  C   UNL A   1      33.947  23.819  24.436  1.00  0.00     0.310 C 
ATOM      6  O   UNL A   1      34.664  24.624  23.855  1.00  0.00    -0.252 OA
BRANCH   5   7
ATOM      7  C   UNL A   1      32.492  23.566  24.073  1.00  0.00     0.116 C 
ATOM      8  C   UNL A   1      31.475  23.212  25.192  1.00  0.00     0.097 C 
ATOM      9  C   UNL A   1      31.571  21.707  25.606  1.00  0.00     0.041 C 
ATOM     10  C   UNL A   1      32.121  20.754  24.592  1.00  0.00    -0.030 C 
ATOM     11  C   UNL A   1      32.415  22.546  22.915  1.00  0.00     0.043 C 
ATOM     12  C   UNL A   1      32.500  21.126  23.367  1.00  0.00    -0.030 C 
BRANCH   8  13
ATOM     13  C   UNL A   1      31.369  24.036  26.504  1.00  0.00     0.228 C 
ATOM     14  N   UNL A   1      30.957  25.326  26.624  1.00  0.00    -0.325 N 
ATOM     15  H   UNL A   1      30.856  25.621  27.558  1.00  0.00     0.169 HD
ATOM     16  O   UNL A   1      31.644  23.497  27.588  1.00  0.00    -0.274 OA
BRANCH  14  17
ATOM     17  C   UNL A   1      30.646  26.322  25.690  1.00  0.00     0.053 A 
ATOM     18  C   UNL A   1      31.248  27.593  25.781  1.00  0.00     0.063 A 
ATOM     19  C   UNL A   1      31.143  28.493  24.711  1.00  0.00     0.016 A 
ATOM     20  C   UNL A   1      30.393  28.162  23.586  1.00  0.00     0.001 A 
ATOM     21  C   UNL A   1      29.756  26.087  24.645  1.00  0.00     0.027 A 
ATOM     22  C   UNL A   1      29.658  26.982  23.577  1.00  0.00     0.002 A 
BRANCH  18  23
ATOM     23  C   UNL A   1      31.975  28.089  26.975  1.00  0.00     0.250 C 
ATOM     24  N   UNL A   1      33.183  28.699  26.800  1.00  0.00    -0.366 N 
ATOM     25  H   UNL A   1      33.681  29.035  27.579  1.00  0.00     0.159 HD
ATOM     26  H   UNL A   1      33.555  28.802  25.894  1.00  0.00     0.159 HD
ATOM     27  O   UNL A   1      31.498  27.961  28.094  1.00  0.00    -0.269 OA
ENDBRANCH  18  23
ENDBRANCH  14  17
ENDBRANCH   8  13
ENDBRANCH   5   7
ENDBRANCH   4   5
ENDBRANCH   3   4
ENDBRANCH   2   3
ENDBRANCH   1   2
BRANCH   1  28
ATOM     28  C   UNL A   1      37.737  20.742  25.099  1.00  0.00     0.202 C 
BRANCH  28  29
ATOM     29  C   UNL A   1      38.932  19.838  25.401  1.00  0.00     0.261 C 
BRANCH  29  30
ATOM     30  O   UNL A   1      39.821  20.459  26.344  1.00  0.00    -0.460 OA
BRANCH  30  31
ATOM     31  C   UNL A   1      41.114  20.093  26.211  1.00  0.00     0.338 C 
ATOM     32  O   UNL A   1      41.541  19.020  25.803  1.00  0.00    -0.246 OA
BRANCH  31  33
ATOM     33  C   UNL A   1      41.992  21.249  26.459  1.00  0.00     0.060 A 
ATOM     34  C   UNL A   1      42.296  21.531  27.795  1.00  0.00     0.016 A 
ATOM     35  C   UNL A   1      42.458  22.076  25.433  1.00  0.00     0.016 A 
ATOM     36  C   UNL A   1      42.994  22.688  28.118  1.00  0.00     0.010 A 
ATOM     37  C   UNL A   1      43.162  23.241  25.760  1.00  0.00     0.010 A 
ATOM     38  C   UNL A   1      43.388  23.574  27.108  1.00  0.00    -0.014 A 
BRANCH  38  39
ATOM     39  C   UNL A   1      43.886  24.912  27.504  1.00  0.00     0.031 A 
ATOM     40  C   UNL A   1      45.342  25.239  27.294  1.00  0.00     0.074 A 
ATOM     41  C   UNL A   1      43.030  25.853  27.942  1.00  0.00     0.049 A 
ATOM     42  N   UNL A   1      45.965  26.378  27.457  1.00  0.00    -0.248 NA
ATOM     43  C   UNL A   1      46.208  24.141  26.836  1.00  0.00     0.031 C 
ATOM     44  C   UNL A   1      41.596  25.658  28.153  1.00  0.00     0.029 A 
ATOM     45  N   UNL A   1      43.243  27.168  28.269  1.00  0.00    -0.354 N 
ATOM     46  C   UNL A   1      47.292  26.133  27.119  1.00  0.00     0.074 A 
ATOM     47  C   UNL A   1      47.392  24.731  26.783  1.00  0.00     0.031 C 
ATOM     48  C   UNL A   1      41.053  26.818  28.562  1.00  0.00     0.029 A 
ATOM     49  C   UNL A   1      42.102  27.829  28.661  1.00  0.00     0.049 A 
ATOM     50  H   UNL A   1      44.127  27.599  28.226  1.00  0.00     0.167 HD
ATOM     51  C   UNL A   1      48.331  27.001  27.080  1.00  0.00     0.031 A 
ATOM     52  C   UNL A   1      41.925  29.105  29.054  1.00  0.00     0.031 A 
ATOM     53  C   UNL A   1      48.226  28.393  27.429  1.00  0.00     0.049 A 
ATOM     54  C   UNL A   1      43.107  30.039  29.054  1.00  0.00     0.074 A 
ATOM     55  C   UNL A   1      49.211  29.364  27.407  1.00  0.00     0.029 A 
ATOM     56  N   UNL A   1      47.065  29.011  27.871  1.00  0.00    -0.354 N 
ATOM     57  N   UNL A   1      44.346  29.801  28.692  1.00  0.00    -0.248 NA
ATOM     58  C   UNL A   1      42.861  31.416  29.499  1.00  0.00     0.031 C 
ATOM     59  C   UNL A   1      48.660  30.556  27.890  1.00  0.00     0.029 A 
ATOM     60  C   UNL A   1      47.316  30.342  28.155  1.00  0.00     0.049 A 
ATOM     61  H   UNL A   1      46.191  28.567  27.967  1.00  0.00     0.167 HD
ATOM     62  C   UNL A   1      45.025  31.004  28.852  1.00  0.00     0.074 A 
ATOM     63  C   UNL A   1      44.053  31.972  29.318  1.00  0.00     0.031 C 
ATOM     64  C   UNL A   1      46.335  31.284  28.635  1.00  0.00     0.031 A 
BRANCH  51  65
ATOM     65  C   UNL A   1      49.676  26.457  26.676  1.00  0.00    -0.014 A 
ATOM     66  C   UNL A   1      50.071  26.413  25.326  1.00  0.00     0.010 A 
ATOM     67  C   UNL A   1      50.569  26.004  27.663  1.00  0.00     0.010 A 
ATOM     68  C   UNL A   1      51.318  25.890  24.969  1.00  0.00     0.020 A 
ATOM     69  C   UNL A   1      51.828  25.504  27.313  1.00  0.00     0.020 A 
ATOM     70  C   UNL A   1      52.187  25.436  25.965  1.00  0.00     0.054 A 
BRANCH  70  71
ATOM     71  S   UNL A   1      53.804  24.776  25.476  1.00  0.00     0.124 S 
ATOM     72  O   UNL A   1      53.453  23.444  24.990  1.00  0.00    -0.237 OA
ATOM     73  O   UNL A   1      54.242  25.723  24.453  1.00  0.00    -0.237 OA
ATOM     74  O   UNL A   1      54.579  24.800  26.715  1.00  0.00    -0.744 OA
ENDBRANCH  70  71
ENDBRANCH  51  65
BRANCH  52  75
ATOM     75  C   UNL A   1      40.576  29.570  29.478  1.00  0.00    -0.014 A 
ATOM     76  C   UNL A   1      40.253  29.709  30.839  1.00  0.00     0.010 A 
ATOM     77  C   UNL A   1      39.606  29.893  28.511  1.00  0.00     0.010 A 
ATOM     78  C   UNL A   1      38.983  30.153  31.225  1.00  0.00     0.020 A 
ATOM     79  C   UNL A   1      38.345  30.363  28.891  1.00  0.00     0.020 A 
ATOM     80  C   UNL A   1      38.039  30.480  30.248  1.00  0.00     0.054 A 
BRANCH  80  81
ATOM     81  S   UNL A   1      36.420  31.113  30.771  1.00  0.00     0.124 S 
ATOM     82  O   UNL A   1      36.026  30.140  31.784  1.00  0.00    -0.237 OA
ATOM     83  O   UNL A   1      36.748  32.447  31.269  1.00  0.00    -0.237 OA
ATOM     84  O   UNL A   1      35.629  31.094  29.543  1.00  0.00    -0.744 OA
ENDBRANCH  80  81
ENDBRANCH  52  75
BRANCH  64  85
ATOM     85  C   UNL A   1      46.785  32.698  28.889  1.00  0.00    -0.014 A 
ATOM     86  C   UNL A   1      46.588  33.706  27.927  1.00  0.00     0.010 A 
ATOM     87  C   UNL A   1      47.383  33.030  30.118  1.00  0.00     0.010 A 
ATOM     88  C   UNL A   1      47.024  35.010  28.174  1.00  0.00     0.020 A 
ATOM     89  C   UNL A   1      47.793  34.339  30.379  1.00  0.00     0.020 A 
ATOM     90  C   UNL A   1      47.629  35.317  29.397  1.00  0.00     0.054 A 
BRANCH  90  91
ATOM     91  S   UNL A   1      48.170  37.021  29.699  1.00  0.00     0.124 S 
ATOM     92  O   UNL A   1      47.526  37.323  30.974  1.00  0.00    -0.237 OA
ATOM     93  O   UNL A   1      49.625  36.894  29.745  1.00  0.00    -0.237 OA
ATOM     94  O   UNL A   1      47.653  37.759  28.548  1.00  0.00    -0.744 OA
ENDBRANCH  90  91
ENDBRANCH  64  85
ENDBRANCH  38  39
ENDBRANCH  31  33
ENDBRANCH  30  31
ENDBRANCH  29  30
ENDBRANCH  28  29
ENDBRANCH   1  28
TORSDOF 20
ENDMDL
