MODEL 1
REMARK VINA RESULT:     -10.7      0.000      0.000
REMARK SMILES O=C(C[C@H]1S/C(=[NH+]\c2ccccc2)N(NC(=O)c2ccc([N+](=O)[O-])cc2)C1=O)OCCOCCOC(=O)c1ccc(-c2c3nc(c(-c4ccc(S(=O)(=O)[O-])cc4)c4ccc([nH]4)c(-c4ccc(S(=O)(=O)[O-])cc4)c4nc(c(-c5ccc(S(=O)(=O)[O-])cc5)c5ccc2[nH]5)C=C4)C=C3)cc1
REMARK SMILES IDX 31 1 30 2 29 3 2 4 1 5 3 6 4 7 5 8 27 9 6 10 14 11 28 12
REMARK SMILES IDX 7 13 15 15 16 16 17 18 18 19 19 20 26 21 20 22 25 23 21 24
REMARK SMILES IDX 22 25 23 26 24 27 8 28 9 29 13 30 10 31 12 32 11 33 32 34
REMARK SMILES IDX 33 35 34 36 35 37 36 38 37 39 38 40 39 41 97 42 40 43 96 44
REMARK SMILES IDX 41 45 42 46 43 47 90 48 44 49 95 50 89 51 91 52 45 53 94 54
REMARK SMILES IDX 88 55 87 56 46 58 76 59 57 60 75 61 58 62 61 63 74 64 92 65
REMARK SMILES IDX 59 66 60 67 73 69 93 70 62 71 47 72 48 73 56 74 49 75 55 76
REMARK SMILES IDX 50 77 51 78 52 79 53 80 54 81 77 82 78 83 86 84 79 85 85 86
REMARK SMILES IDX 80 87 81 88 82 89 83 90 84 91 63 92 64 93 72 94 65 95 71 96
REMARK SMILES IDX 66 97 67 98 68 99 69 100 70 101
REMARK H PARENT 7 14 15 17 91 57 61 68
REMARK Flexibility Score: inf
ROOT
ATOM      1  C   UNL A   1      40.957  21.704  26.398  1.00  0.00     0.202 C 
ENDROOT
BRANCH   1   2
ATOM      2  C   UNL A   1      39.858  20.893  25.710  1.00  0.00     0.261 C 
BRANCH   2   3
ATOM      3  O   UNL A   1      38.503  21.358  25.780  1.00  0.00    -0.463 OA
BRANCH   3   4
ATOM      4  C   UNL A   1      37.403  20.837  25.207  1.00  0.00     0.307 C 
ATOM      5  O   UNL A   1      37.453  19.714  24.706  1.00  0.00    -0.252 OA
BRANCH   4   6
ATOM      6  C   UNL A   1      36.152  21.662  25.083  1.00  0.00     0.150 C 
BRANCH   6   7
ATOM      7  C   UNL A   1      35.864  22.726  26.134  1.00  0.00     0.187 C 
ATOM      8  S   UNL A   1      35.781  24.440  25.581  1.00  0.00    -0.019 SA
ATOM      9  C   UNL A   1      34.546  22.461  26.822  1.00  0.00     0.348 C 
ATOM     10  C   UNL A   1      34.070  24.586  25.932  1.00  0.00     0.343 C 
ATOM     11  N   UNL A   1      33.631  23.483  26.628  1.00  0.00    -0.078 N 
ATOM     12  O   UNL A   1      34.310  21.434  27.456  1.00  0.00    -0.243 OA
ATOM     13  N   UNL A   1      33.306  25.538  25.539  1.00  0.00    -0.233 N 
ATOM     14  H   UNL A   1      32.413  25.618  25.947  1.00  0.00     0.313 HD
BRANCH  11  15
ATOM     15  N   UNL A   1      32.356  23.236  27.190  1.00  0.00    -0.182 N 
ATOM     16  C   UNL A   1      31.060  23.513  26.824  1.00  0.00     0.286 C 
ATOM     17  H   UNL A   1      32.410  22.752  28.046  1.00  0.00     0.217 HD
ATOM     18  O   UNL A   1      30.144  23.005  27.475  1.00  0.00    -0.266 OA
BRANCH  16  19
ATOM     19  C   UNL A   1      30.669  24.433  25.755  1.00  0.00     0.043 A 
ATOM     20  C   UNL A   1      30.209  25.701  26.137  1.00  0.00     0.021 A 
ATOM     21  C   UNL A   1      30.686  24.053  24.409  1.00  0.00     0.021 A 
ATOM     22  C   UNL A   1      29.885  26.645  25.165  1.00  0.00     0.086 A 
ATOM     23  C   UNL A   1      30.374  25.003  23.428  1.00  0.00     0.086 A 
ATOM     24  C   UNL A   1      30.010  26.304  23.813  1.00  0.00     0.269 A 
BRANCH  24  25
ATOM     25  N   UNL A   1      29.830  27.350  22.802  1.00  0.00     0.062 N 
ATOM     26  O   UNL A   1      30.613  27.358  21.841  1.00  0.00    -0.258 OA
ATOM     27  O   UNL A   1      28.893  28.137  22.959  1.00  0.00    -0.258 OA
ENDBRANCH  24  25
ENDBRANCH  16  19
ENDBRANCH  11  15
BRANCH  13  28
ATOM     28  C   UNL A   1      33.676  26.474  24.559  1.00  0.00     0.125 A 
ATOM     29  C   UNL A   1      33.703  27.827  24.892  1.00  0.00     0.051 A 
ATOM     30  C   UNL A   1      33.749  26.112  23.204  1.00  0.00     0.051 A 
ATOM     31  C   UNL A   1      33.793  28.798  23.892  1.00  0.00     0.004 A 
ATOM     32  C   UNL A   1      33.843  27.079  22.204  1.00  0.00     0.004 A 
ATOM     33  C   UNL A   1      33.856  28.425  22.549  1.00  0.00     0.000 A 
ENDBRANCH  13  28
ENDBRANCH   6   7
ENDBRANCH   4   6
ENDBRANCH   3   4
ENDBRANCH   2   3
ENDBRANCH   1   2
BRANCH   1  34
ATOM     34  O   UNL A   1      42.001  21.014  27.055  1.00  0.00    -0.374 OA
BRANCH  34  35
ATOM     35  C   UNL A   1      41.952  19.593  27.114  1.00  0.00     0.202 C 
BRANCH  35  36
ATOM     36  C   UNL A   1      42.855  18.831  26.148  1.00  0.00     0.261 C 
BRANCH  36  37
ATOM     37  O   UNL A   1      43.029  19.529  24.903  1.00  0.00    -0.460 OA
BRANCH  37  38
ATOM     38  C   UNL A   1      44.314  19.745  24.533  1.00  0.00     0.338 C 
ATOM     39  O   UNL A   1      45.045  18.983  23.915  1.00  0.00    -0.246 OA
BRANCH  38  40
ATOM     40  C   UNL A   1      44.669  21.143  24.821  1.00  0.00     0.060 A 
ATOM     41  C   UNL A   1      45.360  21.430  26.005  1.00  0.00     0.016 A 
ATOM     42  C   UNL A   1      44.283  22.167  23.954  1.00  0.00     0.016 A 
ATOM     43  C   UNL A   1      45.669  22.752  26.325  1.00  0.00     0.010 A 
ATOM     44  C   UNL A   1      44.574  23.491  24.289  1.00  0.00     0.010 A 
ATOM     45  C   UNL A   1      45.259  23.789  25.478  1.00  0.00    -0.014 A 
BRANCH  45  46
ATOM     46  C   UNL A   1      45.463  25.203  25.866  1.00  0.00     0.031 A 
ATOM     47  C   UNL A   1      46.824  25.815  25.710  1.00  0.00     0.074 A 
ATOM     48  C   UNL A   1      44.453  25.909  26.403  1.00  0.00     0.049 A 
ATOM     49  N   UNL A   1      47.234  27.004  26.060  1.00  0.00    -0.248 NA
ATOM     50  C   UNL A   1      47.866  24.967  25.107  1.00  0.00     0.031 C 
ATOM     51  C   UNL A   1      43.101  25.401  26.620  1.00  0.00     0.029 A 
ATOM     52  N   UNL A   1      44.404  27.202  26.859  1.00  0.00    -0.354 N 
ATOM     53  C   UNL A   1      48.590  27.036  25.767  1.00  0.00     0.074 A 
ATOM     54  C   UNL A   1      48.931  25.752  25.192  1.00  0.00     0.031 C 
ATOM     55  C   UNL A   1      42.346  26.382  27.140  1.00  0.00     0.029 A 
ATOM     56  C   UNL A   1      43.163  27.577  27.324  1.00  0.00     0.049 A 
ATOM     57  H   UNL A   1      45.181  27.805  26.854  1.00  0.00     0.167 HD
ATOM     58  C   UNL A   1      49.475  28.035  25.990  1.00  0.00     0.031 A 
ATOM     59  C   UNL A   1      42.740  28.746  27.847  1.00  0.00     0.031 A 
ATOM     60  C   UNL A   1      49.128  29.302  26.578  1.00  0.00     0.049 A 
ATOM     61  C   UNL A   1      43.746  29.853  28.051  1.00  0.00     0.074 A 
ATOM     62  C   UNL A   1      49.952  30.385  26.825  1.00  0.00     0.029 A 
ATOM     63  N   UNL A   1      47.862  29.654  27.023  1.00  0.00    -0.354 N 
ATOM     64  N   UNL A   1      45.018  29.882  27.729  1.00  0.00    -0.248 NA
ATOM     65  C   UNL A   1      43.269  31.071  28.724  1.00  0.00     0.031 C 
ATOM     66  C   UNL A   1      49.202  31.366  27.480  1.00  0.00     0.029 A 
ATOM     67  C   UNL A   1      47.892  30.921  27.577  1.00  0.00     0.049 A 
ATOM     68  H   UNL A   1      47.061  29.085  26.954  1.00  0.00     0.167 HD
ATOM     69  C   UNL A   1      45.493  31.112  28.172  1.00  0.00     0.074 A 
ATOM     70  C   UNL A   1      44.362  31.821  28.734  1.00  0.00     0.031 C 
ATOM     71  C   UNL A   1      46.757  31.604  28.143  1.00  0.00     0.031 A 
BRANCH  58  72
ATOM     72  C   UNL A   1      50.919  27.785  25.654  1.00  0.00    -0.014 A 
ATOM     73  C   UNL A   1      51.780  27.137  26.554  1.00  0.00     0.010 A 
ATOM     74  C   UNL A   1      51.397  28.141  24.379  1.00  0.00     0.010 A 
ATOM     75  C   UNL A   1      53.099  26.855  26.187  1.00  0.00     0.020 A 
ATOM     76  C   UNL A   1      52.708  27.838  23.999  1.00  0.00     0.020 A 
ATOM     77  C   UNL A   1      53.552  27.202  24.910  1.00  0.00     0.054 A 
BRANCH  77  78
ATOM     78  S   UNL A   1      55.246  26.758  24.439  1.00  0.00     0.124 S 
ATOM     79  O   UNL A   1      55.395  25.442  25.055  1.00  0.00    -0.237 OA
ATOM     80  O   UNL A   1      55.183  26.765  22.980  1.00  0.00    -0.237 OA
ATOM     81  O   UNL A   1      56.061  27.817  25.030  1.00  0.00    -0.744 OA
ENDBRANCH  77  78
ENDBRANCH  58  72
BRANCH  59  82
ATOM     82  C   UNL A   1      41.318  28.932  28.262  1.00  0.00    -0.014 A 
ATOM     83  C   UNL A   1      40.324  29.220  27.310  1.00  0.00     0.010 A 
ATOM     84  C   UNL A   1      40.951  28.857  29.619  1.00  0.00     0.010 A 
ATOM     85  C   UNL A   1      39.005  29.467  27.706  1.00  0.00     0.020 A 
ATOM     86  C   UNL A   1      39.626  29.062  30.016  1.00  0.00     0.020 A 
ATOM     87  C   UNL A   1      38.665  29.387  29.059  1.00  0.00     0.054 A 
BRANCH  87  88
ATOM     88  S   UNL A   1      36.945  29.685  29.556  1.00  0.00     0.124 S 
ATOM     89  O   UNL A   1      36.838  28.886  30.773  1.00  0.00    -0.237 OA
ATOM     90  O   UNL A   1      36.913  31.134  29.743  1.00  0.00    -0.237 OA
ATOM     91  O   UNL A   1      36.173  29.197  28.415  1.00  0.00    -0.744 OA
ENDBRANCH  87  88
ENDBRANCH  59  82
BRANCH  71  92
ATOM     92  C   UNL A   1      46.987  32.964  28.749  1.00  0.00    -0.014 A 
ATOM     93  C   UNL A   1      47.008  34.118  27.944  1.00  0.00     0.010 A 
ATOM     94  C   UNL A   1      47.115  33.100  30.143  1.00  0.00     0.010 A 
ATOM     95  C   UNL A   1      47.180  35.380  28.520  1.00  0.00     0.020 A 
ATOM     96  C   UNL A   1      47.255  34.363  30.726  1.00  0.00     0.020 A 
ATOM     97  C   UNL A   1      47.299  35.494  29.908  1.00  0.00     0.054 A 
BRANCH  97  98
ATOM     98  S   UNL A   1      47.466  37.148  30.633  1.00  0.00     0.124 S 
ATOM     99  O   UNL A   1      46.116  37.684  30.485  1.00  0.00    -0.237 OA
ATOM    100  O   UNL A   1      47.881  36.857  32.003  1.00  0.00    -0.237 OA
ATOM    101  O   UNL A   1      48.484  37.790  29.803  1.00  0.00    -0.744 OA
ENDBRANCH  97  98
ENDBRANCH  71  92
ENDBRANCH  45  46
ENDBRANCH  38  40
ENDBRANCH  37  38
ENDBRANCH  36  37
ENDBRANCH  35  36
ENDBRANCH  34  35
ENDBRANCH   1  34
TORSDOF 22
ENDMDL
MODEL 2
REMARK VINA RESULT:     -10.4      6.942     11.772
REMARK SMILES O=C(C[C@H]1S/C(=[NH+]\c2ccccc2)N(NC(=O)c2ccc([N+](=O)[O-])cc2)C1=O)OCCOCCOC(=O)c1ccc(-c2c3nc(c(-c4ccc(S(=O)(=O)[O-])cc4)c4ccc([nH]4)c(-c4ccc(S(=O)(=O)[O-])cc4)c4nc(c(-c5ccc(S(=O)(=O)[O-])cc5)c5ccc2[nH]5)C=C4)C=C3)cc1
REMARK SMILES IDX 31 1 30 2 29 3 2 4 1 5 3 6 4 7 5 8 27 9 6 10 14 11 28 12
REMARK SMILES IDX 7 13 15 15 16 16 17 18 18 19 19 20 26 21 20 22 25 23 21 24
REMARK SMILES IDX 22 25 23 26 24 27 8 28 9 29 13 30 10 31 12 32 11 33 32 34
REMARK SMILES IDX 33 35 34 36 35 37 36 38 37 39 38 40 39 41 97 42 40 43 96 44
REMARK SMILES IDX 41 45 42 46 43 47 90 48 44 49 95 50 89 51 91 52 45 53 94 54
REMARK SMILES IDX 88 55 87 56 46 58 76 59 57 60 75 61 58 62 61 63 74 64 92 65
REMARK SMILES IDX 59 66 60 67 73 69 93 70 62 71 47 72 48 73 56 74 49 75 55 76
REMARK SMILES IDX 50 77 51 78 52 79 53 80 54 81 77 82 78 83 86 84 79 85 85 86
REMARK SMILES IDX 80 87 81 88 82 89 83 90 84 91 63 92 64 93 72 94 65 95 71 96
REMARK SMILES IDX 66 97 67 98 68 99 69 100 70 101
REMARK H PARENT 7 14 15 17 91 57 61 68
REMARK Flexibility Score: inf
ROOT
ATOM      1  C   UNL A   1      34.217  32.843  28.729  1.00  0.00     0.202 C 
ENDROOT
BRANCH   1   2
ATOM      2  C   UNL A   1      34.715  31.576  28.032  1.00  0.00     0.261 C 
BRANCH   2   3
ATOM      3  O   UNL A   1      33.790  30.505  27.795  1.00  0.00    -0.463 OA
BRANCH   3   4
ATOM      4  C   UNL A   1      33.553  29.835  26.652  1.00  0.00     0.307 C 
ATOM      5  O   UNL A   1      32.936  30.386  25.742  1.00  0.00    -0.252 OA
BRANCH   4   6
ATOM      6  C   UNL A   1      33.944  28.388  26.530  1.00  0.00     0.150 C 
BRANCH   6   7
ATOM      7  C   UNL A   1      32.922  27.390  26.001  1.00  0.00     0.187 C 
ATOM      8  S   UNL A   1      31.247  27.990  25.715  1.00  0.00    -0.019 SA
ATOM      9  C   UNL A   1      33.371  26.807  24.682  1.00  0.00     0.348 C 
ATOM     10  C   UNL A   1      31.351  27.785  23.978  1.00  0.00     0.343 C 
ATOM     11  N   UNL A   1      32.498  27.101  23.647  1.00  0.00    -0.078 N 
ATOM     12  O   UNL A   1      34.414  26.170  24.546  1.00  0.00    -0.243 OA
ATOM     13  N   UNL A   1      30.527  28.262  23.118  1.00  0.00    -0.233 N 
ATOM     14  H   UNL A   1      30.576  27.932  22.192  1.00  0.00     0.313 HD
BRANCH  11  15
ATOM     15  N   UNL A   1      32.925  26.640  22.378  1.00  0.00    -0.182 N 
ATOM     16  C   UNL A   1      32.980  25.415  21.757  1.00  0.00     0.286 C 
ATOM     17  H   UNL A   1      33.264  27.367  21.808  1.00  0.00     0.217 HD
ATOM     18  O   UNL A   1      33.265  25.377  20.557  1.00  0.00    -0.266 OA
BRANCH  16  19
ATOM     19  C   UNL A   1      32.797  24.126  22.425  1.00  0.00     0.043 A 
ATOM     20  C   UNL A   1      33.953  23.396  22.736  1.00  0.00     0.021 A 
ATOM     21  C   UNL A   1      31.527  23.603  22.688  1.00  0.00     0.021 A 
ATOM     22  C   UNL A   1      33.849  22.193  23.432  1.00  0.00     0.086 A 
ATOM     23  C   UNL A   1      31.419  22.400  23.398  1.00  0.00     0.086 A 
ATOM     24  C   UNL A   1      32.582  21.722  23.797  1.00  0.00     0.269 A 
BRANCH  24  25
ATOM     25  N   UNL A   1      32.490  20.548  24.670  1.00  0.00     0.062 N 
ATOM     26  O   UNL A   1      31.790  20.646  25.689  1.00  0.00    -0.258 OA
ATOM     27  O   UNL A   1      33.094  19.531  24.320  1.00  0.00    -0.258 OA
ENDBRANCH  24  25
ENDBRANCH  16  19
ENDBRANCH  11  15
BRANCH  13  28
ATOM     28  C   UNL A   1      29.558  29.231  23.429  1.00  0.00     0.125 A 
ATOM     29  C   UNL A   1      28.219  28.961  23.154  1.00  0.00     0.051 A 
ATOM     30  C   UNL A   1      29.929  30.548  23.749  1.00  0.00     0.051 A 
ATOM     31  C   UNL A   1      27.271  29.986  23.188  1.00  0.00     0.004 A 
ATOM     32  C   UNL A   1      28.984  31.573  23.788  1.00  0.00     0.004 A 
ATOM     33  C   UNL A   1      27.654  31.291  23.498  1.00  0.00     0.000 A 
ENDBRANCH  13  28
ENDBRANCH   6   7
ENDBRANCH   4   6
ENDBRANCH   3   4
ENDBRANCH   2   3
ENDBRANCH   1   2
BRANCH   1  34
ATOM     34  O   UNL A   1      34.014  34.009  27.956  1.00  0.00    -0.374 OA
BRANCH  34  35
ATOM     35  C   UNL A   1      34.022  35.274  28.609  1.00  0.00     0.202 C 
BRANCH  35  36
ATOM     36  C   UNL A   1      32.829  35.594  29.505  1.00  0.00     0.261 C 
BRANCH  36  37
ATOM     37  O   UNL A   1      33.233  36.151  30.767  1.00  0.00    -0.460 OA
BRANCH  37  38
ATOM     38  C   UNL A   1      33.048  35.349  31.843  1.00  0.00     0.338 C 
ATOM     39  O   UNL A   1      31.991  35.095  32.405  1.00  0.00    -0.246 OA
BRANCH  38  40
ATOM     40  C   UNL A   1      34.307  34.651  32.144  1.00  0.00     0.060 A 
ATOM     41  C   UNL A   1      34.248  33.378  32.725  1.00  0.00     0.016 A 
ATOM     42  C   UNL A   1      35.536  35.266  31.896  1.00  0.00     0.016 A 
ATOM     43  C   UNL A   1      35.427  32.713  33.061  1.00  0.00     0.010 A 
ATOM     44  C   UNL A   1      36.713  34.607  32.255  1.00  0.00     0.010 A 
ATOM     45  C   UNL A   1      36.664  33.335  32.847  1.00  0.00    -0.014 A 
BRANCH  45  46
ATOM     46  C   UNL A   1      37.916  32.700  33.317  1.00  0.00     0.031 A 
ATOM     47  C   UNL A   1      38.576  31.662  32.459  1.00  0.00     0.074 A 
ATOM     48  C   UNL A   1      38.421  33.014  34.522  1.00  0.00     0.049 A 
ATOM     49  N   UNL A   1      39.628  30.933  32.717  1.00  0.00    -0.248 NA
ATOM     50  C   UNL A   1      37.955  31.389  31.153  1.00  0.00     0.031 C 
ATOM     51  C   UNL A   1      37.843  33.990  35.442  1.00  0.00     0.029 A 
ATOM     52  N   UNL A   1      39.533  32.550  35.179  1.00  0.00    -0.354 N 
ATOM     53  C   UNL A   1      39.769  30.079  31.631  1.00  0.00     0.074 A 
ATOM     54  C   UNL A   1      38.706  30.395  30.701  1.00  0.00     0.031 C 
ATOM     55  C   UNL A   1      38.623  34.075  36.533  1.00  0.00     0.029 A 
ATOM     56  C   UNL A   1      39.735  33.139  36.406  1.00  0.00     0.049 A 
ATOM     57  H   UNL A   1      40.129  31.861  34.807  1.00  0.00     0.167 HD
ATOM     58  C   UNL A   1      40.685  29.101  31.445  1.00  0.00     0.031 A 
ATOM     59  C   UNL A   1      40.701  32.938  37.326  1.00  0.00     0.031 A 
ATOM     60  C   UNL A   1      41.729  28.784  32.385  1.00  0.00     0.049 A 
ATOM     61  C   UNL A   1      41.727  31.860  37.073  1.00  0.00     0.074 A 
ATOM     62  C   UNL A   1      42.716  27.822  32.275  1.00  0.00     0.029 A 
ATOM     63  N   UNL A   1      41.914  29.409  33.609  1.00  0.00    -0.354 N 
ATOM     64  N   UNL A   1      41.873  31.090  36.020  1.00  0.00    -0.248 NA
ATOM     65  C   UNL A   1      42.697  31.598  38.147  1.00  0.00     0.031 C 
ATOM     66  C   UNL A   1      43.457  27.818  33.460  1.00  0.00     0.029 A 
ATOM     67  C   UNL A   1      42.975  28.827  34.280  1.00  0.00     0.049 A 
ATOM     68  H   UNL A   1      41.370  30.156  33.950  1.00  0.00     0.167 HD
ATOM     69  C   UNL A   1      42.940  30.246  36.312  1.00  0.00     0.074 A 
ATOM     70  C   UNL A   1      43.437  30.635  37.615  1.00  0.00     0.031 C 
ATOM     71  C   UNL A   1      43.447  29.221  35.583  1.00  0.00     0.031 A 
BRANCH  58  72
ATOM     72  C   UNL A   1      40.571  28.255  30.207  1.00  0.00    -0.014 A 
ATOM     73  C   UNL A   1      41.339  28.522  29.062  1.00  0.00     0.010 A 
ATOM     74  C   UNL A   1      39.733  27.124  30.224  1.00  0.00     0.010 A 
ATOM     75  C   UNL A   1      41.264  27.678  27.951  1.00  0.00     0.020 A 
ATOM     76  C   UNL A   1      39.675  26.263  29.125  1.00  0.00     0.020 A 
ATOM     77  C   UNL A   1      40.438  26.550  27.993  1.00  0.00     0.054 A 
BRANCH  77  78
ATOM     78  S   UNL A   1      40.418  25.435  26.563  1.00  0.00     0.124 S 
ATOM     79  O   UNL A   1      39.031  24.976  26.559  1.00  0.00    -0.237 OA
ATOM     80  O   UNL A   1      40.789  26.321  25.463  1.00  0.00    -0.237 OA
ATOM     81  O   UNL A   1      41.409  24.416  26.902  1.00  0.00    -0.744 OA
ENDBRANCH  77  78
ENDBRANCH  58  72
BRANCH  59  82
ATOM     82  C   UNL A   1      40.732  33.727  38.593  1.00  0.00    -0.014 A 
ATOM     83  C   UNL A   1      41.545  34.870  38.707  1.00  0.00     0.010 A 
ATOM     84  C   UNL A   1      39.976  33.322  39.710  1.00  0.00     0.010 A 
ATOM     85  C   UNL A   1      41.631  35.568  39.916  1.00  0.00     0.020 A 
ATOM     86  C   UNL A   1      40.027  34.041  40.908  1.00  0.00     0.020 A 
ATOM     87  C   UNL A   1      40.871  35.147  41.011  1.00  0.00     0.054 A 
BRANCH  87  88
ATOM     88  S   UNL A   1      40.973  36.076  42.567  1.00  0.00     0.124 S 
ATOM     89  O   UNL A   1      40.646  35.052  43.554  1.00  0.00    -0.237 OA
ATOM     90  O   UNL A   1      42.358  36.541  42.570  1.00  0.00    -0.237 OA
ATOM     91  O   UNL A   1      39.973  37.128  42.399  1.00  0.00    -0.744 OA
ENDBRANCH  87  88
ENDBRANCH  59  82
BRANCH  71  92
ATOM     92  C   UNL A   1      44.587  28.440  36.181  1.00  0.00    -0.014 A 
ATOM     93  C   UNL A   1      44.350  27.258  36.906  1.00  0.00     0.010 A 
ATOM     94  C   UNL A   1      45.914  28.851  35.959  1.00  0.00     0.010 A 
ATOM     95  C   UNL A   1      45.417  26.516  37.421  1.00  0.00     0.020 A 
ATOM     96  C   UNL A   1      46.985  28.095  36.444  1.00  0.00     0.020 A 
ATOM     97  C   UNL A   1      46.729  26.938  37.183  1.00  0.00     0.054 A 
BRANCH  97  98
ATOM     98  S   UNL A   1      48.095  25.928  37.816  1.00  0.00     0.124 S 
ATOM     99  O   UNL A   1      47.778  24.610  37.272  1.00  0.00    -0.237 OA
ATOM    100  O   UNL A   1      49.268  26.580  37.241  1.00  0.00    -0.237 OA
ATOM    101  O   UNL A   1      47.972  26.047  39.268  1.00  0.00    -0.744 OA
ENDBRANCH  97  98
ENDBRANCH  71  92
ENDBRANCH  45  46
ENDBRANCH  38  40
ENDBRANCH  37  38
ENDBRANCH  36  37
ENDBRANCH  35  36
ENDBRANCH  34  35
ENDBRANCH   1  34
TORSDOF 22
ENDMDL
MODEL 3
REMARK VINA RESULT:     -10.1      1.437      2.131
REMARK SMILES O=C(C[C@H]1S/C(=[NH+]\c2ccccc2)N(NC(=O)c2ccc([N+](=O)[O-])cc2)C1=O)OCCOCCOC(=O)c1ccc(-c2c3nc(c(-c4ccc(S(=O)(=O)[O-])cc4)c4ccc([nH]4)c(-c4ccc(S(=O)(=O)[O-])cc4)c4nc(c(-c5ccc(S(=O)(=O)[O-])cc5)c5ccc2[nH]5)C=C4)C=C3)cc1
REMARK SMILES IDX 31 1 30 2 29 3 2 4 1 5 3 6 4 7 5 8 27 9 6 10 14 11 28 12
REMARK SMILES IDX 7 13 15 15 16 16 17 18 18 19 19 20 26 21 20 22 25 23 21 24
REMARK SMILES IDX 22 25 23 26 24 27 8 28 9 29 13 30 10 31 12 32 11 33 32 34
REMARK SMILES IDX 33 35 34 36 35 37 36 38 37 39 38 40 39 41 97 42 40 43 96 44
REMARK SMILES IDX 41 45 42 46 43 47 90 48 44 49 95 50 89 51 91 52 45 53 94 54
REMARK SMILES IDX 88 55 87 56 46 58 76 59 57 60 75 61 58 62 61 63 74 64 92 65
REMARK SMILES IDX 59 66 60 67 73 69 93 70 62 71 47 72 48 73 56 74 49 75 55 76
REMARK SMILES IDX 50 77 51 78 52 79 53 80 54 81 77 82 78 83 86 84 79 85 85 86
REMARK SMILES IDX 80 87 81 88 82 89 83 90 84 91 63 92 64 93 72 94 65 95 71 96
REMARK SMILES IDX 66 97 67 98 68 99 69 100 70 101
REMARK H PARENT 7 14 15 17 91 57 61 68
REMARK Flexibility Score: inf
ROOT
ATOM      1  C   UNL A   1      41.220  22.021  26.938  1.00  0.00     0.202 C 
ENDROOT
BRANCH   1   2
ATOM      2  C   UNL A   1      40.042  21.583  26.066  1.00  0.00     0.261 C 
BRANCH   2   3
ATOM      3  O   UNL A   1      38.798  22.289  26.173  1.00  0.00    -0.463 OA
BRANCH   3   4
ATOM      4  C   UNL A   1      37.715  22.211  25.378  1.00  0.00     0.307 C 
ATOM      5  O   UNL A   1      37.524  21.196  24.710  1.00  0.00    -0.252 OA
BRANCH   4   6
ATOM      6  C   UNL A   1      36.805  23.398  25.224  1.00  0.00     0.150 C 
BRANCH   6   7
ATOM      7  C   UNL A   1      35.306  23.164  25.089  1.00  0.00     0.187 C 
ATOM      8  S   UNL A   1      34.209  24.227  26.045  1.00  0.00    -0.019 SA
ATOM      9  C   UNL A   1      34.864  23.318  23.653  1.00  0.00     0.348 C 
ATOM     10  C   UNL A   1      33.538  25.002  24.624  1.00  0.00     0.343 C 
ATOM     11  N   UNL A   1      33.953  24.350  23.486  1.00  0.00    -0.078 N 
ATOM     12  O   UNL A   1      35.294  22.622  22.735  1.00  0.00    -0.243 OA
ATOM     13  N   UNL A   1      32.825  26.068  24.620  1.00  0.00    -0.233 N 
ATOM     14  H   UNL A   1      32.349  26.307  23.793  1.00  0.00     0.313 HD
BRANCH  11  15
ATOM     15  N   UNL A   1      33.575  24.578  22.141  1.00  0.00    -0.182 N 
ATOM     16  C   UNL A   1      32.914  25.581  21.473  1.00  0.00     0.286 C 
ATOM     17  H   UNL A   1      33.850  23.846  21.543  1.00  0.00     0.217 HD
ATOM     18  O   UNL A   1      32.887  25.549  20.240  1.00  0.00    -0.266 OA
BRANCH  16  19
ATOM     19  C   UNL A   1      32.163  26.662  22.113  1.00  0.00     0.043 A 
ATOM     20  C   UNL A   1      32.849  27.860  22.362  1.00  0.00     0.021 A 
ATOM     21  C   UNL A   1      30.836  26.499  22.524  1.00  0.00     0.021 A 
ATOM     22  C   UNL A   1      32.171  28.949  22.907  1.00  0.00     0.086 A 
ATOM     23  C   UNL A   1      30.148  27.594  23.061  1.00  0.00     0.086 A 
ATOM     24  C   UNL A   1      30.811  28.823  23.215  1.00  0.00     0.269 A 
BRANCH  24  25
ATOM     25  N   UNL A   1      30.068  30.016  23.629  1.00  0.00     0.062 N 
ATOM     26  O   UNL A   1      30.420  30.573  24.679  1.00  0.00    -0.258 OA
ATOM     27  O   UNL A   1      29.159  30.404  22.892  1.00  0.00    -0.258 OA
ENDBRANCH  24  25
ENDBRANCH  16  19
ENDBRANCH  11  15
BRANCH  13  28
ATOM     28  C   UNL A   1      32.686  26.911  25.736  1.00  0.00     0.125 A 
ATOM     29  C   UNL A   1      31.480  26.918  26.432  1.00  0.00     0.051 A 
ATOM     30  C   UNL A   1      33.620  27.928  25.993  1.00  0.00     0.051 A 
ATOM     31  C   UNL A   1      31.207  27.926  27.360  1.00  0.00     0.004 A 
ATOM     32  C   UNL A   1      33.353  28.933  26.923  1.00  0.00     0.004 A 
ATOM     33  C   UNL A   1      32.139  28.936  27.600  1.00  0.00     0.000 A 
ENDBRANCH  13  28
ENDBRANCH   6   7
ENDBRANCH   4   6
ENDBRANCH   3   4
ENDBRANCH   2   3
ENDBRANCH   1   2
BRANCH   1  34
ATOM     34  O   UNL A   1      42.041  21.027  27.520  1.00  0.00    -0.374 OA
BRANCH  34  35
ATOM     35  C   UNL A   1      41.741  19.659  27.271  1.00  0.00     0.202 C 
BRANCH  35  36
ATOM     36  C   UNL A   1      42.682  18.906  26.334  1.00  0.00     0.261 C 
BRANCH  36  37
ATOM     37  O   UNL A   1      42.852  19.584  25.077  1.00  0.00    -0.460 OA
BRANCH  37  38
ATOM     38  C   UNL A   1      44.135  19.794  24.699  1.00  0.00     0.338 C 
ATOM     39  O   UNL A   1      44.861  19.026  24.081  1.00  0.00    -0.246 OA
BRANCH  38  40
ATOM     40  C   UNL A   1      44.496  21.192  24.979  1.00  0.00     0.060 A 
ATOM     41  C   UNL A   1      45.249  21.475  26.126  1.00  0.00     0.016 A 
ATOM     42  C   UNL A   1      44.057  22.220  24.142  1.00  0.00     0.016 A 
ATOM     43  C   UNL A   1      45.566  22.797  26.439  1.00  0.00     0.010 A 
ATOM     44  C   UNL A   1      44.357  23.543  24.470  1.00  0.00     0.010 A 
ATOM     45  C   UNL A   1      45.103  23.837  25.623  1.00  0.00    -0.014 A 
BRANCH  45  46
ATOM     46  C   UNL A   1      45.320  25.249  26.011  1.00  0.00     0.031 A 
ATOM     47  C   UNL A   1      46.681  25.855  25.838  1.00  0.00     0.074 A 
ATOM     48  C   UNL A   1      44.319  25.960  26.561  1.00  0.00     0.049 A 
ATOM     49  N   UNL A   1      47.101  27.042  26.185  1.00  0.00    -0.248 NA
ATOM     50  C   UNL A   1      47.711  25.004  25.222  1.00  0.00     0.031 C 
ATOM     51  C   UNL A   1      42.968  25.457  26.794  1.00  0.00     0.029 A 
ATOM     52  N   UNL A   1      44.282  27.252  27.020  1.00  0.00    -0.354 N 
ATOM     53  C   UNL A   1      48.454  27.067  25.876  1.00  0.00     0.074 A 
ATOM     54  C   UNL A   1      48.781  25.783  25.295  1.00  0.00     0.031 C 
ATOM     55  C   UNL A   1      42.224  26.441  27.325  1.00  0.00     0.029 A 
ATOM     56  C   UNL A   1      43.049  27.632  27.500  1.00  0.00     0.049 A 
ATOM     57  H   UNL A   1      45.062  27.851  27.006  1.00  0.00     0.167 HD
ATOM     58  C   UNL A   1      49.345  28.062  26.089  1.00  0.00     0.031 A 
ATOM     59  C   UNL A   1      42.638  28.803  28.030  1.00  0.00     0.031 A 
ATOM     60  C   UNL A   1      49.012  29.330  26.683  1.00  0.00     0.049 A 
ATOM     61  C   UNL A   1      43.652  29.904  28.224  1.00  0.00     0.074 A 
ATOM     62  C   UNL A   1      49.845  30.409  26.921  1.00  0.00     0.029 A 
ATOM     63  N   UNL A   1      47.754  29.687  27.144  1.00  0.00    -0.354 N 
ATOM     64  N   UNL A   1      44.920  29.928  27.886  1.00  0.00    -0.248 NA
ATOM     65  C   UNL A   1      43.189  31.123  28.904  1.00  0.00     0.031 C 
ATOM     66  C   UNL A   1      49.107  31.392  27.587  1.00  0.00     0.029 A 
ATOM     67  C   UNL A   1      47.797  30.954  27.699  1.00  0.00     0.049 A 
ATOM     68  H   UNL A   1      46.949  29.123  27.084  1.00  0.00     0.167 HD
ATOM     69  C   UNL A   1      45.406  31.155  28.324  1.00  0.00     0.074 A 
ATOM     70  C   UNL A   1      44.285  31.868  28.902  1.00  0.00     0.031 C 
ATOM     71  C   UNL A   1      46.672  31.641  28.281  1.00  0.00     0.031 A 
BRANCH  58  72
ATOM     72  C   UNL A   1      50.784  27.806  25.734  1.00  0.00    -0.014 A 
ATOM     73  C   UNL A   1      51.700  27.326  26.685  1.00  0.00     0.010 A 
ATOM     74  C   UNL A   1      51.203  27.979  24.401  1.00  0.00     0.010 A 
ATOM     75  C   UNL A   1      53.014  27.031  26.310  1.00  0.00     0.020 A 
ATOM     76  C   UNL A   1      52.508  27.660  24.017  1.00  0.00     0.020 A 
ATOM     77  C   UNL A   1      53.407  27.193  24.977  1.00  0.00     0.054 A 
BRANCH  77  78
ATOM     78  S   UNL A   1      55.097  26.732  24.508  1.00  0.00     0.124 S 
ATOM     79  O   UNL A   1      55.059  25.277  24.636  1.00  0.00    -0.237 OA
ATOM     80  O   UNL A   1      55.198  27.239  23.143  1.00  0.00    -0.237 OA
ATOM     81  O   UNL A   1      55.931  27.421  25.490  1.00  0.00    -0.744 OA
ENDBRANCH  77  78
ENDBRANCH  58  72
BRANCH  59  82
ATOM     82  C   UNL A   1      41.223  28.994  28.464  1.00  0.00    -0.014 A 
ATOM     83  C   UNL A   1      40.220  29.306  27.527  1.00  0.00     0.010 A 
ATOM     84  C   UNL A   1      40.869  28.902  29.824  1.00  0.00     0.010 A 
ATOM     85  C   UNL A   1      38.908  29.558  27.940  1.00  0.00     0.020 A 
ATOM     86  C   UNL A   1      39.551  29.112  30.237  1.00  0.00     0.020 A 
ATOM     87  C   UNL A   1      38.582  29.460  29.295  1.00  0.00     0.054 A 
BRANCH  87  88
ATOM     88  S   UNL A   1      36.870  29.766  29.816  1.00  0.00     0.124 S 
ATOM     89  O   UNL A   1      36.112  29.288  28.664  1.00  0.00    -0.237 OA
ATOM     90  O   UNL A   1      36.756  28.960  31.029  1.00  0.00    -0.237 OA
ATOM     91  O   UNL A   1      36.836  31.211  30.034  1.00  0.00    -0.744 OA
ENDBRANCH  87  88
ENDBRANCH  59  82
BRANCH  71  92
ATOM     92  C   UNL A   1      46.916  32.999  28.885  1.00  0.00    -0.014 A 
ATOM     93  C   UNL A   1      46.656  34.172  28.153  1.00  0.00     0.010 A 
ATOM     94  C   UNL A   1      47.344  33.107  30.221  1.00  0.00     0.010 A 
ATOM     95  C   UNL A   1      46.845  35.428  28.737  1.00  0.00     0.020 A 
ATOM     96  C   UNL A   1      47.504  34.360  30.819  1.00  0.00     0.020 A 
ATOM     97  C   UNL A   1      47.265  35.514  30.068  1.00  0.00     0.054 A 
BRANCH  97  98
ATOM     98  S   UNL A   1      47.450  37.155  30.817  1.00  0.00     0.124 S 
ATOM     99  O   UNL A   1      46.791  36.978  32.107  1.00  0.00    -0.237 OA
ATOM    100  O   UNL A   1      48.900  37.321  30.869  1.00  0.00    -0.237 OA
ATOM    101  O   UNL A   1      46.760  38.043  29.883  1.00  0.00    -0.744 OA
ENDBRANCH  97  98
ENDBRANCH  71  92
ENDBRANCH  45  46
ENDBRANCH  38  40
ENDBRANCH  37  38
ENDBRANCH  36  37
ENDBRANCH  35  36
ENDBRANCH  34  35
ENDBRANCH   1  34
TORSDOF 22
ENDMDL
