MODEL 1
REMARK VINA RESULT:      -8.2      0.000      0.000
REMARK SMILES CC(C)CN(C(=O)COCC(=O)OCCOCCOC(=O)c1ccc(-c2c3nc(c(-c4ccc(S(=O)(=O)[O-])cc4)c4ccc([nH]4)c(-c4ccc(S(=O)(=O)[O-])cc4)c4nc(c(-c5ccc(S(=O)(=O)[O-])cc5)c5ccc2[nH]5)C=C4)C=C3)cc1)C1CCCC1
REMARK SMILES IDX 14 1 13 2 11 3 12 4 10 5 9 6 8 7 6 8 7 9 5 10 4 11 2 12 1 13
REMARK SMILES IDX 3 14 82 15 83 16 86 17 84 18 85 19 15 20 16 21 17 22 18 23
REMARK SMILES IDX 19 24 20 25 21 26 22 27 23 28 81 29 24 30 80 31 25 32 26 33
REMARK SMILES IDX 27 34 74 35 28 36 79 37 73 38 75 39 29 40 78 41 72 42 71 43
REMARK SMILES IDX 30 45 60 46 41 47 59 48 42 49 45 50 58 51 76 52 43 53 44 54
REMARK SMILES IDX 57 56 77 57 46 58 31 59 32 60 40 61 33 62 39 63 34 64 35 65
REMARK SMILES IDX 36 66 37 67 38 68 61 69 62 70 70 71 63 72 69 73 64 74 65 75
REMARK SMILES IDX 66 76 67 77 68 78 47 79 48 80 56 81 49 82 55 83 50 84 51 85
REMARK SMILES IDX 52 86 53 87 54 88
REMARK H PARENT 75 44 45 55
REMARK Flexibility Score: inf
ROOT
ATOM      1  C   UNL A   1      39.236  20.848  25.769  1.00  0.00     0.261 C 
ENDROOT
BRANCH   1   2
ATOM      2  O   UNL A   1      39.187  22.252  26.112  1.00  0.00    -0.462 OA
BRANCH   2   3
ATOM      3  C   UNL A   1      38.024  22.893  25.813  1.00  0.00     0.332 C 
ATOM      4  O   UNL A   1      37.574  23.856  26.427  1.00  0.00    -0.250 OA
BRANCH   3   5
ATOM      5  C   UNL A   1      37.252  22.239  24.652  1.00  0.00     0.283 C 
BRANCH   5   6
ATOM      6  O   UNL A   1      36.446  22.925  23.710  1.00  0.00    -0.360 OA
BRANCH   6   7
ATOM      7  C   UNL A   1      35.065  22.961  24.017  1.00  0.00     0.261 C 
BRANCH   7   8
ATOM      8  C   UNL A   1      34.248  24.204  23.586  1.00  0.00     0.248 C 
ATOM      9  O   UNL A   1      34.421  24.620  22.438  1.00  0.00    -0.272 OA
BRANCH   8  10
ATOM     10  N   UNL A   1      33.379  24.822  24.491  1.00  0.00    -0.337 N 
BRANCH  10  11
ATOM     11  C   UNL A   1      32.134  24.167  24.942  1.00  0.00     0.122 C 
BRANCH  11  12
ATOM     12  C   UNL A   1      32.336  22.839  25.706  1.00  0.00     0.002 C 
ATOM     13  C   UNL A   1      32.833  23.040  27.141  1.00  0.00     0.009 C 
ATOM     14  C   UNL A   1      31.007  22.074  25.757  1.00  0.00     0.009 C 
ENDBRANCH  11  12
ENDBRANCH  10  11
BRANCH  10  15
ATOM     15  C   UNL A   1      33.785  26.061  25.195  1.00  0.00     0.085 C 
ATOM     16  C   UNL A   1      33.916  27.373  24.406  1.00  0.00     0.025 C 
ATOM     17  C   UNL A   1      32.808  26.495  26.301  1.00  0.00     0.025 C 
ATOM     18  C   UNL A   1      34.046  28.431  25.493  1.00  0.00     0.002 C 
ATOM     19  C   UNL A   1      33.156  27.946  26.628  1.00  0.00     0.002 C 
ENDBRANCH  10  15
ENDBRANCH   8  10
ENDBRANCH   7   8
ENDBRANCH   6   7
ENDBRANCH   5   6
ENDBRANCH   3   5
ENDBRANCH   2   3
ENDBRANCH   1   2
BRANCH   1  20
ATOM     20  C   UNL A   1      40.459  20.152  26.375  1.00  0.00     0.202 C 
BRANCH  20  21
ATOM     21  O   UNL A   1      41.353  19.541  25.440  1.00  0.00    -0.374 OA
BRANCH  21  22
ATOM     22  C   UNL A   1      42.663  19.256  25.926  1.00  0.00     0.202 C 
BRANCH  22  23
ATOM     23  C   UNL A   1      43.804  19.988  25.206  1.00  0.00     0.261 C 
BRANCH  23  24
ATOM     24  O   UNL A   1      44.132  21.236  25.849  1.00  0.00    -0.460 OA
BRANCH  24  25
ATOM     25  C   UNL A   1      43.677  22.336  25.199  1.00  0.00     0.338 C 
ATOM     26  O   UNL A   1      43.522  22.469  23.997  1.00  0.00    -0.246 OA
BRANCH  25  27
ATOM     27  C   UNL A   1      43.205  23.349  26.165  1.00  0.00     0.060 A 
ATOM     28  C   UNL A   1      43.728  24.641  26.033  1.00  0.00     0.016 A 
ATOM     29  C   UNL A   1      42.343  23.040  27.220  1.00  0.00     0.016 A 
ATOM     30  C   UNL A   1      43.443  25.613  26.990  1.00  0.00     0.010 A 
ATOM     31  C   UNL A   1      42.062  24.018  28.185  1.00  0.00     0.010 A 
ATOM     32  C   UNL A   1      42.645  25.296  28.097  1.00  0.00    -0.014 A 
BRANCH  32  33
ATOM     33  C   UNL A   1      42.573  26.257  29.228  1.00  0.00     0.031 A 
ATOM     34  C   UNL A   1      43.654  26.230  30.277  1.00  0.00     0.074 A 
ATOM     35  C   UNL A   1      41.605  27.191  29.285  1.00  0.00     0.049 A 
ATOM     36  N   UNL A   1      43.816  27.004  31.320  1.00  0.00    -0.248 NA
ATOM     37  C   UNL A   1      44.693  25.198  30.127  1.00  0.00     0.031 C 
ATOM     38  C   UNL A   1      40.530  27.356  28.307  1.00  0.00     0.029 A 
ATOM     39  N   UNL A   1      41.381  28.187  30.204  1.00  0.00    -0.354 N 
ATOM     40  C   UNL A   1      44.971  26.555  31.949  1.00  0.00     0.074 A 
ATOM     41  C   UNL A   1      45.452  25.420  31.190  1.00  0.00     0.031 C 
ATOM     42  C   UNL A   1      39.762  28.395  28.678  1.00  0.00     0.029 A 
ATOM     43  C   UNL A   1      40.273  28.951  29.929  1.00  0.00     0.049 A 
ATOM     44  H   UNL A   1      41.960  28.339  30.985  1.00  0.00     0.167 HD
ATOM     45  C   UNL A   1      45.583  27.044  33.053  1.00  0.00     0.031 A 
ATOM     46  C   UNL A   1      39.726  29.976  30.614  1.00  0.00     0.031 A 
ATOM     47  C   UNL A   1      45.102  28.164  33.817  1.00  0.00     0.049 A 
ATOM     48  C   UNL A   1      40.384  30.457  31.881  1.00  0.00     0.074 A 
ATOM     49  C   UNL A   1      45.660  28.739  34.947  1.00  0.00     0.029 A 
ATOM     50  N   UNL A   1      43.947  28.877  33.535  1.00  0.00    -0.354 N 
ATOM     51  N   UNL A   1      41.487  30.033  32.449  1.00  0.00    -0.248 NA
ATOM     52  C   UNL A   1      39.725  31.562  32.594  1.00  0.00     0.031 C 
ATOM     53  C   UNL A   1      44.813  29.765  35.378  1.00  0.00     0.029 A 
ATOM     54  C   UNL A   1      43.759  29.867  34.484  1.00  0.00     0.049 A 
ATOM     55  H   UNL A   1      43.349  28.704  32.773  1.00  0.00     0.167 HD
ATOM     56  C   UNL A   1      41.668  30.835  33.572  1.00  0.00     0.074 A 
ATOM     57  C   UNL A   1      40.568  31.777  33.595  1.00  0.00     0.031 C 
ATOM     58  C   UNL A   1      42.658  30.796  34.499  1.00  0.00     0.031 A 
BRANCH  45  59
ATOM     59  C   UNL A   1      46.831  26.343  33.522  1.00  0.00    -0.014 A 
ATOM     60  C   UNL A   1      46.765  25.260  34.418  1.00  0.00     0.010 A 
ATOM     61  C   UNL A   1      48.085  26.754  33.036  1.00  0.00     0.010 A 
ATOM     62  C   UNL A   1      47.934  24.626  34.848  1.00  0.00     0.020 A 
ATOM     63  C   UNL A   1      49.254  26.106  33.443  1.00  0.00     0.020 A 
ATOM     64  C   UNL A   1      49.172  25.057  34.361  1.00  0.00     0.054 A 
BRANCH  64  65
ATOM     65  S   UNL A   1      50.673  24.207  34.921  1.00  0.00     0.124 S 
ATOM     66  O   UNL A   1      50.421  24.064  36.353  1.00  0.00    -0.237 OA
ATOM     67  O   UNL A   1      50.647  22.966  34.152  1.00  0.00    -0.237 OA
ATOM     68  O   UNL A   1      51.748  25.132  34.569  1.00  0.00    -0.744 OA
ENDBRANCH  64  65
ENDBRANCH  45  59
BRANCH  46  69
ATOM     69  C   UNL A   1      38.471  30.610  30.123  1.00  0.00    -0.014 A 
ATOM     70  C   UNL A   1      37.217  30.036  30.395  1.00  0.00     0.010 A 
ATOM     71  C   UNL A   1      38.531  31.799  29.372  1.00  0.00     0.010 A 
ATOM     72  C   UNL A   1      36.047  30.634  29.915  1.00  0.00     0.020 A 
ATOM     73  C   UNL A   1      37.362  32.412  28.913  1.00  0.00     0.020 A 
ATOM     74  C   UNL A   1      36.127  31.819  29.179  1.00  0.00     0.054 A 
BRANCH  74  75
ATOM     75  S   UNL A   1      34.593  32.608  28.612  1.00  0.00     0.124 S 
ATOM     76  O   UNL A   1      34.054  33.149  29.856  1.00  0.00    -0.237 OA
ATOM     77  O   UNL A   1      35.082  33.595  27.652  1.00  0.00    -0.237 OA
ATOM     78  O   UNL A   1      33.837  31.503  28.028  1.00  0.00    -0.744 OA
ENDBRANCH  74  75
ENDBRANCH  46  69
BRANCH  58  79
ATOM     79  C   UNL A   1      42.619  31.820  35.603  1.00  0.00    -0.014 A 
ATOM     80  C   UNL A   1      41.970  31.553  36.822  1.00  0.00     0.010 A 
ATOM     81  C   UNL A   1      43.293  33.045  35.438  1.00  0.00     0.010 A 
ATOM     82  C   UNL A   1      41.970  32.505  37.845  1.00  0.00     0.020 A 
ATOM     83  C   UNL A   1      43.316  33.988  36.469  1.00  0.00     0.020 A 
ATOM     84  C   UNL A   1      42.642  33.718  37.661  1.00  0.00     0.054 A 
BRANCH  84  85
ATOM     85  S   UNL A   1      42.664  34.920  39.020  1.00  0.00     0.124 S 
ATOM     86  O   UNL A   1      41.995  34.183  40.089  1.00  0.00    -0.237 OA
ATOM     87  O   UNL A   1      44.092  35.157  39.219  1.00  0.00    -0.237 OA
ATOM     88  O   UNL A   1      41.919  36.059  38.488  1.00  0.00    -0.744 OA
ENDBRANCH  84  85
ENDBRANCH  58  79
ENDBRANCH  32  33
ENDBRANCH  25  27
ENDBRANCH  24  25
ENDBRANCH  23  24
ENDBRANCH  22  23
ENDBRANCH  21  22
ENDBRANCH  20  21
ENDBRANCH   1  20
TORSDOF 24
ENDMDL
MODEL 2
REMARK VINA RESULT:      -7.4      3.069      8.797
REMARK SMILES CC(C)CN(C(=O)COCC(=O)OCCOCCOC(=O)c1ccc(-c2c3nc(c(-c4ccc(S(=O)(=O)[O-])cc4)c4ccc([nH]4)c(-c4ccc(S(=O)(=O)[O-])cc4)c4nc(c(-c5ccc(S(=O)(=O)[O-])cc5)c5ccc2[nH]5)C=C4)C=C3)cc1)C1CCCC1
REMARK SMILES IDX 14 1 13 2 11 3 12 4 10 5 9 6 8 7 6 8 7 9 5 10 4 11 2 12 1 13
REMARK SMILES IDX 3 14 82 15 83 16 86 17 84 18 85 19 15 20 16 21 17 22 18 23
REMARK SMILES IDX 19 24 20 25 21 26 22 27 23 28 81 29 24 30 80 31 25 32 26 33
REMARK SMILES IDX 27 34 74 35 28 36 79 37 73 38 75 39 29 40 78 41 72 42 71 43
REMARK SMILES IDX 30 45 60 46 41 47 59 48 42 49 45 50 58 51 76 52 43 53 44 54
REMARK SMILES IDX 57 56 77 57 46 58 31 59 32 60 40 61 33 62 39 63 34 64 35 65
REMARK SMILES IDX 36 66 37 67 38 68 61 69 62 70 70 71 63 72 69 73 64 74 65 75
REMARK SMILES IDX 66 76 67 77 68 78 47 79 48 80 56 81 49 82 55 83 50 84 51 85
REMARK SMILES IDX 52 86 53 87 54 88
REMARK H PARENT 75 44 45 55
REMARK Flexibility Score: inf
ROOT
ATOM      1  C   UNL A   1      40.504  20.695  25.985  1.00  0.00     0.261 C 
ENDROOT
BRANCH   1   2
ATOM      2  O   UNL A   1      40.537  22.039  26.519  1.00  0.00    -0.462 OA
BRANCH   2   3
ATOM      3  C   UNL A   1      39.342  22.686  26.564  1.00  0.00     0.332 C 
ATOM      4  O   UNL A   1      39.103  23.676  27.251  1.00  0.00    -0.250 OA
BRANCH   3   5
ATOM      5  C   UNL A   1      38.251  22.006  25.715  1.00  0.00     0.283 C 
BRANCH   5   6
ATOM      6  O   UNL A   1      37.387  22.663  24.804  1.00  0.00    -0.360 OA
BRANCH   6   7
ATOM      7  C   UNL A   1      36.056  22.181  24.788  1.00  0.00     0.261 C 
BRANCH   7   8
ATOM      8  C   UNL A   1      34.987  22.947  25.603  1.00  0.00     0.248 C 
ATOM      9  O   UNL A   1      35.005  22.805  26.828  1.00  0.00    -0.272 OA
BRANCH   8  10
ATOM     10  N   UNL A   1      34.037  23.739  24.948  1.00  0.00    -0.337 N 
BRANCH  10  11
ATOM     11  C   UNL A   1      34.409  24.638  23.836  1.00  0.00     0.122 C 
BRANCH  11  12
ATOM     12  C   UNL A   1      33.342  25.690  23.464  1.00  0.00     0.002 C 
ATOM     13  C   UNL A   1      33.723  27.111  23.891  1.00  0.00     0.009 C 
ATOM     14  C   UNL A   1      33.129  25.683  21.945  1.00  0.00     0.009 C 
ENDBRANCH  11  12
ENDBRANCH  10  11
BRANCH  10  15
ATOM     15  C   UNL A   1      32.590  23.540  25.203  1.00  0.00     0.085 C 
ATOM     16  C   UNL A   1      32.035  22.116  25.353  1.00  0.00     0.025 C 
ATOM     17  C   UNL A   1      32.100  24.173  26.517  1.00  0.00     0.025 C 
ATOM     18  C   UNL A   1      30.628  22.336  25.889  1.00  0.00     0.002 C 
ATOM     19  C   UNL A   1      30.736  23.548  26.804  1.00  0.00     0.002 C 
ENDBRANCH  10  15
ENDBRANCH   8  10
ENDBRANCH   7   8
ENDBRANCH   6   7
ENDBRANCH   5   6
ENDBRANCH   3   5
ENDBRANCH   2   3
ENDBRANCH   1   2
BRANCH   1  20
ATOM     20  C   UNL A   1      41.785  19.918  26.309  1.00  0.00     0.202 C 
BRANCH  20  21
ATOM     21  O   UNL A   1      42.415  19.270  25.200  1.00  0.00    -0.374 OA
BRANCH  21  22
ATOM     22  C   UNL A   1      43.782  18.908  25.384  1.00  0.00     0.202 C 
BRANCH  22  23
ATOM     23  C   UNL A   1      44.739  19.370  24.278  1.00  0.00     0.261 C 
BRANCH  23  24
ATOM     24  O   UNL A   1      45.441  20.574  24.643  1.00  0.00    -0.460 OA
BRANCH  24  25
ATOM     25  C   UNL A   1      44.883  21.713  24.163  1.00  0.00     0.338 C 
ATOM     26  O   UNL A   1      44.360  21.874  23.073  1.00  0.00    -0.246 OA
BRANCH  25  27
ATOM     27  C   UNL A   1      44.821  22.744  25.219  1.00  0.00     0.060 A 
ATOM     28  C   UNL A   1      45.051  24.069  24.826  1.00  0.00     0.016 A 
ATOM     29  C   UNL A   1      44.627  22.431  26.567  1.00  0.00     0.016 A 
ATOM     30  C   UNL A   1      45.151  25.076  25.783  1.00  0.00     0.010 A 
ATOM     31  C   UNL A   1      44.734  23.446  27.529  1.00  0.00     0.010 A 
ATOM     32  C   UNL A   1      45.039  24.765  27.144  1.00  0.00    -0.014 A 
BRANCH  32  33
ATOM     33  C   UNL A   1      45.410  25.796  28.148  1.00  0.00     0.031 A 
ATOM     34  C   UNL A   1      44.325  26.655  28.746  1.00  0.00     0.074 A 
ATOM     35  C   UNL A   1      46.679  25.921  28.578  1.00  0.00     0.049 A 
ATOM     36  N   UNL A   1      44.415  27.579  29.668  1.00  0.00    -0.248 NA
ATOM     37  C   UNL A   1      42.960  26.436  28.243  1.00  0.00     0.031 C 
ATOM     38  C   UNL A   1      47.812  25.119  28.116  1.00  0.00     0.029 A 
ATOM     39  N   UNL A   1      47.223  26.765  29.515  1.00  0.00    -0.354 N 
ATOM     40  C   UNL A   1      43.121  28.052  29.855  1.00  0.00     0.074 A 
ATOM     41  C   UNL A   1      42.271  27.336  28.929  1.00  0.00     0.031 C 
ATOM     42  C   UNL A   1      48.917  25.510  28.775  1.00  0.00     0.029 A 
ATOM     43  C   UNL A   1      48.577  26.603  29.684  1.00  0.00     0.049 A 
ATOM     44  H   UNL A   1      46.693  27.424  30.018  1.00  0.00     0.167 HD
ATOM     45  C   UNL A   1      42.677  28.991  30.725  1.00  0.00     0.031 A 
ATOM     46  C   UNL A   1      49.446  27.267  30.473  1.00  0.00     0.031 A 
ATOM     47  C   UNL A   1      43.521  29.713  31.639  1.00  0.00     0.049 A 
ATOM     48  C   UNL A   1      48.940  28.359  31.379  1.00  0.00     0.074 A 
ATOM     49  C   UNL A   1      43.160  30.677  32.564  1.00  0.00     0.029 A 
ATOM     50  N   UNL A   1      44.895  29.556  31.740  1.00  0.00    -0.354 N 
ATOM     51  N   UNL A   1      47.711  28.779  31.557  1.00  0.00    -0.248 NA
ATOM     52  C   UNL A   1      49.941  29.061  32.196  1.00  0.00     0.031 C 
ATOM     53  C   UNL A   1      44.323  31.141  33.188  1.00  0.00     0.029 A 
ATOM     54  C   UNL A   1      45.401  30.424  32.692  1.00  0.00     0.049 A 
ATOM     55  H   UNL A   1      45.430  28.921  31.213  1.00  0.00     0.167 HD
ATOM     56  C   UNL A   1      47.787  29.776  32.526  1.00  0.00     0.074 A 
ATOM     57  C   UNL A   1      49.181  29.888  32.903  1.00  0.00     0.031 C 
ATOM     58  C   UNL A   1      46.791  30.529  33.056  1.00  0.00     0.031 A 
BRANCH  45  59
ATOM     59  C   UNL A   1      41.207  29.316  30.702  1.00  0.00    -0.014 A 
ATOM     60  C   UNL A   1      40.307  28.682  31.579  1.00  0.00     0.010 A 
ATOM     61  C   UNL A   1      40.723  30.291  29.812  1.00  0.00     0.010 A 
ATOM     62  C   UNL A   1      38.944  28.992  31.539  1.00  0.00     0.020 A 
ATOM     63  C   UNL A   1      39.366  30.622  29.787  1.00  0.00     0.020 A 
ATOM     64  C   UNL A   1      38.483  29.957  30.639  1.00  0.00     0.054 A 
BRANCH  64  65
ATOM     65  S   UNL A   1      36.712  30.353  30.617  1.00  0.00     0.124 S 
ATOM     66  O   UNL A   1      36.205  29.526  31.710  1.00  0.00    -0.237 OA
ATOM     67  O   UNL A   1      36.701  31.793  30.863  1.00  0.00    -0.237 OA
ATOM     68  O   UNL A   1      36.283  29.949  29.281  1.00  0.00    -0.744 OA
ENDBRANCH  64  65
ENDBRANCH  45  59
BRANCH  46  69
ATOM     69  C   UNL A   1      50.896  26.928  30.429  1.00  0.00    -0.014 A 
ATOM     70  C   UNL A   1      51.461  26.051  31.372  1.00  0.00     0.010 A 
ATOM     71  C   UNL A   1      51.720  27.489  29.437  1.00  0.00     0.010 A 
ATOM     72  C   UNL A   1      52.826  25.752  31.330  1.00  0.00     0.020 A 
ATOM     73  C   UNL A   1      53.080  27.173  29.377  1.00  0.00     0.020 A 
ATOM     74  C   UNL A   1      53.627  26.314  30.331  1.00  0.00     0.054 A 
BRANCH  74  75
ATOM     75  S   UNL A   1      55.386  25.870  30.259  1.00  0.00     0.124 S 
ATOM     76  O   UNL A   1      56.032  27.152  30.519  1.00  0.00    -0.237 OA
ATOM     77  O   UNL A   1      55.503  24.874  31.322  1.00  0.00    -0.237 OA
ATOM     78  O   UNL A   1      55.551  25.347  28.905  1.00  0.00    -0.744 OA
ENDBRANCH  74  75
ENDBRANCH  46  69
BRANCH  58  79
ATOM     79  C   UNL A   1      47.162  31.523  34.125  1.00  0.00    -0.014 A 
ATOM     80  C   UNL A   1      47.221  31.149  35.479  1.00  0.00     0.010 A 
ATOM     81  C   UNL A   1      47.513  32.837  33.760  1.00  0.00     0.010 A 
ATOM     82  C   UNL A   1      47.595  32.079  36.453  1.00  0.00     0.020 A 
ATOM     83  C   UNL A   1      47.912  33.761  34.729  1.00  0.00     0.020 A 
ATOM     84  C   UNL A   1      47.937  33.380  36.072  1.00  0.00     0.054 A 
BRANCH  84  85
ATOM     85  S   UNL A   1      48.461  34.557  37.349  1.00  0.00     0.124 S 
ATOM     86  O   UNL A   1      47.852  33.993  38.551  1.00  0.00    -0.237 OA
ATOM     87  O   UNL A   1      49.918  34.475  37.286  1.00  0.00    -0.237 OA
ATOM     88  O   UNL A   1      47.895  35.828  36.903  1.00  0.00    -0.744 OA
ENDBRANCH  84  85
ENDBRANCH  58  79
ENDBRANCH  32  33
ENDBRANCH  25  27
ENDBRANCH  24  25
ENDBRANCH  23  24
ENDBRANCH  22  23
ENDBRANCH  21  22
ENDBRANCH  20  21
ENDBRANCH   1  20
TORSDOF 24
ENDMDL
MODEL 3
REMARK VINA RESULT:      -7.4      6.552      9.228
REMARK SMILES CC(C)CN(C(=O)COCC(=O)OCCOCCOC(=O)c1ccc(-c2c3nc(c(-c4ccc(S(=O)(=O)[O-])cc4)c4ccc([nH]4)c(-c4ccc(S(=O)(=O)[O-])cc4)c4nc(c(-c5ccc(S(=O)(=O)[O-])cc5)c5ccc2[nH]5)C=C4)C=C3)cc1)C1CCCC1
REMARK SMILES IDX 14 1 13 2 11 3 12 4 10 5 9 6 8 7 6 8 7 9 5 10 4 11 2 12 1 13
REMARK SMILES IDX 3 14 82 15 83 16 86 17 84 18 85 19 15 20 16 21 17 22 18 23
REMARK SMILES IDX 19 24 20 25 21 26 22 27 23 28 81 29 24 30 80 31 25 32 26 33
REMARK SMILES IDX 27 34 74 35 28 36 79 37 73 38 75 39 29 40 78 41 72 42 71 43
REMARK SMILES IDX 30 45 60 46 41 47 59 48 42 49 45 50 58 51 76 52 43 53 44 54
REMARK SMILES IDX 57 56 77 57 46 58 31 59 32 60 40 61 33 62 39 63 34 64 35 65
REMARK SMILES IDX 36 66 37 67 38 68 61 69 62 70 70 71 63 72 69 73 64 74 65 75
REMARK SMILES IDX 66 76 67 77 68 78 47 79 48 80 56 81 49 82 55 83 50 84 51 85
REMARK SMILES IDX 52 86 53 87 54 88
REMARK H PARENT 75 44 45 55
REMARK Flexibility Score: inf
ROOT
ATOM      1  C   UNL A   1      41.164  22.391  28.135  1.00  0.00     0.261 C 
ENDROOT
BRANCH   1   2
ATOM      2  O   UNL A   1      40.355  21.559  27.272  1.00  0.00    -0.462 OA
BRANCH   2   3
ATOM      3  C   UNL A   1      39.476  22.219  26.470  1.00  0.00     0.332 C 
ATOM      4  O   UNL A   1      39.352  23.440  26.416  1.00  0.00    -0.250 OA
BRANCH   3   5
ATOM      5  C   UNL A   1      38.561  21.276  25.667  1.00  0.00     0.283 C 
BRANCH   5   6
ATOM      6  O   UNL A   1      37.425  21.671  24.919  1.00  0.00    -0.360 OA
BRANCH   6   7
ATOM      7  C   UNL A   1      36.241  21.844  25.675  1.00  0.00     0.261 C 
BRANCH   7   8
ATOM      8  C   UNL A   1      35.175  22.840  25.156  1.00  0.00     0.248 C 
ATOM      9  O   UNL A   1      35.525  24.015  25.018  1.00  0.00    -0.272 OA
BRANCH   8  10
ATOM     10  N   UNL A   1      33.874  22.402  24.889  1.00  0.00    -0.337 N 
BRANCH  10  11
ATOM     11  C   UNL A   1      32.731  23.338  24.858  1.00  0.00     0.122 C 
BRANCH  11  12
ATOM     12  C   UNL A   1      32.035  23.561  26.219  1.00  0.00     0.002 C 
ATOM     13  C   UNL A   1      31.718  25.033  26.499  1.00  0.00     0.009 C 
ATOM     14  C   UNL A   1      30.722  22.768  26.254  1.00  0.00     0.009 C 
ENDBRANCH  11  12
ENDBRANCH  10  11
BRANCH  10  15
ATOM     15  C   UNL A   1      33.630  21.020  24.413  1.00  0.00     0.085 C 
ATOM     16  C   UNL A   1      33.121  19.958  25.399  1.00  0.00     0.025 C 
ATOM     17  C   UNL A   1      32.556  20.922  23.316  1.00  0.00     0.025 C 
ATOM     18  C   UNL A   1      32.719  18.798  24.499  1.00  0.00     0.002 C 
ATOM     19  C   UNL A   1      32.163  19.448  23.240  1.00  0.00     0.002 C 
ENDBRANCH  10  15
ENDBRANCH   8  10
ENDBRANCH   7   8
ENDBRANCH   6   7
ENDBRANCH   5   6
ENDBRANCH   3   5
ENDBRANCH   2   3
ENDBRANCH   1   2
BRANCH   1  20
ATOM     20  C   UNL A   1      42.659  22.090  27.986  1.00  0.00     0.202 C 
BRANCH  20  21
ATOM     21  O   UNL A   1      43.477  23.191  27.579  1.00  0.00    -0.374 OA
BRANCH  21  22
ATOM     22  C   UNL A   1      43.397  23.551  26.202  1.00  0.00     0.202 C 
BRANCH  22  23
ATOM     23  C   UNL A   1      44.688  23.356  25.396  1.00  0.00     0.261 C 
BRANCH  23  24
ATOM     24  O   UNL A   1      45.383  24.601  25.185  1.00  0.00    -0.460 OA
BRANCH  24  25
ATOM     25  C   UNL A   1      46.400  24.827  26.054  1.00  0.00     0.338 C 
ATOM     26  O   UNL A   1      47.241  24.026  26.425  1.00  0.00    -0.246 OA
BRANCH  25  27
ATOM     27  C   UNL A   1      46.486  26.263  26.387  1.00  0.00     0.060 A 
ATOM     28  C   UNL A   1      46.630  26.591  27.742  1.00  0.00     0.016 A 
ATOM     29  C   UNL A   1      46.348  27.269  25.429  1.00  0.00     0.016 A 
ATOM     30  C   UNL A   1      46.575  27.922  28.150  1.00  0.00     0.010 A 
ATOM     31  C   UNL A   1      46.287  28.608  25.842  1.00  0.00     0.010 A 
ATOM     32  C   UNL A   1      46.357  28.936  27.209  1.00  0.00    -0.014 A 
BRANCH  32  33
ATOM     33  C   UNL A   1      46.038  30.305  27.692  1.00  0.00     0.031 A 
ATOM     34  C   UNL A   1      44.746  30.534  28.433  1.00  0.00     0.074 A 
ATOM     35  C   UNL A   1      46.915  31.315  27.542  1.00  0.00     0.049 A 
ATOM     36  N   UNL A   1      44.290  31.631  28.981  1.00  0.00    -0.248 NA
ATOM     37  C   UNL A   1      43.856  29.371  28.581  1.00  0.00     0.031 C 
ATOM     38  C   UNL A   1      48.219  31.214  26.888  1.00  0.00     0.029 A 
ATOM     39  N   UNL A   1      46.840  32.626  27.944  1.00  0.00    -0.354 N 
ATOM     40  C   UNL A   1      43.062  31.293  29.537  1.00  0.00     0.074 A 
ATOM     41  C   UNL A   1      42.830  29.897  29.233  1.00  0.00     0.031 C 
ATOM     42  C   UNL A   1      48.824  32.414  26.938  1.00  0.00     0.029 A 
ATOM     43  C   UNL A   1      47.942  33.372  27.601  1.00  0.00     0.049 A 
ATOM     44  H   UNL A   1      46.071  32.997  28.432  1.00  0.00     0.167 HD
ATOM     45  C   UNL A   1      42.206  32.068  30.246  1.00  0.00     0.031 A 
ATOM     46  C   UNL A   1      48.206  34.681  27.790  1.00  0.00     0.031 A 
ATOM     47  C   UNL A   1      42.428  33.459  30.541  1.00  0.00     0.049 A 
ATOM     48  C   UNL A   1      47.206  35.542  28.517  1.00  0.00     0.074 A 
ATOM     49  C   UNL A   1      41.621  34.325  31.259  1.00  0.00     0.029 A 
ATOM     50  N   UNL A   1      43.532  34.189  30.128  1.00  0.00    -0.354 N 
ATOM     51  N   UNL A   1      46.059  35.200  29.053  1.00  0.00    -0.248 NA
ATOM     52  C   UNL A   1      47.541  36.966  28.669  1.00  0.00     0.031 C 
ATOM     53  C   UNL A   1      42.213  35.592  31.237  1.00  0.00     0.029 A 
ATOM     54  C   UNL A   1      43.415  35.501  30.553  1.00  0.00     0.049 A 
ATOM     55  H   UNL A   1      44.286  33.827  29.611  1.00  0.00     0.167 HD
ATOM     56  C   UNL A   1      45.549  36.360  29.629  1.00  0.00     0.074 A 
ATOM     57  C   UNL A   1      46.517  37.409  29.386  1.00  0.00     0.031 C 
ATOM     58  C   UNL A   1      44.384  36.538  30.301  1.00  0.00     0.031 A 
BRANCH  45  59
ATOM     59  C   UNL A   1      40.928  31.432  30.723  1.00  0.00    -0.014 A 
ATOM     60  C   UNL A   1      39.813  31.308  29.873  1.00  0.00     0.010 A 
ATOM     61  C   UNL A   1      40.850  30.923  32.032  1.00  0.00     0.010 A 
ATOM     62  C   UNL A   1      38.633  30.720  30.335  1.00  0.00     0.020 A 
ATOM     63  C   UNL A   1      39.680  30.312  32.491  1.00  0.00     0.020 A 
ATOM     64  C   UNL A   1      38.572  30.231  31.644  1.00  0.00     0.054 A 
BRANCH  64  65
ATOM     65  S   UNL A   1      37.034  29.459  32.216  1.00  0.00     0.124 S 
ATOM     66  O   UNL A   1      36.450  30.520  33.034  1.00  0.00    -0.237 OA
ATOM     67  O   UNL A   1      36.333  29.173  30.966  1.00  0.00    -0.237 OA
ATOM     68  O   UNL A   1      37.489  28.283  32.954  1.00  0.00    -0.744 OA
ENDBRANCH  64  65
ENDBRANCH  45  59
BRANCH  46  69
ATOM     69  C   UNL A   1      49.471  35.266  27.266  1.00  0.00    -0.014 A 
ATOM     70  C   UNL A   1      49.543  35.779  25.958  1.00  0.00     0.010 A 
ATOM     71  C   UNL A   1      50.618  35.308  28.081  1.00  0.00     0.010 A 
ATOM     72  C   UNL A   1      50.741  36.312  25.473  1.00  0.00     0.020 A 
ATOM     73  C   UNL A   1      51.810  35.863  27.607  1.00  0.00     0.020 A 
ATOM     74  C   UNL A   1      51.867  36.352  26.301  1.00  0.00     0.054 A 
BRANCH  74  75
ATOM     75  S   UNL A   1      53.397  37.098  25.671  1.00  0.00     0.124 S 
ATOM     76  O   UNL A   1      54.255  35.930  25.499  1.00  0.00    -0.237 OA
ATOM     77  O   UNL A   1      52.950  37.742  24.439  1.00  0.00    -0.237 OA
ATOM     78  O   UNL A   1      53.792  38.016  26.736  1.00  0.00    -0.744 OA
ENDBRANCH  74  75
ENDBRANCH  46  69
BRANCH  58  79
ATOM     79  C   UNL A   1      44.100  37.911  30.851  1.00  0.00    -0.014 A 
ATOM     80  C   UNL A   1      43.568  38.926  30.036  1.00  0.00     0.010 A 
ATOM     81  C   UNL A   1      44.316  38.170  32.218  1.00  0.00     0.010 A 
ATOM     82  C   UNL A   1      43.284  40.186  30.573  1.00  0.00     0.020 A 
ATOM     83  C   UNL A   1      44.009  39.420  32.762  1.00  0.00     0.020 A 
ATOM     84  C   UNL A   1      43.509  40.425  31.932  1.00  0.00     0.054 A 
BRANCH  84  85
ATOM     85  S   UNL A   1      43.092  42.054  32.614  1.00  0.00     0.124 S 
ATOM     86  O   UNL A   1      42.705  42.795  31.416  1.00  0.00    -0.237 OA
ATOM     87  O   UNL A   1      42.006  41.748  33.541  1.00  0.00    -0.237 OA
ATOM     88  O   UNL A   1      44.335  42.494  33.244  1.00  0.00    -0.744 OA
ENDBRANCH  84  85
ENDBRANCH  58  79
ENDBRANCH  32  33
ENDBRANCH  25  27
ENDBRANCH  24  25
ENDBRANCH  23  24
ENDBRANCH  22  23
ENDBRANCH  21  22
ENDBRANCH  20  21
ENDBRANCH   1  20
TORSDOF 24
ENDMDL
