MODEL 1
REMARK VINA RESULT:     -11.1      0.000      0.000
REMARK SMILES O=C(OCCOCCOC(=O)[C@H]1CC2(CC[NH+](C(=O)c3cccc(O)c3)CC2)CN1C(=O)C1CC1)c1ccc(-c2c3nc(c(-c4ccc(S(=O)(=O)[O-])cc4)c4ccc([nH]4)c(-c4ccc(S(=O)(=O)[O-])cc4)c4nc(c(-c5ccc(S(=O)(=O)[O-])cc5)c5ccc2[nH]5)C=C4)C=C3)cc1
REMARK SMILES IDX 6 1 5 2 4 3 3 4 2 5 1 6 36 7 37 8 95 9 38 10 94 11 39 12
REMARK SMILES IDX 40 13 41 14 88 15 42 16 93 17 87 18 89 19 43 20 92 21 86 22
REMARK SMILES IDX 85 23 44 25 74 26 55 27 73 28 56 29 59 30 72 31 90 32 57 33
REMARK SMILES IDX 58 34 71 36 91 37 60 38 45 39 46 40 54 41 47 42 53 43 48 44
REMARK SMILES IDX 49 45 50 46 51 47 52 48 75 49 76 50 84 51 77 52 83 53 78 54
REMARK SMILES IDX 79 55 80 56 81 57 82 58 61 59 62 60 70 61 63 62 69 63 64 64
REMARK SMILES IDX 65 65 66 66 67 67 68 68 7 69 8 70 9 71 10 72 11 73 12 74
REMARK SMILES IDX 13 75 30 76 14 77 29 78 15 79 28 80 16 81 27 82 17 83 31 85
REMARK SMILES IDX 32 86 33 87 34 88 35 89 18 90 19 91 20 92 21 93 26 94 22 95
REMARK SMILES IDX 24 96 23 97 25 98
REMARK H PARENT 89 24 59 35 17 84 25 99
REMARK Flexibility Score: inf
ROOT
ATOM      1  O   UNL A   1      35.143  32.375  27.616  1.00  0.00    -0.374 OA
ENDROOT
BRANCH   1   2
ATOM      2  C   UNL A   1      34.228  33.263  28.266  1.00  0.00     0.202 C 
BRANCH   2   3
ATOM      3  C   UNL A   1      34.791  34.539  28.923  1.00  0.00     0.261 C 
BRANCH   3   4
ATOM      4  O   UNL A   1      33.754  35.306  29.598  1.00  0.00    -0.460 OA
BRANCH   4   5
ATOM      5  C   UNL A   1      33.323  35.205  30.890  1.00  0.00     0.338 C 
ATOM      6  O   UNL A   1      32.210  35.574  31.217  1.00  0.00    -0.246 OA
BRANCH   5   7
ATOM      7  C   UNL A   1      34.235  34.612  31.892  1.00  0.00     0.060 A 
ATOM      8  C   UNL A   1      35.180  35.409  32.499  1.00  0.00     0.016 A 
ATOM      9  C   UNL A   1      34.220  33.251  32.187  1.00  0.00     0.016 A 
ATOM     10  C   UNL A   1      36.308  34.873  33.042  1.00  0.00     0.010 A 
ATOM     11  C   UNL A   1      35.267  32.708  32.945  1.00  0.00     0.010 A 
ATOM     12  C   UNL A   1      36.365  33.512  33.290  1.00  0.00    -0.014 A 
BRANCH  12  13
ATOM     13  C   UNL A   1      37.677  33.010  33.737  1.00  0.00     0.031 A 
ATOM     14  C   UNL A   1      37.973  33.023  35.208  1.00  0.00     0.074 A 
ATOM     15  C   UNL A   1      38.443  32.320  32.864  1.00  0.00     0.049 A 
ATOM     16  N   UNL A   1      39.074  32.699  35.822  1.00  0.00    -0.248 NA
ATOM     17  C   UNL A   1      36.891  33.463  36.111  1.00  0.00     0.031 C 
ATOM     18  C   UNL A   1      38.118  32.093  31.445  1.00  0.00     0.029 A 
ATOM     19  N   UNL A   1      39.580  31.586  33.051  1.00  0.00    -0.354 N 
ATOM     20  C   UNL A   1      38.858  33.005  37.161  1.00  0.00     0.074 A 
ATOM     21  C   UNL A   1      37.506  33.495  37.283  1.00  0.00     0.031 C 
ATOM     22  C   UNL A   1      38.949  31.170  30.941  1.00  0.00     0.029 A 
ATOM     23  C   UNL A   1      39.969  30.880  31.934  1.00  0.00     0.049 A 
ATOM     24  H   UNL A   1      40.075  31.565  33.902  1.00  0.00     0.167 HD
ATOM     25  C   UNL A   1      39.744  32.914  38.178  1.00  0.00     0.031 A 
ATOM     26  C   UNL A   1      41.066  30.130  31.725  1.00  0.00     0.031 A 
ATOM     27  C   UNL A   1      41.060  32.370  37.994  1.00  0.00     0.049 A 
ATOM     28  C   UNL A   1      42.055  30.072  32.852  1.00  0.00     0.074 A 
ATOM     29  C   UNL A   1      42.111  32.307  38.886  1.00  0.00     0.029 A 
ATOM     30  N   UNL A   1      41.487  31.761  36.818  1.00  0.00    -0.354 N 
ATOM     31  N   UNL A   1      41.933  30.550  34.071  1.00  0.00    -0.248 NA
ATOM     32  C   UNL A   1      43.341  29.432  32.571  1.00  0.00     0.031 C 
ATOM     33  C   UNL A   1      43.186  31.688  38.235  1.00  0.00     0.029 A 
ATOM     34  C   UNL A   1      42.785  31.317  36.958  1.00  0.00     0.049 A 
ATOM     35  H   UNL A   1      40.941  31.660  36.005  1.00  0.00     0.167 HD
ATOM     36  C   UNL A   1      43.134  30.278  34.705  1.00  0.00     0.074 A 
ATOM     37  C   UNL A   1      43.952  29.559  33.741  1.00  0.00     0.031 C 
ATOM     38  C   UNL A   1      43.539  30.601  35.958  1.00  0.00     0.031 A 
BRANCH  25  39
ATOM     39  C   UNL A   1      39.348  33.536  39.489  1.00  0.00    -0.014 A 
ATOM     40  C   UNL A   1      39.361  34.926  39.703  1.00  0.00     0.010 A 
ATOM     41  C   UNL A   1      39.017  32.686  40.562  1.00  0.00     0.010 A 
ATOM     42  C   UNL A   1      39.100  35.449  40.976  1.00  0.00     0.020 A 
ATOM     43  C   UNL A   1      38.731  33.205  41.828  1.00  0.00     0.020 A 
ATOM     44  C   UNL A   1      38.798  34.583  42.033  1.00  0.00     0.054 A 
BRANCH  44  45
ATOM     45  S   UNL A   1      38.487  35.278  43.681  1.00  0.00     0.124 S 
ATOM     46  O   UNL A   1      39.158  36.572  43.592  1.00  0.00    -0.237 OA
ATOM     47  O   UNL A   1      37.029  35.330  43.738  1.00  0.00    -0.237 OA
ATOM     48  O   UNL A   1      39.109  34.314  44.585  1.00  0.00    -0.744 OA
ENDBRANCH  44  45
ENDBRANCH  25  39
BRANCH  26  49
ATOM     49  C   UNL A   1      41.321  29.507  30.393  1.00  0.00    -0.014 A 
ATOM     50  C   UNL A   1      40.871  28.209  30.095  1.00  0.00     0.010 A 
ATOM     51  C   UNL A   1      42.000  30.232  29.392  1.00  0.00     0.010 A 
ATOM     52  C   UNL A   1      41.096  27.652  28.827  1.00  0.00     0.020 A 
ATOM     53  C   UNL A   1      42.192  29.696  28.116  1.00  0.00     0.020 A 
ATOM     54  C   UNL A   1      41.751  28.402  27.845  1.00  0.00     0.054 A 
BRANCH  54  55
ATOM     55  S   UNL A   1      41.985  27.689  26.192  1.00  0.00     0.124 S 
ATOM     56  O   UNL A   1      40.771  26.894  26.031  1.00  0.00    -0.237 OA
ATOM     57  O   UNL A   1      42.082  28.876  25.344  1.00  0.00    -0.237 OA
ATOM     58  O   UNL A   1      43.223  26.924  26.323  1.00  0.00    -0.744 OA
ENDBRANCH  54  55
ENDBRANCH  26  49
BRANCH  38  59
ATOM     59  C   UNL A   1      44.905  30.130  36.349  1.00  0.00    -0.014 A 
ATOM     60  C   UNL A   1      46.037  30.936  36.143  1.00  0.00     0.010 A 
ATOM     61  C   UNL A   1      45.040  28.874  36.964  1.00  0.00     0.010 A 
ATOM     62  C   UNL A   1      47.296  30.473  36.517  1.00  0.00     0.020 A 
ATOM     63  C   UNL A   1      46.294  28.420  37.363  1.00  0.00     0.020 A 
ATOM     64  C   UNL A   1      47.416  29.215  37.121  1.00  0.00     0.054 A 
BRANCH  64  65
ATOM     65  S   UNL A   1      49.059  28.644  37.629  1.00  0.00     0.124 S 
ATOM     66  O   UNL A   1      48.750  27.364  38.257  1.00  0.00    -0.237 OA
ATOM     67  O   UNL A   1      49.780  28.568  36.360  1.00  0.00    -0.237 OA
ATOM     68  O   UNL A   1      49.520  29.692  38.537  1.00  0.00    -0.744 OA
ENDBRANCH  64  65
ENDBRANCH  38  59
ENDBRANCH  12  13
ENDBRANCH   5   7
ENDBRANCH   4   5
ENDBRANCH   3   4
ENDBRANCH   2   3
ENDBRANCH   1   2
BRANCH   1  69
ATOM     69  C   UNL A   1      34.848  30.972  27.630  1.00  0.00     0.202 C 
BRANCH  69  70
ATOM     70  C   UNL A   1      33.383  30.642  27.376  1.00  0.00     0.261 C 
BRANCH  70  71
ATOM     71  O   UNL A   1      33.284  29.638  26.359  1.00  0.00    -0.462 OA
BRANCH  71  72
ATOM     72  C   UNL A   1      32.185  29.793  25.581  1.00  0.00     0.328 C 
ATOM     73  O   UNL A   1      31.371  30.700  25.726  1.00  0.00    -0.250 OA
BRANCH  72  74
ATOM     74  C   UNL A   1      32.064  28.673  24.538  1.00  0.00     0.195 C 
ATOM     75  C   UNL A   1      32.322  27.451  25.443  1.00  0.00     0.046 C 
ATOM     76  N   UNL A   1      30.869  28.217  23.786  1.00  0.00    -0.328 N 
ATOM     77  C   UNL A   1      31.924  26.226  24.641  1.00  0.00     0.001 C 
ATOM     78  C   UNL A   1      30.738  26.759  23.841  1.00  0.00     0.128 C 
ATOM     79  C   UNL A   1      31.500  25.089  25.589  1.00  0.00     0.071 C 
ATOM     80  C   UNL A   1      33.094  25.757  23.755  1.00  0.00     0.071 C 
ATOM     81  C   UNL A   1      32.688  24.635  26.431  1.00  0.00     0.271 C 
ATOM     82  C   UNL A   1      34.251  25.196  24.590  1.00  0.00     0.271 C 
ATOM     83  N   UNL A   1      33.772  24.202  25.546  1.00  0.00    -0.267 N 
ATOM     84  H   UNL A   1      33.835  23.781  24.659  1.00  0.00     0.357 HD
BRANCH  76  85
ATOM     85  C   UNL A   1      30.075  28.837  22.827  1.00  0.00     0.226 C 
ATOM     86  O   UNL A   1      30.326  28.730  21.627  1.00  0.00    -0.275 OA
BRANCH  85  87
ATOM     87  C   UNL A   1      28.804  29.513  23.169  1.00  0.00     0.079 C 
ATOM     88  C   UNL A   1      27.686  29.890  22.247  1.00  0.00     0.014 C 
ATOM     89  C   UNL A   1      27.526  28.698  23.132  1.00  0.00     0.014 C 
ENDBRANCH  85  87
ENDBRANCH  76  85
BRANCH  83  90
ATOM     90  C   UNL A   1      34.439  22.986  25.636  1.00  0.00     0.344 C 
ATOM     91  O   UNL A   1      35.580  22.863  26.073  1.00  0.00    -0.226 OA
BRANCH  90  92
ATOM     92  C   UNL A   1      33.746  21.767  25.176  1.00  0.00     0.083 A 
ATOM     93  C   UNL A   1      33.211  21.697  23.883  1.00  0.00     0.018 A 
ATOM     94  C   UNL A   1      33.656  20.681  26.046  1.00  0.00     0.064 A 
ATOM     95  C   UNL A   1      32.530  20.548  23.480  1.00  0.00     0.005 A 
ATOM     96  C   UNL A   1      32.990  19.538  25.625  1.00  0.00     0.116 A 
ATOM     97  C   UNL A   1      32.418  19.465  24.355  1.00  0.00     0.046 A 
BRANCH  96  98
ATOM     98  O   UNL A   1      32.914  18.493  26.497  1.00  0.00    -0.508 OA
ATOM     99  H   UNL A   1      32.102  18.043  26.620  1.00  0.00     0.293 HD
ENDBRANCH  96  98
ENDBRANCH  90  92
ENDBRANCH  83  90
ENDBRANCH  72  74
ENDBRANCH  71  72
ENDBRANCH  70  71
ENDBRANCH  69  70
ENDBRANCH   1  69
TORSDOF 22
ENDMDL
MODEL 2
REMARK VINA RESULT:     -10.9      3.018      3.545
REMARK SMILES O=C(OCCOCCOC(=O)[C@H]1CC2(CC[NH+](C(=O)c3cccc(O)c3)CC2)CN1C(=O)C1CC1)c1ccc(-c2c3nc(c(-c4ccc(S(=O)(=O)[O-])cc4)c4ccc([nH]4)c(-c4ccc(S(=O)(=O)[O-])cc4)c4nc(c(-c5ccc(S(=O)(=O)[O-])cc5)c5ccc2[nH]5)C=C4)C=C3)cc1
REMARK SMILES IDX 6 1 5 2 4 3 3 4 2 5 1 6 36 7 37 8 95 9 38 10 94 11 39 12
REMARK SMILES IDX 40 13 41 14 88 15 42 16 93 17 87 18 89 19 43 20 92 21 86 22
REMARK SMILES IDX 85 23 44 25 74 26 55 27 73 28 56 29 59 30 72 31 90 32 57 33
REMARK SMILES IDX 58 34 71 36 91 37 60 38 45 39 46 40 54 41 47 42 53 43 48 44
REMARK SMILES IDX 49 45 50 46 51 47 52 48 75 49 76 50 84 51 77 52 83 53 78 54
REMARK SMILES IDX 79 55 80 56 81 57 82 58 61 59 62 60 70 61 63 62 69 63 64 64
REMARK SMILES IDX 65 65 66 66 67 67 68 68 7 69 8 70 9 71 10 72 11 73 12 74
REMARK SMILES IDX 13 75 30 76 14 77 29 78 15 79 28 80 16 81 27 82 17 83 31 85
REMARK SMILES IDX 32 86 33 87 34 88 35 89 18 90 19 91 20 92 21 93 26 94 22 95
REMARK SMILES IDX 24 96 23 97 25 98
REMARK H PARENT 89 24 59 35 17 84 25 99
REMARK Flexibility Score: inf
ROOT
ATOM      1  O   UNL A   1      35.077  31.375  27.481  1.00  0.00    -0.374 OA
ENDROOT
BRANCH   1   2
ATOM      2  C   UNL A   1      34.068  32.226  28.033  1.00  0.00     0.202 C 
BRANCH   2   3
ATOM      3  C   UNL A   1      34.460  33.665  28.424  1.00  0.00     0.261 C 
BRANCH   3   4
ATOM      4  O   UNL A   1      33.344  34.390  29.015  1.00  0.00    -0.460 OA
BRANCH   4   5
ATOM      5  C   UNL A   1      33.178  34.787  30.312  1.00  0.00     0.338 C 
ATOM      6  O   UNL A   1      32.172  35.372  30.670  1.00  0.00    -0.246 OA
BRANCH   5   7
ATOM      7  C   UNL A   1      34.243  34.470  31.288  1.00  0.00     0.060 A 
ATOM      8  C   UNL A   1      34.631  35.428  32.198  1.00  0.00     0.016 A 
ATOM      9  C   UNL A   1      34.921  33.254  31.267  1.00  0.00     0.016 A 
ATOM     10  C   UNL A   1      35.862  35.388  32.779  1.00  0.00     0.010 A 
ATOM     11  C   UNL A   1      36.082  33.110  32.041  1.00  0.00     0.010 A 
ATOM     12  C   UNL A   1      36.604  34.221  32.725  1.00  0.00    -0.014 A 
BRANCH  12  13
ATOM     13  C   UNL A   1      37.978  34.324  33.250  1.00  0.00     0.031 A 
ATOM     14  C   UNL A   1      38.188  34.106  34.719  1.00  0.00     0.074 A 
ATOM     15  C   UNL A   1      39.009  34.340  32.378  1.00  0.00     0.049 A 
ATOM     16  N   UNL A   1      39.285  34.214  35.411  1.00  0.00    -0.248 NA
ATOM     17  C   UNL A   1      37.011  33.719  35.521  1.00  0.00     0.031 C 
ATOM     18  C   UNL A   1      38.881  34.353  30.910  1.00  0.00     0.029 A 
ATOM     19  N   UNL A   1      40.356  34.231  32.578  1.00  0.00    -0.354 N 
ATOM     20  C   UNL A   1      38.910  34.025  36.737  1.00  0.00     0.074 A 
ATOM     21  C   UNL A   1      37.495  33.747  36.753  1.00  0.00     0.031 C 
ATOM     22  C   UNL A   1      40.077  34.113  30.358  1.00  0.00     0.029 A 
ATOM     23  C   UNL A   1      41.077  34.114  31.410  1.00  0.00     0.049 A 
ATOM     24  H   UNL A   1      40.772  34.238  33.470  1.00  0.00     0.167 HD
ATOM     25  C   UNL A   1      39.694  34.121  37.834  1.00  0.00     0.031 A 
ATOM     26  C   UNL A   1      42.408  34.071  31.218  1.00  0.00     0.031 A 
ATOM     27  C   UNL A   1      41.109  34.353  37.741  1.00  0.00     0.049 A 
ATOM     28  C   UNL A   1      43.261  34.218  32.444  1.00  0.00     0.074 A 
ATOM     29  C   UNL A   1      42.024  34.584  38.748  1.00  0.00     0.029 A 
ATOM     30  N   UNL A   1      41.815  34.348  36.542  1.00  0.00    -0.354 N 
ATOM     31  N   UNL A   1      42.883  34.250  33.703  1.00  0.00    -0.248 NA
ATOM     32  C   UNL A   1      44.700  34.379  32.233  1.00  0.00     0.031 C 
ATOM     33  C   UNL A   1      43.280  34.753  38.151  1.00  0.00     0.029 A 
ATOM     34  C   UNL A   1      43.155  34.573  36.780  1.00  0.00     0.049 A 
ATOM     35  H   UNL A   1      41.416  34.206  35.653  1.00  0.00     0.167 HD
ATOM     36  C   UNL A   1      44.040  34.444  34.440  1.00  0.00     0.074 A 
ATOM     37  C   UNL A   1      45.133  34.485  33.482  1.00  0.00     0.031 C 
ATOM     38  C   UNL A   1      44.193  34.594  35.779  1.00  0.00     0.031 A 
BRANCH  25  39
ATOM     39  C   UNL A   1      39.005  34.117  39.171  1.00  0.00    -0.014 A 
ATOM     40  C   UNL A   1      38.783  35.290  39.913  1.00  0.00     0.010 A 
ATOM     41  C   UNL A   1      38.627  32.879  39.726  1.00  0.00     0.010 A 
ATOM     42  C   UNL A   1      38.245  35.221  41.204  1.00  0.00     0.020 A 
ATOM     43  C   UNL A   1      38.067  32.807  41.005  1.00  0.00     0.020 A 
ATOM     44  C   UNL A   1      37.902  33.977  41.746  1.00  0.00     0.054 A 
BRANCH  44  45
ATOM     45  S   UNL A   1      37.229  33.905  43.430  1.00  0.00     0.124 S 
ATOM     46  O   UNL A   1      37.118  35.321  43.770  1.00  0.00    -0.237 OA
ATOM     47  O   UNL A   1      35.962  33.204  43.241  1.00  0.00    -0.237 OA
ATOM     48  O   UNL A   1      38.242  33.163  44.176  1.00  0.00    -0.744 OA
ENDBRANCH  44  45
ENDBRANCH  25  39
BRANCH  26  49
ATOM     49  C   UNL A   1      42.978  34.012  29.840  1.00  0.00    -0.014 A 
ATOM     50  C   UNL A   1      43.413  32.799  29.280  1.00  0.00     0.010 A 
ATOM     51  C   UNL A   1      43.062  35.183  29.058  1.00  0.00     0.010 A 
ATOM     52  C   UNL A   1      43.918  32.759  27.972  1.00  0.00     0.020 A 
ATOM     53  C   UNL A   1      43.529  35.142  27.742  1.00  0.00     0.020 A 
ATOM     54  C   UNL A   1      43.968  33.931  27.211  1.00  0.00     0.054 A 
BRANCH  54  55
ATOM     55  S   UNL A   1      44.572  33.855  25.501  1.00  0.00     0.124 S 
ATOM     56  O   UNL A   1      45.691  34.792  25.533  1.00  0.00    -0.237 OA
ATOM     57  O   UNL A   1      44.930  32.445  25.352  1.00  0.00    -0.237 OA
ATOM     58  O   UNL A   1      43.419  34.282  24.712  1.00  0.00    -0.744 OA
ENDBRANCH  54  55
ENDBRANCH  26  49
BRANCH  38  59
ATOM     59  C   UNL A   1      45.598  34.764  36.264  1.00  0.00    -0.014 A 
ATOM     60  C   UNL A   1      46.394  33.653  36.588  1.00  0.00     0.010 A 
ATOM     61  C   UNL A   1      46.131  36.061  36.360  1.00  0.00     0.010 A 
ATOM     62  C   UNL A   1      47.699  33.841  37.038  1.00  0.00     0.020 A 
ATOM     63  C   UNL A   1      47.443  36.250  36.785  1.00  0.00     0.020 A 
ATOM     64  C   UNL A   1      48.213  35.139  37.137  1.00  0.00     0.054 A 
BRANCH  64  65
ATOM     65  S   UNL A   1      49.923  35.361  37.693  1.00  0.00     0.124 S 
ATOM     66  O   UNL A   1      50.477  34.025  37.501  1.00  0.00    -0.237 OA
ATOM     67  O   UNL A   1      50.426  36.389  36.785  1.00  0.00    -0.237 OA
ATOM     68  O   UNL A   1      49.779  35.785  39.084  1.00  0.00    -0.744 OA
ENDBRANCH  64  65
ENDBRANCH  38  59
ENDBRANCH  12  13
ENDBRANCH   5   7
ENDBRANCH   4   5
ENDBRANCH   3   4
ENDBRANCH   2   3
ENDBRANCH   1   2
BRANCH   1  69
ATOM     69  C   UNL A   1      34.771  29.984  27.310  1.00  0.00     0.202 C 
BRANCH  69  70
ATOM     70  C   UNL A   1      33.279  29.673  27.307  1.00  0.00     0.261 C 
BRANCH  70  71
ATOM     71  O   UNL A   1      32.916  29.064  26.062  1.00  0.00    -0.462 OA
BRANCH  71  72
ATOM     72  C   UNL A   1      32.022  29.804  25.363  1.00  0.00     0.328 C 
ATOM     73  O   UNL A   1      31.468  30.804  25.811  1.00  0.00    -0.250 OA
BRANCH  72  74
ATOM     74  C   UNL A   1      31.754  29.210  23.973  1.00  0.00     0.195 C 
ATOM     75  C   UNL A   1      31.950  27.713  24.292  1.00  0.00     0.046 C 
ATOM     76  N   UNL A   1      30.488  29.167  23.200  1.00  0.00    -0.328 N 
ATOM     77  C   UNL A   1      31.410  26.942  23.103  1.00  0.00     0.001 C 
ATOM     78  C   UNL A   1      30.236  27.821  22.678  1.00  0.00     0.128 C 
ATOM     79  C   UNL A   1      30.937  25.546  23.549  1.00  0.00     0.071 C 
ATOM     80  C   UNL A   1      32.490  26.803  22.013  1.00  0.00     0.071 C 
ATOM     81  C   UNL A   1      32.121  24.722  24.043  1.00  0.00     0.271 C 
ATOM     82  C   UNL A   1      33.634  25.886  22.461  1.00  0.00     0.271 C 
ATOM     83  N   UNL A   1      33.120  24.620  22.976  1.00  0.00    -0.267 N 
ATOM     84  H   UNL A   1      33.103  24.590  21.992  1.00  0.00     0.357 HD
BRANCH  76  85
ATOM     85  C   UNL A   1      29.705  30.168  22.634  1.00  0.00     0.226 C 
ATOM     86  O   UNL A   1      29.503  30.207  21.421  1.00  0.00    -0.275 OA
BRANCH  85  87
ATOM     87  C   UNL A   1      28.940  31.131  23.454  1.00  0.00     0.079 C 
ATOM     88  C   UNL A   1      27.924  32.130  22.991  1.00  0.00     0.014 C 
ATOM     89  C   UNL A   1      27.458  30.879  23.660  1.00  0.00     0.014 C 
ENDBRANCH  85  87
ENDBRANCH  76  85
BRANCH  83  90
ATOM     90  C   UNL A   1      33.683  23.434  22.520  1.00  0.00     0.344 C 
ATOM     91  O   UNL A   1      33.504  22.982  21.392  1.00  0.00    -0.226 OA
BRANCH  90  92
ATOM     92  C   UNL A   1      34.542  22.663  23.440  1.00  0.00     0.083 A 
ATOM     93  C   UNL A   1      35.919  22.914  23.509  1.00  0.00     0.018 A 
ATOM     94  C   UNL A   1      33.950  21.697  24.253  1.00  0.00     0.064 A 
ATOM     95  C   UNL A   1      36.716  22.151  24.360  1.00  0.00     0.005 A 
ATOM     96  C   UNL A   1      34.755  20.955  25.108  1.00  0.00     0.116 A 
ATOM     97  C   UNL A   1      36.133  21.167  25.162  1.00  0.00     0.046 A 
BRANCH  96  98
ATOM     98  O   UNL A   1      34.151  20.016  25.889  1.00  0.00    -0.508 OA
ATOM     99  H   UNL A   1      34.658  19.521  26.502  1.00  0.00     0.293 HD
ENDBRANCH  96  98
ENDBRANCH  90  92
ENDBRANCH  83  90
ENDBRANCH  72  74
ENDBRANCH  71  72
ENDBRANCH  70  71
ENDBRANCH  69  70
ENDBRANCH   1  69
TORSDOF 22
ENDMDL
MODEL 3
REMARK VINA RESULT:     -10.6      6.069      8.854
REMARK SMILES O=C(OCCOCCOC(=O)[C@H]1CC2(CC[NH+](C(=O)c3cccc(O)c3)CC2)CN1C(=O)C1CC1)c1ccc(-c2c3nc(c(-c4ccc(S(=O)(=O)[O-])cc4)c4ccc([nH]4)c(-c4ccc(S(=O)(=O)[O-])cc4)c4nc(c(-c5ccc(S(=O)(=O)[O-])cc5)c5ccc2[nH]5)C=C4)C=C3)cc1
REMARK SMILES IDX 6 1 5 2 4 3 3 4 2 5 1 6 36 7 37 8 95 9 38 10 94 11 39 12
REMARK SMILES IDX 40 13 41 14 88 15 42 16 93 17 87 18 89 19 43 20 92 21 86 22
REMARK SMILES IDX 85 23 44 25 74 26 55 27 73 28 56 29 59 30 72 31 90 32 57 33
REMARK SMILES IDX 58 34 71 36 91 37 60 38 45 39 46 40 54 41 47 42 53 43 48 44
REMARK SMILES IDX 49 45 50 46 51 47 52 48 75 49 76 50 84 51 77 52 83 53 78 54
REMARK SMILES IDX 79 55 80 56 81 57 82 58 61 59 62 60 70 61 63 62 69 63 64 64
REMARK SMILES IDX 65 65 66 66 67 67 68 68 7 69 8 70 9 71 10 72 11 73 12 74
REMARK SMILES IDX 13 75 30 76 14 77 29 78 15 79 28 80 16 81 27 82 17 83 31 85
REMARK SMILES IDX 32 86 33 87 34 88 35 89 18 90 19 91 20 92 21 93 26 94 22 95
REMARK SMILES IDX 24 96 23 97 25 98
REMARK H PARENT 89 24 59 35 17 84 25 99
REMARK Flexibility Score: inf
ROOT
ATOM      1  O   UNL A   1      34.177  31.627  27.482  1.00  0.00    -0.374 OA
ENDROOT
BRANCH   1   2
ATOM      2  C   UNL A   1      34.989  31.058  28.514  1.00  0.00     0.202 C 
BRANCH   2   3
ATOM      3  C   UNL A   1      35.661  32.011  29.523  1.00  0.00     0.261 C 
BRANCH   3   4
ATOM      4  O   UNL A   1      36.210  31.293  30.664  1.00  0.00    -0.460 OA
BRANCH   4   5
ATOM      5  C   UNL A   1      37.507  31.234  31.091  1.00  0.00     0.338 C 
ATOM      6  O   UNL A   1      37.883  31.865  32.062  1.00  0.00    -0.246 OA
BRANCH   5   7
ATOM      7  C   UNL A   1      38.450  30.364  30.357  1.00  0.00     0.060 A 
ATOM      8  C   UNL A   1      39.305  29.548  31.065  1.00  0.00     0.016 A 
ATOM      9  C   UNL A   1      38.555  30.398  28.969  1.00  0.00     0.016 A 
ATOM     10  C   UNL A   1      40.467  29.101  30.513  1.00  0.00     0.010 A 
ATOM     11  C   UNL A   1      39.634  29.746  28.352  1.00  0.00     0.010 A 
ATOM     12  C   UNL A   1      40.646  29.177  29.143  1.00  0.00    -0.014 A 
BRANCH  12  13
ATOM     13  C   UNL A   1      41.990  28.808  28.662  1.00  0.00     0.031 A 
ATOM     14  C   UNL A   1      43.128  29.734  28.973  1.00  0.00     0.074 A 
ATOM     15  C   UNL A   1      42.198  27.553  28.208  1.00  0.00     0.049 A 
ATOM     16  N   UNL A   1      44.372  29.654  28.598  1.00  0.00    -0.248 NA
ATOM     17  C   UNL A   1      42.832  30.910  29.815  1.00  0.00     0.031 C 
ATOM     18  C   UNL A   1      41.158  26.519  28.062  1.00  0.00     0.029 A 
ATOM     19  N   UNL A   1      43.350  26.890  27.896  1.00  0.00    -0.354 N 
ATOM     20  C   UNL A   1      44.975  30.820  29.055  1.00  0.00     0.074 A 
ATOM     21  C   UNL A   1      43.979  31.571  29.778  1.00  0.00     0.031 C 
ATOM     22  C   UNL A   1      41.739  25.334  27.833  1.00  0.00     0.029 A 
ATOM     23  C   UNL A   1      43.161  25.551  27.632  1.00  0.00     0.049 A 
ATOM     24  H   UNL A   1      44.232  27.327  27.861  1.00  0.00     0.167 HD
ATOM     25  C   UNL A   1      46.247  31.225  28.841  1.00  0.00     0.031 A 
ATOM     26  C   UNL A   1      44.039  24.620  27.216  1.00  0.00     0.031 A 
ATOM     27  C   UNL A   1      47.202  30.402  28.153  1.00  0.00     0.049 A 
ATOM     28  C   UNL A   1      45.435  25.098  26.948  1.00  0.00     0.074 A 
ATOM     29  C   UNL A   1      48.490  30.703  27.758  1.00  0.00     0.029 A 
ATOM     30  N   UNL A   1      46.961  29.082  27.784  1.00  0.00    -0.354 N 
ATOM     31  N   UNL A   1      45.955  26.281  27.191  1.00  0.00    -0.248 NA
ATOM     32  C   UNL A   1      46.346  24.150  26.304  1.00  0.00     0.031 C 
ATOM     33  C   UNL A   1      49.016  29.572  27.120  1.00  0.00     0.029 A 
ATOM     34  C   UNL A   1      48.075  28.551  27.167  1.00  0.00     0.049 A 
ATOM     35  H   UNL A   1      46.119  28.598  27.942  1.00  0.00     0.167 HD
ATOM     36  C   UNL A   1      47.257  26.226  26.721  1.00  0.00     0.074 A 
ATOM     37  C   UNL A   1      47.451  24.877  26.212  1.00  0.00     0.031 C 
ATOM     38  C   UNL A   1      48.203  27.196  26.690  1.00  0.00     0.031 A 
BRANCH  25  39
ATOM     39  C   UNL A   1      46.591  32.637  29.228  1.00  0.00    -0.014 A 
ATOM     40  C   UNL A   1      47.029  32.984  30.517  1.00  0.00     0.010 A 
ATOM     41  C   UNL A   1      46.401  33.658  28.276  1.00  0.00     0.010 A 
ATOM     42  C   UNL A   1      47.222  34.328  30.862  1.00  0.00     0.020 A 
ATOM     43  C   UNL A   1      46.616  34.999  28.608  1.00  0.00     0.020 A 
ATOM     44  C   UNL A   1      47.002  35.327  29.908  1.00  0.00     0.054 A 
BRANCH  44  45
ATOM     45  S   UNL A   1      47.233  37.065  30.381  1.00  0.00     0.124 S 
ATOM     46  O   UNL A   1      46.283  37.743  29.503  1.00  0.00    -0.237 OA
ATOM     47  O   UNL A   1      46.886  37.060  31.799  1.00  0.00    -0.237 OA
ATOM     48  O   UNL A   1      48.642  37.318  30.089  1.00  0.00    -0.744 OA
ENDBRANCH  44  45
ENDBRANCH  25  39
BRANCH  26  49
ATOM     49  C   UNL A   1      43.591  23.227  26.922  1.00  0.00    -0.014 A 
ATOM     50  C   UNL A   1      43.834  22.629  25.674  1.00  0.00     0.010 A 
ATOM     51  C   UNL A   1      42.935  22.470  27.916  1.00  0.00     0.010 A 
ATOM     52  C   UNL A   1      43.431  21.309  25.427  1.00  0.00     0.020 A 
ATOM     53  C   UNL A   1      42.566  21.142  27.688  1.00  0.00     0.020 A 
ATOM     54  C   UNL A   1      42.804  20.573  26.438  1.00  0.00     0.054 A 
BRANCH  54  55
ATOM     55  S   UNL A   1      42.338  18.847  26.122  1.00  0.00     0.124 S 
ATOM     56  O   UNL A   1      40.960  18.985  25.661  1.00  0.00    -0.237 OA
ATOM     57  O   UNL A   1      43.308  18.436  25.109  1.00  0.00    -0.237 OA
ATOM     58  O   UNL A   1      42.502  18.206  27.425  1.00  0.00    -0.744 OA
ENDBRANCH  54  55
ENDBRANCH  26  49
BRANCH  38  59
ATOM     59  C   UNL A   1      49.534  26.799  26.131  1.00  0.00    -0.014 A 
ATOM     60  C   UNL A   1      49.828  26.967  24.769  1.00  0.00     0.010 A 
ATOM     61  C   UNL A   1      50.509  26.283  27.001  1.00  0.00     0.010 A 
ATOM     62  C   UNL A   1      51.074  26.588  24.275  1.00  0.00     0.020 A 
ATOM     63  C   UNL A   1      51.765  25.929  26.516  1.00  0.00     0.020 A 
ATOM     64  C   UNL A   1      52.033  26.068  25.152  1.00  0.00     0.054 A 
BRANCH  64  65
ATOM     65  S   UNL A   1      53.659  25.612  24.497  1.00  0.00     0.124 S 
ATOM     66  O   UNL A   1      53.676  24.169  24.713  1.00  0.00    -0.237 OA
ATOM     67  O   UNL A   1      53.577  26.042  23.103  1.00  0.00    -0.237 OA
ATOM     68  O   UNL A   1      54.589  26.379  25.323  1.00  0.00    -0.744 OA
ENDBRANCH  64  65
ENDBRANCH  38  59
ENDBRANCH  12  13
ENDBRANCH   5   7
ENDBRANCH   4   5
ENDBRANCH   3   4
ENDBRANCH   2   3
ENDBRANCH   1   2
BRANCH   1  69
ATOM     69  C   UNL A   1      32.929  30.991  27.175  1.00  0.00     0.202 C 
BRANCH  69  70
ATOM     70  C   UNL A   1      33.073  29.643  26.481  1.00  0.00     0.261 C 
BRANCH  70  71
ATOM     71  O   UNL A   1      31.785  29.174  26.066  1.00  0.00    -0.462 OA
BRANCH  71  72
ATOM     72  C   UNL A   1      31.532  27.910  26.484  1.00  0.00     0.328 C 
ATOM     73  O   UNL A   1      31.417  27.593  27.664  1.00  0.00    -0.250 OA
BRANCH  72  74
ATOM     74  C   UNL A   1      31.461  26.925  25.308  1.00  0.00     0.195 C 
ATOM     75  C   UNL A   1      31.877  25.628  26.033  1.00  0.00     0.046 C 
ATOM     76  N   UNL A   1      30.275  26.454  24.550  1.00  0.00    -0.328 N 
ATOM     77  C   UNL A   1      31.553  24.484  25.093  1.00  0.00     0.001 C 
ATOM     78  C   UNL A   1      30.283  24.995  24.417  1.00  0.00     0.128 C 
ATOM     79  C   UNL A   1      31.285  23.198  25.898  1.00  0.00     0.071 C 
ATOM     80  C   UNL A   1      32.713  24.249  24.107  1.00  0.00     0.071 C 
ATOM     81  C   UNL A   1      32.552  22.760  26.625  1.00  0.00     0.271 C 
ATOM     82  C   UNL A   1      33.959  23.702  24.814  1.00  0.00     0.271 C 
ATOM     83  N   UNL A   1      33.624  22.552  25.649  1.00  0.00    -0.267 N 
ATOM     84  H   UNL A   1      33.679  22.255  24.712  1.00  0.00     0.357 HD
BRANCH  76  85
ATOM     85  C   UNL A   1      29.379  27.111  23.713  1.00  0.00     0.226 C 
ATOM     86  O   UNL A   1      28.174  26.868  23.756  1.00  0.00    -0.275 OA
BRANCH  85  87
ATOM     87  C   UNL A   1      29.786  28.242  22.852  1.00  0.00     0.079 C 
ATOM     88  C   UNL A   1      28.922  29.334  22.300  1.00  0.00     0.014 C 
ATOM     89  C   UNL A   1      29.813  29.632  23.460  1.00  0.00     0.014 C 
ENDBRANCH  85  87
ENDBRANCH  76  85
BRANCH  83  90
ATOM     90  C   UNL A   1      34.404  21.405  25.551  1.00  0.00     0.344 C 
ATOM     91  O   UNL A   1      35.508  21.283  26.076  1.00  0.00    -0.226 OA
BRANCH  90  92
ATOM     92  C   UNL A   1      33.887  20.266  24.768  1.00  0.00     0.083 A 
ATOM     93  C   UNL A   1      32.755  20.416  23.956  1.00  0.00     0.018 A 
ATOM     94  C   UNL A   1      34.562  19.048  24.835  1.00  0.00     0.064 A 
ATOM     95  C   UNL A   1      32.264  19.318  23.250  1.00  0.00     0.005 A 
ATOM     96  C   UNL A   1      34.070  17.968  24.114  1.00  0.00     0.116 A 
ATOM     97  C   UNL A   1      32.922  18.090  23.330  1.00  0.00     0.046 A 
BRANCH  96  98
ATOM     98  O   UNL A   1      34.748  16.789  24.201  1.00  0.00    -0.508 OA
ATOM     99  H   UNL A   1      34.725  16.293  24.995  1.00  0.00     0.293 HD
ENDBRANCH  96  98
ENDBRANCH  90  92
ENDBRANCH  83  90
ENDBRANCH  72  74
ENDBRANCH  71  72
ENDBRANCH  70  71
ENDBRANCH  69  70
ENDBRANCH   1  69
TORSDOF 22
ENDMDL
