MODEL 1
REMARK VINA RESULT:      -9.2      0.000      0.000
REMARK SMILES O=C(C[C@H]1c2ccccc2CCN1C(=O)Nc1ccccc1Br)OCCOCCOC(=O)c1ccc(-c2c3nc(c(-c4ccc(S(=O)(=O)[O-])cc4)c4ccc([nH]4)c(-c4ccc(S(=O)(=O)[O-])cc4)c4nc(c(-c5ccc(S(=O)(=O)[O-])cc5)c5ccc2[nH]5)C=C4)C=C3)cc1
REMARK SMILES IDX 27 1 26 2 25 3 24 4 2 5 1 6 3 7 4 8 5 9 13 10 6 11 10 12
REMARK SMILES IDX 12 13 7 14 9 15 11 16 8 17 14 18 15 19 16 20 17 22 18 23
REMARK SMILES IDX 22 24 19 25 21 26 23 27 20 28 28 29 29 30 30 31 31 32 32 33
REMARK SMILES IDX 33 34 34 35 92 36 35 37 91 38 36 39 37 40 38 41 85 42 39 43
REMARK SMILES IDX 90 44 84 45 86 46 40 47 89 48 83 49 82 50 41 52 71 53 52 54
REMARK SMILES IDX 70 55 53 56 56 57 69 58 87 59 54 60 55 61 68 63 88 64 57 65
REMARK SMILES IDX 42 66 43 67 51 68 44 69 50 70 45 71 46 72 47 73 48 74 49 75
REMARK SMILES IDX 72 76 73 77 81 78 74 79 80 80 75 81 76 82 77 83 78 84 79 85
REMARK SMILES IDX 58 86 59 87 67 88 60 89 66 90 61 91 62 92 63 93 64 94 65 95
REMARK H PARENT 16 21 86 51 56 62
REMARK Flexibility Score: inf
ROOT
ATOM      1  O   UNL A   1      41.194  19.801  25.394  1.00  0.00    -0.374 OA
ENDROOT
BRANCH   1   2
ATOM      2  C   UNL A   1      42.568  19.619  25.730  1.00  0.00     0.202 C 
BRANCH   2   3
ATOM      3  C   UNL A   1      43.371  20.886  25.996  1.00  0.00     0.261 C 
BRANCH   3   4
ATOM      4  O   UNL A   1      44.490  21.046  25.130  1.00  0.00    -0.463 OA
BRANCH   4   5
ATOM      5  C   UNL A   1      44.730  22.225  24.508  1.00  0.00     0.308 C 
ATOM      6  O   UNL A   1      44.438  22.338  23.318  1.00  0.00    -0.252 OA
BRANCH   5   7
ATOM      7  C   UNL A   1      45.545  23.284  25.216  1.00  0.00     0.152 C 
BRANCH   7   8
ATOM      8  C   UNL A   1      44.810  24.454  25.919  1.00  0.00     0.128 C 
ATOM      9  C   UNL A   1      44.165  24.043  27.259  1.00  0.00    -0.022 A 
ATOM     10  N   UNL A   1      45.827  25.524  26.149  1.00  0.00    -0.317 N 
ATOM     11  C   UNL A   1      42.782  23.958  27.461  1.00  0.00     0.006 A 
ATOM     12  C   UNL A   1      45.004  23.791  28.361  1.00  0.00    -0.041 A 
ATOM     13  C   UNL A   1      46.328  25.633  27.533  1.00  0.00     0.127 C 
ATOM     14  C   UNL A   1      42.270  23.475  28.671  1.00  0.00     0.000 A 
ATOM     15  C   UNL A   1      44.502  23.273  29.557  1.00  0.00     0.004 A 
ATOM     16  C   UNL A   1      46.419  24.275  28.245  1.00  0.00     0.057 C 
ATOM     17  C   UNL A   1      43.131  23.099  29.703  1.00  0.00     0.000 A 
BRANCH  10  18
ATOM     18  C   UNL A   1      46.139  26.281  25.044  1.00  0.00     0.322 C 
ATOM     19  O   UNL A   1      46.831  25.821  24.130  1.00  0.00    -0.248 OA
ATOM     20  N   UNL A   1      45.684  27.541  24.846  1.00  0.00    -0.307 N 
ATOM     21  H   UNL A   1      45.908  27.916  23.963  1.00  0.00     0.171 HD
BRANCH  20  22
ATOM     22  C   UNL A   1      44.958  28.402  25.663  1.00  0.00     0.057 A 
ATOM     23  C   UNL A   1      43.569  28.343  25.527  1.00  0.00     0.027 A 
ATOM     24  C   UNL A   1      45.536  29.221  26.648  1.00  0.00     0.041 A 
ATOM     25  C   UNL A   1      42.754  28.987  26.456  1.00  0.00     0.002 A 
ATOM     26  C   UNL A   1      44.711  29.874  27.569  1.00  0.00     0.018 A 
ATOM     27  Br  UNL A   1      47.414  29.433  26.826  1.00  0.00    -0.049 Br
ATOM     28  C   UNL A   1      43.325  29.732  27.488  1.00  0.00     0.001 A 
ENDBRANCH  20  22
ENDBRANCH  10  18
ENDBRANCH   7   8
ENDBRANCH   5   7
ENDBRANCH   4   5
ENDBRANCH   3   4
ENDBRANCH   2   3
ENDBRANCH   1   2
BRANCH   1  29
ATOM     29  C   UNL A   1      40.368  20.216  26.488  1.00  0.00     0.202 C 
BRANCH  29  30
ATOM     30  C   UNL A   1      39.232  21.156  26.062  1.00  0.00     0.261 C 
BRANCH  30  31
ATOM     31  O   UNL A   1      39.683  22.519  26.025  1.00  0.00    -0.460 OA
BRANCH  31  32
ATOM     32  C   UNL A   1      38.700  23.457  26.055  1.00  0.00     0.338 C 
ATOM     33  O   UNL A   1      37.540  23.320  25.705  1.00  0.00    -0.246 OA
BRANCH  32  34
ATOM     34  C   UNL A   1      39.197  24.632  26.811  1.00  0.00     0.060 A 
ATOM     35  C   UNL A   1      38.881  24.719  28.176  1.00  0.00     0.016 A 
ATOM     36  C   UNL A   1      40.032  25.587  26.223  1.00  0.00     0.016 A 
ATOM     37  C   UNL A   1      39.394  25.760  28.953  1.00  0.00     0.010 A 
ATOM     38  C   UNL A   1      40.529  26.637  26.997  1.00  0.00     0.010 A 
ATOM     39  C   UNL A   1      40.200  26.739  28.360  1.00  0.00    -0.014 A 
BRANCH  39  40
ATOM     40  C   UNL A   1      40.588  27.957  29.109  1.00  0.00     0.031 A 
ATOM     41  C   UNL A   1      41.890  27.944  29.859  1.00  0.00     0.074 A 
ATOM     42  C   UNL A   1      39.779  29.032  29.159  1.00  0.00     0.049 A 
ATOM     43  N   UNL A   1      42.375  28.831  30.687  1.00  0.00    -0.248 NA
ATOM     44  C   UNL A   1      42.756  26.770  29.656  1.00  0.00     0.031 C 
ATOM     45  C   UNL A   1      38.510  29.175  28.447  1.00  0.00     0.029 A 
ATOM     46  N   UNL A   1      39.900  30.202  29.869  1.00  0.00    -0.354 N 
ATOM     47  C   UNL A   1      43.589  28.314  31.122  1.00  0.00     0.074 A 
ATOM     48  C   UNL A   1      43.766  27.033  30.473  1.00  0.00     0.031 C 
ATOM     49  C   UNL A   1      37.952  30.353  28.781  1.00  0.00     0.029 A 
ATOM     50  C   UNL A   1      38.805  31.028  29.759  1.00  0.00     0.049 A 
ATOM     51  H   UNL A   1      40.694  30.428  30.406  1.00  0.00     0.167 HD
ATOM     52  C   UNL A   1      44.475  28.856  31.988  1.00  0.00     0.031 A 
ATOM     53  C   UNL A   1      38.506  32.173  30.407  1.00  0.00     0.031 A 
ATOM     54  C   UNL A   1      44.293  30.128  32.632  1.00  0.00     0.049 A 
ATOM     55  C   UNL A   1      39.479  32.719  31.425  1.00  0.00     0.074 A 
ATOM     56  C   UNL A   1      45.157  30.785  33.490  1.00  0.00     0.029 A 
ATOM     57  N   UNL A   1      43.167  30.927  32.505  1.00  0.00    -0.354 N 
ATOM     58  N   UNL A   1      40.651  32.249  31.780  1.00  0.00    -0.248 NA
ATOM     59  C   UNL A   1      39.086  33.947  32.132  1.00  0.00     0.031 C 
ATOM     60  C   UNL A   1      44.526  31.951  33.932  1.00  0.00     0.029 A 
ATOM     61  C   UNL A   1      43.296  32.050  33.303  1.00  0.00     0.049 A 
ATOM     62  H   UNL A   1      42.393  30.726  31.931  1.00  0.00     0.167 HD
ATOM     63  C   UNL A   1      41.140  33.133  32.739  1.00  0.00     0.074 A 
ATOM     64  C   UNL A   1      40.149  34.178  32.889  1.00  0.00     0.031 C 
ATOM     65  C   UNL A   1      42.300  33.082  33.437  1.00  0.00     0.031 A 
BRANCH  52  66
ATOM     66  C   UNL A   1      45.710  28.068  32.323  1.00  0.00    -0.014 A 
ATOM     67  C   UNL A   1      46.903  28.243  31.603  1.00  0.00     0.010 A 
ATOM     68  C   UNL A   1      45.696  27.205  33.434  1.00  0.00     0.010 A 
ATOM     69  C   UNL A   1      48.061  27.560  31.984  1.00  0.00     0.020 A 
ATOM     70  C   UNL A   1      46.857  26.538  33.831  1.00  0.00     0.020 A 
ATOM     71  C   UNL A   1      48.033  26.717  33.100  1.00  0.00     0.054 A 
BRANCH  71  72
ATOM     72  S   UNL A   1      49.571  25.904  33.614  1.00  0.00     0.124 S 
ATOM     73  O   UNL A   1      49.268  24.498  33.358  1.00  0.00    -0.237 OA
ATOM     74  O   UNL A   1      50.561  26.504  32.724  1.00  0.00    -0.237 OA
ATOM     75  O   UNL A   1      49.702  26.266  35.023  1.00  0.00    -0.744 OA
ENDBRANCH  71  72
ENDBRANCH  52  66
BRANCH  53  76
ATOM     76  C   UNL A   1      37.204  32.858  30.172  1.00  0.00    -0.014 A 
ATOM     77  C   UNL A   1      36.985  33.612  29.005  1.00  0.00     0.010 A 
ATOM     78  C   UNL A   1      36.188  32.801  31.146  1.00  0.00     0.010 A 
ATOM     79  C   UNL A   1      35.792  34.322  28.832  1.00  0.00     0.020 A 
ATOM     80  C   UNL A   1      34.983  33.483  30.962  1.00  0.00     0.020 A 
ATOM     81  C   UNL A   1      34.799  34.255  29.814  1.00  0.00     0.054 A 
BRANCH  81  82
ATOM     82  S   UNL A   1      33.254  35.172  29.563  1.00  0.00     0.124 S 
ATOM     83  O   UNL A   1      33.744  36.511  29.248  1.00  0.00    -0.237 OA
ATOM     84  O   UNL A   1      32.634  34.448  28.456  1.00  0.00    -0.237 OA
ATOM     85  O   UNL A   1      32.568  35.041  30.846  1.00  0.00    -0.744 OA
ENDBRANCH  81  82
ENDBRANCH  53  76
BRANCH  65  86
ATOM     86  C   UNL A   1      42.579  34.193  34.414  1.00  0.00    -0.014 A 
ATOM     87  C   UNL A   1      42.233  34.069  35.771  1.00  0.00     0.010 A 
ATOM     88  C   UNL A   1      43.265  35.344  33.984  1.00  0.00     0.010 A 
ATOM     89  C   UNL A   1      42.548  35.085  36.676  1.00  0.00     0.020 A 
ATOM     90  C   UNL A   1      43.607  36.349  34.891  1.00  0.00     0.020 A 
ATOM     91  C   UNL A   1      43.236  36.218  36.231  1.00  0.00     0.054 A 
BRANCH  91  92
ATOM     92  S   UNL A   1      43.687  37.496  37.438  1.00  0.00     0.124 S 
ATOM     93  O   UNL A   1      42.463  37.614  38.226  1.00  0.00    -0.237 OA
ATOM     94  O   UNL A   1      44.824  36.896  38.130  1.00  0.00    -0.237 OA
ATOM     95  O   UNL A   1      44.010  38.657  36.611  1.00  0.00    -0.744 OA
ENDBRANCH  91  92
ENDBRANCH  65  86
ENDBRANCH  39  40
ENDBRANCH  32  34
ENDBRANCH  31  32
ENDBRANCH  30  31
ENDBRANCH  29  30
ENDBRANCH   1  29
TORSDOF 20
ENDMDL
MODEL 2
REMARK VINA RESULT:      -9.1      5.481     12.203
REMARK SMILES O=C(C[C@H]1c2ccccc2CCN1C(=O)Nc1ccccc1Br)OCCOCCOC(=O)c1ccc(-c2c3nc(c(-c4ccc(S(=O)(=O)[O-])cc4)c4ccc([nH]4)c(-c4ccc(S(=O)(=O)[O-])cc4)c4nc(c(-c5ccc(S(=O)(=O)[O-])cc5)c5ccc2[nH]5)C=C4)C=C3)cc1
REMARK SMILES IDX 27 1 26 2 25 3 24 4 2 5 1 6 3 7 4 8 5 9 13 10 6 11 10 12
REMARK SMILES IDX 12 13 7 14 9 15 11 16 8 17 14 18 15 19 16 20 17 22 18 23
REMARK SMILES IDX 22 24 19 25 21 26 23 27 20 28 28 29 29 30 30 31 31 32 32 33
REMARK SMILES IDX 33 34 34 35 92 36 35 37 91 38 36 39 37 40 38 41 85 42 39 43
REMARK SMILES IDX 90 44 84 45 86 46 40 47 89 48 83 49 82 50 41 52 71 53 52 54
REMARK SMILES IDX 70 55 53 56 56 57 69 58 87 59 54 60 55 61 68 63 88 64 57 65
REMARK SMILES IDX 42 66 43 67 51 68 44 69 50 70 45 71 46 72 47 73 48 74 49 75
REMARK SMILES IDX 72 76 73 77 81 78 74 79 80 80 75 81 76 82 77 83 78 84 79 85
REMARK SMILES IDX 58 86 59 87 67 88 60 89 66 90 61 91 62 92 63 93 64 94 65 95
REMARK H PARENT 16 21 86 51 56 62
REMARK Flexibility Score: inf
ROOT
ATOM      1  O   UNL A   1      32.299  30.545  27.233  1.00  0.00    -0.374 OA
ENDROOT
BRANCH   1   2
ATOM      2  C   UNL A   1      31.726  29.378  26.644  1.00  0.00     0.202 C 
BRANCH   2   3
ATOM      3  C   UNL A   1      31.482  28.202  27.579  1.00  0.00     0.261 C 
BRANCH   3   4
ATOM      4  O   UNL A   1      31.470  26.939  26.919  1.00  0.00    -0.463 OA
BRANCH   4   5
ATOM      5  C   UNL A   1      32.602  26.414  26.392  1.00  0.00     0.308 C 
ATOM      6  O   UNL A   1      33.646  27.061  26.466  1.00  0.00    -0.252 OA
BRANCH   5   7
ATOM      7  C   UNL A   1      32.514  25.167  25.540  1.00  0.00     0.152 C 
BRANCH   7   8
ATOM      8  C   UNL A   1      31.639  25.190  24.261  1.00  0.00     0.128 C 
ATOM      9  C   UNL A   1      31.393  26.616  23.724  1.00  0.00    -0.022 A 
ATOM     10  N   UNL A   1      32.356  24.374  23.236  1.00  0.00    -0.317 N 
ATOM     11  C   UNL A   1      30.149  27.255  23.758  1.00  0.00     0.006 A 
ATOM     12  C   UNL A   1      32.463  27.297  23.111  1.00  0.00    -0.041 A 
ATOM     13  C   UNL A   1      33.062  25.145  22.194  1.00  0.00     0.127 C 
ATOM     14  C   UNL A   1      30.024  28.588  23.351  1.00  0.00     0.000 A 
ATOM     15  C   UNL A   1      32.354  28.639  22.737  1.00  0.00     0.004 A 
ATOM     16  C   UNL A   1      33.647  26.464  22.720  1.00  0.00     0.057 C 
ATOM     17  C   UNL A   1      31.133  29.289  22.876  1.00  0.00     0.000 A 
BRANCH  10  18
ATOM     18  C   UNL A   1      32.238  23.012  23.386  1.00  0.00     0.322 C 
ATOM     19  O   UNL A   1      31.187  22.428  23.101  1.00  0.00    -0.248 OA
ATOM     20  N   UNL A   1      33.250  22.213  23.797  1.00  0.00    -0.307 N 
ATOM     21  H   UNL A   1      33.044  21.250  23.758  1.00  0.00     0.171 HD
BRANCH  20  22
ATOM     22  C   UNL A   1      34.527  22.504  24.267  1.00  0.00     0.057 A 
ATOM     23  C   UNL A   1      35.451  22.913  23.302  1.00  0.00     0.027 A 
ATOM     24  C   UNL A   1      34.882  22.500  25.626  1.00  0.00     0.041 A 
ATOM     25  C   UNL A   1      36.675  23.447  23.697  1.00  0.00     0.002 A 
ATOM     26  C   UNL A   1      36.117  23.027  26.015  1.00  0.00     0.018 A 
ATOM     27  Br  UNL A   1      33.719  21.860  26.983  1.00  0.00    -0.049 Br
ATOM     28  C   UNL A   1      36.998  23.526  25.052  1.00  0.00     0.001 A 
ENDBRANCH  20  22
ENDBRANCH  10  18
ENDBRANCH   7   8
ENDBRANCH   5   7
ENDBRANCH   4   5
ENDBRANCH   3   4
ENDBRANCH   2   3
ENDBRANCH   1   2
BRANCH   1  29
ATOM     29  C   UNL A   1      33.663  30.782  26.868  1.00  0.00     0.202 C 
BRANCH  29  30
ATOM     30  C   UNL A   1      34.513  31.318  28.028  1.00  0.00     0.261 C 
BRANCH  30  31
ATOM     31  O   UNL A   1      35.418  30.311  28.507  1.00  0.00    -0.460 OA
BRANCH  31  32
ATOM     32  C   UNL A   1      36.208  30.687  29.547  1.00  0.00     0.338 C 
ATOM     33  O   UNL A   1      35.853  31.216  30.588  1.00  0.00    -0.246 OA
BRANCH  32  34
ATOM     34  C   UNL A   1      37.567  30.137  29.327  1.00  0.00     0.060 A 
ATOM     35  C   UNL A   1      38.356  29.860  30.455  1.00  0.00     0.016 A 
ATOM     36  C   UNL A   1      38.031  29.811  28.050  1.00  0.00     0.016 A 
ATOM     37  C   UNL A   1      39.609  29.263  30.308  1.00  0.00     0.010 A 
ATOM     38  C   UNL A   1      39.292  29.231  27.903  1.00  0.00     0.010 A 
ATOM     39  C   UNL A   1      40.094  28.969  29.028  1.00  0.00    -0.014 A 
BRANCH  39  40
ATOM     40  C   UNL A   1      41.494  28.526  28.830  1.00  0.00     0.031 A 
ATOM     41  C   UNL A   1      42.581  29.563  28.884  1.00  0.00     0.074 A 
ATOM     42  C   UNL A   1      41.788  27.240  28.561  1.00  0.00     0.049 A 
ATOM     43  N   UNL A   1      43.853  29.441  28.610  1.00  0.00    -0.248 NA
ATOM     44  C   UNL A   1      42.178  30.920  29.293  1.00  0.00     0.031 C 
ATOM     45  C   UNL A   1      40.825  26.140  28.515  1.00  0.00     0.029 A 
ATOM     46  N   UNL A   1      42.987  26.649  28.245  1.00  0.00    -0.354 N 
ATOM     47  C   UNL A   1      44.397  30.707  28.789  1.00  0.00     0.074 A 
ATOM     48  C   UNL A   1      43.319  31.584  29.189  1.00  0.00     0.031 C 
ATOM     49  C   UNL A   1      41.467  25.012  28.160  1.00  0.00     0.029 A 
ATOM     50  C   UNL A   1      42.875  25.319  27.914  1.00  0.00     0.049 A 
ATOM     51  H   UNL A   1      43.846  27.132  28.255  1.00  0.00     0.167 HD
ATOM     52  C   UNL A   1      45.681  31.102  28.630  1.00  0.00     0.031 A 
ATOM     53  C   UNL A   1      43.795  24.460  27.428  1.00  0.00     0.031 A 
ATOM     54  C   UNL A   1      46.748  30.226  28.231  1.00  0.00     0.049 A 
ATOM     55  C   UNL A   1      45.204  24.947  27.188  1.00  0.00     0.074 A 
ATOM     56  C   UNL A   1      48.092  30.523  28.089  1.00  0.00     0.029 A 
ATOM     57  N   UNL A   1      46.593  28.891  27.893  1.00  0.00    -0.354 N 
ATOM     58  N   UNL A   1      45.718  26.132  27.421  1.00  0.00    -0.248 NA
ATOM     59  C   UNL A   1      46.156  23.982  26.618  1.00  0.00     0.031 C 
ATOM     60  C   UNL A   1      48.739  29.383  27.602  1.00  0.00     0.029 A 
ATOM     61  C   UNL A   1      47.810  28.361  27.500  1.00  0.00     0.049 A 
ATOM     62  H   UNL A   1      45.744  28.394  27.929  1.00  0.00     0.167 HD
ATOM     63  C   UNL A   1      47.055  26.047  27.039  1.00  0.00     0.074 A 
ATOM     64  C   UNL A   1      47.276  24.690  26.586  1.00  0.00     0.031 C 
ATOM     65  C   UNL A   1      48.012  27.006  27.055  1.00  0.00     0.031 A 
BRANCH  52  66
ATOM     66  C   UNL A   1      46.007  32.552  28.854  1.00  0.00    -0.014 A 
ATOM     67  C   UNL A   1      46.258  33.052  30.143  1.00  0.00     0.010 A 
ATOM     68  C   UNL A   1      46.151  33.406  27.745  1.00  0.00     0.010 A 
ATOM     69  C   UNL A   1      46.640  34.384  30.319  1.00  0.00     0.020 A 
ATOM     70  C   UNL A   1      46.554  34.732  27.915  1.00  0.00     0.020 A 
ATOM     71  C   UNL A   1      46.792  35.214  29.203  1.00  0.00     0.054 A 
BRANCH  71  72
ATOM     72  S   UNL A   1      47.361  36.918  29.459  1.00  0.00     0.124 S 
ATOM     73  O   UNL A   1      48.183  36.784  30.659  1.00  0.00    -0.237 OA
ATOM     74  O   UNL A   1      48.091  37.198  28.226  1.00  0.00    -0.237 OA
ATOM     75  O   UNL A   1      46.124  37.674  29.634  1.00  0.00    -0.744 OA
ENDBRANCH  71  72
ENDBRANCH  52  66
BRANCH  53  76
ATOM     76  C   UNL A   1      43.413  23.066  27.066  1.00  0.00    -0.014 A 
ATOM     77  C   UNL A   1      42.785  22.224  28.002  1.00  0.00     0.010 A 
ATOM     78  C   UNL A   1      43.722  22.555  25.791  1.00  0.00     0.010 A 
ATOM     79  C   UNL A   1      42.507  20.891  27.682  1.00  0.00     0.020 A 
ATOM     80  C   UNL A   1      43.418  21.233  25.458  1.00  0.00     0.020 A 
ATOM     81  C   UNL A   1      42.828  20.402  26.413  1.00  0.00     0.054 A 
BRANCH  81  82
ATOM     82  S   UNL A   1      42.446  18.674  26.015  1.00  0.00     0.124 S 
ATOM     83  O   UNL A   1      42.804  17.992  27.255  1.00  0.00    -0.237 OA
ATOM     84  O   UNL A   1      41.018  18.729  25.712  1.00  0.00    -0.237 OA
ATOM     85  O   UNL A   1      43.308  18.389  24.871  1.00  0.00    -0.744 OA
ENDBRANCH  81  82
ENDBRANCH  53  76
BRANCH  65  86
ATOM     86  C   UNL A   1      49.392  26.627  26.591  1.00  0.00    -0.014 A 
ATOM     87  C   UNL A   1      50.300  25.994  27.458  1.00  0.00     0.010 A 
ATOM     88  C   UNL A   1      49.759  26.836  25.248  1.00  0.00     0.010 A 
ATOM     89  C   UNL A   1      51.558  25.597  26.997  1.00  0.00     0.020 A 
ATOM     90  C   UNL A   1      51.004  26.415  24.776  1.00  0.00     0.020 A 
ATOM     91  C   UNL A   1      51.901  25.807  25.657  1.00  0.00     0.054 A 
BRANCH  91  92
ATOM     92  S   UNL A   1      53.516  25.228  25.069  1.00  0.00     0.124 S 
ATOM     93  O   UNL A   1      53.455  25.551  23.646  1.00  0.00    -0.237 OA
ATOM     94  O   UNL A   1      54.450  26.030  25.856  1.00  0.00    -0.237 OA
ATOM     95  O   UNL A   1      53.509  23.801  25.385  1.00  0.00    -0.744 OA
ENDBRANCH  91  92
ENDBRANCH  65  86
ENDBRANCH  39  40
ENDBRANCH  32  34
ENDBRANCH  31  32
ENDBRANCH  30  31
ENDBRANCH  29  30
ENDBRANCH   1  29
TORSDOF 20
ENDMDL
MODEL 3
REMARK VINA RESULT:      -9.1      5.258     10.812
REMARK SMILES O=C(C[C@H]1c2ccccc2CCN1C(=O)Nc1ccccc1Br)OCCOCCOC(=O)c1ccc(-c2c3nc(c(-c4ccc(S(=O)(=O)[O-])cc4)c4ccc([nH]4)c(-c4ccc(S(=O)(=O)[O-])cc4)c4nc(c(-c5ccc(S(=O)(=O)[O-])cc5)c5ccc2[nH]5)C=C4)C=C3)cc1
REMARK SMILES IDX 27 1 26 2 25 3 24 4 2 5 1 6 3 7 4 8 5 9 13 10 6 11 10 12
REMARK SMILES IDX 12 13 7 14 9 15 11 16 8 17 14 18 15 19 16 20 17 22 18 23
REMARK SMILES IDX 22 24 19 25 21 26 23 27 20 28 28 29 29 30 30 31 31 32 32 33
REMARK SMILES IDX 33 34 34 35 92 36 35 37 91 38 36 39 37 40 38 41 85 42 39 43
REMARK SMILES IDX 90 44 84 45 86 46 40 47 89 48 83 49 82 50 41 52 71 53 52 54
REMARK SMILES IDX 70 55 53 56 56 57 69 58 87 59 54 60 55 61 68 63 88 64 57 65
REMARK SMILES IDX 42 66 43 67 51 68 44 69 50 70 45 71 46 72 47 73 48 74 49 75
REMARK SMILES IDX 72 76 73 77 81 78 74 79 80 80 75 81 76 82 77 83 78 84 79 85
REMARK SMILES IDX 58 86 59 87 67 88 60 89 66 90 61 91 62 92 63 93 64 94 65 95
REMARK H PARENT 16 21 86 51 56 62
REMARK Flexibility Score: inf
ROOT
ATOM      1  O   UNL A   1      33.267  30.164  27.117  1.00  0.00    -0.374 OA
ENDROOT
BRANCH   1   2
ATOM      2  C   UNL A   1      32.941  29.892  25.755  1.00  0.00     0.202 C 
BRANCH   2   3
ATOM      3  C   UNL A   1      33.183  28.467  25.275  1.00  0.00     0.261 C 
BRANCH   3   4
ATOM      4  O   UNL A   1      33.241  27.510  26.330  1.00  0.00    -0.463 OA
BRANCH   4   5
ATOM      5  C   UNL A   1      32.125  26.876  26.760  1.00  0.00     0.308 C 
ATOM      6  O   UNL A   1      31.387  27.451  27.559  1.00  0.00    -0.252 OA
BRANCH   5   7
ATOM      7  C   UNL A   1      31.930  25.412  26.430  1.00  0.00     0.152 C 
BRANCH   7   8
ATOM      8  C   UNL A   1      30.722  24.993  25.554  1.00  0.00     0.128 C 
ATOM      9  C   UNL A   1      30.462  25.962  24.382  1.00  0.00    -0.022 A 
ATOM     10  N   UNL A   1      31.026  23.627  25.030  1.00  0.00    -0.317 N 
ATOM     11  C   UNL A   1      29.348  26.806  24.304  1.00  0.00     0.006 A 
ATOM     12  C   UNL A   1      31.361  25.964  23.298  1.00  0.00    -0.041 A 
ATOM     13  C   UNL A   1      31.462  23.573  23.621  1.00  0.00     0.127 C 
ATOM     14  C   UNL A   1      29.233  27.735  23.264  1.00  0.00     0.000 A 
ATOM     15  C   UNL A   1      31.272  26.914  22.278  1.00  0.00     0.004 A 
ATOM     16  C   UNL A   1      32.295  24.794  23.205  1.00  0.00     0.057 C 
ATOM     17  C   UNL A   1      30.212  27.813  22.274  1.00  0.00     0.000 A 
BRANCH  10  18
ATOM     18  C   UNL A   1      30.832  22.602  25.925  1.00  0.00     0.322 C 
ATOM     19  O   UNL A   1      29.733  22.421  26.459  1.00  0.00    -0.248 OA
ATOM     20  N   UNL A   1      31.787  21.698  26.248  1.00  0.00    -0.307 N 
ATOM     21  H   UNL A   1      31.468  20.964  26.823  1.00  0.00     0.171 HD
BRANCH  20  22
ATOM     22  C   UNL A   1      33.135  21.617  25.916  1.00  0.00     0.057 A 
ATOM     23  C   UNL A   1      33.989  22.462  26.630  1.00  0.00     0.027 A 
ATOM     24  C   UNL A   1      33.664  20.690  25.002  1.00  0.00     0.041 A 
ATOM     25  C   UNL A   1      35.368  22.290  26.540  1.00  0.00     0.002 A 
ATOM     26  C   UNL A   1      35.050  20.531  24.908  1.00  0.00     0.018 A 
ATOM     27  Br  UNL A   1      32.564  19.583  23.920  1.00  0.00    -0.049 Br
ATOM     28  C   UNL A   1      35.897  21.311  25.698  1.00  0.00     0.001 A 
ENDBRANCH  20  22
ENDBRANCH  10  18
ENDBRANCH   7   8
ENDBRANCH   5   7
ENDBRANCH   4   5
ENDBRANCH   3   4
ENDBRANCH   2   3
ENDBRANCH   1   2
BRANCH   1  29
ATOM     29  C   UNL A   1      33.890  31.436  27.333  1.00  0.00     0.202 C 
BRANCH  29  30
ATOM     30  C   UNL A   1      32.883  32.558  27.617  1.00  0.00     0.261 C 
BRANCH  30  31
ATOM     31  O   UNL A   1      33.552  33.822  27.758  1.00  0.00    -0.460 OA
BRANCH  31  32
ATOM     32  C   UNL A   1      33.475  34.386  28.992  1.00  0.00     0.338 C 
ATOM     33  O   UNL A   1      32.530  34.994  29.466  1.00  0.00    -0.246 OA
BRANCH  32  34
ATOM     34  C   UNL A   1      34.648  33.944  29.783  1.00  0.00     0.060 A 
ATOM     35  C   UNL A   1      35.928  34.252  29.293  1.00  0.00     0.016 A 
ATOM     36  C   UNL A   1      34.505  33.321  31.026  1.00  0.00     0.016 A 
ATOM     37  C   UNL A   1      37.064  33.933  30.041  1.00  0.00     0.010 A 
ATOM     38  C   UNL A   1      35.643  32.986  31.764  1.00  0.00     0.010 A 
ATOM     39  C   UNL A   1      36.927  33.275  31.269  1.00  0.00    -0.014 A 
BRANCH  39  40
ATOM     40  C   UNL A   1      38.113  32.747  31.983  1.00  0.00     0.031 A 
ATOM     41  C   UNL A   1      38.790  31.526  31.427  1.00  0.00     0.074 A 
ATOM     42  C   UNL A   1      38.547  33.310  33.125  1.00  0.00     0.049 A 
ATOM     43  N   UNL A   1      39.751  30.808  31.943  1.00  0.00    -0.248 NA
ATOM     44  C   UNL A   1      38.313  31.046  30.117  1.00  0.00     0.031 C 
ATOM     45  C   UNL A   1      37.993  34.515  33.744  1.00  0.00     0.029 A 
ATOM     46  N   UNL A   1      39.545  32.920  33.986  1.00  0.00    -0.354 N 
ATOM     47  C   UNL A   1      39.979  29.779  31.037  1.00  0.00     0.074 A 
ATOM     48  C   UNL A   1      39.052  29.961  29.941  1.00  0.00     0.031 C 
ATOM     49  C   UNL A   1      38.639  34.748  34.901  1.00  0.00     0.029 A 
ATOM     50  C   UNL A   1      39.622  33.688  35.124  1.00  0.00     0.049 A 
ATOM     51  H   UNL A   1      40.148  32.163  33.804  1.00  0.00     0.167 HD
ATOM     52  C   UNL A   1      40.878  28.771  31.114  1.00  0.00     0.031 A 
ATOM     53  C   UNL A   1      40.368  33.528  36.236  1.00  0.00     0.031 A 
ATOM     54  C   UNL A   1      41.794  28.594  32.207  1.00  0.00     0.049 A 
ATOM     55  C   UNL A   1      41.310  32.351  36.329  1.00  0.00     0.074 A 
ATOM     56  C   UNL A   1      42.776  27.630  32.353  1.00  0.00     0.029 A 
ATOM     57  N   UNL A   1      41.833  29.384  33.345  1.00  0.00    -0.354 N 
ATOM     58  N   UNL A   1      41.558  31.421  35.437  1.00  0.00    -0.248 NA
ATOM     59  C   UNL A   1      42.069  32.200  37.579  1.00  0.00     0.031 C 
ATOM     60  C   UNL A   1      43.365  27.797  33.610  1.00  0.00     0.029 A 
ATOM     61  C   UNL A   1      42.792  28.902  34.219  1.00  0.00     0.049 A 
ATOM     62  H   UNL A   1      41.264  30.170  33.507  1.00  0.00     0.167 HD
ATOM     63  C   UNL A   1      42.512  30.587  36.014  1.00  0.00     0.074 A 
ATOM     64  C   UNL A   1      42.814  31.136  37.319  1.00  0.00     0.031 C 
ATOM     65  C   UNL A   1      43.081  29.464  35.513  1.00  0.00     0.031 A 
BRANCH  52  66
ATOM     66  C   UNL A   1      40.898  27.756  30.006  1.00  0.00    -0.014 A 
ATOM     67  C   UNL A   1      39.776  26.956  29.730  1.00  0.00     0.010 A 
ATOM     68  C   UNL A   1      42.028  27.667  29.173  1.00  0.00     0.010 A 
ATOM     69  C   UNL A   1      39.788  26.078  28.644  1.00  0.00     0.020 A 
ATOM     70  C   UNL A   1      42.035  26.806  28.073  1.00  0.00     0.020 A 
ATOM     71  C   UNL A   1      40.915  26.013  27.818  1.00  0.00     0.054 A 
BRANCH  71  72
ATOM     72  S   UNL A   1      40.871  24.918  26.372  1.00  0.00     0.124 S 
ATOM     73  O   UNL A   1      41.202  25.838  25.287  1.00  0.00    -0.237 OA
ATOM     74  O   UNL A   1      41.897  23.929  26.691  1.00  0.00    -0.237 OA
ATOM     75  O   UNL A   1      39.501  24.411  26.363  1.00  0.00    -0.744 OA
ENDBRANCH  71  72
ENDBRANCH  52  66
BRANCH  53  76
ATOM     76  C   UNL A   1      40.219  34.461  37.389  1.00  0.00    -0.014 A 
ATOM     77  C   UNL A   1      39.154  34.323  38.296  1.00  0.00     0.010 A 
ATOM     78  C   UNL A   1      41.121  35.530  37.555  1.00  0.00     0.010 A 
ATOM     79  C   UNL A   1      38.973  35.254  39.325  1.00  0.00     0.020 A 
ATOM     80  C   UNL A   1      40.962  36.443  38.600  1.00  0.00     0.020 A 
ATOM     81  C   UNL A   1      39.877  36.310  39.469  1.00  0.00     0.054 A 
BRANCH  81  82
ATOM     82  S   UNL A   1      39.632  37.497  40.818  1.00  0.00     0.124 S 
ATOM     83  O   UNL A   1      38.453  38.231  40.366  1.00  0.00    -0.237 OA
ATOM     84  O   UNL A   1      39.430  36.625  41.973  1.00  0.00    -0.237 OA
ATOM     85  O   UNL A   1      40.878  38.260  40.832  1.00  0.00    -0.744 OA
ENDBRANCH  81  82
ENDBRANCH  53  76
BRANCH  65  86
ATOM     86  C   UNL A   1      44.105  28.759  36.363  1.00  0.00    -0.014 A 
ATOM     87  C   UNL A   1      43.752  27.652  37.154  1.00  0.00     0.010 A 
ATOM     88  C   UNL A   1      45.453  29.162  36.309  1.00  0.00     0.010 A 
ATOM     89  C   UNL A   1      44.724  26.974  37.894  1.00  0.00     0.020 A 
ATOM     90  C   UNL A   1      46.432  28.469  37.024  1.00  0.00     0.020 A 
ATOM     91  C   UNL A   1      46.059  27.385  37.822  1.00  0.00     0.054 A 
BRANCH  91  92
ATOM     92  S   UNL A   1      47.310  26.450  38.744  1.00  0.00     0.124 S 
ATOM     93  O   UNL A   1      48.457  27.353  38.702  1.00  0.00    -0.237 OA
ATOM     94  O   UNL A   1      46.687  26.287  40.055  1.00  0.00    -0.237 OA
ATOM     95  O   UNL A   1      47.460  25.217  37.974  1.00  0.00    -0.744 OA
ENDBRANCH  91  92
ENDBRANCH  65  86
ENDBRANCH  39  40
ENDBRANCH  32  34
ENDBRANCH  31  32
ENDBRANCH  30  31
ENDBRANCH  29  30
ENDBRANCH   1  29
TORSDOF 20
ENDMDL
