MODEL 1
REMARK VINA RESULT:      -9.5      0.000      0.000
REMARK SMILES CC(C)C[C@H](CNC(=O)[C@H]1CCO[C@@H]1C)C(=O)OCCOCCOC(=O)c1ccc(-c2c3nc(c(-c4ccc(S(=O)(=O)[O-])cc4)c4ccc([nH]4)c(-c4ccc(S(=O)(=O)[O-])cc4)c4nc(c(-c5ccc(S(=O)(=O)[O-])cc5)c5ccc2[nH]5)C=C4)C=C3)cc1
REMARK SMILES IDX 21 1 20 2 19 3 18 4 16 5 17 6 5 7 4 8 2 9 1 10 3 11 6 12
REMARK SMILES IDX 7 13 8 14 9 16 10 17 11 18 14 19 12 20 13 21 15 22 22 23
REMARK SMILES IDX 23 24 24 25 25 26 26 27 27 28 28 29 86 30 29 31 85 32 30 33
REMARK SMILES IDX 31 34 32 35 79 36 33 37 84 38 78 39 80 40 34 41 83 42 77 43
REMARK SMILES IDX 76 44 35 46 65 47 46 48 64 49 47 50 50 51 63 52 81 53 48 54
REMARK SMILES IDX 49 55 62 57 82 58 51 59 36 60 37 61 45 62 38 63 44 64 39 65
REMARK SMILES IDX 40 66 41 67 42 68 43 69 66 70 67 71 75 72 68 73 74 74 69 75
REMARK SMILES IDX 70 76 71 77 72 78 73 79 52 80 53 81 61 82 54 83 60 84 55 85
REMARK SMILES IDX 56 86 57 87 58 88 59 89
REMARK H PARENT 7 15 80 45 50 56
REMARK Flexibility Score: inf
ROOT
ATOM      1  O   UNL A   1      38.810  21.721  25.442  1.00  0.00    -0.374 OA
ENDROOT
BRANCH   1   2
ATOM      2  C   UNL A   1      37.389  21.672  25.524  1.00  0.00     0.202 C 
BRANCH   2   3
ATOM      3  C   UNL A   1      36.587  22.107  24.293  1.00  0.00     0.261 C 
BRANCH   3   4
ATOM      4  O   UNL A   1      35.440  22.916  24.600  1.00  0.00    -0.463 OA
BRANCH   4   5
ATOM      5  C   UNL A   1      34.492  22.948  23.628  1.00  0.00     0.310 C 
ATOM      6  O   UNL A   1      34.704  23.206  22.450  1.00  0.00    -0.252 OA
BRANCH   5   7
ATOM      7  C   UNL A   1      33.105  22.645  24.161  1.00  0.00     0.118 C 
BRANCH   7   8
ATOM      8  C   UNL A   1      32.549  21.328  23.582  1.00  0.00     0.020 C 
BRANCH   8   9
ATOM      9  C   UNL A   1      33.172  20.019  24.117  1.00  0.00    -0.017 C 
ATOM     10  C   UNL A   1      32.982  19.800  25.619  1.00  0.00     0.007 C 
ATOM     11  C   UNL A   1      32.596  18.823  23.355  1.00  0.00     0.007 C 
ENDBRANCH   8   9
ENDBRANCH   7   8
BRANCH   7  12
ATOM     12  C   UNL A   1      32.185  23.887  24.036  1.00  0.00     0.131 C 
BRANCH  12  13
ATOM     13  N   UNL A   1      32.193  24.528  22.731  1.00  0.00    -0.355 N 
ATOM     14  C   UNL A   1      31.817  25.783  22.355  1.00  0.00     0.225 C 
ATOM     15  H   UNL A   1      32.525  23.962  21.998  1.00  0.00     0.163 HD
ATOM     16  O   UNL A   1      31.817  26.049  21.154  1.00  0.00    -0.275 OA
BRANCH  14  17
ATOM     17  C   UNL A   1      31.473  26.804  23.419  1.00  0.00     0.109 C 
ATOM     18  C   UNL A   1      32.703  27.170  24.227  1.00  0.00     0.044 C 
ATOM     19  C   UNL A   1      31.066  28.154  22.831  1.00  0.00     0.127 C 
ATOM     20  C   UNL A   1      32.387  28.565  24.711  1.00  0.00     0.161 C 
ATOM     21  O   UNL A   1      31.553  29.175  23.724  1.00  0.00    -0.378 OA
ATOM     22  C   UNL A   1      29.557  28.302  22.708  1.00  0.00     0.039 C 
ENDBRANCH  14  17
ENDBRANCH  12  13
ENDBRANCH   7  12
ENDBRANCH   5   7
ENDBRANCH   4   5
ENDBRANCH   3   4
ENDBRANCH   2   3
ENDBRANCH   1   2
BRANCH   1  23
ATOM     23  C   UNL A   1      39.543  22.121  26.598  1.00  0.00     0.202 C 
BRANCH  23  24
ATOM     24  C   UNL A   1      41.072  22.089  26.511  1.00  0.00     0.261 C 
BRANCH  24  25
ATOM     25  O   UNL A   1      41.682  23.108  27.323  1.00  0.00    -0.460 OA
BRANCH  25  26
ATOM     26  C   UNL A   1      41.955  24.258  26.664  1.00  0.00     0.338 C 
ATOM     27  O   UNL A   1      42.358  24.365  25.509  1.00  0.00    -0.246 OA
BRANCH  26  28
ATOM     28  C   UNL A   1      41.518  25.425  27.447  1.00  0.00     0.060 A 
ATOM     29  C   UNL A   1      42.460  26.437  27.671  1.00  0.00     0.016 A 
ATOM     30  C   UNL A   1      40.253  25.487  28.038  1.00  0.00     0.016 A 
ATOM     31  C   UNL A   1      42.170  27.482  28.543  1.00  0.00     0.010 A 
ATOM     32  C   UNL A   1      39.967  26.533  28.923  1.00  0.00     0.010 A 
ATOM     33  C   UNL A   1      40.940  27.506  29.214  1.00  0.00    -0.014 A 
BRANCH  33  34
ATOM     34  C   UNL A   1      40.761  28.443  30.349  1.00  0.00     0.031 A 
ATOM     35  C   UNL A   1      41.670  28.318  31.543  1.00  0.00     0.074 A 
ATOM     36  C   UNL A   1      39.844  29.425  30.295  1.00  0.00     0.049 A 
ATOM     37  N   UNL A   1      41.699  29.029  32.640  1.00  0.00    -0.248 NA
ATOM     38  C   UNL A   1      42.685  27.252  31.489  1.00  0.00     0.031 C 
ATOM     39  C   UNL A   1      38.942  29.682  29.173  1.00  0.00     0.029 A 
ATOM     40  N   UNL A   1      39.523  30.393  31.214  1.00  0.00    -0.354 N 
ATOM     41  C   UNL A   1      42.728  28.495  33.408  1.00  0.00     0.074 A 
ATOM     42  C   UNL A   1      43.280  27.384  32.665  1.00  0.00     0.031 C 
ATOM     43  C   UNL A   1      38.166  30.738  29.471  1.00  0.00     0.029 A 
ATOM     44  C   UNL A   1      38.494  31.211  30.814  1.00  0.00     0.049 A 
ATOM     45  H   UNL A   1      39.987  30.492  32.077  1.00  0.00     0.167 HD
ATOM     46  C   UNL A   1      43.178  28.897  34.620  1.00  0.00     0.031 A 
ATOM     47  C   UNL A   1      37.877  32.216  31.467  1.00  0.00     0.031 A 
ATOM     48  C   UNL A   1      42.618  29.993  35.365  1.00  0.00     0.049 A 
ATOM     49  C   UNL A   1      38.343  32.596  32.848  1.00  0.00     0.074 A 
ATOM     50  C   UNL A   1      43.006  30.482  36.600  1.00  0.00     0.029 A 
ATOM     51  N   UNL A   1      41.546  30.767  34.946  1.00  0.00    -0.354 N 
ATOM     52  N   UNL A   1      39.327  32.091  33.554  1.00  0.00    -0.248 NA
ATOM     53  C   UNL A   1      37.619  33.687  33.515  1.00  0.00     0.031 C 
ATOM     54  C   UNL A   1      42.134  31.519  36.951  1.00  0.00     0.029 A 
ATOM     55  C   UNL A   1      41.241  31.713  35.910  1.00  0.00     0.049 A 
ATOM     56  H   UNL A   1      41.072  30.659  34.090  1.00  0.00     0.167 HD
ATOM     57  C   UNL A   1      39.357  32.821  34.738  1.00  0.00     0.074 A 
ATOM     58  C   UNL A   1      38.301  33.809  34.647  1.00  0.00     0.031 C 
ATOM     59  C   UNL A   1      40.185  32.688  35.803  1.00  0.00     0.031 A 
BRANCH  46  60
ATOM     60  C   UNL A   1      44.312  28.119  35.232  1.00  0.00    -0.014 A 
ATOM     61  C   UNL A   1      44.075  27.109  36.183  1.00  0.00     0.010 A 
ATOM     62  C   UNL A   1      45.633  28.383  34.830  1.00  0.00     0.010 A 
ATOM     63  C   UNL A   1      45.141  26.405  36.747  1.00  0.00     0.020 A 
ATOM     64  C   UNL A   1      46.702  27.663  35.373  1.00  0.00     0.020 A 
ATOM     65  C   UNL A   1      46.449  26.691  36.343  1.00  0.00     0.054 A 
BRANCH  65  66
ATOM     66  S   UNL A   1      47.814  25.751  37.080  1.00  0.00     0.124 S 
ATOM     67  O   UNL A   1      47.758  24.499  36.329  1.00  0.00    -0.237 OA
ATOM     68  O   UNL A   1      48.973  26.597  36.804  1.00  0.00    -0.237 OA
ATOM     69  O   UNL A   1      47.444  25.649  38.490  1.00  0.00    -0.744 OA
ENDBRANCH  65  66
ENDBRANCH  46  60
BRANCH  47  70
ATOM     70  C   UNL A   1      36.735  32.925  30.826  1.00  0.00    -0.014 A 
ATOM     71  C   UNL A   1      36.952  33.865  29.805  1.00  0.00     0.010 A 
ATOM     72  C   UNL A   1      35.417  32.656  31.240  1.00  0.00     0.010 A 
ATOM     73  C   UNL A   1      35.873  34.534  29.218  1.00  0.00     0.020 A 
ATOM     74  C   UNL A   1      34.334  33.303  30.639  1.00  0.00     0.020 A 
ATOM     75  C   UNL A   1      34.571  34.247  29.638  1.00  0.00     0.054 A 
BRANCH  75  76
ATOM     76  S   UNL A   1      33.182  35.086  28.825  1.00  0.00     0.124 S 
ATOM     77  O   UNL A   1      32.672  34.042  27.941  1.00  0.00    -0.237 OA
ATOM     78  O   UNL A   1      32.323  35.437  29.953  1.00  0.00    -0.237 OA
ATOM     79  O   UNL A   1      33.814  36.221  28.156  1.00  0.00    -0.744 OA
ENDBRANCH  75  76
ENDBRANCH  47  70
BRANCH  59  80
ATOM     80  C   UNL A   1      40.008  33.653  36.945  1.00  0.00    -0.014 A 
ATOM     81  C   UNL A   1      40.717  34.866  36.993  1.00  0.00     0.010 A 
ATOM     82  C   UNL A   1      39.074  33.364  37.958  1.00  0.00     0.010 A 
ATOM     83  C   UNL A   1      40.519  35.758  38.050  1.00  0.00     0.020 A 
ATOM     84  C   UNL A   1      38.855  34.265  39.002  1.00  0.00     0.020 A 
ATOM     85  C   UNL A   1      39.590  35.451  39.050  1.00  0.00     0.054 A 
BRANCH  85  86
ATOM     86  S   UNL A   1      39.320  36.642  40.391  1.00  0.00     0.124 S 
ATOM     87  O   UNL A   1      40.665  36.798  40.935  1.00  0.00    -0.237 OA
ATOM     88  O   UNL A   1      38.789  37.807  39.684  1.00  0.00    -0.237 OA
ATOM     89  O   UNL A   1      38.367  35.967  41.268  1.00  0.00    -0.744 OA
ENDBRANCH  85  86
ENDBRANCH  59  80
ENDBRANCH  33  34
ENDBRANCH  26  28
ENDBRANCH  25  26
ENDBRANCH  24  25
ENDBRANCH  23  24
ENDBRANCH   1  23
TORSDOF 22
ENDMDL
MODEL 2
REMARK VINA RESULT:      -9.4      6.153     12.084
REMARK SMILES CC(C)C[C@H](CNC(=O)[C@H]1CCO[C@@H]1C)C(=O)OCCOCCOC(=O)c1ccc(-c2c3nc(c(-c4ccc(S(=O)(=O)[O-])cc4)c4ccc([nH]4)c(-c4ccc(S(=O)(=O)[O-])cc4)c4nc(c(-c5ccc(S(=O)(=O)[O-])cc5)c5ccc2[nH]5)C=C4)C=C3)cc1
REMARK SMILES IDX 21 1 20 2 19 3 18 4 16 5 17 6 5 7 4 8 2 9 1 10 3 11 6 12
REMARK SMILES IDX 7 13 8 14 9 16 10 17 11 18 14 19 12 20 13 21 15 22 22 23
REMARK SMILES IDX 23 24 24 25 25 26 26 27 27 28 28 29 86 30 29 31 85 32 30 33
REMARK SMILES IDX 31 34 32 35 79 36 33 37 84 38 78 39 80 40 34 41 83 42 77 43
REMARK SMILES IDX 76 44 35 46 65 47 46 48 64 49 47 50 50 51 63 52 81 53 48 54
REMARK SMILES IDX 49 55 62 57 82 58 51 59 36 60 37 61 45 62 38 63 44 64 39 65
REMARK SMILES IDX 40 66 41 67 42 68 43 69 66 70 67 71 75 72 68 73 74 74 69 75
REMARK SMILES IDX 70 76 71 77 72 78 73 79 52 80 53 81 61 82 54 83 60 84 55 85
REMARK SMILES IDX 56 86 57 87 58 88 59 89
REMARK H PARENT 7 15 80 45 50 56
REMARK Flexibility Score: inf
ROOT
ATOM      1  O   UNL A   1      34.426  32.880  31.203  1.00  0.00    -0.374 OA
ENDROOT
BRANCH   1   2
ATOM      2  C   UNL A   1      35.058  32.657  29.945  1.00  0.00     0.202 C 
BRANCH   2   3
ATOM      3  C   UNL A   1      34.229  32.894  28.678  1.00  0.00     0.261 C 
BRANCH   3   4
ATOM      4  O   UNL A   1      34.612  32.065  27.569  1.00  0.00    -0.463 OA
BRANCH   4   5
ATOM      5  C   UNL A   1      34.027  30.839  27.548  1.00  0.00     0.310 C 
ATOM      6  O   UNL A   1      32.819  30.639  27.523  1.00  0.00    -0.252 OA
BRANCH   5   7
ATOM      7  C   UNL A   1      35.041  29.712  27.580  1.00  0.00     0.118 C 
BRANCH   7   8
ATOM      8  C   UNL A   1      36.487  30.249  27.621  1.00  0.00     0.020 C 
BRANCH   8   9
ATOM      9  C   UNL A   1      37.369  29.773  28.796  1.00  0.00    -0.017 C 
ATOM     10  C   UNL A   1      36.585  29.306  30.024  1.00  0.00     0.007 C 
ATOM     11  C   UNL A   1      38.291  28.645  28.326  1.00  0.00     0.007 C 
ENDBRANCH   8   9
ENDBRANCH   7   8
BRANCH   7  12
ATOM     12  C   UNL A   1      34.733  28.665  26.479  1.00  0.00     0.131 C 
BRANCH  12  13
ATOM     13  N   UNL A   1      33.491  27.932  26.660  1.00  0.00    -0.355 N 
ATOM     14  C   UNL A   1      32.908  26.968  25.893  1.00  0.00     0.225 C 
ATOM     15  H   UNL A   1      32.987  28.170  27.471  1.00  0.00     0.163 HD
ATOM     16  O   UNL A   1      31.786  26.578  26.211  1.00  0.00    -0.275 OA
BRANCH  14  17
ATOM     17  C   UNL A   1      33.678  26.382  24.728  1.00  0.00     0.109 C 
ATOM     18  C   UNL A   1      33.637  24.866  24.769  1.00  0.00     0.044 C 
ATOM     19  C   UNL A   1      33.024  26.680  23.379  1.00  0.00     0.127 C 
ATOM     20  C   UNL A   1      33.811  24.484  23.318  1.00  0.00     0.161 C 
ATOM     21  O   UNL A   1      33.242  25.534  22.533  1.00  0.00    -0.378 OA
ATOM     22  C   UNL A   1      33.627  27.901  22.700  1.00  0.00     0.039 C 
ENDBRANCH  14  17
ENDBRANCH  12  13
ENDBRANCH   7  12
ENDBRANCH   5   7
ENDBRANCH   4   5
ENDBRANCH   3   4
ENDBRANCH   2   3
ENDBRANCH   1   2
BRANCH   1  23
ATOM     23  C   UNL A   1      35.204  33.431  32.264  1.00  0.00     0.202 C 
BRANCH  23  24
ATOM     24  C   UNL A   1      35.898  32.450  33.213  1.00  0.00     0.261 C 
BRANCH  24  25
ATOM     25  O   UNL A   1      36.902  31.667  32.544  1.00  0.00    -0.460 OA
BRANCH  25  26
ATOM     26  C   UNL A   1      38.139  32.217  32.556  1.00  0.00     0.338 C 
ATOM     27  O   UNL A   1      38.540  33.106  33.301  1.00  0.00    -0.246 OA
BRANCH  26  28
ATOM     28  C   UNL A   1      39.049  31.473  31.670  1.00  0.00     0.060 A 
ATOM     29  C   UNL A   1      39.660  30.326  32.194  1.00  0.00     0.016 A 
ATOM     30  C   UNL A   1      39.381  31.935  30.394  1.00  0.00     0.016 A 
ATOM     31  C   UNL A   1      40.658  29.675  31.476  1.00  0.00     0.010 A 
ATOM     32  C   UNL A   1      40.392  31.285  29.677  1.00  0.00     0.010 A 
ATOM     33  C   UNL A   1      41.066  30.183  30.235  1.00  0.00    -0.014 A 
BRANCH  33  34
ATOM     34  C   UNL A   1      42.314  29.668  29.624  1.00  0.00     0.031 A 
ATOM     35  C   UNL A   1      43.511  30.577  29.546  1.00  0.00     0.074 A 
ATOM     36  C   UNL A   1      42.401  28.395  29.199  1.00  0.00     0.049 A 
ATOM     37  N   UNL A   1      44.703  30.339  29.062  1.00  0.00    -0.248 NA
ATOM     38  C   UNL A   1      43.344  31.935  30.092  1.00  0.00     0.031 C 
ATOM     39  C   UNL A   1      41.328  27.403  29.270  1.00  0.00     0.029 A 
ATOM     40  N   UNL A   1      43.447  27.720  28.622  1.00  0.00    -0.354 N 
ATOM     41  C   UNL A   1      45.424  31.515  29.240  1.00  0.00     0.074 A 
ATOM     42  C   UNL A   1      44.529  32.474  29.849  1.00  0.00     0.031 C 
ATOM     43  C   UNL A   1      41.772  26.245  28.751  1.00  0.00     0.029 A 
ATOM     44  C   UNL A   1      43.146  26.423  28.286  1.00  0.00     0.049 A 
ATOM     45  H   UNL A   1      44.330  28.127  28.464  1.00  0.00     0.167 HD
ATOM     46  C   UNL A   1      46.717  31.771  28.929  1.00  0.00     0.031 A 
ATOM     47  C   UNL A   1      43.890  25.490  27.658  1.00  0.00     0.031 A 
ATOM     48  C   UNL A   1      47.601  30.821  28.309  1.00  0.00     0.049 A 
ATOM     49  C   UNL A   1      45.301  25.823  27.250  1.00  0.00     0.074 A 
ATOM     50  C   UNL A   1      48.930  30.983  27.958  1.00  0.00     0.029 A 
ATOM     51  N   UNL A   1      47.243  29.533  27.942  1.00  0.00    -0.354 N 
ATOM     52  N   UNL A   1      45.973  26.934  27.438  1.00  0.00    -0.248 NA
ATOM     53  C   UNL A   1      46.056  24.773  26.553  1.00  0.00     0.031 C 
ATOM     54  C   UNL A   1      49.361  29.809  27.331  1.00  0.00     0.029 A 
ATOM     55  C   UNL A   1      48.318  28.897  27.344  1.00  0.00     0.049 A 
ATOM     56  H   UNL A   1      46.357  29.129  28.085  1.00  0.00     0.167 HD
ATOM     57  C   UNL A   1      47.238  26.707  26.906  1.00  0.00     0.074 A 
ATOM     58  C   UNL A   1      47.241  25.350  26.400  1.00  0.00     0.031 C 
ATOM     59  C   UNL A   1      48.303  27.545  26.844  1.00  0.00     0.031 A 
BRANCH  46  60
ATOM     60  C   UNL A   1      47.239  33.152  29.223  1.00  0.00    -0.014 A 
ATOM     61  C   UNL A   1      47.125  34.191  28.282  1.00  0.00     0.010 A 
ATOM     62  C   UNL A   1      47.829  33.421  30.472  1.00  0.00     0.010 A 
ATOM     63  C   UNL A   1      47.625  35.464  28.569  1.00  0.00     0.020 A 
ATOM     64  C   UNL A   1      48.308  34.699  30.773  1.00  0.00     0.020 A 
ATOM     65  C   UNL A   1      48.220  35.708  29.812  1.00  0.00     0.054 A 
BRANCH  65  66
ATOM     66  S   UNL A   1      48.848  37.372  30.166  1.00  0.00     0.124 S 
ATOM     67  O   UNL A   1      50.293  37.155  30.164  1.00  0.00    -0.237 OA
ATOM     68  O   UNL A   1      48.330  38.156  29.047  1.00  0.00    -0.237 OA
ATOM     69  O   UNL A   1      48.269  37.693  31.468  1.00  0.00    -0.744 OA
ENDBRANCH  65  66
ENDBRANCH  46  60
BRANCH  47  70
ATOM     70  C   UNL A   1      43.306  24.154  27.358  1.00  0.00    -0.014 A 
ATOM     71  C   UNL A   1      43.111  23.208  28.379  1.00  0.00     0.010 A 
ATOM     72  C   UNL A   1      42.939  23.824  26.040  1.00  0.00     0.010 A 
ATOM     73  C   UNL A   1      42.573  21.951  28.085  1.00  0.00     0.020 A 
ATOM     74  C   UNL A   1      42.378  22.578  25.747  1.00  0.00     0.020 A 
ATOM     75  C   UNL A   1      42.208  21.646  26.771  1.00  0.00     0.054 A 
BRANCH  75  76
ATOM     76  S   UNL A   1      41.460  20.029  26.421  1.00  0.00     0.124 S 
ATOM     77  O   UNL A   1      42.210  19.596  25.247  1.00  0.00    -0.237 OA
ATOM     78  O   UNL A   1      41.725  19.287  27.651  1.00  0.00    -0.237 OA
ATOM     79  O   UNL A   1      40.054  20.348  26.185  1.00  0.00    -0.744 OA
ENDBRANCH  75  76
ENDBRANCH  47  70
BRANCH  59  80
ATOM     80  C   UNL A   1      49.573  27.010  26.238  1.00  0.00    -0.014 A 
ATOM     81  C   UNL A   1      49.846  27.158  24.867  1.00  0.00     0.010 A 
ATOM     82  C   UNL A   1      50.532  26.398  27.067  1.00  0.00     0.010 A 
ATOM     83  C   UNL A   1      51.042  26.675  24.329  1.00  0.00     0.020 A 
ATOM     84  C   UNL A   1      51.741  25.938  26.537  1.00  0.00     0.020 A 
ATOM     85  C   UNL A   1      51.982  26.066  25.168  1.00  0.00     0.054 A 
BRANCH  85  86
ATOM     86  S   UNL A   1      53.545  25.484  24.456  1.00  0.00     0.124 S 
ATOM     87  O   UNL A   1      53.516  24.061  24.781  1.00  0.00    -0.237 OA
ATOM     88  O   UNL A   1      53.393  25.807  23.039  1.00  0.00    -0.237 OA
ATOM     89  O   UNL A   1      54.559  26.264  25.161  1.00  0.00    -0.744 OA
ENDBRANCH  85  86
ENDBRANCH  59  80
ENDBRANCH  33  34
ENDBRANCH  26  28
ENDBRANCH  25  26
ENDBRANCH  24  25
ENDBRANCH  23  24
ENDBRANCH   1  23
TORSDOF 22
ENDMDL
MODEL 3
REMARK VINA RESULT:      -9.3      4.706      7.135
REMARK SMILES CC(C)C[C@H](CNC(=O)[C@H]1CCO[C@@H]1C)C(=O)OCCOCCOC(=O)c1ccc(-c2c3nc(c(-c4ccc(S(=O)(=O)[O-])cc4)c4ccc([nH]4)c(-c4ccc(S(=O)(=O)[O-])cc4)c4nc(c(-c5ccc(S(=O)(=O)[O-])cc5)c5ccc2[nH]5)C=C4)C=C3)cc1
REMARK SMILES IDX 21 1 20 2 19 3 18 4 16 5 17 6 5 7 4 8 2 9 1 10 3 11 6 12
REMARK SMILES IDX 7 13 8 14 9 16 10 17 11 18 14 19 12 20 13 21 15 22 22 23
REMARK SMILES IDX 23 24 24 25 25 26 26 27 27 28 28 29 86 30 29 31 85 32 30 33
REMARK SMILES IDX 31 34 32 35 79 36 33 37 84 38 78 39 80 40 34 41 83 42 77 43
REMARK SMILES IDX 76 44 35 46 65 47 46 48 64 49 47 50 50 51 63 52 81 53 48 54
REMARK SMILES IDX 49 55 62 57 82 58 51 59 36 60 37 61 45 62 38 63 44 64 39 65
REMARK SMILES IDX 40 66 41 67 42 68 43 69 66 70 67 71 75 72 68 73 74 74 69 75
REMARK SMILES IDX 70 76 71 77 72 78 73 79 52 80 53 81 61 82 54 83 60 84 55 85
REMARK SMILES IDX 56 86 57 87 58 88 59 89
REMARK H PARENT 7 15 80 45 50 56
REMARK Flexibility Score: inf
ROOT
ATOM      1  O   UNL A   1      43.820  28.416  25.778  1.00  0.00    -0.374 OA
ENDROOT
BRANCH   1   2
ATOM      2  C   UNL A   1      44.409  28.820  27.011  1.00  0.00     0.202 C 
BRANCH   2   3
ATOM      3  C   UNL A   1      44.580  27.758  28.102  1.00  0.00     0.261 C 
BRANCH   3   4
ATOM      4  O   UNL A   1      45.949  27.413  28.370  1.00  0.00    -0.463 OA
BRANCH   4   5
ATOM      5  C   UNL A   1      46.307  26.164  27.972  1.00  0.00     0.310 C 
ATOM      6  O   UNL A   1      47.219  25.911  27.194  1.00  0.00    -0.252 OA
BRANCH   5   7
ATOM      7  C   UNL A   1      45.433  25.087  28.584  1.00  0.00     0.118 C 
BRANCH   7   8
ATOM      8  C   UNL A   1      45.811  24.817  30.055  1.00  0.00     0.020 C 
BRANCH   8   9
ATOM      9  C   UNL A   1      44.652  24.806  31.077  1.00  0.00    -0.017 C 
ATOM     10  C   UNL A   1      44.013  23.433  31.290  1.00  0.00     0.007 C 
ATOM     11  C   UNL A   1      45.144  25.350  32.421  1.00  0.00     0.007 C 
ENDBRANCH   8   9
ENDBRANCH   7   8
BRANCH   7  12
ATOM     12  C   UNL A   1      45.363  23.845  27.659  1.00  0.00     0.131 C 
BRANCH  12  13
ATOM     13  N   UNL A   1      44.031  23.296  27.467  1.00  0.00    -0.355 N 
ATOM     14  C   UNL A   1      43.460  22.707  26.379  1.00  0.00     0.225 C 
ATOM     15  H   UNL A   1      43.444  23.359  28.255  1.00  0.00     0.163 HD
ATOM     16  O   UNL A   1      42.265  22.422  26.438  1.00  0.00    -0.275 OA
BRANCH  14  17
ATOM     17  C   UNL A   1      44.320  22.380  25.177  1.00  0.00     0.109 C 
ATOM     18  C   UNL A   1      45.238  23.540  24.844  1.00  0.00     0.044 C 
ATOM     19  C   UNL A   1      45.318  21.256  25.453  1.00  0.00     0.127 C 
ATOM     20  C   UNL A   1      46.401  22.865  24.156  1.00  0.00     0.161 C 
ATOM     21  O   UNL A   1      46.517  21.554  24.712  1.00  0.00    -0.378 OA
ATOM     22  C   UNL A   1      44.800  19.898  25.004  1.00  0.00     0.039 C 
ENDBRANCH  14  17
ENDBRANCH  12  13
ENDBRANCH   7  12
ENDBRANCH   5   7
ENDBRANCH   4   5
ENDBRANCH   3   4
ENDBRANCH   2   3
ENDBRANCH   1   2
BRANCH   1  23
ATOM     23  C   UNL A   1      43.993  27.065  25.354  1.00  0.00     0.202 C 
BRANCH  23  24
ATOM     24  C   UNL A   1      42.777  26.137  25.442  1.00  0.00     0.261 C 
BRANCH  24  25
ATOM     25  O   UNL A   1      41.550  26.868  25.610  1.00  0.00    -0.460 OA
BRANCH  25  26
ATOM     26  C   UNL A   1      40.627  26.239  26.376  1.00  0.00     0.338 C 
ATOM     27  O   UNL A   1      40.266  25.070  26.280  1.00  0.00    -0.246 OA
BRANCH  26  28
ATOM     28  C   UNL A   1      40.222  27.089  27.508  1.00  0.00     0.060 A 
ATOM     29  C   UNL A   1      40.704  28.404  27.527  1.00  0.00     0.016 A 
ATOM     30  C   UNL A   1      39.475  26.590  28.578  1.00  0.00     0.016 A 
ATOM     31  C   UNL A   1      40.505  29.206  28.647  1.00  0.00     0.010 A 
ATOM     32  C   UNL A   1      39.283  27.394  29.707  1.00  0.00     0.010 A 
ATOM     33  C   UNL A   1      39.838  28.686  29.764  1.00  0.00    -0.014 A 
BRANCH  33  34
ATOM     34  C   UNL A   1      39.891  29.433  31.043  1.00  0.00     0.031 A 
ATOM     35  C   UNL A   1      41.025  29.159  31.995  1.00  0.00     0.074 A 
ATOM     36  C   UNL A   1      38.980  30.380  31.329  1.00  0.00     0.049 A 
ATOM     37  N   UNL A   1      41.276  29.695  33.161  1.00  0.00    -0.248 NA
ATOM     38  C   UNL A   1      42.011  28.149  31.573  1.00  0.00     0.031 C 
ATOM     39  C   UNL A   1      37.868  30.773  30.465  1.00  0.00     0.029 A 
ATOM     40  N   UNL A   1      38.852  31.186  32.433  1.00  0.00    -0.354 N 
ATOM     41  C   UNL A   1      42.442  29.086  33.613  1.00  0.00     0.074 A 
ATOM     42  C   UNL A   1      42.833  28.121  32.611  1.00  0.00     0.031 C 
ATOM     43  C   UNL A   1      37.166  31.745  31.074  1.00  0.00     0.029 A 
ATOM     44  C   UNL A   1      37.761  32.019  32.381  1.00  0.00     0.049 A 
ATOM     45  H   UNL A   1      39.482  31.168  33.189  1.00  0.00     0.167 HD
ATOM     46  C   UNL A   1      43.128  29.315  34.758  1.00  0.00     0.031 A 
ATOM     47  C   UNL A   1      37.288  32.892  33.292  1.00  0.00     0.031 A 
ATOM     48  C   UNL A   1      42.730  30.265  35.761  1.00  0.00     0.049 A 
ATOM     49  C   UNL A   1      38.025  33.073  34.594  1.00  0.00     0.074 A 
ATOM     50  C   UNL A   1      43.361  30.574  36.954  1.00  0.00     0.029 A 
ATOM     51  N   UNL A   1      41.593  31.057  35.693  1.00  0.00    -0.354 N 
ATOM     52  N   UNL A   1      39.133  32.501  34.999  1.00  0.00    -0.248 NA
ATOM     53  C   UNL A   1      37.450  34.025  35.555  1.00  0.00     0.031 C 
ATOM     54  C   UNL A   1      42.577  31.515  37.631  1.00  0.00     0.029 A 
ATOM     55  C   UNL A   1      41.490  31.835  36.833  1.00  0.00     0.049 A 
ATOM     56  H   UNL A   1      40.955  31.065  34.943  1.00  0.00     0.167 HD
ATOM     57  C   UNL A   1      39.403  33.043  36.252  1.00  0.00     0.074 A 
ATOM     58  C   UNL A   1      38.349  33.997  36.531  1.00  0.00     0.031 C 
ATOM     59  C   UNL A   1      40.432  32.778  37.095  1.00  0.00     0.031 A 
BRANCH  46  60
ATOM     60  C   UNL A   1      44.365  28.492  35.000  1.00  0.00    -0.014 A 
ATOM     61  C   UNL A   1      45.628  28.925  34.556  1.00  0.00     0.010 A 
ATOM     62  C   UNL A   1      44.268  27.280  35.707  1.00  0.00     0.010 A 
ATOM     63  C   UNL A   1      46.764  28.143  34.780  1.00  0.00     0.020 A 
ATOM     64  C   UNL A   1      45.405  26.506  35.956  1.00  0.00     0.020 A 
ATOM     65  C   UNL A   1      46.644  26.934  35.474  1.00  0.00     0.054 A 
BRANCH  65  66
ATOM     66  S   UNL A   1      48.136  25.944  35.765  1.00  0.00     0.124 S 
ATOM     67  O   UNL A   1      49.147  26.702  35.032  1.00  0.00    -0.237 OA
ATOM     68  O   UNL A   1      48.262  25.974  37.220  1.00  0.00    -0.237 OA
ATOM     69  O   UNL A   1      47.803  24.640  35.198  1.00  0.00    -0.744 OA
ENDBRANCH  65  66
ENDBRANCH  46  60
BRANCH  47  70
ATOM     70  C   UNL A   1      36.037  33.650  33.013  1.00  0.00    -0.014 A 
ATOM     71  C   UNL A   1      36.085  35.000  32.625  1.00  0.00     0.010 A 
ATOM     72  C   UNL A   1      34.786  33.017  33.135  1.00  0.00     0.010 A 
ATOM     73  C   UNL A   1      34.904  35.707  32.377  1.00  0.00     0.020 A 
ATOM     74  C   UNL A   1      33.605  33.712  32.863  1.00  0.00     0.020 A 
ATOM     75  C   UNL A   1      33.672  35.057  32.496  1.00  0.00     0.054 A 
BRANCH  75  76
ATOM     76  S   UNL A   1      32.154  35.977  32.116  1.00  0.00     0.124 S 
ATOM     77  O   UNL A   1      32.408  37.261  32.761  1.00  0.00    -0.237 OA
ATOM     78  O   UNL A   1      32.152  35.992  30.655  1.00  0.00    -0.237 OA
ATOM     79  O   UNL A   1      31.103  35.166  32.725  1.00  0.00    -0.744 OA
ENDBRANCH  75  76
ENDBRANCH  47  70
BRANCH  59  80
ATOM     80  C   UNL A   1      40.490  33.552  38.385  1.00  0.00    -0.014 A 
ATOM     81  C   UNL A   1      39.941  33.035  39.571  1.00  0.00     0.010 A 
ATOM     82  C   UNL A   1      41.154  34.792  38.419  1.00  0.00     0.010 A 
ATOM     83  C   UNL A   1      40.027  33.760  40.763  1.00  0.00     0.020 A 
ATOM     84  C   UNL A   1      41.265  35.507  39.615  1.00  0.00     0.020 A 
ATOM     85  C   UNL A   1      40.687  34.993  40.777  1.00  0.00     0.054 A 
BRANCH  85  86
ATOM     86  S   UNL A   1      40.822  35.897  42.344  1.00  0.00     0.124 S 
ATOM     87  O   UNL A   1      39.530  36.573  42.416  1.00  0.00    -0.237 OA
ATOM     88  O   UNL A   1      41.026  34.826  43.317  1.00  0.00    -0.237 OA
ATOM     89  O   UNL A   1      41.974  36.773  42.140  1.00  0.00    -0.744 OA
ENDBRANCH  85  86
ENDBRANCH  59  80
ENDBRANCH  33  34
ENDBRANCH  26  28
ENDBRANCH  25  26
ENDBRANCH  24  25
ENDBRANCH  23  24
ENDBRANCH   1  23
TORSDOF 22
ENDMDL
