MODEL 1
REMARK VINA RESULT:     -11.2      0.000      0.000
REMARK SMILES Cc1ccc(-c2cnnc(-n3nc(C)c4c3NC(=O)C[C@@H]4c3ccc(C(=O)OCCOCCOC(=O)c4ccc(-c5c6nc(c(-c7ccc(S(=O)(=O)[O-])cc7)c7ccc([nH]7)c(-c7ccc(S(=O)(=O)[O-])cc7)c7nc(c(-c8ccc(S(=O)(=O)[O-])cc8)c8ccc5[nH]8)C=C7)C=C6)cc4)cc3)n2)cc1
REMARK SMILES IDX 31 1 30 2 29 3 28 4 26 5 27 6 25 7 22 8 23 9 98 10 24 11
REMARK SMILES IDX 97 12 21 13 11 14 12 15 16 16 13 17 15 18 17 19 14 20 18 21
REMARK SMILES IDX 20 23 19 24 10 25 6 26 7 27 99 28 8 29 9 30 5 31 1 32 2 33
REMARK SMILES IDX 3 34 101 35 4 36 100 37 32 38 33 39 34 40 35 41 36 42 37 43
REMARK SMILES IDX 38 44 96 45 39 46 95 47 40 48 41 49 42 50 89 51 43 52 94 53
REMARK SMILES IDX 88 54 90 55 44 56 93 57 87 58 86 59 45 61 75 62 56 63 74 64
REMARK SMILES IDX 57 65 60 66 73 67 91 68 58 69 59 70 72 72 92 73 61 74 46 75
REMARK SMILES IDX 47 76 55 77 48 78 54 79 49 80 50 81 51 82 52 83 53 84 76 85
REMARK SMILES IDX 77 86 85 87 78 88 84 89 79 90 80 91 81 92 82 93 83 94 62 95
REMARK SMILES IDX 63 96 71 97 64 98 70 99 65 100 66 101 67 102 68 103 69 104
REMARK H PARENT 17 22 90 60 60 71
REMARK Flexibility Score: inf
ROOT
ATOM      1  O   UNL A   1      51.487  28.005  32.932  1.00  0.00    -0.374 OA
ENDROOT
BRANCH   1   2
ATOM      2  C   UNL A   1      51.619  26.670  33.380  1.00  0.00     0.202 C 
BRANCH   2   3
ATOM      3  C   UNL A   1      51.164  25.591  32.430  1.00  0.00     0.261 C 
BRANCH   3   4
ATOM      4  O   UNL A   1      50.124  24.802  32.958  1.00  0.00    -0.460 OA
BRANCH   4   5
ATOM      5  C   UNL A   1      50.376  23.490  33.028  1.00  0.00     0.338 C 
ATOM      6  O   UNL A   1      51.265  22.868  32.465  1.00  0.00    -0.246 OA
BRANCH   5   7
ATOM      7  C   UNL A   1      49.418  22.935  33.993  1.00  0.00     0.060 A 
ATOM      8  C   UNL A   1      47.508  21.921  35.755  1.00  0.00    -0.040 A 
ATOM      9  C   UNL A   1      47.445  23.256  35.301  1.00  0.00     0.005 A 
ATOM     10  C   UNL A   1      48.527  21.092  35.275  1.00  0.00     0.005 A 
ATOM     11  C   UNL A   1      48.384  23.758  34.415  1.00  0.00     0.016 A 
ATOM     12  C   UNL A   1      49.503  21.608  34.438  1.00  0.00     0.016 A 
BRANCH   8  13
ATOM     13  C   UNL A   1      46.457  21.501  36.746  1.00  0.00     0.064 C 
ATOM     14  N   UNL A   1      47.064  19.332  39.535  1.00  0.00    -0.180 N 
ATOM     15  N   UNL A   1      48.128  20.136  39.805  1.00  0.00    -0.168 NA
ATOM     16  C   UNL A   1      46.735  19.466  38.198  1.00  0.00     0.143 A 
ATOM     17  C   UNL A   1      48.048  21.095  38.873  1.00  0.00     0.066 A 
ATOM     18  C   UNL A   1      47.051  20.778  37.904  1.00  0.00     0.026 A 
ATOM     19  N   UNL A   1      46.164  18.635  37.256  1.00  0.00    -0.310 N 
ATOM     20  C   UNL A   1      49.029  22.210  38.935  1.00  0.00     0.069 C 
ATOM     21  C   UNL A   1      45.730  19.215  36.020  1.00  0.00     0.226 C 
ATOM     22  H   UNL A   1      46.059  17.672  37.427  1.00  0.00     0.171 HD
ATOM     23  C   UNL A   1      45.353  20.672  36.077  1.00  0.00     0.113 C 
ATOM     24  O   UNL A   1      45.537  18.464  35.081  1.00  0.00    -0.275 OA
BRANCH  14  25
ATOM     25  C   UNL A   1      46.158  18.951  40.574  1.00  0.00     0.272 A 
ATOM     26  C   UNL A   1      44.332  17.808  41.340  1.00  0.00     0.095 A 
ATOM     27  C   UNL A   1      44.200  18.730  42.364  1.00  0.00     0.164 A 
ATOM     28  N   UNL A   1      45.292  17.930  40.381  1.00  0.00    -0.208 NA
ATOM     29  N   UNL A   1      45.071  19.738  42.503  1.00  0.00    -0.153 NA
ATOM     30  N   UNL A   1      46.086  19.820  41.617  1.00  0.00    -0.109 NA
BRANCH  26  31
ATOM     31  C   UNL A   1      43.519  16.586  41.327  1.00  0.00     0.002 A 
ATOM     32  C   UNL A   1      41.358  12.841  41.081  1.00  0.00     0.044 C 
ATOM     33  C   UNL A   1      42.110  14.137  41.159  1.00  0.00    -0.051 A 
ATOM     34  C   UNL A   1      42.787  14.487  42.332  1.00  0.00     0.004 A 
ATOM     35  C   UNL A   1      42.136  15.015  40.074  1.00  0.00     0.004 A 
ATOM     36  C   UNL A   1      43.484  15.697  42.416  1.00  0.00     0.011 A 
ATOM     37  C   UNL A   1      42.827  16.225  40.161  1.00  0.00     0.011 A 
ENDBRANCH  26  31
ENDBRANCH  14  25
ENDBRANCH   8  13
ENDBRANCH   5   7
ENDBRANCH   4   5
ENDBRANCH   3   4
ENDBRANCH   2   3
ENDBRANCH   1   2
BRANCH   1  38
ATOM     38  C   UNL A   1      50.195  28.614  32.908  1.00  0.00     0.202 C 
BRANCH  38  39
ATOM     39  C   UNL A   1      49.296  28.658  34.175  1.00  0.00     0.261 C 
BRANCH  39  40
ATOM     40  O   UNL A   1      47.884  28.571  33.876  1.00  0.00    -0.460 OA
BRANCH  40  41
ATOM     41  C   UNL A   1      47.212  27.473  34.350  1.00  0.00     0.338 C 
ATOM     42  O   UNL A   1      46.861  27.303  35.504  1.00  0.00    -0.246 OA
BRANCH  41  43
ATOM     43  C   UNL A   1      46.610  26.715  33.221  1.00  0.00     0.060 A 
ATOM     44  C   UNL A   1      47.222  26.652  31.972  1.00  0.00     0.016 A 
ATOM     45  C   UNL A   1      45.331  26.189  33.374  1.00  0.00     0.016 A 
ATOM     46  C   UNL A   1      46.430  26.441  30.840  1.00  0.00     0.010 A 
ATOM     47  C   UNL A   1      44.550  25.972  32.246  1.00  0.00     0.010 A 
ATOM     48  C   UNL A   1      45.047  26.352  30.996  1.00  0.00    -0.014 A 
BRANCH  48  49
ATOM     49  C   UNL A   1      44.128  27.021  30.039  1.00  0.00     0.031 A 
ATOM     50  C   UNL A   1      42.849  27.559  30.518  1.00  0.00     0.074 A 
ATOM     51  C   UNL A   1      44.502  27.324  28.771  1.00  0.00     0.049 A 
ATOM     52  N   UNL A   1      41.696  26.987  30.392  1.00  0.00    -0.248 NA
ATOM     53  C   UNL A   1      42.824  28.814  31.274  1.00  0.00     0.031 C 
ATOM     54  C   UNL A   1      43.741  28.032  27.741  1.00  0.00     0.029 A 
ATOM     55  N   UNL A   1      45.671  27.007  28.102  1.00  0.00    -0.354 N 
ATOM     56  C   UNL A   1      40.790  27.944  30.809  1.00  0.00     0.074 A 
ATOM     57  C   UNL A   1      41.540  28.884  31.620  1.00  0.00     0.031 C 
ATOM     58  C   UNL A   1      44.318  27.801  26.542  1.00  0.00     0.029 A 
ATOM     59  C   UNL A   1      45.453  26.904  26.735  1.00  0.00     0.049 A 
ATOM     60  H   UNL A   1      46.543  26.872  28.538  1.00  0.00     0.167 HD
ATOM     61  C   UNL A   1      39.696  28.295  30.067  1.00  0.00     0.031 A 
ATOM     62  C   UNL A   1      45.602  25.686  26.132  1.00  0.00     0.031 A 
ATOM     63  C   UNL A   1      39.842  27.851  28.677  1.00  0.00     0.049 A 
ATOM     64  C   UNL A   1      44.254  25.000  25.970  1.00  0.00     0.074 A 
ATOM     65  C   UNL A   1      40.088  28.553  27.506  1.00  0.00     0.029 A 
ATOM     66  N   UNL A   1      40.080  26.513  28.377  1.00  0.00    -0.354 N 
ATOM     67  N   UNL A   1      43.160  25.462  26.523  1.00  0.00    -0.248 NA
ATOM     68  C   UNL A   1      43.981  23.826  25.145  1.00  0.00     0.031 C 
ATOM     69  C   UNL A   1      40.549  27.633  26.524  1.00  0.00     0.029 A 
ATOM     70  C   UNL A   1      40.560  26.368  27.086  1.00  0.00     0.049 A 
ATOM     71  H   UNL A   1      39.928  25.766  29.001  1.00  0.00     0.167 HD
ATOM     72  C   UNL A   1      42.075  24.732  26.135  1.00  0.00     0.074 A 
ATOM     73  C   UNL A   1      42.643  23.709  25.272  1.00  0.00     0.031 C 
ATOM     74  C   UNL A   1      40.803  25.036  26.534  1.00  0.00     0.031 A 
BRANCH  61  75
ATOM     75  C   UNL A   1      38.754  29.394  30.536  1.00  0.00    -0.014 A 
ATOM     76  C   UNL A   1      37.729  29.138  31.464  1.00  0.00     0.010 A 
ATOM     77  C   UNL A   1      38.889  30.740  30.118  1.00  0.00     0.010 A 
ATOM     78  C   UNL A   1      36.838  30.145  31.881  1.00  0.00     0.020 A 
ATOM     79  C   UNL A   1      37.974  31.741  30.477  1.00  0.00     0.020 A 
ATOM     80  C   UNL A   1      36.954  31.437  31.367  1.00  0.00     0.054 A 
BRANCH  80  81
ATOM     81  S   UNL A   1      35.798  32.724  31.912  1.00  0.00     0.124 S 
ATOM     82  O   UNL A   1      35.795  32.556  33.363  1.00  0.00    -0.237 OA
ATOM     83  O   UNL A   1      36.436  33.941  31.419  1.00  0.00    -0.237 OA
ATOM     84  O   UNL A   1      34.544  32.367  31.250  1.00  0.00    -0.744 OA
ENDBRANCH  80  81
ENDBRANCH  61  75
BRANCH  62  85
ATOM     85  C   UNL A   1      46.989  25.140  26.311  1.00  0.00    -0.014 A 
ATOM     86  C   UNL A   1      47.919  25.568  25.333  1.00  0.00     0.010 A 
ATOM     87  C   UNL A   1      47.506  24.713  27.547  1.00  0.00     0.010 A 
ATOM     88  C   UNL A   1      49.266  25.785  25.644  1.00  0.00     0.020 A 
ATOM     89  C   UNL A   1      48.870  24.910  27.857  1.00  0.00     0.020 A 
ATOM     90  C   UNL A   1      49.720  25.516  26.929  1.00  0.00     0.054 A 
BRANCH  90  91
ATOM     91  S   UNL A   1      51.327  26.213  27.437  1.00  0.00     0.124 S 
ATOM     92  O   UNL A   1      52.269  25.451  26.630  1.00  0.00    -0.237 OA
ATOM     93  O   UNL A   1      51.179  27.627  27.085  1.00  0.00    -0.237 OA
ATOM     94  O   UNL A   1      51.344  25.955  28.872  1.00  0.00    -0.744 OA
ENDBRANCH  90  91
ENDBRANCH  62  85
BRANCH  74  95
ATOM     95  C   UNL A   1      39.606  24.132  26.370  1.00  0.00    -0.014 A 
ATOM     96  C   UNL A   1      38.295  24.607  26.231  1.00  0.00     0.010 A 
ATOM     97  C   UNL A   1      39.816  22.744  26.178  1.00  0.00     0.010 A 
ATOM     98  C   UNL A   1      37.236  23.732  25.968  1.00  0.00     0.020 A 
ATOM     99  C   UNL A   1      38.776  21.872  25.857  1.00  0.00     0.020 A 
ATOM    100  C   UNL A   1      37.483  22.372  25.782  1.00  0.00     0.054 A 
BRANCH 100 101
ATOM    101  S   UNL A   1      36.108  21.270  25.380  1.00  0.00     0.124 S 
ATOM    102  O   UNL A   1      36.793  19.991  25.216  1.00  0.00    -0.237 OA
ATOM    103  O   UNL A   1      35.254  21.378  26.561  1.00  0.00    -0.237 OA
ATOM    104  O   UNL A   1      35.549  21.844  24.159  1.00  0.00    -0.744 OA
ENDBRANCH 100 101
ENDBRANCH  74  95
ENDBRANCH  48  49
ENDBRANCH  41  43
ENDBRANCH  40  41
ENDBRANCH  39  40
ENDBRANCH  38  39
ENDBRANCH   1  38
TORSDOF 20
ENDMDL
MODEL 2
REMARK VINA RESULT:     -11.2      6.702     14.548
REMARK SMILES Cc1ccc(-c2cnnc(-n3nc(C)c4c3NC(=O)C[C@@H]4c3ccc(C(=O)OCCOCCOC(=O)c4ccc(-c5c6nc(c(-c7ccc(S(=O)(=O)[O-])cc7)c7ccc([nH]7)c(-c7ccc(S(=O)(=O)[O-])cc7)c7nc(c(-c8ccc(S(=O)(=O)[O-])cc8)c8ccc5[nH]8)C=C7)C=C6)cc4)cc3)n2)cc1
REMARK SMILES IDX 31 1 30 2 29 3 28 4 26 5 27 6 25 7 22 8 23 9 98 10 24 11
REMARK SMILES IDX 97 12 21 13 11 14 12 15 16 16 13 17 15 18 17 19 14 20 18 21
REMARK SMILES IDX 20 23 19 24 10 25 6 26 7 27 99 28 8 29 9 30 5 31 1 32 2 33
REMARK SMILES IDX 3 34 101 35 4 36 100 37 32 38 33 39 34 40 35 41 36 42 37 43
REMARK SMILES IDX 38 44 96 45 39 46 95 47 40 48 41 49 42 50 89 51 43 52 94 53
REMARK SMILES IDX 88 54 90 55 44 56 93 57 87 58 86 59 45 61 75 62 56 63 74 64
REMARK SMILES IDX 57 65 60 66 73 67 91 68 58 69 59 70 72 72 92 73 61 74 46 75
REMARK SMILES IDX 47 76 55 77 48 78 54 79 49 80 50 81 51 82 52 83 53 84 76 85
REMARK SMILES IDX 77 86 85 87 78 88 84 89 79 90 80 91 81 92 82 93 83 94 62 95
REMARK SMILES IDX 63 96 71 97 64 98 70 99 65 100 66 101 67 102 68 103 69 104
REMARK H PARENT 17 22 90 60 60 71
REMARK Flexibility Score: inf
ROOT
ATOM      1  O   UNL A   1      38.542  31.699  35.729  1.00  0.00    -0.374 OA
ENDROOT
BRANCH   1   2
ATOM      2  C   UNL A   1      39.271  32.621  36.516  1.00  0.00     0.202 C 
BRANCH   2   3
ATOM      3  C   UNL A   1      39.921  33.768  35.783  1.00  0.00     0.261 C 
BRANCH   3   4
ATOM      4  O   UNL A   1      39.039  34.421  34.901  1.00  0.00    -0.460 OA
BRANCH   4   5
ATOM      5  C   UNL A   1      39.443  34.487  33.628  1.00  0.00     0.338 C 
ATOM      6  O   UNL A   1      40.562  34.755  33.210  1.00  0.00    -0.246 OA
BRANCH   5   7
ATOM      7  C   UNL A   1      38.294  34.091  32.805  1.00  0.00     0.060 A 
ATOM      8  C   UNL A   1      36.044  33.424  31.297  1.00  0.00    -0.040 A 
ATOM      9  C   UNL A   1      35.964  33.569  32.699  1.00  0.00     0.005 A 
ATOM     10  C   UNL A   1      37.267  33.659  30.662  1.00  0.00     0.005 A 
ATOM     11  C   UNL A   1      37.076  33.914  33.449  1.00  0.00     0.016 A 
ATOM     12  C   UNL A   1      38.395  33.943  31.415  1.00  0.00     0.016 A 
BRANCH   8  13
ATOM     13  C   UNL A   1      34.779  33.008  30.595  1.00  0.00     0.064 C 
ATOM     14  N   UNL A   1      34.686  30.999  27.628  1.00  0.00    -0.180 N 
ATOM     15  N   UNL A   1      35.537  30.164  28.282  1.00  0.00    -0.168 NA
ATOM     16  C   UNL A   1      34.777  32.258  28.194  1.00  0.00     0.143 A 
ATOM     17  C   UNL A   1      35.664  30.723  29.494  1.00  0.00     0.066 A 
ATOM     18  C   UNL A   1      35.048  32.008  29.525  1.00  0.00     0.026 A 
ATOM     19  N   UNL A   1      34.602  33.543  27.725  1.00  0.00    -0.310 N 
ATOM     20  C   UNL A   1      36.473  30.003  30.511  1.00  0.00     0.069 C 
ATOM     21  C   UNL A   1      34.521  34.606  28.682  1.00  0.00     0.226 C 
ATOM     22  H   UNL A   1      34.536  33.725  26.760  1.00  0.00     0.171 HD
ATOM     23  C   UNL A   1      34.016  34.221  30.048  1.00  0.00     0.113 C 
ATOM     24  O   UNL A   1      34.697  35.742  28.280  1.00  0.00    -0.275 OA
BRANCH  14  25
ATOM     25  C   UNL A   1      33.541  30.482  26.945  1.00  0.00     0.272 A 
ATOM     26  C   UNL A   1      32.565  29.150  25.363  1.00  0.00     0.095 A 
ATOM     27  C   UNL A   1      31.467  29.993  25.350  1.00  0.00     0.164 A 
ATOM     28  N   UNL A   1      33.661  29.408  26.130  1.00  0.00    -0.208 NA
ATOM     29  N   UNL A   1      31.401  31.056  26.161  1.00  0.00    -0.153 NA
ATOM     30  N   UNL A   1      32.438  31.274  26.997  1.00  0.00    -0.109 NA
BRANCH  26  31
ATOM     31  C   UNL A   1      32.533  27.871  24.645  1.00  0.00     0.002 A 
ATOM     32  C   UNL A   1      32.461  23.938  22.832  1.00  0.00     0.044 C 
ATOM     33  C   UNL A   1      32.489  25.297  23.467  1.00  0.00    -0.051 A 
ATOM     34  C   UNL A   1      31.325  26.070  23.525  1.00  0.00     0.004 A 
ATOM     35  C   UNL A   1      33.674  25.815  23.994  1.00  0.00     0.004 A 
ATOM     36  C   UNL A   1      31.346  27.342  24.108  1.00  0.00     0.011 A 
ATOM     37  C   UNL A   1      33.694  27.087  24.570  1.00  0.00     0.011 A 
ENDBRANCH  26  31
ENDBRANCH  14  25
ENDBRANCH   8  13
ENDBRANCH   5   7
ENDBRANCH   4   5
ENDBRANCH   3   4
ENDBRANCH   2   3
ENDBRANCH   1   2
BRANCH   1  38
ATOM     38  C   UNL A   1      39.242  30.687  35.002  1.00  0.00     0.202 C 
BRANCH  38  39
ATOM     39  C   UNL A   1      38.809  30.270  33.569  1.00  0.00     0.261 C 
BRANCH  39  40
ATOM     40  O   UNL A   1      39.875  29.662  32.805  1.00  0.00    -0.460 OA
BRANCH  40  41
ATOM     41  C   UNL A   1      39.554  28.558  32.055  1.00  0.00     0.338 C 
ATOM     42  O   UNL A   1      38.842  27.640  32.420  1.00  0.00    -0.246 OA
BRANCH  41  43
ATOM     43  C   UNL A   1      39.842  28.814  30.619  1.00  0.00     0.060 A 
ATOM     44  C   UNL A   1      39.491  27.902  29.627  1.00  0.00     0.016 A 
ATOM     45  C   UNL A   1      40.619  29.917  30.279  1.00  0.00     0.016 A 
ATOM     46  C   UNL A   1      40.224  27.880  28.438  1.00  0.00     0.010 A 
ATOM     47  C   UNL A   1      41.338  29.896  29.091  1.00  0.00     0.010 A 
ATOM     48  C   UNL A   1      41.314  28.739  28.306  1.00  0.00    -0.014 A 
BRANCH  48  49
ATOM     49  C   UNL A   1      42.584  28.270  27.693  1.00  0.00     0.031 A 
ATOM     50  C   UNL A   1      42.790  26.836  27.459  1.00  0.00     0.074 A 
ATOM     51  C   UNL A   1      43.491  29.130  27.166  1.00  0.00     0.049 A 
ATOM     52  N   UNL A   1      43.486  26.042  28.205  1.00  0.00    -0.248 NA
ATOM     53  C   UNL A   1      42.114  26.177  26.338  1.00  0.00     0.031 C 
ATOM     54  C   UNL A   1      44.745  28.823  26.476  1.00  0.00     0.029 A 
ATOM     55  N   UNL A   1      43.499  30.514  27.180  1.00  0.00    -0.354 N 
ATOM     56  C   UNL A   1      43.550  24.863  27.487  1.00  0.00     0.074 A 
ATOM     57  C   UNL A   1      42.449  24.905  26.543  1.00  0.00     0.031 C 
ATOM     58  C   UNL A   1      45.504  29.938  26.442  1.00  0.00     0.029 A 
ATOM     59  C   UNL A   1      44.796  31.007  27.140  1.00  0.00     0.049 A 
ATOM     60  H   UNL A   1      42.691  31.075  27.213  1.00  0.00     0.167 HD
ATOM     61  C   UNL A   1      44.728  24.213  27.243  1.00  0.00     0.031 A 
ATOM     62  C   UNL A   1      45.277  31.689  28.223  1.00  0.00     0.031 A 
ATOM     63  C   UNL A   1      45.873  25.100  27.469  1.00  0.00     0.049 A 
ATOM     64  C   UNL A   1      46.104  30.772  29.111  1.00  0.00     0.074 A 
ATOM     65  C   UNL A   1      46.748  25.717  26.587  1.00  0.00     0.029 A 
ATOM     66  N   UNL A   1      46.049  25.740  28.693  1.00  0.00    -0.354 N 
ATOM     67  N   UNL A   1      46.156  29.477  28.927  1.00  0.00    -0.248 NA
ATOM     68  C   UNL A   1      46.985  31.194  30.197  1.00  0.00     0.031 C 
ATOM     69  C   UNL A   1      47.395  26.781  27.274  1.00  0.00     0.029 A 
ATOM     70  C   UNL A   1      46.935  26.799  28.579  1.00  0.00     0.049 A 
ATOM     71  H   UNL A   1      45.602  25.475  29.529  1.00  0.00     0.167 HD
ATOM     72  C   UNL A   1      47.050  28.901  29.782  1.00  0.00     0.074 A 
ATOM     73  C   UNL A   1      47.543  30.021  30.565  1.00  0.00     0.031 C 
ATOM     74  C   UNL A   1      47.327  27.562  29.764  1.00  0.00     0.031 A 
BRANCH  61  75
ATOM     75  C   UNL A   1      44.760  22.946  26.400  1.00  0.00    -0.014 A 
ATOM     76  C   UNL A   1      43.601  22.182  26.175  1.00  0.00     0.010 A 
ATOM     77  C   UNL A   1      45.935  22.498  25.747  1.00  0.00     0.010 A 
ATOM     78  C   UNL A   1      43.632  20.995  25.418  1.00  0.00     0.020 A 
ATOM     79  C   UNL A   1      45.994  21.288  25.041  1.00  0.00     0.020 A 
ATOM     80  C   UNL A   1      44.834  20.544  24.873  1.00  0.00     0.054 A 
BRANCH  80  81
ATOM     81  S   UNL A   1      44.858  19.013  23.902  1.00  0.00     0.124 S 
ATOM     82  O   UNL A   1      46.288  18.761  23.740  1.00  0.00    -0.237 OA
ATOM     83  O   UNL A   1      44.148  18.083  24.774  1.00  0.00    -0.237 OA
ATOM     84  O   UNL A   1      44.155  19.371  22.671  1.00  0.00    -0.744 OA
ENDBRANCH  80  81
ENDBRANCH  61  75
BRANCH  62  85
ATOM     85  C   UNL A   1      44.447  32.902  28.532  1.00  0.00    -0.014 A 
ATOM     86  C   UNL A   1      43.842  32.889  29.812  1.00  0.00     0.010 A 
ATOM     87  C   UNL A   1      44.643  34.156  27.925  1.00  0.00     0.010 A 
ATOM     88  C   UNL A   1      43.657  34.063  30.550  1.00  0.00     0.020 A 
ATOM     89  C   UNL A   1      44.436  35.345  28.661  1.00  0.00     0.020 A 
ATOM     90  C   UNL A   1      44.018  35.283  29.992  1.00  0.00     0.054 A 
BRANCH  90  91
ATOM     91  S   UNL A   1      44.194  36.718  31.102  1.00  0.00     0.124 S 
ATOM     92  O   UNL A   1      43.628  37.801  30.309  1.00  0.00    -0.237 OA
ATOM     93  O   UNL A   1      43.414  36.307  32.272  1.00  0.00    -0.237 OA
ATOM     94  O   UNL A   1      45.633  36.766  31.333  1.00  0.00    -0.744 OA
ENDBRANCH  90  91
ENDBRANCH  62  85
BRANCH  74  95
ATOM     95  C   UNL A   1      48.086  26.822  30.836  1.00  0.00    -0.014 A 
ATOM     96  C   UNL A   1      47.648  26.725  32.164  1.00  0.00     0.010 A 
ATOM     97  C   UNL A   1      49.211  26.042  30.467  1.00  0.00     0.010 A 
ATOM     98  C   UNL A   1      48.331  25.932  33.092  1.00  0.00     0.020 A 
ATOM     99  C   UNL A   1      49.862  25.202  31.369  1.00  0.00     0.020 A 
ATOM    100  C   UNL A   1      49.432  25.175  32.689  1.00  0.00     0.054 A 
BRANCH 100 101
ATOM    101  S   UNL A   1      50.259  24.109  33.891  1.00  0.00     0.124 S 
ATOM    102  O   UNL A   1      49.184  23.853  34.846  1.00  0.00    -0.237 OA
ATOM    103  O   UNL A   1      50.664  22.963  33.078  1.00  0.00    -0.237 OA
ATOM    104  O   UNL A   1      51.357  24.932  34.387  1.00  0.00    -0.744 OA
ENDBRANCH 100 101
ENDBRANCH  74  95
ENDBRANCH  48  49
ENDBRANCH  41  43
ENDBRANCH  40  41
ENDBRANCH  39  40
ENDBRANCH  38  39
ENDBRANCH   1  38
TORSDOF 20
ENDMDL
MODEL 3
REMARK VINA RESULT:     -11.2      3.654      5.987
REMARK SMILES Cc1ccc(-c2cnnc(-n3nc(C)c4c3NC(=O)C[C@@H]4c3ccc(C(=O)OCCOCCOC(=O)c4ccc(-c5c6nc(c(-c7ccc(S(=O)(=O)[O-])cc7)c7ccc([nH]7)c(-c7ccc(S(=O)(=O)[O-])cc7)c7nc(c(-c8ccc(S(=O)(=O)[O-])cc8)c8ccc5[nH]8)C=C7)C=C6)cc4)cc3)n2)cc1
REMARK SMILES IDX 31 1 30 2 29 3 28 4 26 5 27 6 25 7 22 8 23 9 98 10 24 11
REMARK SMILES IDX 97 12 21 13 11 14 12 15 16 16 13 17 15 18 17 19 14 20 18 21
REMARK SMILES IDX 20 23 19 24 10 25 6 26 7 27 99 28 8 29 9 30 5 31 1 32 2 33
REMARK SMILES IDX 3 34 101 35 4 36 100 37 32 38 33 39 34 40 35 41 36 42 37 43
REMARK SMILES IDX 38 44 96 45 39 46 95 47 40 48 41 49 42 50 89 51 43 52 94 53
REMARK SMILES IDX 88 54 90 55 44 56 93 57 87 58 86 59 45 61 75 62 56 63 74 64
REMARK SMILES IDX 57 65 60 66 73 67 91 68 58 69 59 70 72 72 92 73 61 74 46 75
REMARK SMILES IDX 47 76 55 77 48 78 54 79 49 80 50 81 51 82 52 83 53 84 76 85
REMARK SMILES IDX 77 86 85 87 78 88 84 89 79 90 80 91 81 92 82 93 83 94 62 95
REMARK SMILES IDX 63 96 71 97 64 98 70 99 65 100 66 101 67 102 68 103 69 104
REMARK H PARENT 17 22 90 60 60 71
REMARK Flexibility Score: inf
ROOT
ATOM      1  O   UNL A   1      54.991  24.600  33.103  1.00  0.00    -0.374 OA
ENDROOT
BRANCH   1   2
ATOM      2  C   UNL A   1      54.625  23.513  33.931  1.00  0.00     0.202 C 
BRANCH   2   3
ATOM      3  C   UNL A   1      53.722  22.472  33.316  1.00  0.00     0.261 C 
BRANCH   3   4
ATOM      4  O   UNL A   1      52.448  22.436  33.914  1.00  0.00    -0.460 OA
BRANCH   4   5
ATOM      5  C   UNL A   1      51.538  21.686  33.282  1.00  0.00     0.338 C 
ATOM      6  O   UNL A   1      51.658  21.106  32.212  1.00  0.00    -0.246 OA
BRANCH   5   7
ATOM      7  C   UNL A   1      50.370  21.616  34.169  1.00  0.00     0.060 A 
ATOM      8  C   UNL A   1      48.221  21.433  35.938  1.00  0.00    -0.040 A 
ATOM      9  C   UNL A   1      49.050  20.320  35.682  1.00  0.00     0.005 A 
ATOM     10  C   UNL A   1      48.516  22.651  35.319  1.00  0.00     0.005 A 
ATOM     11  C   UNL A   1      50.127  20.411  34.814  1.00  0.00     0.016 A 
ATOM     12  C   UNL A   1      49.553  22.731  34.404  1.00  0.00     0.016 A 
BRANCH   8  13
ATOM     13  C   UNL A   1      47.060  21.202  36.867  1.00  0.00     0.064 C 
ATOM     14  N   UNL A   1      46.981  18.682  39.415  1.00  0.00    -0.180 N 
ATOM     15  N   UNL A   1      48.204  19.150  39.781  1.00  0.00    -0.168 NA
ATOM     16  C   UNL A   1      46.750  19.029  38.096  1.00  0.00     0.143 A 
ATOM     17  C   UNL A   1      48.410  20.186  38.956  1.00  0.00     0.066 A 
ATOM     18  C   UNL A   1      47.403  20.237  37.948  1.00  0.00     0.026 A 
ATOM     19  N   UNL A   1      46.021  18.475  37.064  1.00  0.00    -0.310 N 
ATOM     20  C   UNL A   1      49.641  20.995  39.148  1.00  0.00     0.069 C 
ATOM     21  C   UNL A   1      45.798  19.269  35.892  1.00  0.00     0.226 C 
ATOM     22  H   UNL A   1      45.665  17.560  37.130  1.00  0.00     0.171 HD
ATOM     23  C   UNL A   1      45.807  20.761  36.100  1.00  0.00     0.113 C 
ATOM     24  O   UNL A   1      45.456  18.692  34.876  1.00  0.00    -0.275 OA
BRANCH  14  25
ATOM     25  C   UNL A   1      45.968  18.447  40.396  1.00  0.00     0.272 A 
ATOM     26  C   UNL A   1      44.143  17.315  41.182  1.00  0.00     0.095 A 
ATOM     27  C   UNL A   1      43.798  18.422  41.938  1.00  0.00     0.164 A 
ATOM     28  N   UNL A   1      45.217  17.322  40.345  1.00  0.00    -0.208 NA
ATOM     29  N   UNL A   1      44.561  19.522  41.941  1.00  0.00    -0.153 NA
ATOM     30  N   UNL A   1      45.683  19.512  41.190  1.00  0.00    -0.109 NA
BRANCH  26  31
ATOM     31  C   UNL A   1      43.435  16.042  41.357  1.00  0.00     0.002 A 
ATOM     32  C   UNL A   1      41.103  12.458  42.048  1.00  0.00     0.044 C 
ATOM     33  C   UNL A   1      41.907  13.703  41.816  1.00  0.00    -0.051 A 
ATOM     34  C   UNL A   1      41.948  14.286  40.545  1.00  0.00     0.004 A 
ATOM     35  C   UNL A   1      42.635  14.288  42.854  1.00  0.00     0.004 A 
ATOM     36  C   UNL A   1      42.702  15.443  40.318  1.00  0.00     0.011 A 
ATOM     37  C   UNL A   1      43.392  15.439  42.624  1.00  0.00     0.011 A 
ENDBRANCH  26  31
ENDBRANCH  14  25
ENDBRANCH   8  13
ENDBRANCH   5   7
ENDBRANCH   4   5
ENDBRANCH   3   4
ENDBRANCH   2   3
ENDBRANCH   1   2
BRANCH   1  38
ATOM     38  C   UNL A   1      54.193  24.915  31.961  1.00  0.00     0.202 C 
BRANCH  38  39
ATOM     39  C   UNL A   1      53.079  25.997  32.024  1.00  0.00     0.261 C 
BRANCH  39  40
ATOM     40  O   UNL A   1      51.757  25.472  31.763  1.00  0.00    -0.460 OA
BRANCH  40  41
ATOM     41  C   UNL A   1      50.733  26.379  31.664  1.00  0.00     0.338 C 
ATOM     42  O   UNL A   1      50.793  27.551  31.993  1.00  0.00    -0.246 OA
BRANCH  41  43
ATOM     43  C   UNL A   1      49.687  25.870  30.738  1.00  0.00     0.060 A 
ATOM     44  C   UNL A   1      49.946  25.652  29.387  1.00  0.00     0.016 A 
ATOM     45  C   UNL A   1      48.380  25.759  31.202  1.00  0.00     0.016 A 
ATOM     46  C   UNL A   1      48.889  25.722  28.476  1.00  0.00     0.010 A 
ATOM     47  C   UNL A   1      47.332  25.819  30.292  1.00  0.00     0.010 A 
ATOM     48  C   UNL A   1      47.620  26.059  28.945  1.00  0.00    -0.014 A 
BRANCH  48  49
ATOM     49  C   UNL A   1      46.753  27.000  28.190  1.00  0.00     0.031 A 
ATOM     50  C   UNL A   1      46.779  28.431  28.517  1.00  0.00     0.074 A 
ATOM     51  C   UNL A   1      46.071  26.621  27.080  1.00  0.00     0.049 A 
ATOM     52  N   UNL A   1      45.907  29.055  29.240  1.00  0.00    -0.248 NA
ATOM     53  C   UNL A   1      47.904  29.258  28.074  1.00  0.00     0.031 C 
ATOM     54  C   UNL A   1      45.237  27.439  26.199  1.00  0.00     0.029 A 
ATOM     55  N   UNL A   1      45.944  25.364  26.515  1.00  0.00    -0.354 N 
ATOM     56  C   UNL A   1      46.238  30.390  29.101  1.00  0.00     0.074 A 
ATOM     57  C   UNL A   1      47.620  30.419  28.660  1.00  0.00     0.031 C 
ATOM     58  C   UNL A   1      44.468  26.621  25.450  1.00  0.00     0.029 A 
ATOM     59  C   UNL A   1      44.740  25.239  25.837  1.00  0.00     0.049 A 
ATOM     60  H   UNL A   1      46.619  24.652  26.586  1.00  0.00     0.167 HD
ATOM     61  C   UNL A   1      45.319  31.345  28.764  1.00  0.00     0.031 A 
ATOM     62  C   UNL A   1      43.806  24.357  26.304  1.00  0.00     0.031 A 
ATOM     63  C   UNL A   1      44.112  30.734  28.197  1.00  0.00     0.049 A 
ATOM     64  C   UNL A   1      42.767  25.076  27.153  1.00  0.00     0.074 A 
ATOM     65  C   UNL A   1      43.624  30.692  26.899  1.00  0.00     0.029 A 
ATOM     66  N   UNL A   1      43.402  29.769  28.905  1.00  0.00    -0.354 N 
ATOM     67  N   UNL A   1      42.902  26.326  27.518  1.00  0.00    -0.248 NA
ATOM     68  C   UNL A   1      41.490  24.524  27.596  1.00  0.00     0.031 C 
ATOM     69  C   UNL A   1      42.668  29.642  26.818  1.00  0.00     0.029 A 
ATOM     70  C   UNL A   1      42.555  29.060  28.069  1.00  0.00     0.049 A 
ATOM     71  H   UNL A   1      43.490  29.611  29.873  1.00  0.00     0.167 HD
ATOM     72  C   UNL A   1      41.788  26.762  28.174  1.00  0.00     0.074 A 
ATOM     73  C   UNL A   1      40.928  25.591  28.203  1.00  0.00     0.031 C 
ATOM     74  C   UNL A   1      41.653  28.048  28.619  1.00  0.00     0.031 A 
BRANCH  61  75
ATOM     75  C   UNL A   1      45.737  32.795  28.566  1.00  0.00    -0.014 A 
ATOM     76  C   UNL A   1      46.223  33.259  27.331  1.00  0.00     0.010 A 
ATOM     77  C   UNL A   1      45.604  33.769  29.586  1.00  0.00     0.010 A 
ATOM     78  C   UNL A   1      46.635  34.593  27.152  1.00  0.00     0.020 A 
ATOM     79  C   UNL A   1      46.066  35.085  29.441  1.00  0.00     0.020 A 
ATOM     80  C   UNL A   1      46.573  35.494  28.215  1.00  0.00     0.054 A 
BRANCH  80  81
ATOM     81  S   UNL A   1      47.110  37.209  27.969  1.00  0.00     0.124 S 
ATOM     82  O   UNL A   1      47.891  37.473  29.174  1.00  0.00    -0.237 OA
ATOM     83  O   UNL A   1      47.874  37.118  26.728  1.00  0.00    -0.237 OA
ATOM     84  O   UNL A   1      45.856  37.954  27.873  1.00  0.00    -0.744 OA
ENDBRANCH  80  81
ENDBRANCH  61  75
BRANCH  62  85
ATOM     85  C   UNL A   1      44.335  22.953  26.345  1.00  0.00    -0.014 A 
ATOM     86  C   UNL A   1      43.337  21.951  26.414  1.00  0.00     0.010 A 
ATOM     87  C   UNL A   1      45.589  22.577  25.831  1.00  0.00     0.010 A 
ATOM     88  C   UNL A   1      43.498  20.708  25.791  1.00  0.00     0.020 A 
ATOM     89  C   UNL A   1      45.762  21.314  25.220  1.00  0.00     0.020 A 
ATOM     90  C   UNL A   1      44.691  20.422  25.139  1.00  0.00     0.054 A 
BRANCH  90  91
ATOM     91  S   UNL A   1      44.720  19.020  23.974  1.00  0.00     0.124 S 
ATOM     92  O   UNL A   1      44.403  19.659  22.705  1.00  0.00    -0.237 OA
ATOM     93  O   UNL A   1      46.090  18.524  24.116  1.00  0.00    -0.237 OA
ATOM     94  O   UNL A   1      43.705  18.130  24.524  1.00  0.00    -0.744 OA
ENDBRANCH  90  91
ENDBRANCH  62  85
BRANCH  74  95
ATOM     95  C   UNL A   1      40.587  28.525  29.573  1.00  0.00    -0.014 A 
ATOM     96  C   UNL A   1      40.567  28.194  30.935  1.00  0.00     0.010 A 
ATOM     97  C   UNL A   1      39.648  29.488  29.127  1.00  0.00     0.010 A 
ATOM     98  C   UNL A   1      39.620  28.755  31.799  1.00  0.00     0.020 A 
ATOM     99  C   UNL A   1      38.740  30.098  29.992  1.00  0.00     0.020 A 
ATOM    100  C   UNL A   1      38.714  29.703  31.322  1.00  0.00     0.054 A 
BRANCH 100 101
ATOM    101  S   UNL A   1      37.542  30.461  32.471  1.00  0.00     0.124 S 
ATOM    102  O   UNL A   1      36.265  30.154  31.833  1.00  0.00    -0.237 OA
ATOM    103  O   UNL A   1      37.809  29.748  33.719  1.00  0.00    -0.237 OA
ATOM    104  O   UNL A   1      37.921  31.871  32.471  1.00  0.00    -0.744 OA
ENDBRANCH 100 101
ENDBRANCH  74  95
ENDBRANCH  48  49
ENDBRANCH  41  43
ENDBRANCH  40  41
ENDBRANCH  39  40
ENDBRANCH  38  39
ENDBRANCH   1  38
TORSDOF 20
ENDMDL
