MODEL 1
REMARK VINA RESULT:     -10.2      0.000      0.000
REMARK SMILES CC[N@@H+]1CCO[C@@H](Cn2cc(C(=O)OCCOCCOC(=O)c3ccc(-c4c5nc(c(-c6ccc(S(=O)(=O)[O-])cc6)c6ccc([nH]6)c(-c6ccc(S(=O)(=O)[O-])cc6)c6nc(c(-c7ccc(S(=O)(=O)[O-])cc7)c7ccc4[nH]7)C=C6)C=C5)cc3)nn2)C1
REMARK SMILES IDX 17 1 16 2 15 3 14 4 12 5 13 6 11 7 9 8 10 9 84 10 83 11 8 12
REMARK SMILES IDX 7 13 3 14 4 15 85 16 5 18 6 19 2 20 1 21 18 22 19 23 20 24
REMARK SMILES IDX 21 25 22 26 23 27 24 28 82 29 25 30 81 31 26 32 27 33 28 34
REMARK SMILES IDX 75 35 29 36 80 37 74 38 76 39 30 40 79 41 73 42 72 43 31 45
REMARK SMILES IDX 61 46 42 47 60 48 43 49 46 50 59 51 77 52 44 53 45 54 58 56
REMARK SMILES IDX 78 57 47 58 32 59 33 60 41 61 34 62 40 63 35 64 36 65 37 66
REMARK SMILES IDX 38 67 39 68 62 69 63 70 71 71 64 72 70 73 65 74 66 75 67 76
REMARK SMILES IDX 68 77 69 78 48 79 49 80 57 81 50 82 56 83 51 84 52 85 53 86
REMARK SMILES IDX 54 87 55 88
REMARK H PARENT 3 17 76 44 46 55
REMARK Flexibility Score: inf
ROOT
ATOM      1  O   UNL A   1      34.959  30.028  28.055  1.00  0.00    -0.374 OA
ENDROOT
BRANCH   1   2
ATOM      2  C   UNL A   1      34.560  29.140  27.011  1.00  0.00     0.202 C 
BRANCH   2   3
ATOM      3  C   UNL A   1      33.221  29.400  26.319  1.00  0.00     0.261 C 
BRANCH   3   4
ATOM      4  O   UNL A   1      32.557  28.183  25.949  1.00  0.00    -0.458 OA
BRANCH   4   5
ATOM      5  C   UNL A   1      31.731  27.667  26.902  1.00  0.00     0.360 C 
ATOM      6  O   UNL A   1      31.272  28.313  27.846  1.00  0.00    -0.244 OA
BRANCH   5   7
ATOM      7  C   UNL A   1      31.352  26.294  26.634  1.00  0.00     0.190 A 
ATOM      8  N   UNL A   1      31.257  24.150  26.381  1.00  0.00    -0.249 N 
ATOM      9  C   UNL A   1      32.152  25.182  26.447  1.00  0.00     0.147 A 
ATOM     10  N   UNL A   1      29.994  24.601  26.337  1.00  0.00    -0.066 NA
ATOM     11  N   UNL A   1      30.036  25.910  26.526  1.00  0.00    -0.123 NA
BRANCH   8  12
ATOM     12  C   UNL A   1      31.494  22.758  26.700  1.00  0.00     0.184 C 
BRANCH  12  13
ATOM     13  C   UNL A   1      32.434  22.105  25.682  1.00  0.00     0.194 C 
ATOM     14  N   UNL A   1      34.790  21.268  25.254  1.00  0.00    -0.331 N 
ATOM     15  C   UNL A   1      34.146  20.022  24.790  1.00  0.00     0.291 C 
ATOM     16  C   UNL A   1      33.873  21.900  26.237  1.00  0.00     0.296 C 
ATOM     17  H   UNL A   1      35.687  21.018  25.671  1.00  0.00     0.348 HD
ATOM     18  C   UNL A   1      32.707  20.217  24.283  1.00  0.00     0.222 C 
ATOM     19  O   UNL A   1      31.877  20.841  25.276  1.00  0.00    -0.365 OA
BRANCH  14  20
ATOM     20  C   UNL A   1      35.136  22.218  24.184  1.00  0.00     0.258 C 
ATOM     21  C   UNL A   1      36.616  22.244  23.823  1.00  0.00     0.071 C 
ENDBRANCH  14  20
ENDBRANCH  12  13
ENDBRANCH   8  12
ENDBRANCH   5   7
ENDBRANCH   4   5
ENDBRANCH   3   4
ENDBRANCH   2   3
ENDBRANCH   1   2
BRANCH   1  22
ATOM     22  C   UNL A   1      35.273  31.387  27.766  1.00  0.00     0.202 C 
BRANCH  22  23
ATOM     23  C   UNL A   1      34.353  32.481  28.285  1.00  0.00     0.261 C 
BRANCH  23  24
ATOM     24  O   UNL A   1      35.049  33.449  29.053  1.00  0.00    -0.460 OA
BRANCH  24  25
ATOM     25  C   UNL A   1      34.813  33.365  30.381  1.00  0.00     0.338 C 
ATOM     26  O   UNL A   1      33.863  33.832  30.994  1.00  0.00    -0.246 OA
BRANCH  25  27
ATOM     27  C   UNL A   1      35.976  32.748  31.018  1.00  0.00     0.060 A 
ATOM     28  C   UNL A   1      37.194  33.416  30.878  1.00  0.00     0.016 A 
ATOM     29  C   UNL A   1      35.900  31.402  31.408  1.00  0.00     0.016 A 
ATOM     30  C   UNL A   1      38.345  32.664  30.873  1.00  0.00     0.010 A 
ATOM     31  C   UNL A   1      37.044  30.652  31.377  1.00  0.00     0.010 A 
ATOM     32  C   UNL A   1      38.230  31.277  31.008  1.00  0.00    -0.014 A 
BRANCH  32  33
ATOM     33  C   UNL A   1      39.416  30.466  30.871  1.00  0.00     0.031 A 
ATOM     34  C   UNL A   1      40.064  30.244  32.179  1.00  0.00     0.074 A 
ATOM     35  C   UNL A   1      39.771  29.884  29.710  1.00  0.00     0.049 A 
ATOM     36  N   UNL A   1      41.081  30.876  32.660  1.00  0.00    -0.248 NA
ATOM     37  C   UNL A   1      39.334  29.430  33.169  1.00  0.00     0.031 C 
ATOM     38  C   UNL A   1      39.022  29.807  28.454  1.00  0.00     0.029 A 
ATOM     39  N   UNL A   1      40.870  29.136  29.446  1.00  0.00    -0.354 N 
ATOM     40  C   UNL A   1      41.275  30.322  33.916  1.00  0.00     0.074 A 
ATOM     41  C   UNL A   1      40.030  29.696  34.274  1.00  0.00     0.031 C 
ATOM     42  C   UNL A   1      39.575  28.855  27.662  1.00  0.00     0.029 A 
ATOM     43  C   UNL A   1      40.789  28.364  28.293  1.00  0.00     0.049 A 
ATOM     44  H   UNL A   1      41.664  29.139  30.027  1.00  0.00     0.167 HD
ATOM     45  C   UNL A   1      42.530  30.094  34.394  1.00  0.00     0.031 A 
ATOM     46  C   UNL A   1      41.633  27.355  27.945  1.00  0.00     0.031 A 
ATOM     47  C   UNL A   1      43.522  30.801  33.621  1.00  0.00     0.049 A 
ATOM     48  C   UNL A   1      42.876  27.543  28.742  1.00  0.00     0.074 A 
ATOM     49  C   UNL A   1      43.758  32.126  33.317  1.00  0.00     0.029 A 
ATOM     50  N   UNL A   1      44.203  30.063  32.681  1.00  0.00    -0.354 N 
ATOM     51  N   UNL A   1      43.671  28.567  28.597  1.00  0.00    -0.248 NA
ATOM     52  C   UNL A   1      42.966  26.864  30.027  1.00  0.00     0.031 C 
ATOM     53  C   UNL A   1      44.193  32.123  31.960  1.00  0.00     0.029 A 
ATOM     54  C   UNL A   1      44.281  30.798  31.527  1.00  0.00     0.049 A 
ATOM     55  H   UNL A   1      44.572  29.159  32.814  1.00  0.00     0.167 HD
ATOM     56  C   UNL A   1      44.029  28.928  29.888  1.00  0.00     0.074 A 
ATOM     57  C   UNL A   1      43.630  27.793  30.722  1.00  0.00     0.031 C 
ATOM     58  C   UNL A   1      44.345  30.222  30.198  1.00  0.00     0.031 A 
BRANCH  45  59
ATOM     59  C   UNL A   1      42.876  28.882  35.226  1.00  0.00    -0.014 A 
ATOM     60  C   UNL A   1      43.713  29.052  36.345  1.00  0.00     0.010 A 
ATOM     61  C   UNL A   1      42.637  27.556  34.806  1.00  0.00     0.010 A 
ATOM     62  C   UNL A   1      44.324  27.956  36.966  1.00  0.00     0.020 A 
ATOM     63  C   UNL A   1      43.201  26.455  35.445  1.00  0.00     0.020 A 
ATOM     64  C   UNL A   1      44.067  26.664  36.505  1.00  0.00     0.054 A 
BRANCH  64  65
ATOM     65  S   UNL A   1      44.915  25.261  37.263  1.00  0.00     0.124 S 
ATOM     66  O   UNL A   1      44.476  25.361  38.652  1.00  0.00    -0.237 OA
ATOM     67  O   UNL A   1      44.379  24.135  36.504  1.00  0.00    -0.237 OA
ATOM     68  O   UNL A   1      46.328  25.549  37.028  1.00  0.00    -0.744 OA
ENDBRANCH  64  65
ENDBRANCH  45  59
BRANCH  46  69
ATOM     69  C   UNL A   1      41.295  26.051  27.308  1.00  0.00    -0.014 A 
ATOM     70  C   UNL A   1      42.285  25.261  26.688  1.00  0.00     0.010 A 
ATOM     71  C   UNL A   1      40.053  25.439  27.574  1.00  0.00     0.010 A 
ATOM     72  C   UNL A   1      42.062  23.898  26.407  1.00  0.00     0.020 A 
ATOM     73  C   UNL A   1      39.821  24.086  27.294  1.00  0.00     0.020 A 
ATOM     74  C   UNL A   1      40.835  23.313  26.732  1.00  0.00     0.054 A 
BRANCH  74  75
ATOM     75  S   UNL A   1      40.611  21.517  26.537  1.00  0.00     0.124 S 
ATOM     76  O   UNL A   1      40.670  21.044  27.917  1.00  0.00    -0.237 OA
ATOM     77  O   UNL A   1      39.305  21.426  25.892  1.00  0.00    -0.237 OA
ATOM     78  O   UNL A   1      41.742  21.120  25.698  1.00  0.00    -0.744 OA
ENDBRANCH  74  75
ENDBRANCH  46  69
BRANCH  58  79
ATOM     79  C   UNL A   1      44.605  31.190  29.065  1.00  0.00    -0.014 A 
ATOM     80  C   UNL A   1      45.748  31.174  28.242  1.00  0.00     0.010 A 
ATOM     81  C   UNL A   1      43.554  32.063  28.732  1.00  0.00     0.010 A 
ATOM     82  C   UNL A   1      45.839  32.026  27.127  1.00  0.00     0.020 A 
ATOM     83  C   UNL A   1      43.631  32.898  27.617  1.00  0.00     0.020 A 
ATOM     84  C   UNL A   1      44.777  32.883  26.823  1.00  0.00     0.054 A 
BRANCH  84  85
ATOM     85  S   UNL A   1      44.873  33.960  25.365  1.00  0.00     0.124 S 
ATOM     86  O   UNL A   1      46.299  34.260  25.285  1.00  0.00    -0.237 OA
ATOM     87  O   UNL A   1      44.347  33.109  24.299  1.00  0.00    -0.237 OA
ATOM     88  O   UNL A   1      44.020  35.096  25.714  1.00  0.00    -0.744 OA
ENDBRANCH  84  85
ENDBRANCH  58  79
ENDBRANCH  32  33
ENDBRANCH  25  27
ENDBRANCH  24  25
ENDBRANCH  23  24
ENDBRANCH  22  23
ENDBRANCH   1  22
TORSDOF 20
ENDMDL
MODEL 2
REMARK VINA RESULT:     -10.2      2.895      9.823
REMARK SMILES CC[N@@H+]1CCO[C@@H](Cn2cc(C(=O)OCCOCCOC(=O)c3ccc(-c4c5nc(c(-c6ccc(S(=O)(=O)[O-])cc6)c6ccc([nH]6)c(-c6ccc(S(=O)(=O)[O-])cc6)c6nc(c(-c7ccc(S(=O)(=O)[O-])cc7)c7ccc4[nH]7)C=C6)C=C5)cc3)nn2)C1
REMARK SMILES IDX 17 1 16 2 15 3 14 4 12 5 13 6 11 7 9 8 10 9 84 10 83 11 8 12
REMARK SMILES IDX 7 13 3 14 4 15 85 16 5 18 6 19 2 20 1 21 18 22 19 23 20 24
REMARK SMILES IDX 21 25 22 26 23 27 24 28 82 29 25 30 81 31 26 32 27 33 28 34
REMARK SMILES IDX 75 35 29 36 80 37 74 38 76 39 30 40 79 41 73 42 72 43 31 45
REMARK SMILES IDX 61 46 42 47 60 48 43 49 46 50 59 51 77 52 44 53 45 54 58 56
REMARK SMILES IDX 78 57 47 58 32 59 33 60 41 61 34 62 40 63 35 64 36 65 37 66
REMARK SMILES IDX 38 67 39 68 62 69 63 70 71 71 64 72 70 73 65 74 66 75 67 76
REMARK SMILES IDX 68 77 69 78 48 79 49 80 57 81 50 82 56 83 51 84 52 85 53 86
REMARK SMILES IDX 54 87 55 88
REMARK H PARENT 3 17 76 44 46 55
REMARK Flexibility Score: inf
ROOT
ATOM      1  O   UNL A   1      41.378  19.979  25.654  1.00  0.00    -0.374 OA
ENDROOT
BRANCH   1   2
ATOM      2  C   UNL A   1      41.120  21.272  26.201  1.00  0.00     0.202 C 
BRANCH   2   3
ATOM      3  C   UNL A   1      39.677  21.620  26.569  1.00  0.00     0.261 C 
BRANCH   3   4
ATOM      4  O   UNL A   1      38.985  22.270  25.493  1.00  0.00    -0.458 OA
BRANCH   4   5
ATOM      5  C   UNL A   1      37.845  21.645  25.084  1.00  0.00     0.360 C 
ATOM      6  O   UNL A   1      37.729  20.424  24.959  1.00  0.00    -0.244 OA
BRANCH   5   7
ATOM      7  C   UNL A   1      36.734  22.560  24.911  1.00  0.00     0.190 A 
ATOM      8  N   UNL A   1      34.962  23.620  24.271  1.00  0.00    -0.249 N 
ATOM      9  C   UNL A   1      35.910  22.746  23.815  1.00  0.00     0.147 A 
ATOM     10  N   UNL A   1      35.277  24.090  25.489  1.00  0.00    -0.066 NA
ATOM     11  N   UNL A   1      36.341  23.424  25.906  1.00  0.00    -0.123 NA
BRANCH   8  12
ATOM     12  C   UNL A   1      33.609  23.782  23.785  1.00  0.00     0.184 C 
BRANCH  12  13
ATOM     13  C   UNL A   1      32.699  24.385  24.860  1.00  0.00     0.194 C 
ATOM     14  N   UNL A   1      31.222  26.352  25.481  1.00  0.00    -0.331 N 
ATOM     15  C   UNL A   1      30.202  25.338  25.819  1.00  0.00     0.291 C 
ATOM     16  C   UNL A   1      32.105  25.761  24.442  1.00  0.00     0.296 C 
ATOM     17  H   UNL A   1      30.737  27.184  25.145  1.00  0.00     0.348 HD
ATOM     18  C   UNL A   1      30.787  23.965  26.188  1.00  0.00     0.222 C 
ATOM     19  O   UNL A   1      31.637  23.456  25.147  1.00  0.00    -0.365 OA
BRANCH  14  20
ATOM     20  C   UNL A   1      32.017  26.829  26.625  1.00  0.00     0.258 C 
ATOM     21  C   UNL A   1      32.936  28.001  26.304  1.00  0.00     0.071 C 
ENDBRANCH  14  20
ENDBRANCH  12  13
ENDBRANCH   8  12
ENDBRANCH   5   7
ENDBRANCH   4   5
ENDBRANCH   3   4
ENDBRANCH   2   3
ENDBRANCH   1   2
BRANCH   1  22
ATOM     22  C   UNL A   1      42.288  19.091  26.297  1.00  0.00     0.202 C 
BRANCH  22  23
ATOM     23  C   UNL A   1      43.547  18.666  25.557  1.00  0.00     0.261 C 
BRANCH  23  24
ATOM     24  O   UNL A   1      44.534  19.685  25.547  1.00  0.00    -0.460 OA
BRANCH  24  25
ATOM     25  C   UNL A   1      44.633  20.337  24.367  1.00  0.00     0.338 C 
ATOM     26  O   UNL A   1      44.630  19.845  23.248  1.00  0.00    -0.246 OA
BRANCH  25  27
ATOM     27  C   UNL A   1      44.908  21.747  24.642  1.00  0.00     0.060 A 
ATOM     28  C   UNL A   1      45.844  22.018  25.642  1.00  0.00     0.016 A 
ATOM     29  C   UNL A   1      44.007  22.716  24.175  1.00  0.00     0.016 A 
ATOM     30  C   UNL A   1      45.701  23.183  26.359  1.00  0.00     0.010 A 
ATOM     31  C   UNL A   1      43.851  23.863  24.906  1.00  0.00     0.010 A 
ATOM     32  C   UNL A   1      44.631  24.027  26.046  1.00  0.00    -0.014 A 
BRANCH  32  33
ATOM     33  C   UNL A   1      44.392  25.183  26.876  1.00  0.00     0.031 A 
ATOM     34  C   UNL A   1      45.428  26.213  26.665  1.00  0.00     0.074 A 
ATOM     35  C   UNL A   1      43.281  25.328  27.622  1.00  0.00     0.049 A 
ATOM     36  N   UNL A   1      46.462  26.439  27.403  1.00  0.00    -0.248 NA
ATOM     37  C   UNL A   1      45.471  26.874  25.347  1.00  0.00     0.031 C 
ATOM     38  C   UNL A   1      42.076  24.496  27.648  1.00  0.00     0.029 A 
ATOM     39  N   UNL A   1      42.960  26.340  28.465  1.00  0.00    -0.354 N 
ATOM     40  C   UNL A   1      47.129  27.474  26.765  1.00  0.00     0.074 A 
ATOM     41  C   UNL A   1      46.659  27.473  25.405  1.00  0.00     0.031 C 
ATOM     42  C   UNL A   1      41.079  25.173  28.269  1.00  0.00     0.029 A 
ATOM     43  C   UNL A   1      41.614  26.415  28.803  1.00  0.00     0.049 A 
ATOM     44  H   UNL A   1      43.629  26.975  28.809  1.00  0.00     0.167 HD
ATOM     45  C   UNL A   1      47.718  28.472  27.480  1.00  0.00     0.031 A 
ATOM     46  C   UNL A   1      41.000  27.464  29.415  1.00  0.00     0.031 A 
ATOM     47  C   UNL A   1      47.852  28.114  28.870  1.00  0.00     0.049 A 
ATOM     48  C   UNL A   1      42.072  28.271  30.059  1.00  0.00     0.074 A 
ATOM     49  C   UNL A   1      48.483  27.098  29.559  1.00  0.00     0.029 A 
ATOM     50  N   UNL A   1      46.908  28.632  29.727  1.00  0.00    -0.354 N 
ATOM     51  N   UNL A   1      42.807  27.829  31.043  1.00  0.00    -0.248 NA
ATOM     52  C   UNL A   1      42.655  29.360  29.289  1.00  0.00     0.031 C 
ATOM     53  C   UNL A   1      47.593  26.761  30.620  1.00  0.00     0.029 A 
ATOM     54  C   UNL A   1      46.505  27.638  30.580  1.00  0.00     0.049 A 
ATOM     55  H   UNL A   1      46.578  29.560  29.728  1.00  0.00     0.167 HD
ATOM     56  C   UNL A   1      44.093  28.264  30.753  1.00  0.00     0.074 A 
ATOM     57  C   UNL A   1      43.924  29.270  29.704  1.00  0.00     0.031 C 
ATOM     58  C   UNL A   1      45.187  27.563  31.178  1.00  0.00     0.031 A 
BRANCH  45  59
ATOM     59  C   UNL A   1      47.720  29.910  27.018  1.00  0.00    -0.014 A 
ATOM     60  C   UNL A   1      48.909  30.654  27.143  1.00  0.00     0.010 A 
ATOM     61  C   UNL A   1      46.545  30.634  26.721  1.00  0.00     0.010 A 
ATOM     62  C   UNL A   1      48.905  32.051  27.037  1.00  0.00     0.020 A 
ATOM     63  C   UNL A   1      46.537  32.018  26.566  1.00  0.00     0.020 A 
ATOM     64  C   UNL A   1      47.714  32.722  26.756  1.00  0.00     0.054 A 
BRANCH  64  65
ATOM     65  S   UNL A   1      47.701  34.528  26.694  1.00  0.00     0.124 S 
ATOM     66  O   UNL A   1      46.285  34.824  26.889  1.00  0.00    -0.237 OA
ATOM     67  O   UNL A   1      48.585  34.876  27.803  1.00  0.00    -0.237 OA
ATOM     68  O   UNL A   1      48.229  34.827  25.365  1.00  0.00    -0.744 OA
ENDBRANCH  64  65
ENDBRANCH  45  59
BRANCH  46  69
ATOM     69  C   UNL A   1      39.648  28.026  29.140  1.00  0.00    -0.014 A 
ATOM     70  C   UNL A   1      38.656  28.070  30.142  1.00  0.00     0.010 A 
ATOM     71  C   UNL A   1      39.430  28.797  27.980  1.00  0.00     0.010 A 
ATOM     72  C   UNL A   1      37.526  28.902  30.014  1.00  0.00     0.020 A 
ATOM     73  C   UNL A   1      38.306  29.624  27.844  1.00  0.00     0.020 A 
ATOM     74  C   UNL A   1      37.369  29.691  28.872  1.00  0.00     0.054 A 
BRANCH  74  75
ATOM     75  S   UNL A   1      36.008  30.897  28.788  1.00  0.00     0.124 S 
ATOM     76  O   UNL A   1      36.566  31.938  27.930  1.00  0.00    -0.237 OA
ATOM     77  O   UNL A   1      34.921  30.114  28.208  1.00  0.00    -0.237 OA
ATOM     78  O   UNL A   1      35.809  31.287  30.184  1.00  0.00    -0.744 OA
ENDBRANCH  74  75
ENDBRANCH  46  69
BRANCH  58  79
ATOM     79  C   UNL A   1      44.993  26.491  32.227  1.00  0.00    -0.014 A 
ATOM     80  C   UNL A   1      44.776  25.126  31.949  1.00  0.00     0.010 A 
ATOM     81  C   UNL A   1      45.194  26.877  33.564  1.00  0.00     0.010 A 
ATOM     82  C   UNL A   1      44.743  24.181  32.990  1.00  0.00     0.020 A 
ATOM     83  C   UNL A   1      45.180  25.941  34.599  1.00  0.00     0.020 A 
ATOM     84  C   UNL A   1      44.945  24.597  34.309  1.00  0.00     0.054 A 
BRANCH  84  85
ATOM     85  S   UNL A   1      44.940  23.377  35.654  1.00  0.00     0.124 S 
ATOM     86  O   UNL A   1      44.579  24.186  36.815  1.00  0.00    -0.237 OA
ATOM     87  O   UNL A   1      43.930  22.417  35.216  1.00  0.00    -0.237 OA
ATOM     88  O   UNL A   1      46.309  22.861  35.661  1.00  0.00    -0.744 OA
ENDBRANCH  84  85
ENDBRANCH  58  79
ENDBRANCH  32  33
ENDBRANCH  25  27
ENDBRANCH  24  25
ENDBRANCH  23  24
ENDBRANCH  22  23
ENDBRANCH   1  22
TORSDOF 20
ENDMDL
MODEL 3
REMARK VINA RESULT:      -9.7      1.681      2.791
REMARK SMILES CC[N@@H+]1CCO[C@@H](Cn2cc(C(=O)OCCOCCOC(=O)c3ccc(-c4c5nc(c(-c6ccc(S(=O)(=O)[O-])cc6)c6ccc([nH]6)c(-c6ccc(S(=O)(=O)[O-])cc6)c6nc(c(-c7ccc(S(=O)(=O)[O-])cc7)c7ccc4[nH]7)C=C6)C=C5)cc3)nn2)C1
REMARK SMILES IDX 17 1 16 2 15 3 14 4 12 5 13 6 11 7 9 8 10 9 84 10 83 11 8 12
REMARK SMILES IDX 7 13 3 14 4 15 85 16 5 18 6 19 2 20 1 21 18 22 19 23 20 24
REMARK SMILES IDX 21 25 22 26 23 27 24 28 82 29 25 30 81 31 26 32 27 33 28 34
REMARK SMILES IDX 75 35 29 36 80 37 74 38 76 39 30 40 79 41 73 42 72 43 31 45
REMARK SMILES IDX 61 46 42 47 60 48 43 49 46 50 59 51 77 52 44 53 45 54 58 56
REMARK SMILES IDX 78 57 47 58 32 59 33 60 41 61 34 62 40 63 35 64 36 65 37 66
REMARK SMILES IDX 38 67 39 68 62 69 63 70 71 71 64 72 70 73 65 74 66 75 67 76
REMARK SMILES IDX 68 77 69 78 48 79 49 80 57 81 50 82 56 83 51 84 52 85 53 86
REMARK SMILES IDX 54 87 55 88
REMARK H PARENT 3 17 76 44 46 55
REMARK Flexibility Score: inf
ROOT
ATOM      1  O   UNL A   1      33.146  34.670  30.232  1.00  0.00    -0.374 OA
ENDROOT
BRANCH   1   2
ATOM      2  C   UNL A   1      33.861  34.391  29.029  1.00  0.00     0.202 C 
BRANCH   2   3
ATOM      3  C   UNL A   1      34.447  32.990  28.850  1.00  0.00     0.261 C 
BRANCH   3   4
ATOM      4  O   UNL A   1      33.699  32.205  27.910  1.00  0.00    -0.458 OA
BRANCH   4   5
ATOM      5  C   UNL A   1      34.240  30.988  27.621  1.00  0.00     0.360 C 
ATOM      6  O   UNL A   1      35.364  30.626  27.974  1.00  0.00    -0.244 OA
BRANCH   5   7
ATOM      7  C   UNL A   1      33.310  30.108  26.942  1.00  0.00     0.190 A 
ATOM      8  N   UNL A   1      32.113  28.451  26.240  1.00  0.00    -0.249 N 
ATOM      9  C   UNL A   1      33.282  28.726  26.895  1.00  0.00     0.147 A 
ATOM     10  N   UNL A   1      31.554  29.568  25.748  1.00  0.00    -0.066 NA
ATOM     11  N   UNL A   1      32.258  30.593  26.200  1.00  0.00    -0.123 NA
BRANCH   8  12
ATOM     12  C   UNL A   1      31.311  27.250  26.337  1.00  0.00     0.184 C 
BRANCH  12  13
ATOM     13  C   UNL A   1      31.679  26.244  25.242  1.00  0.00     0.194 C 
ATOM     14  N   UNL A   1      30.781  24.583  23.547  1.00  0.00    -0.331 N 
ATOM     15  C   UNL A   1      31.637  25.285  22.569  1.00  0.00     0.291 C 
ATOM     16  C   UNL A   1      30.431  25.561  24.610  1.00  0.00     0.296 C 
ATOM     17  H   UNL A   1      29.956  24.243  23.052  1.00  0.00     0.348 HD
ATOM     18  C   UNL A   1      32.845  25.998  23.198  1.00  0.00     0.222 C 
ATOM     19  O   UNL A   1      32.439  26.920  24.223  1.00  0.00    -0.365 OA
BRANCH  14  20
ATOM     20  C   UNL A   1      31.381  23.374  24.133  1.00  0.00     0.258 C 
ATOM     21  C   UNL A   1      31.960  22.403  23.112  1.00  0.00     0.071 C 
ENDBRANCH  14  20
ENDBRANCH  12  13
ENDBRANCH   8  12
ENDBRANCH   5   7
ENDBRANCH   4   5
ENDBRANCH   3   4
ENDBRANCH   2   3
ENDBRANCH   1   2
BRANCH   1  22
ATOM     22  C   UNL A   1      33.803  35.286  31.336  1.00  0.00     0.202 C 
BRANCH  22  23
ATOM     23  C   UNL A   1      33.836  34.557  32.671  1.00  0.00     0.261 C 
BRANCH  23  24
ATOM     24  O   UNL A   1      34.169  33.186  32.526  1.00  0.00    -0.460 OA
BRANCH  24  25
ATOM     25  C   UNL A   1      35.313  32.832  33.151  1.00  0.00     0.338 C 
ATOM     26  O   UNL A   1      35.608  33.032  34.322  1.00  0.00    -0.246 OA
BRANCH  25  27
ATOM     27  C   UNL A   1      36.238  32.297  32.154  1.00  0.00     0.060 A 
ATOM     28  C   UNL A   1      36.070  30.955  31.803  1.00  0.00     0.016 A 
ATOM     29  C   UNL A   1      37.418  33.003  31.875  1.00  0.00     0.016 A 
ATOM     30  C   UNL A   1      37.183  30.248  31.411  1.00  0.00     0.010 A 
ATOM     31  C   UNL A   1      38.528  32.292  31.508  1.00  0.00     0.010 A 
ATOM     32  C   UNL A   1      38.414  30.911  31.383  1.00  0.00    -0.014 A 
BRANCH  32  33
ATOM     33  C   UNL A   1      39.607  30.150  31.103  1.00  0.00     0.031 A 
ATOM     34  C   UNL A   1      40.405  29.938  32.327  1.00  0.00     0.074 A 
ATOM     35  C   UNL A   1      39.852  29.595  29.901  1.00  0.00     0.049 A 
ATOM     36  N   UNL A   1      41.444  30.605  32.702  1.00  0.00    -0.248 NA
ATOM     37  C   UNL A   1      39.821  29.085  33.379  1.00  0.00     0.031 C 
ATOM     38  C   UNL A   1      38.971  29.503  28.734  1.00  0.00     0.029 A 
ATOM     39  N   UNL A   1      40.943  28.895  29.504  1.00  0.00    -0.354 N 
ATOM     40  C   UNL A   1      41.798  30.044  33.920  1.00  0.00     0.074 A 
ATOM     41  C   UNL A   1      40.625  29.366  34.403  1.00  0.00     0.031 C 
ATOM     42  C   UNL A   1      39.469  28.584  27.870  1.00  0.00     0.029 A 
ATOM     43  C   UNL A   1      40.763  28.133  28.355  1.00  0.00     0.049 A 
ATOM     44  H   UNL A   1      41.796  28.922  29.993  1.00  0.00     0.167 HD
ATOM     45  C   UNL A   1      43.106  29.861  34.252  1.00  0.00     0.031 A 
ATOM     46  C   UNL A   1      41.601  27.163  27.900  1.00  0.00     0.031 A 
ATOM     47  C   UNL A   1      43.978  30.615  33.385  1.00  0.00     0.049 A 
ATOM     48  C   UNL A   1      42.917  27.391  28.556  1.00  0.00     0.074 A 
ATOM     49  C   UNL A   1      44.128  31.952  33.078  1.00  0.00     0.029 A 
ATOM     50  N   UNL A   1      44.578  29.915  32.363  1.00  0.00    -0.354 N 
ATOM     51  N   UNL A   1      43.651  28.448  28.340  1.00  0.00    -0.248 NA
ATOM     52  C   UNL A   1      43.175  26.701  29.812  1.00  0.00     0.031 C 
ATOM     53  C   UNL A   1      44.409  31.982  31.681  1.00  0.00     0.029 A 
ATOM     54  C   UNL A   1      44.498  30.666  31.220  1.00  0.00     0.049 A 
ATOM     55  H   UNL A   1      44.993  29.025  32.440  1.00  0.00     0.167 HD
ATOM     56  C   UNL A   1      44.137  28.807  29.590  1.00  0.00     0.074 A 
ATOM     57  C   UNL A   1      43.877  27.648  30.444  1.00  0.00     0.031 C 
ATOM     58  C   UNL A   1      44.436  30.109  29.883  1.00  0.00     0.031 A 
BRANCH  45  59
ATOM     59  C   UNL A   1      43.588  28.654  35.021  1.00  0.00    -0.014 A 
ATOM     60  C   UNL A   1      44.521  28.847  36.058  1.00  0.00     0.010 A 
ATOM     61  C   UNL A   1      43.373  27.324  34.598  1.00  0.00     0.010 A 
ATOM     62  C   UNL A   1      45.241  27.772  36.594  1.00  0.00     0.020 A 
ATOM     63  C   UNL A   1      44.049  26.242  35.156  1.00  0.00     0.020 A 
ATOM     64  C   UNL A   1      45.003  26.476  36.132  1.00  0.00     0.054 A 
BRANCH  64  65
ATOM     65  S   UNL A   1      45.986  25.105  36.776  1.00  0.00     0.124 S 
ATOM     66  O   UNL A   1      46.899  25.792  37.684  1.00  0.00    -0.237 OA
ATOM     67  O   UNL A   1      44.967  24.269  37.406  1.00  0.00    -0.237 OA
ATOM     68  O   UNL A   1      46.601  24.535  35.579  1.00  0.00    -0.744 OA
ENDBRANCH  64  65
ENDBRANCH  45  59
BRANCH  46  69
ATOM     69  C   UNL A   1      41.243  25.854  27.283  1.00  0.00    -0.014 A 
ATOM     70  C   UNL A   1      42.187  25.113  26.542  1.00  0.00     0.010 A 
ATOM     71  C   UNL A   1      40.065  25.190  27.678  1.00  0.00     0.010 A 
ATOM     72  C   UNL A   1      41.986  23.745  26.265  1.00  0.00     0.020 A 
ATOM     73  C   UNL A   1      39.856  23.831  27.403  1.00  0.00     0.020 A 
ATOM     74  C   UNL A   1      40.828  23.108  26.718  1.00  0.00     0.054 A 
BRANCH  74  75
ATOM     75  S   UNL A   1      40.654  21.306  26.519  1.00  0.00     0.124 S 
ATOM     76  O   UNL A   1      40.716  20.833  27.899  1.00  0.00    -0.237 OA
ATOM     77  O   UNL A   1      39.355  21.180  25.865  1.00  0.00    -0.237 OA
ATOM     78  O   UNL A   1      41.800  20.940  25.688  1.00  0.00    -0.744 OA
ENDBRANCH  74  75
ENDBRANCH  46  69
BRANCH  58  79
ATOM     79  C   UNL A   1      44.531  31.100  28.744  1.00  0.00    -0.014 A 
ATOM     80  C   UNL A   1      45.295  30.909  27.576  1.00  0.00     0.010 A 
ATOM     81  C   UNL A   1      43.674  32.213  28.807  1.00  0.00     0.010 A 
ATOM     82  C   UNL A   1      45.214  31.823  26.510  1.00  0.00     0.020 A 
ATOM     83  C   UNL A   1      43.575  33.113  27.746  1.00  0.00     0.020 A 
ATOM     84  C   UNL A   1      44.353  32.920  26.605  1.00  0.00     0.054 A 
BRANCH  84  85
ATOM     85  S   UNL A   1      44.216  34.084  25.218  1.00  0.00     0.124 S 
ATOM     86  O   UNL A   1      42.900  34.680  25.433  1.00  0.00    -0.237 OA
ATOM     87  O   UNL A   1      45.354  34.977  25.431  1.00  0.00    -0.237 OA
ATOM     88  O   UNL A   1      44.323  33.231  24.035  1.00  0.00    -0.744 OA
ENDBRANCH  84  85
ENDBRANCH  58  79
ENDBRANCH  32  33
ENDBRANCH  25  27
ENDBRANCH  24  25
ENDBRANCH  23  24
ENDBRANCH  22  23
ENDBRANCH   1  22
TORSDOF 20
ENDMDL
